# generated using pymatgen
data_ZnH8C12N2O5
_symmetry_space_group_name_H-M   'P 1'
_cell_length_a   5.74781000
_cell_length_b   12.54140000
_cell_length_c   16.80530000
_cell_angle_alpha   76.74600000
_cell_angle_beta   89.99940000
_cell_angle_gamma   89.99970000
_symmetry_Int_Tables_number   1
_chemical_formula_structural   ZnH8C12N2O5
_chemical_formula_sum   'Zn4 H32 C48 N8 O20'
_cell_volume   1179.15158802
_cell_formula_units_Z   4
loop_
 _symmetry_equiv_pos_site_id
 _symmetry_equiv_pos_as_xyz
  1  'x, y, z'
loop_
 _atom_site_type_symbol
 _atom_site_label
 _atom_site_symmetry_multiplicity
 _atom_site_fract_x
 _atom_site_fract_y
 _atom_site_fract_z
 _atom_site_occupancy
  Zn  Zn0  1  0.03103000  0.43715000  0.11376000  1.0
  Zn  Zn1  1  0.53103000  0.56285000  0.38625000  1.0
  Zn  Zn2  1  0.96899000  0.56285000  0.88624000  1.0
  Zn  Zn3  1  0.46898000  0.43714000  0.61377000  1.0
  H  H4  1  0.03807000  0.09147000  0.30848000  1.0
  H  H5  1  0.53806000  0.90853000  0.19151000  1.0
  H  H6  1  0.96191000  0.90851000  0.69151000  1.0
  H  H7  1  0.46189000  0.09148000  0.80849000  1.0
  H  H8  1  0.72640000  0.23208000  0.30638000  1.0
  H  H9  1  0.22638000  0.76792000  0.19362000  1.0
  H  H10  1  0.27358000  0.76792000  0.69362000  1.0
  H  H11  1  0.77362000  0.23209000  0.80638000  1.0
  H  H12  1  0.08163000  0.01159000  0.18522000  1.0
  H  H13  1  0.58164000  0.98840000  0.31475000  1.0
  H  H14  1  0.91833000  0.98841000  0.81475000  1.0
  H  H15  1  0.41837000  0.01160000  0.68524000  1.0
  H  H16  1  0.06727000  0.07481000  0.97224000  1.0
  H  H17  1  0.56724000  0.92519000  0.52775000  1.0
  H  H18  1  0.93271000  0.92521000  0.02776000  1.0
  H  H19  1  0.43275000  0.07480000  0.47224000  1.0
  H  H20  1  0.12257000  0.23324000  0.85241000  1.0
  H  H21  1  0.62259000  0.76676000  0.64758000  1.0
  H  H22  1  0.87743000  0.76676000  0.14757000  1.0
  H  H23  1  0.37743000  0.23324000  0.35242000  1.0
  H  H24  1  0.43964000  0.36811000  0.85800000  1.0
  H  H25  1  0.93968000  0.63191000  0.64200000  1.0
  H  H26  1  0.56036000  0.63188000  0.14198000  1.0
  H  H27  1  0.06035000  0.36811000  0.35802000  1.0
  H  H28  1  0.71512000  0.41571000  0.22687000  1.0
  H  H29  1  0.21512000  0.58429000  0.27314000  1.0
  H  H30  1  0.28487000  0.58429000  0.77313000  1.0
  H  H31  1  0.78488000  0.41571000  0.72687000  1.0
  H  H32  1  0.87950000  0.51664000  0.23754000  1.0
  H  H33  1  0.37950000  0.48336000  0.26247000  1.0
  H  H34  1  0.12049000  0.48336000  0.76246000  1.0
  H  H35  1  0.62050000  0.51664000  0.73754000  1.0
  C  C36  1  0.42035000  0.30869000  0.18350000  1.0
  C  C37  1  0.92032000  0.69130000  0.31651000  1.0
  C  C38  1  0.57967000  0.69130000  0.81651000  1.0
  C  C39  1  0.07967000  0.30870000  0.68350000  1.0
  C  C40  1  0.63604000  0.16998000  0.12216000  1.0
  C  C41  1  0.13607000  0.83002000  0.37784000  1.0
  C  C42  1  0.36392000  0.83004000  0.87783000  1.0
  C  C43  1  0.86395000  0.16997000  0.62217000  1.0
  C  C44  1  0.59819000  0.22068000  0.18764000  1.0
  C  C45  1  0.09817000  0.77932000  0.31235000  1.0
  C  C46  1  0.40181000  0.77932000  0.81235000  1.0
  C  C47  1  0.90182000  0.22068000  0.68765000  1.0
  C  C48  1  0.49452000  0.19580000  0.04533000  1.0
  C  C49  1  0.99455000  0.80421000  0.45467000  1.0
  C  C50  1  0.50545000  0.80422000  0.95465000  1.0
  C  C51  1  0.00547000  0.19578000  0.54534000  1.0
  C  C52  1  0.92171000  0.11572000  0.25630000  1.0
  C  C53  1  0.42170000  0.88428000  0.24369000  1.0
  C  C54  1  0.07828000  0.88428000  0.74369000  1.0
  C  C55  1  0.57829000  0.11572000  0.75631000  1.0
  C  C56  1  0.74683000  0.19262000  0.25535000  1.0
  C  C57  1  0.24683000  0.80737000  0.24464000  1.0
  C  C58  1  0.25316000  0.80737000  0.74464000  1.0
  C  C59  1  0.75316000  0.19263000  0.75536000  1.0
  C  C60  1  0.94390000  0.07014000  0.18839000  1.0
  C  C61  1  0.44392000  0.92985000  0.31161000  1.0
  C  C62  1  0.05607000  0.92986000  0.81160000  1.0
  C  C63  1  0.55609000  0.07015000  0.68840000  1.0
  C  C64  1  0.20219000  0.13572000  0.97301000  1.0
  C  C65  1  0.70219000  0.86428000  0.52699000  1.0
  C  C66  1  0.79781000  0.86429000  0.02698000  1.0
  C  C67  1  0.29782000  0.13571000  0.47301000  1.0
  C  C68  1  0.23239000  0.22377000  0.90615000  1.0
  C  C69  1  0.73240000  0.77624000  0.59386000  1.0
  C  C70  1  0.76761000  0.77623000  0.09384000  1.0
  C  C71  1  0.26761000  0.22376000  0.40615000  1.0
  C  C72  1  0.40610000  0.29957000  0.90959000  1.0
  C  C73  1  0.90613000  0.70045000  0.59042000  1.0
  C  C74  1  0.59390000  0.70043000  0.09040000  1.0
  C  C75  1  0.09388000  0.29956000  0.40959000  1.0
  C  C76  1  0.53962000  0.28775000  0.98084000  1.0
  C  C77  1  0.03963000  0.71227000  0.51917000  1.0
  C  C78  1  0.46039000  0.71227000  0.01915000  1.0
  C  C79  1  0.96039000  0.28772000  0.48084000  1.0
  C  C80  1  0.71925000  0.37270000  0.98443000  1.0
  C  C81  1  0.21928000  0.62732000  0.51558000  1.0
  C  C82  1  0.28076000  0.62733000  0.01556000  1.0
  C  C83  1  0.78076000  0.37267000  0.48444000  1.0
  N  N84  1  0.80443000  0.09602000  0.12272000  1.0
  N  N85  1  0.30446000  0.90398000  0.37727000  1.0
  N  N86  1  0.19554000  0.90400000  0.87727000  1.0
  N  N87  1  0.69557000  0.09601000  0.62273000  1.0
  N  N88  1  0.33305000  0.12044000  0.04070000  1.0
  N  N89  1  0.83307000  0.87956000  0.45930000  1.0
  N  N90  1  0.66693000  0.87956000  0.95930000  1.0
  N  N91  1  0.16694000  0.12043000  0.54070000  1.0
  O  O92  1  0.24881000  0.31278000  0.13444000  1.0
  O  O93  1  0.74880000  0.68723000  0.36557000  1.0
  O  O94  1  0.75121000  0.68724000  0.86556000  1.0
  O  O95  1  0.25120000  0.31277000  0.63444000  1.0
  O  O96  1  0.87687000  0.44737000  0.21785000  1.0
  O  O97  1  0.37687000  0.55263000  0.28216000  1.0
  O  O98  1  0.12311000  0.55263000  0.78214000  1.0
  O  O99  1  0.62311000  0.44736000  0.71786000  1.0
  O  O100  1  0.45192000  0.37548000  0.22928000  1.0
  O  O101  1  0.95190000  0.62451000  0.27073000  1.0
  O  O102  1  0.54808000  0.62452000  0.77072000  1.0
  O  O103  1  0.04810000  0.37548000  0.72928000  1.0
  O  O104  1  0.76849000  0.39232000  0.05369000  1.0
  O  O105  1  0.26852000  0.60769000  0.44632000  1.0
  O  O106  1  0.23152000  0.60770000  0.94630000  1.0
  O  O107  1  0.73152000  0.39229000  0.55371000  1.0
  O  O108  1  0.80647000  0.42262000  0.91610000  1.0
  O  O109  1  0.30651000  0.57738000  0.58391000  1.0
  O  O110  1  0.19353000  0.57738000  0.08388000  1.0
  O  O111  1  0.69354000  0.42262000  0.41612000  1.0
