# generated using pymatgen
data_ZnH40C52(N5O2)2
_symmetry_space_group_name_H-M   'P 1'
_cell_length_a   12.79600000
_cell_length_b   13.76050000
_cell_length_c   14.98960000
_cell_angle_alpha   87.88010000
_cell_angle_beta   84.21370000
_cell_angle_gamma   63.37780000
_symmetry_Int_Tables_number   1
_chemical_formula_structural   ZnH40C52(N5O2)2
_chemical_formula_sum   'Zn2 H80 C104 N20 O8'
_cell_volume   2347.41443684
_cell_formula_units_Z   2
loop_
 _symmetry_equiv_pos_site_id
 _symmetry_equiv_pos_as_xyz
  1  'x, y, z'
loop_
 _atom_site_type_symbol
 _atom_site_label
 _atom_site_symmetry_multiplicity
 _atom_site_fract_x
 _atom_site_fract_y
 _atom_site_fract_z
 _atom_site_occupancy
  Zn  Zn0  1  0.27882000  0.94429000  0.73981000  1.0
  Zn  Zn1  1  0.72118000  0.05571000  0.26019000  1.0
  H  H2  1  0.26319000  0.30226000  0.86808000  1.0
  H  H3  1  0.73681000  0.69774000  0.13192000  1.0
  H  H4  1  0.31275000  0.15089000  0.75933000  1.0
  H  H5  1  0.68726000  0.84912000  0.24067000  1.0
  H  H6  1  0.16213000  0.00093000  0.93459000  1.0
  H  H7  1  0.83788000  0.99907000  0.06540000  1.0
  H  H8  1  0.11035000  0.14153000  0.05259000  1.0
  H  H9  1  0.88965000  0.85847000  0.94741000  1.0
  H  H10  1  0.04894000  0.35654000  0.05760000  1.0
  H  H11  1  0.95106000  0.64345000  0.94240000  1.0
  H  H12  1  0.19105000  0.29779000  0.09630000  1.0
  H  H13  1  0.80895000  0.70221000  0.90370000  1.0
  H  H14  1  0.06840000  0.45926000  0.16584000  1.0
  H  H15  1  0.93160000  0.54074000  0.83416000  1.0
  H  H16  1  0.02852000  0.62787000  0.24435000  1.0
  H  H17  1  0.97148000  0.37213000  0.75566000  1.0
  H  H18  1  0.07297000  0.77066000  0.16391000  1.0
  H  H19  1  0.92704000  0.22933000  0.83609000  1.0
  H  H20  1  0.15341000  0.74162000  0.00497000  1.0
  H  H21  1  0.84659000  0.25838000  0.99503000  1.0
  H  H22  1  0.06394000  0.70822000  0.85624000  1.0
  H  H23  1  0.93605000  0.29177000  0.14377000  1.0
  H  H24  1  0.14216000  0.68957000  0.69633000  1.0
  H  H25  1  0.85783000  0.31042000  0.30367000  1.0
  H  H26  1  0.33418000  0.53354000  0.64716000  1.0
  H  H27  1  0.66582000  0.46646000  0.35284000  1.0
  H  H28  1  0.44855000  0.40025000  0.75834000  1.0
  H  H29  1  0.55144000  0.59976000  0.24166000  1.0
  H  H30  1  0.55598000  0.37106000  0.88373000  1.0
  H  H31  1  0.44402000  0.62894000  0.11627000  1.0
  H  H32  1  0.49970000  0.27725000  0.86301000  1.0
  H  H33  1  0.50029000  0.72275000  0.13699000  1.0
  H  H34  1  0.63508000  0.37027000  0.02612000  1.0
  H  H35  1  0.36491000  0.62973000  0.97388000  1.0
  H  H36  1  0.70681000  0.26917000  0.16728000  1.0
  H  H37  1  0.29319000  0.73083000  0.83272000  1.0
  H  H38  1  0.53204000  0.08303000  0.14194000  1.0
  H  H39  1  0.46796000  0.91697000  0.85806000  1.0
  H  H40  1  0.45781000  0.17207000  0.99681000  1.0
  H  H41  1  0.54219000  0.82792000  0.00319000  1.0
  H  H42  1  0.93295000  0.30121000  0.63630000  1.0
  H  H43  1  0.06704000  0.69879000  0.36370000  1.0
  H  H44  1  0.04326000  0.14460000  0.73593000  1.0
  H  H45  1  0.95673000  0.85540000  0.26407000  1.0
  H  H46  1  0.31601000  0.00068000  0.53748000  1.0
  H  H47  1  0.68399000  0.99933000  0.46252000  1.0
  H  H48  1  0.21501000  0.14498000  0.42834000  1.0
  H  H49  1  0.78498000  0.85502000  0.57166000  1.0
  H  H50  1  0.07645000  0.35581000  0.43347000  1.0
  H  H51  1  0.92355000  0.64419000  0.56653000  1.0
  H  H52  1  0.97822000  0.30525000  0.40675000  1.0
  H  H53  1  0.02178000  0.69476000  0.59325000  1.0
  H  H54  1  0.95833000  0.46141000  0.33787000  1.0
  H  H55  1  0.04167000  0.53859000  0.66213000  1.0
  H  H56  1  0.83893000  0.63171000  0.26262000  1.0
  H  H57  1  0.16107000  0.36829000  0.73738000  1.0
  H  H58  1  0.66712000  0.78172000  0.34902000  1.0
  H  H59  1  0.33288000  0.21828000  0.65098000  1.0
  H  H60  1  0.62079000  0.75789000  0.50917000  1.0
  H  H61  1  0.37921000  0.24212000  0.49083000  1.0
  H  H62  1  0.74858000  0.72015000  0.65621000  1.0
  H  H63  1  0.25142000  0.27985000  0.34379000  1.0
  H  H64  1  0.67957000  0.71049000  0.81371000  1.0
  H  H65  1  0.32043000  0.28951000  0.18629000  1.0
  H  H66  1  0.61846000  0.56625000  0.86232000  1.0
  H  H67  1  0.38154000  0.43375000  0.13768000  1.0
  H  H68  1  0.61830000  0.43873000  0.75030000  1.0
  H  H69  1  0.38170000  0.56126000  0.24970000  1.0
  H  H70  1  0.54463000  0.40885000  0.61880000  1.0
  H  H71  1  0.45537000  0.59116000  0.38120000  1.0
  H  H72  1  0.68431000  0.31104000  0.64947000  1.0
  H  H73  1  0.31569000  0.68896000  0.35053000  1.0
  H  H74  1  0.84554000  0.20743000  0.51889000  1.0
  H  H75  1  0.15446000  0.79257000  0.48111000  1.0
  H  H76  1  0.87179000  0.10068000  0.37957000  1.0
  H  H77  1  0.12820000  0.89932000  0.62043000  1.0
  H  H78  1  0.51776000  0.26327000  0.34454000  1.0
  H  H79  1  0.48224000  0.73673000  0.65546000  1.0
  H  H80  1  0.47662000  0.37892000  0.48161000  1.0
  H  H81  1  0.52337000  0.62109000  0.51839000  1.0
  C  C82  1  0.03078000  0.92788000  0.79547000  1.0
  C  C83  1  0.96924000  0.07211000  0.20454000  1.0
  C  C84  1  0.90182000  0.86039000  0.76326000  1.0
  C  C85  1  0.09819000  0.13960000  0.23673000  1.0
  C  C86  1  0.49573000  0.99626000  0.66513000  1.0
  C  C87  1  0.50427000  0.00374000  0.33486000  1.0
  C  C88  1  0.57175000  0.11783000  0.67420000  1.0
  C  C89  1  0.42825000  0.88217000  0.32578000  1.0
  C  C90  1  0.24043000  0.23633000  0.88592000  1.0
  C  C91  1  0.75957000  0.76367000  0.11407000  1.0
  C  C92  1  0.26714000  0.15287000  0.82503000  1.0
  C  C93  1  0.73286000  0.84714000  0.17497000  1.0
  C  C94  1  0.18389000  0.06878000  0.92315000  1.0
  C  C95  1  0.81611000  0.93122000  0.07685000  1.0
  C  C96  1  0.15459000  0.14829000  0.98828000  1.0
  C  C97  1  0.84541000  0.85171000  0.01171000  1.0
  C  C98  1  0.18097000  0.23567000  0.96925000  1.0
  C  C99  1  0.81903000  0.76433000  0.03075000  1.0
  C  C100  1  0.14322000  0.32665000  0.03586000  1.0
  C  C101  1  0.85678000  0.67335000  0.96414000  1.0
  C  C102  1  0.13853000  0.50268000  0.04162000  1.0
  C  C103  1  0.86147000  0.49732000  0.95838000  1.0
  C  C104  1  0.08822000  0.52038000  0.13039000  1.0
  C  C105  1  0.91177000  0.47962000  0.86961000  1.0
  C  C106  1  0.06543000  0.61635000  0.17463000  1.0
  C  C107  1  0.93456000  0.38365000  0.82537000  1.0
  C  C108  1  0.08976000  0.69564000  0.13022000  1.0
  C  C109  1  0.91025000  0.30436000  0.86978000  1.0
  C  C110  1  0.13614000  0.67903000  0.04066000  1.0
  C  C111  1  0.86386000  0.32097000  0.95935000  1.0
  C  C112  1  0.16289000  0.58262000  0.99493000  1.0
  C  C113  1  0.83711000  0.41738000  0.00508000  1.0
  C  C114  1  0.21133000  0.56778000  0.89950000  1.0
  C  C115  1  0.78867000  0.43222000  0.10050000  1.0
  C  C116  1  0.14918000  0.64155000  0.83493000  1.0
  C  C117  1  0.85082000  0.35845000  0.16507000  1.0
  C  C118  1  0.19321000  0.63121000  0.74490000  1.0
  C  C119  1  0.80679000  0.36879000  0.25510000  1.0
  C  C120  1  0.30097000  0.54439000  0.71783000  1.0
  C  C121  1  0.69902000  0.45561000  0.28217000  1.0
  C  C122  1  0.36583000  0.46947000  0.78047000  1.0
  C  C123  1  0.63416000  0.53053000  0.21953000  1.0
  C  C124  1  0.32226000  0.48229000  0.87097000  1.0
  C  C125  1  0.67775000  0.51771000  0.12903000  1.0
  C  C126  1  0.50013000  0.33373000  0.91308000  1.0
  C  C127  1  0.49987000  0.66626000  0.08692000  1.0
  C  C128  1  0.54369000  0.27667000  0.99865000  1.0
  C  C129  1  0.45631000  0.72333000  0.00135000  1.0
  C  C130  1  0.61168000  0.30581000  0.04870000  1.0
  C  C131  1  0.38832000  0.69419000  0.95130000  1.0
  C  C132  1  0.65100000  0.25056000  0.12766000  1.0
  C  C133  1  0.34901000  0.74944000  0.87234000  1.0
  C  C134  1  0.55400000  0.14605000  0.11262000  1.0
  C  C135  1  0.44601000  0.85394000  0.88738000  1.0
  C  C136  1  0.51293000  0.19594000  0.03256000  1.0
  C  C137  1  0.48708000  0.80405000  0.96744000  1.0
  C  C138  1  0.01692000  0.23521000  0.61184000  1.0
  C  C139  1  0.98308000  0.76479000  0.38816000  1.0
  C  C140  1  0.07825000  0.14938000  0.66749000  1.0
  C  C141  1  0.92175000  0.85062000  0.33251000  1.0
  C  C142  1  0.23020000  0.06785000  0.55691000  1.0
  C  C143  1  0.76980000  0.93216000  0.44309000  1.0
  C  C144  1  0.17415000  0.14938000  0.49645000  1.0
  C  C145  1  0.82584000  0.85062000  0.50355000  1.0
  C  C146  1  0.06659000  0.23717000  0.52478000  1.0
  C  C147  1  0.93340000  0.76283000  0.47522000  1.0
  C  C148  1  0.01014000  0.33057000  0.46304000  1.0
  C  C149  1  0.98986000  0.66943000  0.53696000  1.0
  C  C150  1  0.85488000  0.51114000  0.46624000  1.0
  C  C151  1  0.14512000  0.48886000  0.53375000  1.0
  C  C152  1  0.88424000  0.52569000  0.37596000  1.0
  C  C153  1  0.11576000  0.47431000  0.62404000  1.0
  C  C154  1  0.81662000  0.62277000  0.33352000  1.0
  C  C155  1  0.18338000  0.37723000  0.66648000  1.0
  C  C156  1  0.72165000  0.70604000  0.38094000  1.0
  C  C157  1  0.27835000  0.29396000  0.61906000  1.0
  C  C158  1  0.69472000  0.69248000  0.47154000  1.0
  C  C159  1  0.30528000  0.30752000  0.52846000  1.0
  C  C160  1  0.75912000  0.59546000  0.51573000  1.0
  C  C161  1  0.24088000  0.40454000  0.48427000  1.0
  C  C162  1  0.72474000  0.58465000  0.61161000  1.0
  C  C163  1  0.27525000  0.41535000  0.38839000  1.0
  C  C164  1  0.72021000  0.65801000  0.67588000  1.0
  C  C165  1  0.27979000  0.34199000  0.32412000  1.0
  C  C166  1  0.68141000  0.65246000  0.76547000  1.0
  C  C167  1  0.31859000  0.34754000  0.23452000  1.0
  C  C168  1  0.64631000  0.57270000  0.79214000  1.0
  C  C169  1  0.35369000  0.42730000  0.20786000  1.0
  C  C170  1  0.64802000  0.49944000  0.72926000  1.0
  C  C171  1  0.35198000  0.50056000  0.27074000  1.0
  C  C172  1  0.68642000  0.50575000  0.63948000  1.0
  C  C173  1  0.31358000  0.49425000  0.36052000  1.0
  C  C174  1  0.63866000  0.36536000  0.59558000  1.0
  C  C175  1  0.36134000  0.63464000  0.40442000  1.0
  C  C176  1  0.65778000  0.30085000  0.51195000  1.0
  C  C177  1  0.34222000  0.69915000  0.48805000  1.0
  C  C178  1  0.77066000  0.22276000  0.48186000  1.0
  C  C179  1  0.22934000  0.77724000  0.51814000  1.0
  C  C180  1  0.78578000  0.16346000  0.40479000  1.0
  C  C181  1  0.21422000  0.83654000  0.59521000  1.0
  C  C182  1  0.58788000  0.25443000  0.38483000  1.0
  C  C183  1  0.41212000  0.74557000  0.61517000  1.0
  C  C184  1  0.56561000  0.31798000  0.46124000  1.0
  C  C185  1  0.43439000  0.68202000  0.53876000  1.0
  N  N186  1  0.11767000  0.93875000  0.79368000  1.0
  N  N187  1  0.88234000  0.06124000  0.20633000  1.0
  N  N188  1  0.93144000  0.92449000  0.80533000  1.0
  N  N189  1  0.06858000  0.07551000  0.19468000  1.0
  N  N190  1  0.86662000  0.80488000  0.73124000  1.0
  N  N191  1  0.13340000  0.19512000  0.26875000  1.0
  N  N192  1  0.43840000  0.95041000  0.68828000  1.0
  N  N193  1  0.56160000  0.04959000  0.31173000  1.0
  N  N194  1  0.56128000  0.04053000  0.63325000  1.0
  N  N195  1  0.43871000  0.95947000  0.36673000  1.0
  N  N196  1  0.58513000  0.18852000  0.70545000  1.0
  N  N197  1  0.41487000  0.81148000  0.29454000  1.0
  N  N198  1  0.23829000  0.07113000  0.84196000  1.0
  N  N199  1  0.76171000  0.92887000  0.15804000  1.0
  N  N200  1  0.18408000  0.06811000  0.64186000  1.0
  N  N201  1  0.81592000  0.93189000  0.35814000  1.0
  N  N202  1  0.69588000  0.17765000  0.35767000  1.0
  N  N203  1  0.30412000  0.82235000  0.64233000  1.0
  N  N204  1  0.62412000  0.17088000  0.15840000  1.0
  N  N205  1  0.37589000  0.82912000  0.84160000  1.0
  O  O206  1  0.68519000  0.44147000  0.57233000  1.0
  O  O207  1  0.31481000  0.55853000  0.42767000  1.0
  O  O208  1  0.91636000  0.41828000  0.51233000  1.0
  O  O209  1  0.08364000  0.58172000  0.48767000  1.0
  O  O210  1  0.16448000  0.41114000  0.99338000  1.0
  O  O211  1  0.83552000  0.58886000  0.00662000  1.0
  O  O212  1  0.38318000  0.41711000  0.93768000  1.0
  O  O213  1  0.61682000  0.58288000  0.06232000  1.0
