# generated using pymatgen
data_MnH6C8(NO)4
_symmetry_space_group_name_H-M   'P 1'
_cell_length_a   7.48834000
_cell_length_b   7.70776000
_cell_length_c   9.10929000
_cell_angle_alpha   108.44100000
_cell_angle_beta   93.46610000
_cell_angle_gamma   106.06900000
_symmetry_Int_Tables_number   1
_chemical_formula_structural   MnH6C8(NO)4
_chemical_formula_sum   'Mn2 H12 C16 N8 O8'
_cell_volume   472.92657612
_cell_formula_units_Z   2
loop_
 _symmetry_equiv_pos_site_id
 _symmetry_equiv_pos_as_xyz
  1  'x, y, z'
loop_
 _atom_site_type_symbol
 _atom_site_label
 _atom_site_symmetry_multiplicity
 _atom_site_fract_x
 _atom_site_fract_y
 _atom_site_fract_z
 _atom_site_occupancy
  Mn  Mn0  1  0.50000000  0.00000000  0.50000000  1.0
  Mn  Mn1  1  0.50000000  0.50000000  0.50000000  1.0
  H  H2  1  0.89557000  0.17117000  0.15425000  1.0
  H  H3  1  0.10442000  0.82883000  0.84575000  1.0
  H  H4  1  0.05907000  0.37134000  0.30627000  1.0
  H  H5  1  0.94093000  0.62866000  0.69373000  1.0
  H  H6  1  0.74496000  0.21357000  0.96424000  1.0
  H  H7  1  0.25505000  0.78643000  0.03576000  1.0
  H  H8  1  0.99253000  0.67833000  0.37718000  1.0
  H  H9  1  0.00747000  0.32167000  0.62282000  1.0
  H  H10  1  0.88392000  0.90220000  0.27221000  1.0
  H  H11  1  0.11607000  0.09780000  0.72779000  1.0
  H  H12  1  0.71342000  0.77432000  0.99407000  1.0
  H  H13  1  0.28658000  0.22568000  0.00593000  1.0
  C  C14  1  0.78854000  0.28347000  0.37293000  1.0
  C  C15  1  0.21146000  0.71654000  0.62707000  1.0
  C  C16  1  0.91204000  0.30837000  0.24669000  1.0
  C  C17  1  0.08795000  0.69163000  0.75331000  1.0
  C  C18  1  0.77141000  0.36691000  0.02673000  1.0
  C  C19  1  0.22859000  0.63309000  0.97327000  1.0
  C  C20  1  0.91105000  0.63012000  0.26118000  1.0
  C  C21  1  0.08894000  0.36988000  0.73882000  1.0
  C  C22  1  0.85415000  0.75219000  0.19949000  1.0
  C  C23  1  0.14585000  0.24781000  0.80051000  1.0
  C  C24  1  0.75571000  0.68027000  0.04704000  1.0
  C  C25  1  0.24429000  0.31973000  0.95295000  1.0
  C  C26  1  0.71671000  0.48529000  0.95817000  1.0
  C  C27  1  0.28329000  0.51471000  0.04183000  1.0
  C  C28  1  0.61949000  0.39956000  0.78950000  1.0
  C  C29  1  0.38052000  0.60044000  0.21050000  1.0
  N  N30  1  0.86702000  0.44012000  0.17490000  1.0
  N  N31  1  0.13298000  0.55988000  0.82511000  1.0
  N  N32  1  0.35171000  0.17809000  0.41452000  1.0
  N  N33  1  0.64829000  0.82190000  0.58547000  1.0
  N  N34  1  0.27458000  0.10836000  0.27974000  1.0
  N  N35  1  0.72542000  0.89164000  0.72027000  1.0
  N  N36  1  0.19897000  0.04150000  0.14925000  1.0
  N  N37  1  0.80103000  0.95849000  0.85074000  1.0
  O  O38  1  0.74143000  0.11955000  0.38661000  1.0
  O  O39  1  0.25856000  0.88045000  0.61339000  1.0
  O  O40  1  0.75372000  0.43333000  0.45579000  1.0
  O  O41  1  0.24628000  0.56667000  0.54421000  1.0
  O  O42  1  0.61396000  0.22752000  0.71659000  1.0
  O  O43  1  0.38604000  0.77247000  0.28341000  1.0
  O  O44  1  0.55529000  0.50767000  0.73627000  1.0
  O  O45  1  0.44472000  0.49233000  0.26373000  1.0
