# generated using pymatgen
data_Al2H16C26S2O11
_symmetry_space_group_name_H-M   'P 1'
_cell_length_a   6.61068000
_cell_length_b   12.46718650
_cell_length_c   17.69200000
_cell_angle_alpha   93.97088489
_cell_angle_beta   100.66590000
_cell_angle_gamma   101.49678498
_symmetry_Int_Tables_number   1
_chemical_formula_structural   Al2H16C26S2O11
_chemical_formula_sum   'Al2 H16 C26 S2 O11'
_cell_volume   1395.61745437
_cell_formula_units_Z   1
loop_
 _symmetry_equiv_pos_site_id
 _symmetry_equiv_pos_as_xyz
  1  'x, y, z'
loop_
 _atom_site_type_symbol
 _atom_site_label
 _atom_site_symmetry_multiplicity
 _atom_site_fract_x
 _atom_site_fract_y
 _atom_site_fract_z
 _atom_site_occupancy
  Al  Al0  1  0.00967000  0.51086000  0.50208000  1.0
  Al  Al1  1  0.50605000  0.50559000  0.50013000  1.0
  H  H2  1  0.33165000  0.55631000  0.59939000  1.0
  H  H3  1  0.69232000  0.38219000  0.44514000  1.0
  H  H4  1  0.81983000  0.46009000  0.27529000  1.0
  H  H5  1  0.72628000  0.43487000  0.13084000  1.0
  H  H6  1  0.36669000  0.59059000  0.12529000  1.0
  H  H7  1  0.60948000  0.37623000  0.86630000  1.0
  H  H8  1  0.17695000  0.55430000  0.73924000  1.0
  H  H9  1  0.24558000  0.55871000  0.88284000  1.0
  H  H10  1  0.22967000  0.84840000  0.53746000  1.0
  H  H11  1  0.60689000  0.57819000  0.31310000  1.0
  H  H12  1  0.52150000  0.70259000  0.31950000  1.0
  H  H13  1  0.61552000  0.66292000  0.23604000  1.0
  H  H14  1  0.35806000  0.40258000  0.71183000  1.0
  H  H15  1  0.42467000  0.27849000  0.73952000  1.0
  H  H16  1  0.48038000  0.32831000  0.65189000  1.0
  H  H17  1  0.59761000  0.12315000  0.45614000  1.0
  C  C18  1  0.82957000  0.70455000  0.51168000  1.0
  C  C19  1  0.82210000  0.48115000  0.63824000  1.0
  C  C20  1  0.17488000  0.30926000  0.48606000  1.0
  C  C21  1  0.18911000  0.53349000  0.36648000  1.0
  C  C22  1  0.14511000  0.53451000  0.28086000  1.0
  C  C23  1  0.93838000  0.48754000  0.24133000  1.0
  C  C24  1  0.88614000  0.47352000  0.16110000  1.0
  C  C25  1  0.04281000  0.50884000  0.11850000  1.0
  C  C26  1  0.24807000  0.56063000  0.15879000  1.0
  C  C27  1  0.30356000  0.57396000  0.23946000  1.0
  C  C28  1  0.99743000  0.49296000  0.03667000  1.0
  C  C29  1  0.96277000  0.47945000  0.96605000  1.0
  C  C30  1  0.92864000  0.47086000  0.88434000  1.0
  C  C31  1  0.73262000  0.41690000  0.83801000  1.0
  C  C32  1  0.69065000  0.41455000  0.75741000  1.0
  C  C33  1  0.85346000  0.46775000  0.72242000  1.0
  C  C34  1  0.05316000  0.51600000  0.76797000  1.0
  C  C35  1  0.09189000  0.51877000  0.84780000  1.0
  C  C36  1  0.89841000  0.12951000  0.47479000  1.0
  C  C37  1  0.09396000  0.88506000  0.52114000  1.0
  C  C38  1  0.10540000  0.19124000  0.48829000  1.0
  C  C39  1  0.88958000  0.82372000  0.50753000  1.0
  C  C40  1  0.09679000  0.99608000  0.50987000  1.0
  C  C41  1  0.89454000  0.01752000  0.48721000  1.0
  C  C42  1  0.52392000  0.63222000  0.27883000  1.0
  C  C43  1  0.47808000  0.35272000  0.71230000  1.0
  S  S44  1  0.29220000  0.11311000  0.51741000  1.0
  S  S45  1  0.69969000  0.90017000  0.48038000  1.0
  O  O46  1  0.98196000  0.65636000  0.52873000  1.0
  O  O47  1  0.64744000  0.50302000  0.60624000  1.0
  O  O48  1  0.37378000  0.34963000  0.49851000  1.0
  O  O49  1  0.04752000  0.55198000  0.40257000  1.0
  O  O50  1  0.03064000  0.36366000  0.47224000  1.0
  O  O51  1  0.36082000  0.50813000  0.39738000  1.0
  O  O52  1  0.63436000  0.65935000  0.49825000  1.0
  O  O53  1  0.97565000  0.47462000  0.60499000  1.0
  O  O54  1  0.29720000  0.55077000  0.54334000  1.0
  O  O55  1  0.72186000  0.46049000  0.46246000  1.0
  O  O56  1  0.72882000  0.17325000  0.45190000  1.0
