# generated using pymatgen
data_Na3H6C2S2NO10
_symmetry_space_group_name_H-M   'P 1'
_cell_length_a   5.09540000
_cell_length_b   7.05052000
_cell_length_c   8.40368528
_cell_angle_alpha   65.19703693
_cell_angle_beta   88.47263151
_cell_angle_gamma   90.00610000
_symmetry_Int_Tables_number   1
_chemical_formula_structural   Na3H6C2S2NO10
_chemical_formula_sum   'Na3 H6 C2 S2 N1 O10'
_cell_volume   273.93675268
_cell_formula_units_Z   1
loop_
 _symmetry_equiv_pos_site_id
 _symmetry_equiv_pos_as_xyz
  1  'x, y, z'
loop_
 _atom_site_type_symbol
 _atom_site_label
 _atom_site_symmetry_multiplicity
 _atom_site_fract_x
 _atom_site_fract_y
 _atom_site_fract_z
 _atom_site_occupancy
  Na  Na0  1  0.85539000  0.58650000  0.82694000  1.0
  Na  Na1  1  0.45839000  0.43810000  0.59595000  1.0
  Na  Na2  1  0.45845000  0.96584000  0.59604000  1.0
  H  H3  1  0.84957000  0.29377000  0.41242000  1.0
  H  H4  1  0.60490000  0.35326000  0.29336000  1.0
  H  H5  1  0.71356000  0.78408000  0.17754000  1.0
  H  H6  1  0.71358000  0.03856000  0.17755000  1.0
  H  H7  1  0.18225000  0.84353000  0.05989000  1.0
  H  H8  1  0.18238000  0.09665000  0.05985000  1.0
  C  C9  1  0.83691000  0.90707000  0.18608000  1.0
  C  C10  1  0.05856000  0.97569000  0.04870000  1.0
  S  S11  1  0.96998000  0.79942000  0.40122000  1.0
  S  S12  1  0.94125000  0.08520000  0.82957000  1.0
  N  N13  1  0.33886000  0.50184000  0.99629000  1.0
  O  O14  1  0.73738000  0.73814000  0.52366000  1.0
  O  O15  1  0.12497000  0.61810000  0.41535000  1.0
  O  O16  1  0.12502000  0.96657000  0.41543000  1.0
  O  O17  1  0.17895000  0.14227000  0.71529000  1.0
  O  O18  1  0.78306000  0.26744000  0.81132000  1.0
  O  O19  1  0.78292000  0.92114000  0.81151000  1.0
  O  O20  1  0.33560000  0.58646000  0.82715000  1.0
  O  O21  1  0.55935000  0.46574000  0.06861000  1.0
  O  O22  1  0.12794000  0.45784000  0.08404000  1.0
  O  O23  1  0.65787000  0.29121000  0.41739000  1.0
