# generated using pymatgen
data_Cu3H44C24S2(IN)8
_symmetry_space_group_name_H-M   'P 1'
_cell_length_a   7.73892000
_cell_length_b   9.71720000
_cell_length_c   15.53190000
_cell_angle_alpha   75.84730000
_cell_angle_beta   84.17700000
_cell_angle_gamma   69.37370000
_symmetry_Int_Tables_number   1
_chemical_formula_structural   Cu3H44C24S2(IN)8
_chemical_formula_sum   'Cu3 H44 C24 S2 I8 N8'
_cell_volume   1059.80643393
_cell_formula_units_Z   1
loop_
 _symmetry_equiv_pos_site_id
 _symmetry_equiv_pos_as_xyz
  1  'x, y, z'
loop_
 _atom_site_type_symbol
 _atom_site_label
 _atom_site_symmetry_multiplicity
 _atom_site_fract_x
 _atom_site_fract_y
 _atom_site_fract_z
 _atom_site_occupancy
  Cu  Cu0  1  0.50000000  0.00000000  0.00000000  1.0
  Cu  Cu1  1  0.86872000  0.04903000  0.06337000  1.0
  Cu  Cu2  1  0.13128000  0.95097000  0.93663000  1.0
  H  H3  1  0.39254000  0.88564000  0.39617000  1.0
  H  H4  1  0.60745000  0.11437000  0.60383000  1.0
  H  H5  1  0.24565000  0.85973000  0.32387000  1.0
  H  H6  1  0.75435000  0.14027000  0.67613000  1.0
  H  H7  1  0.15213000  0.12269000  0.26232000  1.0
  H  H8  1  0.84787000  0.87731000  0.73768000  1.0
  H  H9  1  0.32203000  0.13837000  0.32607000  1.0
  H  H10  1  0.67797000  0.86163000  0.67392000  1.0
  H  H11  1  0.34441000  0.52009000  0.04421000  1.0
  H  H12  1  0.65560000  0.47991000  0.95579000  1.0
  H  H13  1  0.11663000  0.51648000  0.04681000  1.0
  H  H14  1  0.88337000  0.48352000  0.95319000  1.0
  H  H15  1  0.20635000  0.34621000  0.95031000  1.0
  H  H16  1  0.79366000  0.65379000  0.04969000  1.0
  H  H17  1  0.43140000  0.35676000  0.94145000  1.0
  H  H18  1  0.56861000  0.64323000  0.05855000  1.0
  H  H19  1  0.55012000  0.63189000  0.24390000  1.0
  H  H20  1  0.44988000  0.36811000  0.75610000  1.0
  H  H21  1  0.75518000  0.65565000  0.26808000  1.0
  H  H22  1  0.24482000  0.34435000  0.73193000  1.0
  H  H23  1  0.44926000  0.61927000  0.40488000  1.0
  H  H24  1  0.55073000  0.38073000  0.59512000  1.0
  H  H25  1  0.65977000  0.63509000  0.42814000  1.0
  H  H26  1  0.34022000  0.36491000  0.57186000  1.0
  H  H27  1  0.62033000  0.38100000  0.35288000  1.0
  H  H28  1  0.37966000  0.61900000  0.64713000  1.0
  H  H29  1  0.67678000  0.36298000  0.46371000  1.0
  H  H30  1  0.32320000  0.63702000  0.53629000  1.0
  H  H31  1  0.83332000  0.39243000  0.37657000  1.0
  H  H32  1  0.16667000  0.60757000  0.62343000  1.0
  H  H33  1  0.38503000  0.48255000  0.19302000  1.0
  H  H34  1  0.61497000  0.51745000  0.80698000  1.0
  H  H35  1  0.40719000  0.30733000  0.26527000  1.0
  H  H36  1  0.59281000  0.69268000  0.73472000  1.0
  H  H37  1  0.04006000  0.56155000  0.20698000  1.0
  H  H38  1  0.95995000  0.43845000  0.79302000  1.0
  H  H39  1  0.05920000  0.38911000  0.28306000  1.0
  H  H40  1  0.94080000  0.61088000  0.71694000  1.0
  H  H41  1  0.24126000  0.45725000  0.38557000  1.0
  H  H42  1  0.75873000  0.54276000  0.61443000  1.0
  H  H43  1  0.01714000  0.59238000  0.36575000  1.0
  H  H44  1  0.98285000  0.40762000  0.63425000  1.0
  H  H45  1  0.20869000  0.63228000  0.30756000  1.0
  H  H46  1  0.79131000  0.36772000  0.69243000  1.0
  C  C47  1  0.54135000  0.93724000  0.20130000  1.0
  C  C48  1  0.45864000  0.06277000  0.79869000  1.0
  C  C49  1  0.35478000  0.90666000  0.32672000  1.0
  C  C50  1  0.64522000  0.09334000  0.67328000  1.0
  C  C51  1  0.29708000  0.07484000  0.28218000  1.0
  C  C52  1  0.70292000  0.92516000  0.71782000  1.0
  C  C53  1  0.37429000  0.19866000  0.12898000  1.0
  C  C54  1  0.62571000  0.80134000  0.87102000  1.0
  C  C55  1  0.26279000  0.44487000  0.05293000  1.0
  C  C56  1  0.73722000  0.55513000  0.94707000  1.0
  C  C57  1  0.32255000  0.33693000  0.98895000  1.0
  C  C58  1  0.67745000  0.66306000  0.01105000  1.0
  C  C59  1  0.61008000  0.67543000  0.28856000  1.0
  C  C60  1  0.38992000  0.32457000  0.71144000  1.0
  C  C61  1  0.59541000  0.59367000  0.38454000  1.0
  C  C62  1  0.40458000  0.40633000  0.61546000  1.0
  C  C63  1  0.68605000  0.42380000  0.39489000  1.0
  C  C64  1  0.31394000  0.57620000  0.60512000  1.0
  C  C65  1  0.31464000  0.39889000  0.21677000  1.0
  C  C66  1  0.68536000  0.60111000  0.78323000  1.0
  C  C67  1  0.12837000  0.47305000  0.25881000  1.0
  C  C68  1  0.87163000  0.52694000  0.74119000  1.0
  C  C69  1  0.14989000  0.54208000  0.33357000  1.0
  C  C70  1  0.85011000  0.45792000  0.66642000  1.0
  S  S71  1  0.70643000  0.88911000  0.12236000  1.0
  S  S72  1  0.29356000  0.11088000  0.87765000  1.0
  I  I73  1  0.19995000  0.84509000  0.10631000  1.0
  I  I74  1  0.80005000  0.15490000  0.89368000  1.0
  I  I75  1  0.81934000  0.26024000  0.14856000  1.0
  I  I76  1  0.18068000  0.73976000  0.85143000  1.0
  I  I77  1  0.81295000  0.04851000  0.32665000  1.0
  I  I78  1  0.18703000  0.95150000  0.67335000  1.0
  I  I79  1  0.81252000  0.83969000  0.49212000  1.0
  I  I80  1  0.18750000  0.16032000  0.50787000  1.0
  N  N81  1  0.41798000  0.07868000  0.20196000  1.0
  N  N82  1  0.58202000  0.92130000  0.79804000  1.0
  N  N83  1  0.51604000  0.83843000  0.27358000  1.0
  N  N84  1  0.48396000  0.16156000  0.72644000  1.0
  N  N85  1  0.29851000  0.34180000  0.14060000  1.0
  N  N86  1  0.70150000  0.65820000  0.85940000  1.0
  N  N87  1  0.39111000  0.18386000  0.04638000  1.0
  N  N88  1  0.60889000  0.81613000  0.95363000  1.0
