# generated using pymatgen
data_Zn2H12C11(N8O)2
_symmetry_space_group_name_H-M   'P 1'
_cell_length_a   9.71699313
_cell_length_b   9.71715000
_cell_length_c   19.97240000
_cell_angle_alpha   89.99870000
_cell_angle_beta   90.00010000
_cell_angle_gamma   119.99960213
_symmetry_Int_Tables_number   1
_chemical_formula_structural   Zn2H12C11(N8O)2
_chemical_formula_sum   'Zn6 H36 C33 N48 O6'
_cell_volume   1633.17765896
_cell_formula_units_Z   3
loop_
 _symmetry_equiv_pos_site_id
 _symmetry_equiv_pos_as_xyz
  1  'x, y, z'
loop_
 _atom_site_type_symbol
 _atom_site_label
 _atom_site_symmetry_multiplicity
 _atom_site_fract_x
 _atom_site_fract_y
 _atom_site_fract_z
 _atom_site_occupancy
  Zn  Zn0  1  0.03398000  0.55479000  0.58360000  1.0
  Zn  Zn1  1  0.52079000  0.96602000  0.25026000  1.0
  Zn  Zn2  1  0.44523000  0.47920000  0.91692000  1.0
  Zn  Zn3  1  0.47919000  0.44521000  0.41640000  1.0
  Zn  Zn4  1  0.55477000  0.03398000  0.74974000  1.0
  Zn  Zn5  1  0.96603000  0.52079000  0.08308000  1.0
  H  H6  1  0.99063000  0.65606000  0.44363000  1.0
  H  H7  1  0.66543000  0.00938000  0.11030000  1.0
  H  H8  1  0.34394000  0.33458000  0.77697000  1.0
  H  H9  1  0.33456000  0.34392000  0.55637000  1.0
  H  H10  1  0.65605000  0.99062000  0.88970000  1.0
  H  H11  1  0.00936000  0.66542000  0.22303000  1.0
  H  H12  1  0.84321000  0.67854000  0.40598000  1.0
  H  H13  1  0.83535000  0.15677000  0.07265000  1.0
  H  H14  1  0.32143000  0.16467000  0.73932000  1.0
  H  H15  1  0.16467000  0.32146000  0.59403000  1.0
  H  H16  1  0.67858000  0.84323000  0.92735000  1.0
  H  H17  1  0.15677000  0.83534000  0.26068000  1.0
  H  H18  1  0.04570000  0.10953000  0.75650000  1.0
  H  H19  1  0.06382000  0.95430000  0.42316000  1.0
  H  H20  1  0.89050000  0.93618000  0.08982000  1.0
  H  H21  1  0.93617000  0.89047000  0.24350000  1.0
  H  H22  1  0.10952000  0.04570000  0.57683000  1.0
  H  H23  1  0.95432000  0.06382000  0.91018000  1.0
  H  H24  1  0.85913000  0.02740000  0.78868000  1.0
  H  H25  1  0.16827000  0.14086000  0.45534000  1.0
  H  H26  1  0.97259000  0.83171000  0.12200000  1.0
  H  H27  1  0.83173000  0.97259000  0.21132000  1.0
  H  H28  1  0.02742000  0.85915000  0.54466000  1.0
  H  H29  1  0.14087000  0.16828000  0.87800000  1.0
  H  H30  1  0.67991000  0.43686000  0.69325000  1.0
  H  H31  1  0.75695000  0.32009000  0.35990000  1.0
  H  H32  1  0.56316000  0.24305000  0.02658000  1.0
  H  H33  1  0.24305000  0.56313000  0.30675000  1.0
  H  H34  1  0.43686000  0.67991000  0.64010000  1.0
  H  H35  1  0.32011000  0.75695000  0.97342000  1.0
  H  H36  1  0.55170000  0.24995000  0.65631000  1.0
  H  H37  1  0.69823000  0.44830000  0.32296000  1.0
  H  H38  1  0.75009000  0.30177000  0.98963000  1.0
  H  H39  1  0.30175000  0.75005000  0.34369000  1.0
  H  H40  1  0.24993000  0.55171000  0.67704000  1.0
  H  H41  1  0.44833000  0.69824000  0.01037000  1.0
  C  C42  1  0.78511000  0.56725000  0.49648000  1.0
  C  C43  1  0.78215000  0.21487000  0.16316000  1.0
  C  C44  1  0.43274000  0.21787000  0.82982000  1.0
  C  C45  1  0.21786000  0.43274000  0.50352000  1.0
  C  C46  1  0.56727000  0.78512000  0.83684000  1.0
  C  C47  1  0.21488000  0.78214000  0.17018000  1.0
  C  C48  1  0.68718000  0.42868000  0.58647000  1.0
  C  C49  1  0.74150000  0.31281000  0.25313000  1.0
  C  C50  1  0.57132000  0.25850000  0.91981000  1.0
  C  C51  1  0.25850000  0.57132000  0.41353000  1.0
  C  C52  1  0.42869000  0.68720000  0.74687000  1.0
  C  C53  1  0.31282000  0.74150000  0.08019000  1.0
  C  C54  1  0.67226000  0.35384000  0.65367000  1.0
  C  C55  1  0.68158000  0.32775000  0.32033000  1.0
  C  C56  1  0.64618000  0.31843000  0.98700000  1.0
  C  C57  1  0.31841000  0.64615000  0.34633000  1.0
  C  C58  1  0.35383000  0.67227000  0.67967000  1.0
  C  C59  1  0.32775000  0.68157000  0.01300000  1.0
  C  C60  1  0.79261000  0.30446000  0.66891000  1.0
  C  C61  1  0.51183000  0.20738000  0.33557000  1.0
  C  C62  1  0.69556000  0.48815000  0.00223000  1.0
  C  C63  1  0.48815000  0.69554000  0.33109000  1.0
  C  C64  1  0.30445000  0.79262000  0.66443000  1.0
  C  C65  1  0.20740000  0.51184000  0.99776000  1.0
  C  C66  1  0.90726000  0.18544000  0.71292000  1.0
  C  C67  1  0.27815000  0.09273000  0.37956000  1.0
  C  C68  1  0.81456000  0.72182000  0.04624000  1.0
  C  C69  1  0.72182000  0.81456000  0.28709000  1.0
  C  C70  1  0.18542000  0.90727000  0.62043000  1.0
  C  C71  1  0.09274000  0.27818000  0.95376000  1.0
  C  C72  1  0.78758000  0.78758000  0.66666667  1.0
  C  C73  1  0.99997000  0.21241000  0.33333333  1.0
  C  C74  1  0.21245000  0.00003000  0.00000000  1.0
  N  N75  1  0.62625000  0.49287000  0.49210000  1.0
  N  N76  1  0.86666000  0.37373000  0.15877000  1.0
  N  N77  1  0.50709000  0.13334000  0.82544000  1.0
  N  N78  1  0.13337000  0.50712000  0.50791000  1.0
  N  N79  1  0.49292000  0.62627000  0.84123000  1.0
  N  N80  1  0.37374000  0.86665000  0.17456000  1.0
  N  N81  1  0.56317000  0.40435000  0.55007000  1.0
  N  N82  1  0.84120000  0.43682000  0.21673000  1.0
  N  N83  1  0.59564000  0.15880000  0.88340000  1.0
  N  N84  1  0.15881000  0.59564000  0.44993000  1.0
  N  N85  1  0.40439000  0.56320000  0.78326000  1.0
  N  N86  1  0.43684000  0.84120000  0.11660000  1.0
  N  N87  1  0.82813000  0.53119000  0.55566000  1.0
  N  N88  1  0.70305000  0.17186000  0.22233000  1.0
  N  N89  1  0.46883000  0.29696000  0.88900000  1.0
  N  N90  1  0.29694000  0.46881000  0.44434000  1.0
  N  N91  1  0.53118000  0.82814000  0.77767000  1.0
  N  N92  1  0.17188000  0.70304000  0.11100000  1.0
  N  N93  1  0.89281000  0.67066000  0.45041000  1.0
  N  N94  1  0.77786000  0.10718000  0.11708000  1.0
  N  N95  1  0.32935000  0.22216000  0.78376000  1.0
  N  N96  1  0.22214000  0.32934000  0.54959000  1.0
  N  N97  1  0.67069000  0.89283000  0.88292000  1.0
  N  N98  1  0.10719000  0.77784000  0.21624000  1.0
  N  N99  1  0.76493000  0.18280000  0.71077000  1.0
  N  N100  1  0.41783000  0.23506000  0.37743000  1.0
  N  N101  1  0.81722000  0.58214000  0.04409000  1.0
  N  N102  1  0.58212000  0.81719000  0.28924000  1.0
  N  N103  1  0.18278000  0.76494000  0.62257000  1.0
  N  N104  1  0.23508000  0.41786000  0.95590000  1.0
  N  N105  1  0.94162000  0.37547000  0.64721000  1.0
  N  N106  1  0.43385000  0.05838000  0.31387000  1.0
  N  N107  1  0.62454000  0.56613000  0.98053000  1.0
  N  N108  1  0.56613000  0.62451000  0.35279000  1.0
  N  N109  1  0.37546000  0.94162000  0.68613000  1.0
  N  N110  1  0.05841000  0.43387000  0.01947000  1.0
  N  N111  1  0.01742000  0.29992000  0.67443000  1.0
  N  N112  1  0.28247000  0.98257000  0.34108000  1.0
  N  N113  1  0.70009000  0.71750000  0.00775000  1.0
  N  N114  1  0.71750000  0.70008000  0.32558000  1.0
  N  N115  1  0.29989000  0.01742000  0.65892000  1.0
  N  N116  1  0.98258000  0.28249000  0.99225000  1.0
  N  N117  1  0.92996000  0.07676000  0.74787000  1.0
  N  N118  1  0.14675000  0.07003000  0.41452000  1.0
  N  N119  1  0.92325000  0.85320000  0.08119000  1.0
  N  N120  1  0.85319000  0.92324000  0.25213000  1.0
  N  N121  1  0.07672000  0.92996000  0.58548000  1.0
  N  N122  1  0.07004000  0.14679000  0.91881000  1.0
  O  O123  1  0.73067000  0.83699000  0.62841000  1.0
  O  O124  1  0.10628000  0.26932000  0.29506000  1.0
  O  O125  1  0.16307000  0.89374000  0.96174000  1.0
  O  O126  1  0.89368000  0.16301000  0.37160000  1.0
  O  O127  1  0.83698000  0.73068000  0.70493000  1.0
  O  O128  1  0.26933000  0.10633000  0.03826000  1.0
