# generated using pymatgen
data_AgH5C6S(NO)2
_symmetry_space_group_name_H-M   'P 1'
_cell_length_a   5.02444000
_cell_length_b   7.30894000
_cell_length_c   19.89970000
_cell_angle_alpha   90.00070000
_cell_angle_beta   90.00000000
_cell_angle_gamma   89.99920000
_symmetry_Int_Tables_number   1
_chemical_formula_structural   AgH5C6S(NO)2
_chemical_formula_sum   'Ag4 H20 C24 S4 N8 O8'
_cell_volume   730.78325970
_cell_formula_units_Z   4
loop_
 _symmetry_equiv_pos_site_id
 _symmetry_equiv_pos_as_xyz
  1  'x, y, z'
loop_
 _atom_site_type_symbol
 _atom_site_label
 _atom_site_symmetry_multiplicity
 _atom_site_fract_x
 _atom_site_fract_y
 _atom_site_fract_z
 _atom_site_occupancy
  Ag  Ag0  1  0.07595000  0.13051000  0.70487000  1.0
  Ag  Ag1  1  0.42403000  0.86951000  0.20487000  1.0
  Ag  Ag2  1  0.57600000  0.36951000  0.29514000  1.0
  Ag  Ag3  1  0.92399000  0.63049000  0.79513000  1.0
  H  H4  1  0.00859000  0.17967000  0.02418000  1.0
  H  H5  1  0.49145000  0.82031000  0.52417000  1.0
  H  H6  1  0.50857000  0.32030000  0.97583000  1.0
  H  H7  1  0.99144000  0.67969000  0.47583000  1.0
  H  H8  1  0.65592000  0.93739000  0.02827000  1.0
  H  H9  1  0.84412000  0.06259000  0.52827000  1.0
  H  H10  1  0.15591000  0.56259000  0.97173000  1.0
  H  H11  1  0.34410000  0.43740000  0.47173000  1.0
  H  H12  1  0.62966000  0.71743000  0.92758000  1.0
  H  H13  1  0.87036000  0.28256000  0.42759000  1.0
  H  H14  1  0.12964000  0.78256000  0.07241000  1.0
  H  H15  1  0.37034000  0.21743000  0.57241000  1.0
  H  H16  1  0.62977000  0.17431000  0.87991000  1.0
  H  H17  1  0.87025000  0.82569000  0.37991000  1.0
  H  H18  1  0.12979000  0.32568000  0.12009000  1.0
  H  H19  1  0.37020000  0.67432000  0.62008000  1.0
  H  H20  1  0.69201000  0.18667000  0.79228000  1.0
  H  H21  1  0.80800000  0.81333000  0.29228000  1.0
  H  H22  1  0.19203000  0.31333000  0.20773000  1.0
  H  H23  1  0.30793000  0.68667000  0.70772000  1.0
  C  C24  1  0.13210000  0.97335000  0.88218000  1.0
  C  C25  1  0.36792000  0.02664000  0.38219000  1.0
  C  C26  1  0.63210000  0.52664000  0.11782000  1.0
  C  C27  1  0.86788000  0.47337000  0.61781000  1.0
  C  C28  1  0.98884000  0.08043000  0.98353000  1.0
  C  C29  1  0.51119000  0.91956000  0.48353000  1.0
  C  C30  1  0.48883000  0.41955000  0.01647000  1.0
  C  C31  1  0.01117000  0.58044000  0.51647000  1.0
  C  C32  1  0.79079000  0.94664000  0.98570000  1.0
  C  C33  1  0.70924000  0.05334000  0.48570000  1.0
  C  C34  1  0.29079000  0.55334000  0.01431000  1.0
  C  C35  1  0.20922000  0.44665000  0.51431000  1.0
  C  C36  1  0.37794000  0.36494000  0.82661000  1.0
  C  C37  1  0.12207000  0.63506000  0.32661000  1.0
  C  C38  1  0.87797000  0.13505000  0.17339000  1.0
  C  C39  1  0.62198000  0.86497000  0.67339000  1.0
  C  C40  1  0.77757000  0.82627000  0.93158000  1.0
  C  C41  1  0.72245000  0.17372000  0.43159000  1.0
  C  C42  1  0.27757000  0.67372000  0.06842000  1.0
  C  C43  1  0.22243000  0.32628000  0.56842000  1.0
  C  C44  1  0.53372000  0.18515000  0.83074000  1.0
  C  C45  1  0.96629000  0.81486000  0.33074000  1.0
  C  C46  1  0.03375000  0.31485000  0.16926000  1.0
  C  C47  1  0.46622000  0.68517000  0.66926000  1.0
  S  S48  1  0.34759000  0.97999000  0.81331000  1.0
  S  S49  1  0.15242000  0.02001000  0.31332000  1.0
  S  S50  1  0.84760000  0.52001000  0.18668000  1.0
  S  S51  1  0.65238000  0.48002000  0.68668000  1.0
  N  N52  1  0.15945000  0.09511000  0.93206000  1.0
  N  N53  1  0.34057000  0.90487000  0.43206000  1.0
  N  N54  1  0.65945000  0.40487000  0.06794000  1.0
  N  N55  1  0.84055000  0.59513000  0.56794000  1.0
  N  N56  1  0.94845000  0.83829000  0.87974000  1.0
  N  N57  1  0.55156000  0.16170000  0.37974000  1.0
  N  N58  1  0.44846000  0.66170000  0.12026000  1.0
  N  N59  1  0.05153000  0.33831000  0.62026000  1.0
  O  O60  1  0.15976000  0.36453000  0.79320000  1.0
  O  O61  1  0.34026000  0.63548000  0.29320000  1.0
  O  O62  1  0.65979000  0.13547000  0.20680000  1.0
  O  O63  1  0.84015000  0.86456000  0.70680000  1.0
  O  O64  1  0.48022000  0.50200000  0.85465000  1.0
  O  O65  1  0.01980000  0.49800000  0.35465000  1.0
  O  O66  1  0.98023000  0.99799000  0.14535000  1.0
  O  O67  1  0.51972000  0.00203000  0.64534000  1.0
