# generated using pymatgen
data_ErH15C11O6
_symmetry_space_group_name_H-M   'P 1'
_cell_length_a   8.12063000
_cell_length_b   10.71410000
_cell_length_c   14.75190000
_cell_angle_alpha   89.99970000
_cell_angle_beta   90.00010000
_cell_angle_gamma   89.99970000
_symmetry_Int_Tables_number   1
_chemical_formula_structural   ErH15C11O6
_chemical_formula_sum   'Er4 H60 C44 O24'
_cell_volume   1283.49262770
_cell_formula_units_Z   4
loop_
 _symmetry_equiv_pos_site_id
 _symmetry_equiv_pos_as_xyz
  1  'x, y, z'
loop_
 _atom_site_type_symbol
 _atom_site_label
 _atom_site_symmetry_multiplicity
 _atom_site_fract_x
 _atom_site_fract_y
 _atom_site_fract_z
 _atom_site_occupancy
  Er  Er0  1  0.42278000  0.20060000  0.49837000  1.0
  Er  Er1  1  0.07724000  0.79940000  0.99838000  1.0
  Er  Er2  1  0.92277000  0.29940000  0.50162000  1.0
  Er  Er3  1  0.57724000  0.70059000  0.00162000  1.0
  H  H4  1  0.26831000  0.82457000  0.69691000  1.0
  H  H5  1  0.23168000  0.17543000  0.19690000  1.0
  H  H6  1  0.76831000  0.67543000  0.30309000  1.0
  H  H7  1  0.73168000  0.32457000  0.80309000  1.0
  H  H8  1  0.59130000  0.70388000  0.73099000  1.0
  H  H9  1  0.90869000  0.29614000  0.23099000  1.0
  H  H10  1  0.09130000  0.79612000  0.26902000  1.0
  H  H11  1  0.40869000  0.20388000  0.76901000  1.0
  H  H12  1  0.53132000  0.80434000  0.64202000  1.0
  H  H13  1  0.96867000  0.19567000  0.14202000  1.0
  H  H14  1  0.03131000  0.69566000  0.35799000  1.0
  H  H15  1  0.46867000  0.30434000  0.85798000  1.0
  H  H16  1  0.55147000  0.61830000  0.55282000  1.0
  H  H17  1  0.94854000  0.38171000  0.05282000  1.0
  H  H18  1  0.05146000  0.88170000  0.44718000  1.0
  H  H19  1  0.44853000  0.11831000  0.94718000  1.0
  H  H20  1  0.52428000  0.52137000  0.64764000  1.0
  H  H21  1  0.97574000  0.47864000  0.14763000  1.0
  H  H22  1  0.02427000  0.97863000  0.35237000  1.0
  H  H23  1  0.47572000  0.02137000  0.85237000  1.0
  H  H24  1  0.30859000  0.67282000  0.45921000  1.0
  H  H25  1  0.19142000  0.32718000  0.95921000  1.0
  H  H26  1  0.80858000  0.82719000  0.54080000  1.0
  H  H27  1  0.69140000  0.17282000  0.04080000  1.0
  H  H28  1  0.27560000  0.78853000  0.54311000  1.0
  H  H29  1  0.22440000  0.21147000  0.04311000  1.0
  H  H30  1  0.77559000  0.71147000  0.45690000  1.0
  H  H31  1  0.72440000  0.28853000  0.95689000  1.0
  H  H32  1  0.11123000  0.68769000  0.50944000  1.0
  H  H33  1  0.38878000  0.31231000  0.00944000  1.0
  H  H34  1  0.61122000  0.81232000  0.49057000  1.0
  H  H35  1  0.88877000  0.18769000  0.99056000  1.0
  H  H36  1  0.18820000  0.53504000  0.82269000  1.0
  H  H37  1  0.31179000  0.46495000  0.32268000  1.0
  H  H38  1  0.68820000  0.96495000  0.17731000  1.0
  H  H39  1  0.81179000  0.03505000  0.67732000  1.0
  H  H40  1  0.36097000  0.48216000  0.76100000  1.0
  H  H41  1  0.13902000  0.51782000  0.26099000  1.0
  H  H42  1  0.86097000  0.01783000  0.23901000  1.0
  H  H43  1  0.63902000  0.98218000  0.73901000  1.0
  H  H44  1  0.15909000  0.43421000  0.72879000  1.0
  H  H45  1  0.34090000  0.56579000  0.22878000  1.0
  H  H46  1  0.65908000  0.06578000  0.27121000  1.0
  H  H47  1  0.84090000  0.93422000  0.77122000  1.0
  H  H48  1  0.98952000  0.68859000  0.75648000  1.0
  H  H49  1  0.51047000  0.31140000  0.25649000  1.0
  H  H50  1  0.48952000  0.81140000  0.24352000  1.0
  H  H51  1  0.01047000  0.18860000  0.74352000  1.0
  H  H52  1  0.95620000  0.58735000  0.66204000  1.0
  H  H53  1  0.54380000  0.41264000  0.16205000  1.0
  H  H54  1  0.45619000  0.91264000  0.33796000  1.0
  H  H55  1  0.04379000  0.08736000  0.83796000  1.0
  H  H56  1  0.01184000  0.74616000  0.64491000  1.0
  H  H57  1  0.48817000  0.25383000  0.14491000  1.0
  H  H58  1  0.51183000  0.75383000  0.35509000  1.0
  H  H59  1  0.98816000  0.24616000  0.85509000  1.0
  H  H60  1  0.06131000  0.01350000  0.60634000  1.0
  H  H61  1  0.43869000  0.98650000  0.10634000  1.0
  H  H62  1  0.56132000  0.48652000  0.39367000  1.0
  H  H63  1  0.93872000  0.51351000  0.89365000  1.0
  C  C64  1  0.29418000  0.59724000  0.59600000  1.0
  C  C65  1  0.20583000  0.40275000  0.09599000  1.0
  C  C66  1  0.79417000  0.90276000  0.40400000  1.0
  C  C67  1  0.70582000  0.09725000  0.90401000  1.0
  C  C68  1  0.21379000  0.62651000  0.69101000  1.0
  C  C69  1  0.28620000  0.37348000  0.19100000  1.0
  C  C70  1  0.71379000  0.87348000  0.30899000  1.0
  C  C71  1  0.78620000  0.12652000  0.80899000  1.0
  C  C72  1  0.32567000  0.73880000  0.72297000  1.0
  C  C73  1  0.17432000  0.26119000  0.22297000  1.0
  C  C74  1  0.82567000  0.76119000  0.27703000  1.0
  C  C75  1  0.67432000  0.23881000  0.77703000  1.0
  C  C76  1  0.49661000  0.71967000  0.67930000  1.0
  C  C77  1  0.00339000  0.28033000  0.17929000  1.0
  C  C78  1  0.99661000  0.78032000  0.32071000  1.0
  C  C79  1  0.50339000  0.21967000  0.82070000  1.0
  C  C80  1  0.47985000  0.60729000  0.61527000  1.0
  C  C81  1  0.02015000  0.39271000  0.11526000  1.0
  C  C82  1  0.97984000  0.89270000  0.38474000  1.0
  C  C83  1  0.52014000  0.10729000  0.88474000  1.0
  C  C84  1  0.24407000  0.47127000  0.55719000  1.0
  C  C85  1  0.25596000  0.52872000  0.05719000  1.0
  C  C86  1  0.74406000  0.02872000  0.44281000  1.0
  C  C87  1  0.75593000  0.97128000  0.94281000  1.0
  C  C88  1  0.24367000  0.69291000  0.52299000  1.0
  C  C89  1  0.25633000  0.30708000  0.02298000  1.0
  C  C90  1  0.74366000  0.80709000  0.47702000  1.0
  C  C91  1  0.75632000  0.19291000  0.97702000  1.0
  C  C92  1  0.23265000  0.51289000  0.75411000  1.0
  C  C93  1  0.26734000  0.48710000  0.25411000  1.0
  C  C94  1  0.73264000  0.98710000  0.24589000  1.0
  C  C95  1  0.76734000  0.01290000  0.74589000  1.0
  C  C96  1  0.03207000  0.66412000  0.68809000  1.0
  C  C97  1  0.46793000  0.33587000  0.18809000  1.0
  C  C98  1  0.53206000  0.83587000  0.31191000  1.0
  C  C99  1  0.96793000  0.16413000  0.81191000  1.0
  C  C100  1  0.32572000  0.75061000  0.82492000  1.0
  C  C101  1  0.17428000  0.24938000  0.32491000  1.0
  C  C102  1  0.82571000  0.74938000  0.17509000  1.0
  C  C103  1  0.67429000  0.25062000  0.67508000  1.0
  C  C104  1  0.16514000  0.06654000  0.57707000  1.0
  C  C105  1  0.33487000  0.93346000  0.07708000  1.0
  C  C106  1  0.66516000  0.43346000  0.42292000  1.0
  C  C107  1  0.83489000  0.56655000  0.92291000  1.0
  O  O108  1  0.35605000  0.40023000  0.52554000  1.0
  O  O109  1  0.14398000  0.59977000  0.02552000  1.0
  O  O110  1  0.85603000  0.09977000  0.47447000  1.0
  O  O111  1  0.64397000  0.90022000  0.97446000  1.0
  O  O112  1  0.09130000  0.44571000  0.55340000  1.0
  O  O113  1  0.40871000  0.55428000  0.05342000  1.0
  O  O114  1  0.59131000  0.05430000  0.44657000  1.0
  O  O115  1  0.90871000  0.94571000  0.94659000  1.0
  O  O116  1  0.19835000  0.79768000  0.86279000  1.0
  O  O117  1  0.30164000  0.20234000  0.36279000  1.0
  O  O118  1  0.69837000  0.70234000  0.13721000  1.0
  O  O119  1  0.80165000  0.29768000  0.63721000  1.0
  O  O120  1  0.44861000  0.71084000  0.86985000  1.0
  O  O121  1  0.05136000  0.28914000  0.36984000  1.0
  O  O122  1  0.94865000  0.78914000  0.13015000  1.0
  O  O123  1  0.55139000  0.21084000  0.63015000  1.0
  O  O124  1  0.30091000  0.01450000  0.56172000  1.0
  O  O125  1  0.19909000  0.98550000  0.06173000  1.0
  O  O126  1  0.80093000  0.48550000  0.43826000  1.0
  O  O127  1  0.69910000  0.51450000  0.93827000  1.0
  O  O128  1  0.14408000  0.18364000  0.55963000  1.0
  O  O129  1  0.35592000  0.81637000  0.05964000  1.0
  O  O130  1  0.64411000  0.31637000  0.44036000  1.0
  O  O131  1  0.85592000  0.68364000  0.94036000  1.0
