# generated using pymatgen
data_AlH7C14N2O5F2
_symmetry_space_group_name_H-M   'P 1'
_cell_length_a   6.76009000
_cell_length_b   16.89010000
_cell_length_c   16.89030000
_cell_angle_alpha   83.41290000
_cell_angle_beta   84.13440000
_cell_angle_gamma   84.13390000
_symmetry_Int_Tables_number   1
_chemical_formula_structural   AlH7C14N2O5F2
_chemical_formula_sum   'Al2 H14 C28 N4 O10 F4'
_cell_volume   1897.74432099
_cell_formula_units_Z   2
loop_
 _symmetry_equiv_pos_site_id
 _symmetry_equiv_pos_as_xyz
  1  'x, y, z'
loop_
 _atom_site_type_symbol
 _atom_site_label
 _atom_site_symmetry_multiplicity
 _atom_site_fract_x
 _atom_site_fract_y
 _atom_site_fract_z
 _atom_site_occupancy
  Al  Al0  1  0.50001000  0.50000000  0.50000000  1.0
  Al  Al1  1  0.00001000  0.50000000  0.50000000  1.0
  H  H2  1  0.75002000  0.42112000  0.57887000  1.0
  H  H3  1  0.24997000  0.57886000  0.42112000  1.0
  H  H4  1  0.36456000  0.73245000  0.50692000  1.0
  H  H5  1  0.29608000  0.88114000  0.50584000  1.0
  H  H6  1  0.92839000  0.90037000  0.49858000  1.0
  H  H7  1  0.07161000  0.09963000  0.50141000  1.0
  H  H8  1  0.70390000  0.11886000  0.49416000  1.0
  H  H9  1  0.63542000  0.26754000  0.49308000  1.0
  H  H10  1  0.86456000  0.50689000  0.73247000  1.0
  H  H11  1  0.79609000  0.50579000  0.88115000  1.0
  H  H12  1  0.42837000  0.49858000  0.90036000  1.0
  H  H13  1  0.57161000  0.50144000  0.09965000  1.0
  H  H14  1  0.20393000  0.49419000  0.11885000  1.0
  H  H15  1  0.13546000  0.49309000  0.26754000  1.0
  C  C16  1  0.20926000  0.50089000  0.64345000  1.0
  C  C17  1  0.29064000  0.35656000  0.49912000  1.0
  C  C18  1  0.79076000  0.49911000  0.35655000  1.0
  C  C19  1  0.70935000  0.64344000  0.50088000  1.0
  C  C20  1  0.68166000  0.73221000  0.50241000  1.0
  C  C21  1  0.48597000  0.77040000  0.50481000  1.0
  C  C22  1  0.44771000  0.85243000  0.50432000  1.0
  C  C23  1  0.60811000  0.89987000  0.50181000  1.0
  C  C24  1  0.80422000  0.86371000  0.50030000  1.0
  C  C25  1  0.83796000  0.78124000  0.50037000  1.0
  C  C26  1  0.19577000  0.13629000  0.49970000  1.0
  C  C27  1  0.39188000  0.10012000  0.49818000  1.0
  C  C28  1  0.55228000  0.14756000  0.49567000  1.0
  C  C29  1  0.51402000  0.22960000  0.49519000  1.0
  C  C30  1  0.31834000  0.26779000  0.49759000  1.0
  C  C31  1  0.16203000  0.21876000  0.49963000  1.0
  C  C32  1  0.18164000  0.50239000  0.73221000  1.0
  C  C33  1  0.98597000  0.50478000  0.77040000  1.0
  C  C34  1  0.94771000  0.50432000  0.85243000  1.0
  C  C35  1  0.10813000  0.50183000  0.89987000  1.0
  C  C36  1  0.30421000  0.50031000  0.86370000  1.0
  C  C37  1  0.33793000  0.50038000  0.78123000  1.0
  C  C38  1  0.69578000  0.49971000  0.13630000  1.0
  C  C39  1  0.89186000  0.49817000  0.10013000  1.0
  C  C40  1  0.05229000  0.49566000  0.14757000  1.0
  C  C41  1  0.01405000  0.49519000  0.22960000  1.0
  C  C42  1  0.81837000  0.49760000  0.26779000  1.0
  C  C43  1  0.66207000  0.49963000  0.21877000  1.0
  N  N44  1  0.58897000  0.98410000  0.50063000  1.0
  N  N45  1  0.41102000  0.01591000  0.49936000  1.0
  N  N46  1  0.08898000  0.50063000  0.98410000  1.0
  N  N47  1  0.91102000  0.49938000  0.01590000  1.0
  O  O48  1  0.38618000  0.49391000  0.60967000  1.0
  O  O49  1  0.11371000  0.39032000  0.50610000  1.0
  O  O50  1  0.95113000  0.49459000  0.39115000  1.0
  O  O51  1  0.54900000  0.60884000  0.50542000  1.0
  O  O52  1  0.61385000  0.50609000  0.39033000  1.0
  O  O53  1  0.88628000  0.60968000  0.49389000  1.0
  O  O54  1  0.04889000  0.50542000  0.60884000  1.0
  O  O55  1  0.45101000  0.39116000  0.49459000  1.0
  O  O56  1  0.75000000  0.46417000  0.53579000  1.0
  O  O57  1  0.25001000  0.53582000  0.46421000  1.0
  F  F58  1  0.03101000  0.74962000  0.49828000  1.0
  F  F59  1  0.96898000  0.25039000  0.50170000  1.0
  F  F60  1  0.53098000  0.49831000  0.74961000  1.0
  F  F61  1  0.46903000  0.50173000  0.25039000  1.0
