# generated using pymatgen
data_CdH2C2BrN3
_symmetry_space_group_name_H-M   'P 1'
_cell_length_a   8.46522000
_cell_length_b   12.64420000
_cell_length_c   15.69540000
_cell_angle_alpha   90.00000000
_cell_angle_beta   102.67300000
_cell_angle_gamma   89.99990000
_symmetry_Int_Tables_number   1
_chemical_formula_structural   CdH2C2BrN3
_chemical_formula_sum   'Cd12 H24 C24 Br12 N36'
_cell_volume   1639.04439662
_cell_formula_units_Z   12
loop_
 _symmetry_equiv_pos_site_id
 _symmetry_equiv_pos_as_xyz
  1  'x, y, z'
loop_
 _atom_site_type_symbol
 _atom_site_label
 _atom_site_symmetry_multiplicity
 _atom_site_fract_x
 _atom_site_fract_y
 _atom_site_fract_z
 _atom_site_occupancy
  Cd  Cd0  1  0.88473000  0.55208000  0.60005000  1.0
  Cd  Cd1  1  0.61527000  0.05208000  0.39995000  1.0
  Cd  Cd2  1  0.11527000  0.44792000  0.39995000  1.0
  Cd  Cd3  1  0.38473000  0.94792000  0.60005000  1.0
  Cd  Cd4  1  0.62928000  0.46698000  0.76938000  1.0
  Cd  Cd5  1  0.87072000  0.96698000  0.23062000  1.0
  Cd  Cd6  1  0.37072000  0.53302000  0.23062000  1.0
  Cd  Cd7  1  0.12928000  0.03302000  0.76938000  1.0
  Cd  Cd8  1  0.77041000  0.50948000  0.01572000  1.0
  Cd  Cd9  1  0.72959000  0.00948000  0.98428000  1.0
  Cd  Cd10  1  0.22959000  0.49052000  0.98428000  1.0
  Cd  Cd11  1  0.27041000  0.99052000  0.01572000  1.0
  H  H12  1  0.54489000  0.61979000  0.44217000  1.0
  H  H13  1  0.95511000  0.11979000  0.55783000  1.0
  H  H14  1  0.45511000  0.38021000  0.55783000  1.0
  H  H15  1  0.04489000  0.88020000  0.44217000  1.0
  H  H16  1  0.78375000  0.50430000  0.25400000  1.0
  H  H17  1  0.71625000  0.00430000  0.74600000  1.0
  H  H18  1  0.21625000  0.49570000  0.74600000  1.0
  H  H19  1  0.28375000  0.99570000  0.25400000  1.0
  H  H20  1  0.66272000  0.78139000  0.54347000  1.0
  H  H21  1  0.83728000  0.28139000  0.45653000  1.0
  H  H22  1  0.33728000  0.21861000  0.45653000  1.0
  H  H23  1  0.16272000  0.71861000  0.54347000  1.0
  H  H24  1  0.45392000  0.73149000  0.75973000  1.0
  H  H25  1  0.04608000  0.23149000  0.24027000  1.0
  H  H26  1  0.54607000  0.26851000  0.24027000  1.0
  H  H27  1  0.95392000  0.76851000  0.75973000  1.0
  H  H28  1  0.60502000  0.18444000  0.79956000  1.0
  H  H29  1  0.89497000  0.68444000  0.20044000  1.0
  H  H30  1  0.39498000  0.81555000  0.20044000  1.0
  H  H31  1  0.10503000  0.31555000  0.79956000  1.0
  H  H32  1  0.81335000  0.24745000  0.06377000  1.0
  H  H33  1  0.68665000  0.74745000  0.93623000  1.0
  H  H34  1  0.18665000  0.75255000  0.93623000  1.0
  H  H35  1  0.31335000  0.25255000  0.06377000  1.0
  C  C36  1  0.63720000  0.58830000  0.41098000  1.0
  C  C37  1  0.86280000  0.08830000  0.58902000  1.0
  C  C38  1  0.36280000  0.41170000  0.58902000  1.0
  C  C39  1  0.13720000  0.91170000  0.41098000  1.0
  C  C40  1  0.75820000  0.53030000  0.31554000  1.0
  C  C41  1  0.74180000  0.03030000  0.68446000  1.0
  C  C42  1  0.24180000  0.46970000  0.68446000  1.0
  C  C43  1  0.25820000  0.96970000  0.31554000  1.0
  C  C44  1  0.62665000  0.74585000  0.59939000  1.0
  C  C45  1  0.87335000  0.24585000  0.40061000  1.0
  C  C46  1  0.37335000  0.25415000  0.40061000  1.0
  C  C47  1  0.12665000  0.75415000  0.59939000  1.0
  C  C48  1  0.52132000  0.72073000  0.70897000  1.0
  C  C49  1  0.97868000  0.22073000  0.29103000  1.0
  C  C50  1  0.47868000  0.27927000  0.29103000  1.0
  C  C51  1  0.02132000  0.77927000  0.70897000  1.0
  C  C52  1  0.65747000  0.22451000  0.86035000  1.0
  C  C53  1  0.84253000  0.72451000  0.13965000  1.0
  C  C54  1  0.34254000  0.77549000  0.13965000  1.0
  C  C55  1  0.15747000  0.27549000  0.86035000  1.0
  C  C56  1  0.76191000  0.25663000  0.99463000  1.0
  C  C57  1  0.73809000  0.75663000  0.00537000  1.0
  C  C58  1  0.23810000  0.74337000  0.00538000  1.0
  C  C59  1  0.26191000  0.24337000  0.99463000  1.0
  Br  Br60  1  0.79599000  0.36600000  0.66016000  1.0
  Br  Br61  1  0.70401000  0.86600000  0.33984000  1.0
  Br  Br62  1  0.20401000  0.63400000  0.33984000  1.0
  Br  Br63  1  0.29599000  0.13400000  0.66016000  1.0
  Br  Br64  1  0.93919000  0.56006000  0.87269000  1.0
  Br  Br65  1  0.56080000  0.06006000  0.12731000  1.0
  Br  Br66  1  0.06081000  0.43994000  0.12731000  1.0
  Br  Br67  1  0.43919000  0.93994000  0.87269000  1.0
  Br  Br68  1  0.46483000  0.56635000  0.88939000  1.0
  Br  Br69  1  0.03518000  0.06635000  0.11061000  1.0
  Br  Br70  1  0.53518000  0.43365000  0.11061000  1.0
  Br  Br71  1  0.96483000  0.93365000  0.88939000  1.0
  N  N72  1  0.78582000  0.56060000  0.45364000  1.0
  N  N73  1  0.71418000  0.06060000  0.54636000  1.0
  N  N74  1  0.21418000  0.43940000  0.54636000  1.0
  N  N75  1  0.28582000  0.93940000  0.45364000  1.0
  N  N76  1  0.61486000  0.57075000  0.32429000  1.0
  N  N77  1  0.88514000  0.07076000  0.67571000  1.0
  N  N78  1  0.38514000  0.42924000  0.67571000  1.0
  N  N79  1  0.11486000  0.92924000  0.32429000  1.0
  N  N80  1  0.86347000  0.52294000  0.39188000  1.0
  N  N81  1  0.63652000  0.02294000  0.60812000  1.0
  N  N82  1  0.13652000  0.47706000  0.60812000  1.0
  N  N83  1  0.36348000  0.97706000  0.39188000  1.0
  N  N84  1  0.67339000  0.64982000  0.63022000  1.0
  N  N85  1  0.82661000  0.14982000  0.36978000  1.0
  N  N86  1  0.32661000  0.35018000  0.36978000  1.0
  N  N87  1  0.17339000  0.85018000  0.63022000  1.0
  N  N88  1  0.60664000  0.63388000  0.70103000  1.0
  N  N89  1  0.89336000  0.13388000  0.29897000  1.0
  N  N90  1  0.39336000  0.36612000  0.29897000  1.0
  N  N91  1  0.10664000  0.86612000  0.70103000  1.0
  N  N92  1  0.53067000  0.79312000  0.64647000  1.0
  N  N93  1  0.96933000  0.29312000  0.35353000  1.0
  N  N94  1  0.46933000  0.20688000  0.35353000  1.0
  N  N95  1  0.03067000  0.70688000  0.64646000  1.0
  N  N96  1  0.67376000  0.32907000  0.86791000  1.0
  N  N97  1  0.82623000  0.82907000  0.13210000  1.0
  N  N98  1  0.32623000  0.67093000  0.13209000  1.0
  N  N99  1  0.17377000  0.17093000  0.86791000  1.0
  N  N100  1  0.74050000  0.34907000  0.95380000  1.0
  N  N101  1  0.75950000  0.84907000  0.04620000  1.0
  N  N102  1  0.25950000  0.65093000  0.04620000  1.0
  N  N103  1  0.24050000  0.15093000  0.95380000  1.0
  N  N104  1  0.71182000  0.17615000  0.93852000  1.0
  N  N105  1  0.78818000  0.67615000  0.06148000  1.0
  N  N106  1  0.28818000  0.82386000  0.06148000  1.0
  N  N107  1  0.21182000  0.32385000  0.93852000  1.0
