# generated using pymatgen
data_YbH8C10(NO4)2
_symmetry_space_group_name_H-M   'P 1'
_cell_length_a   6.69277000
_cell_length_b   7.41866000
_cell_length_c   11.86190000
_cell_angle_alpha   87.08680000
_cell_angle_beta   77.30910000
_cell_angle_gamma   80.76740000
_symmetry_Int_Tables_number   1
_chemical_formula_structural   YbH8C10(NO4)2
_chemical_formula_sum   'Yb2 H16 C20 N4 O16'
_cell_volume   567.05347091
_cell_formula_units_Z   2
loop_
 _symmetry_equiv_pos_site_id
 _symmetry_equiv_pos_as_xyz
  1  'x, y, z'
loop_
 _atom_site_type_symbol
 _atom_site_label
 _atom_site_symmetry_multiplicity
 _atom_site_fract_x
 _atom_site_fract_y
 _atom_site_fract_z
 _atom_site_occupancy
  Yb  Yb0  1  0.82360000  0.16683000  0.92234000  1.0
  Yb  Yb1  1  0.17640000  0.83318000  0.07766000  1.0
  H  H2  1  0.76182000  0.80801000  0.03663000  1.0
  H  H3  1  0.23817000  0.19199000  0.96337000  1.0
  H  H4  1  0.90480000  0.77867000  0.91237000  1.0
  H  H5  1  0.09520000  0.22133000  0.08763000  1.0
  H  H6  1  0.00901000  0.35490000  0.70732000  1.0
  H  H7  1  0.99099000  0.64510000  0.29268000  1.0
  H  H8  1  0.84252000  0.49994000  0.78065000  1.0
  H  H9  1  0.15748000  0.50006000  0.21935000  1.0
  H  H10  1  0.28876000  0.71603000  0.35356000  1.0
  H  H11  1  0.71123000  0.28395000  0.64644000  1.0
  H  H12  1  0.62676000  0.58524000  0.23326000  1.0
  H  H13  1  0.37324000  0.41475000  0.76675000  1.0
  H  H14  1  0.92199000  0.68760000  0.57177000  1.0
  H  H15  1  0.07801000  0.31240000  0.42823000  1.0
  H  H16  1  0.15611000  0.87623000  0.59593000  1.0
  H  H17  1  0.84389000  0.12377000  0.40407000  1.0
  C  C18  1  0.60905000  0.63195000  0.32045000  1.0
  C  C19  1  0.39095000  0.36804000  0.67955000  1.0
  C  C20  1  0.66964000  0.70482000  0.48185000  1.0
  C  C21  1  0.33036000  0.29518000  0.51815000  1.0
  C  C22  1  0.75720000  0.73053000  0.57511000  1.0
  C  C23  1  0.24281000  0.26947000  0.42489000  1.0
  C  C24  1  0.62725000  0.80998000  0.67406000  1.0
  C  C25  1  0.37276000  0.19003000  0.32594000  1.0
  C  C26  1  0.41103000  0.86187000  0.68113000  1.0
  C  C27  1  0.58898000  0.13813000  0.31887000  1.0
  C  C28  1  0.32240000  0.83656000  0.58793000  1.0
  C  C29  1  0.67760000  0.16344000  0.41207000  1.0
  C  C30  1  0.45297000  0.75559000  0.48925000  1.0
  C  C31  1  0.54703000  0.24440000  0.51075000  1.0
  C  C32  1  0.72727000  0.84813000  0.76947000  1.0
  C  C33  1  0.27274000  0.15188000  0.23053000  1.0
  C  C34  1  0.27102000  0.92449000  0.79374000  1.0
  C  C35  1  0.72899000  0.07551000  0.20627000  1.0
  C  C36  1  0.41469000  0.45516000  0.98318000  1.0
  C  C37  1  0.58531000  0.54485000  0.01683000  1.0
  N  N38  1  0.42158000  0.70460000  0.38457000  1.0
  N  N39  1  0.57842000  0.29539000  0.61543000  1.0
  N  N40  1  0.76229000  0.62972000  0.37514000  1.0
  N  N41  1  0.23771000  0.37028000  0.62486000  1.0
  O  O42  1  0.68909000  0.00898000  0.80896000  1.0
  O  O43  1  0.31091000  0.99102000  0.19104000  1.0
  O  O44  1  0.85392000  0.71859000  0.80187000  1.0
  O  O45  1  0.14609000  0.28141000  0.19813000  1.0
  O  O46  1  0.10820000  0.03850000  0.79108000  1.0
  O  O47  1  0.89180000  0.96151000  0.20892000  1.0
  O  O48  1  0.32156000  0.85318000  0.88540000  1.0
  O  O49  1  0.67845000  0.14683000  0.11460000  1.0
  O  O50  1  0.23348000  0.54162000  0.00231000  1.0
  O  O51  1  0.76652000  0.45839000  0.99769000  1.0
  O  O52  1  0.47202000  0.29788000  0.93738000  1.0
  O  O53  1  0.52798000  0.70211000  0.06263000  1.0
  O  O54  1  0.89198000  0.84497000  0.98918000  1.0
  O  O55  1  0.10801000  0.15504000  0.01082000  1.0
  O  O56  1  0.86808000  0.36560000  0.76408000  1.0
  O  O57  1  0.13191000  0.63440000  0.23592000  1.0
