# generated using pymatgen
data_TbH12C11O9
_symmetry_space_group_name_H-M   'P 1'
_cell_length_a   8.85782000
_cell_length_b   8.88172000
_cell_length_c   19.34670000
_cell_angle_alpha   83.18200000
_cell_angle_beta   83.16350000
_cell_angle_gamma   60.70300000
_symmetry_Int_Tables_number   1
_chemical_formula_structural   TbH12C11O9
_chemical_formula_sum   'Tb4 H48 C44 O36'
_cell_volume   1314.72265974
_cell_formula_units_Z   4
loop_
 _symmetry_equiv_pos_site_id
 _symmetry_equiv_pos_as_xyz
  1  'x, y, z'
loop_
 _atom_site_type_symbol
 _atom_site_label
 _atom_site_symmetry_multiplicity
 _atom_site_fract_x
 _atom_site_fract_y
 _atom_site_fract_z
 _atom_site_occupancy
  Tb  Tb0  1  0.62943000  0.26383000  0.46123000  1.0
  Tb  Tb1  1  0.73655000  0.37063000  0.03872000  1.0
  Tb  Tb2  1  0.37057000  0.73617000  0.53876000  1.0
  Tb  Tb3  1  0.26345000  0.62937000  0.96128000  1.0
  H  H4  1  0.93372000  0.13823000  0.35560000  1.0
  H  H5  1  0.86147000  0.06659000  0.14436000  1.0
  H  H6  1  0.06628000  0.86177000  0.64440000  1.0
  H  H7  1  0.13853000  0.93341000  0.85564000  1.0
  H  H8  1  0.01509000  0.98478000  0.41631000  1.0
  H  H9  1  0.01536000  0.98527000  0.08363000  1.0
  H  H10  1  0.98491000  0.01522000  0.58369000  1.0
  H  H11  1  0.98464000  0.01473000  0.91637000  1.0
  H  H12  1  0.90509000  0.25523000  0.22267000  1.0
  H  H13  1  0.74480000  0.09401000  0.27727000  1.0
  H  H14  1  0.09491000  0.74476000  0.77733000  1.0
  H  H15  1  0.25520000  0.90599000  0.72273000  1.0
  H  H16  1  0.68322000  0.90456000  0.52917000  1.0
  H  H17  1  0.09636000  0.31641000  0.97073000  1.0
  H  H18  1  0.31678000  0.09544000  0.47083000  1.0
  H  H19  1  0.90364000  0.68359000  0.02927000  1.0
  H  H20  1  0.86579000  0.88103000  0.49687000  1.0
  H  H21  1  0.11979000  0.13427000  0.00301000  1.0
  H  H22  1  0.13421000  0.11897000  0.50313000  1.0
  H  H23  1  0.88021000  0.86573000  0.99699000  1.0
  H  H24  1  0.17608000  0.17428000  0.35748000  1.0
  H  H25  1  0.82563000  0.82366000  0.14246000  1.0
  H  H26  1  0.82392000  0.82571000  0.64252000  1.0
  H  H27  1  0.17437000  0.17635000  0.85754000  1.0
  H  H28  1  0.10410000  0.28096000  0.13632000  1.0
  H  H29  1  0.71842000  0.89558000  0.36363000  1.0
  H  H30  1  0.89590000  0.71904000  0.86368000  1.0
  H  H31  1  0.28158000  0.10442000  0.63637000  1.0
  H  H32  1  0.53171000  0.28538000  0.21721000  1.0
  H  H33  1  0.71559000  0.46819000  0.28279000  1.0
  H  H34  1  0.46829000  0.71462000  0.78279000  1.0
  H  H35  1  0.28441000  0.53181000  0.71721000  1.0
  H  H36  1  0.76770000  0.46528000  0.66793000  1.0
  H  H37  1  0.53425000  0.23243000  0.83222000  1.0
  H  H38  1  0.23230000  0.53473000  0.33207000  1.0
  H  H39  1  0.46575000  0.76758000  0.16778000  1.0
  H  H40  1  0.94810000  0.25724000  0.65622000  1.0
  H  H41  1  0.74293000  0.05258000  0.84383000  1.0
  H  H42  1  0.05190000  0.74276000  0.34378000  1.0
  H  H43  1  0.25707000  0.94742000  0.15617000  1.0
  H  H44  1  0.58290000  0.31372000  0.70637000  1.0
  H  H45  1  0.68600000  0.41685000  0.79364000  1.0
  H  H46  1  0.41710000  0.68628000  0.29363000  1.0
  H  H47  1  0.31400000  0.58316000  0.20635000  1.0
  H  H48  1  0.77686000  0.11472000  0.70573000  1.0
  H  H49  1  0.88562000  0.22351000  0.79428000  1.0
  H  H50  1  0.22314000  0.88528000  0.29427000  1.0
  H  H51  1  0.11437000  0.77650000  0.20572000  1.0
  C  C52  1  0.46521000  0.21409000  0.35330000  1.0
  C  C53  1  0.78602000  0.53484000  0.14668000  1.0
  C  C54  1  0.53479000  0.78591000  0.64670000  1.0
  C  C55  1  0.21398000  0.46516000  0.85332000  1.0
  C  C56  1  0.38104000  0.33972000  0.09976000  1.0
  C  C57  1  0.66077000  0.61852000  0.40022000  1.0
  C  C58  1  0.61896000  0.66028000  0.90024000  1.0
  C  C59  1  0.33923000  0.38148000  0.59978000  1.0
  C  C60  1  0.21987000  0.20271000  0.30502000  1.0
  C  C61  1  0.79723000  0.77985000  0.19491000  1.0
  C  C62  1  0.78013000  0.79729000  0.69498000  1.0
  C  C63  1  0.20277000  0.22015000  0.80509000  1.0
  C  C64  1  0.17648000  0.26551000  0.18082000  1.0
  C  C65  1  0.73423000  0.82321000  0.31913000  1.0
  C  C66  1  0.82352000  0.73449000  0.81918000  1.0
  C  C67  1  0.26577000  0.17679000  0.68087000  1.0
  C  C68  1  0.41930000  0.26537000  0.22642000  1.0
  C  C69  1  0.73525000  0.58053000  0.27355000  1.0
  C  C70  1  0.58070000  0.73463000  0.77358000  1.0
  C  C71  1  0.26475000  0.41947000  0.72645000  1.0
  C  C72  1  0.32365000  0.28683000  0.17023000  1.0
  C  C73  1  0.71354000  0.67602000  0.32974000  1.0
  C  C74  1  0.67635000  0.71317000  0.82977000  1.0
  C  C75  1  0.28647000  0.32398000  0.67026000  1.0
  C  C76  1  0.36707000  0.22472000  0.29391000  1.0
  C  C77  1  0.77557000  0.63281000  0.20602000  1.0
  C  C78  1  0.63293000  0.77528000  0.70609000  1.0
  C  C79  1  0.22443000  0.36719000  0.79398000  1.0
  C  C80  1  0.12593000  0.22196000  0.24837000  1.0
  C  C81  1  0.77773000  0.87373000  0.25155000  1.0
  C  C82  1  0.87408000  0.77804000  0.75163000  1.0
  C  C83  1  0.22227000  0.12627000  0.74845000  1.0
  C  C84  1  0.75049000  0.33532000  0.58548000  1.0
  C  C85  1  0.66479000  0.24979000  0.91455000  1.0
  C  C86  1  0.24951000  0.66468000  0.41452000  1.0
  C  C87  1  0.33521000  0.75021000  0.08545000  1.0
  C  C88  1  0.80611000  0.33279000  0.65649000  1.0
  C  C89  1  0.66711000  0.19419000  0.84358000  1.0
  C  C90  1  0.19389000  0.66721000  0.34351000  1.0
  C  C91  1  0.33288000  0.80581000  0.15642000  1.0
  C  C92  1  0.72246000  0.25297000  0.71302000  1.0
  C  C93  1  0.74701000  0.27764000  0.78701000  1.0
  C  C94  1  0.27754000  0.74703000  0.28699000  1.0
  C  C95  1  0.25298000  0.72236000  0.21299000  1.0
  O  O96  1  0.60384000  0.22929000  0.34003000  1.0
  O  O97  1  0.77032000  0.39687000  0.15997000  1.0
  O  O98  1  0.39616000  0.77071000  0.65997000  1.0
  O  O99  1  0.22967000  0.60313000  0.84003000  1.0
  O  O100  1  0.54414000  0.27917000  0.08777000  1.0
  O  O101  1  0.72119000  0.45587000  0.41209000  1.0
  O  O102  1  0.45587000  0.72083000  0.91223000  1.0
  O  O103  1  0.27881000  0.54413000  0.58791000  1.0
  O  O104  1  0.61772000  0.46531000  0.56095000  1.0
  O  O105  1  0.53479000  0.38262000  0.93904000  1.0
  O  O106  1  0.38229000  0.53469000  0.43905000  1.0
  O  O107  1  0.46520000  0.61738000  0.06096000  1.0
  O  O108  1  0.26565000  0.44342000  0.05882000  1.0
  O  O109  1  0.55716000  0.73357000  0.44127000  1.0
  O  O110  1  0.73436000  0.55658000  0.94118000  1.0
  O  O111  1  0.44284000  0.26643000  0.55873000  1.0
  O  O112  1  0.83315000  0.19987000  0.55046000  1.0
  O  O113  1  0.80050000  0.16709000  0.94958000  1.0
  O  O114  1  0.16685000  0.80013000  0.44954000  1.0
  O  O115  1  0.19950000  0.83291000  0.05042000  1.0
  O  O116  1  0.91581000  0.10179000  0.40449000  1.0
  O  O117  1  0.89880000  0.08521000  0.09567000  1.0
  O  O118  1  0.08419000  0.89821000  0.59551000  1.0
  O  O119  1  0.10120000  0.91479000  0.90433000  1.0
  O  O120  1  0.98589000  0.19457000  0.26099000  1.0
  O  O121  1  0.80499000  0.01349000  0.23887000  1.0
  O  O122  1  0.01411000  0.80543000  0.73901000  1.0
  O  O123  1  0.19501000  0.98651000  0.76113000  1.0
  O  O124  1  0.41411000  0.19639000  0.41665000  1.0
  O  O125  1  0.80394000  0.58557000  0.08331000  1.0
  O  O126  1  0.58589000  0.80361000  0.58335000  1.0
  O  O127  1  0.19606000  0.41443000  0.91669000  1.0
  O  O128  1  0.74113000  0.95720000  0.49525000  1.0
  O  O129  1  0.04371000  0.25860000  0.00473000  1.0
  O  O130  1  0.25887000  0.04280000  0.50475000  1.0
  O  O131  1  0.95629000  0.74140000  0.99527000  1.0
