# generated using pymatgen
data_CuH12C14BrN6
_symmetry_space_group_name_H-M   'P 1'
_cell_length_a   10.07130000
_cell_length_b   10.22274294
_cell_length_c   16.57740000
_cell_angle_alpha   83.44642515
_cell_angle_beta   90.00030000
_cell_angle_gamma   60.48857478
_symmetry_Int_Tables_number   1
_chemical_formula_structural   CuH12C14BrN6
_chemical_formula_sum   'Cu4 H48 C56 Br4 N24'
_cell_volume   1472.48074851
_cell_formula_units_Z   4
loop_
 _symmetry_equiv_pos_site_id
 _symmetry_equiv_pos_as_xyz
  1  'x, y, z'
loop_
 _atom_site_type_symbol
 _atom_site_label
 _atom_site_symmetry_multiplicity
 _atom_site_fract_x
 _atom_site_fract_y
 _atom_site_fract_z
 _atom_site_occupancy
  Cu  Cu0  1  0.86414000  0.14812000  0.97535000  1.0
  Cu  Cu1  1  0.01227000  0.85188000  0.52465000  1.0
  Cu  Cu2  1  0.13585000  0.85188000  0.02465000  1.0
  Cu  Cu3  1  0.98773000  0.14812000  0.47535000  1.0
  H  H4  1  0.25766000  0.13974000  0.07978000  1.0
  H  H5  1  0.39740000  0.86025000  0.42023000  1.0
  H  H6  1  0.74235000  0.86025000  0.92023000  1.0
  H  H7  1  0.60260000  0.13975000  0.57977000  1.0
  H  H8  1  0.41172000  0.91891000  0.18281000  1.0
  H  H9  1  0.33063000  0.08109000  0.31719000  1.0
  H  H10  1  0.58829000  0.08108000  0.81719000  1.0
  H  H11  1  0.66937000  0.91892000  0.68281000  1.0
  H  H12  1  0.69003000  0.81903000  0.21019000  1.0
  H  H13  1  0.50906000  0.18097000  0.28981000  1.0
  H  H14  1  0.30998000  0.18096000  0.78981000  1.0
  H  H15  1  0.49094000  0.81904000  0.71019000  1.0
  H  H16  1  0.82569000  0.93508000  0.12952000  1.0
  H  H17  1  0.76077000  0.06492000  0.37048000  1.0
  H  H18  1  0.17432000  0.06492000  0.87048000  1.0
  H  H19  1  0.23924000  0.93508000  0.62952000  1.0
  H  H20  1  0.05628000  0.83164000  0.22453000  1.0
  H  H21  1  0.88793000  0.16836000  0.27547000  1.0
  H  H22  1  0.94372000  0.16836000  0.77547000  1.0
  H  H23  1  0.11208000  0.83164000  0.72453000  1.0
  H  H24  1  0.97003000  0.73439000  0.34508000  1.0
  H  H25  1  0.70442000  0.26561000  0.15492000  1.0
  H  H26  1  0.02997000  0.26562000  0.65492000  1.0
  H  H27  1  0.29558000  0.73439000  0.84508000  1.0
  H  H28  1  0.95709000  0.49688000  0.34988000  1.0
  H  H29  1  0.45396000  0.50311000  0.15012000  1.0
  H  H30  1  0.04292000  0.50312000  0.65013000  1.0
  H  H31  1  0.54604000  0.49689000  0.84988000  1.0
  H  H32  1  0.02803000  0.34830000  0.23239000  1.0
  H  H33  1  0.37633000  0.65169000  0.26761000  1.0
  H  H34  1  0.97198000  0.65170000  0.76761000  1.0
  H  H35  1  0.62367000  0.34831000  0.73239000  1.0
  H  H36  1  0.19149000  0.33420000  0.95816000  1.0
  H  H37  1  0.52569000  0.66580000  0.54184000  1.0
  H  H38  1  0.80851000  0.66580000  0.04184000  1.0
  H  H39  1  0.47430000  0.33421000  0.45816000  1.0
  H  H40  1  0.28130000  0.38480000  0.87794000  1.0
  H  H41  1  0.66610000  0.61520000  0.62205000  1.0
  H  H42  1  0.71870000  0.61519000  0.12206000  1.0
  H  H43  1  0.33389000  0.38481000  0.37794000  1.0
  H  H44  1  0.09622000  0.61977000  0.92254000  1.0
  H  H45  1  0.71599000  0.38022000  0.57746000  1.0
  H  H46  1  0.90379000  0.38022000  0.07746000  1.0
  H  H47  1  0.28401000  0.61978000  0.42254000  1.0
  H  H48  1  0.27894000  0.58413000  0.95706000  1.0
  H  H49  1  0.86307000  0.41587000  0.54294000  1.0
  H  H50  1  0.72106000  0.41587000  0.04294000  1.0
  H  H51  1  0.13693000  0.58413000  0.45706000  1.0
  C  C52  1  0.61643000  0.10236000  0.06030000  1.0
  C  C53  1  0.71880000  0.89764000  0.43970000  1.0
  C  C54  1  0.38357000  0.89764000  0.93971000  1.0
  C  C55  1  0.28121000  0.10236000  0.56030000  1.0
  C  C56  1  0.45750000  0.16136000  0.04687000  1.0
  C  C57  1  0.61886000  0.83864000  0.45313000  1.0
  C  C58  1  0.54250000  0.83864000  0.95313000  1.0
  C  C59  1  0.38114000  0.16136000  0.54686000  1.0
  C  C60  1  0.37970000  0.09685000  0.09017000  1.0
  C  C61  1  0.47656000  0.90315000  0.40983000  1.0
  C  C62  1  0.62030000  0.90315000  0.90983000  1.0
  C  C63  1  0.52345000  0.09685000  0.59016000  1.0
  C  C64  1  0.46769000  0.97279000  0.14792000  1.0
  C  C65  1  0.44049000  0.02721000  0.35208000  1.0
  C  C66  1  0.53231000  0.02721000  0.85208000  1.0
  C  C67  1  0.55951000  0.97279000  0.64792000  1.0
  C  C68  1  0.62681000  0.91465000  0.16282000  1.0
  C  C69  1  0.54147000  0.08535000  0.33718000  1.0
  C  C70  1  0.37319000  0.08535000  0.83718000  1.0
  C  C71  1  0.45854000  0.91465000  0.66282000  1.0
  C  C72  1  0.70385000  0.97736000  0.11912000  1.0
  C  C73  1  0.68120000  0.02264000  0.38088000  1.0
  C  C74  1  0.29616000  0.02264000  0.88089000  1.0
  C  C75  1  0.31880000  0.97736000  0.61912000  1.0
  C  C76  1  0.07980000  0.50939000  0.16146000  1.0
  C  C77  1  0.58918000  0.49061000  0.33854000  1.0
  C  C78  1  0.92020000  0.49061000  0.83854000  1.0
  C  C79  1  0.41080000  0.50940000  0.66146000  1.0
  C  C80  1  0.08657000  0.64606000  0.15896000  1.0
  C  C81  1  0.73263000  0.35394000  0.34104000  1.0
  C  C82  1  0.91343000  0.35394000  0.84104000  1.0
  C  C83  1  0.26737000  0.64606000  0.65896000  1.0
  C  C84  1  0.04946000  0.72823000  0.22588000  1.0
  C  C85  1  0.77769000  0.27177000  0.27412000  1.0
  C  C86  1  0.95054000  0.27177000  0.77412000  1.0
  C  C87  1  0.22231000  0.72823000  0.72588000  1.0
  C  C88  1  0.00151000  0.67214000  0.29269000  1.0
  C  C89  1  0.67365000  0.32786000  0.20731000  1.0
  C  C90  1  0.99849000  0.32786000  0.70731000  1.0
  C  C91  1  0.32635000  0.67214000  0.79269000  1.0
  C  C92  1  0.99256000  0.53718000  0.29501000  1.0
  C  C93  1  0.52973000  0.46282000  0.20499000  1.0
  C  C94  1  0.00744000  0.46282000  0.70499000  1.0
  C  C95  1  0.47027000  0.53718000  0.79501000  1.0
  C  C96  1  0.03264000  0.45294000  0.23051000  1.0
  C  C97  1  0.48558000  0.54706000  0.26949000  1.0
  C  C98  1  0.96735000  0.54707000  0.76949000  1.0
  C  C99  1  0.51442000  0.45294000  0.73051000  1.0
  C  C100  1  0.26613000  0.38189000  0.94350000  1.0
  C  C101  1  0.64802000  0.61811000  0.55649000  1.0
  C  C102  1  0.73387000  0.61811000  0.05650000  1.0
  C  C103  1  0.35198000  0.38189000  0.44350000  1.0
  C  C104  1  0.19712000  0.54275000  0.96373000  1.0
  C  C105  1  0.73987000  0.45724000  0.53627000  1.0
  C  C106  1  0.80289000  0.45724000  0.03627000  1.0
  C  C107  1  0.26012000  0.54276000  0.46373000  1.0
  Br  Br108  1  0.96610000  0.93463000  0.89390000  1.0
  Br  Br109  1  0.90074000  0.06537000  0.60610000  1.0
  Br  Br110  1  0.03390000  0.06537000  0.10609000  1.0
  Br  Br111  1  0.09927000  0.93463000  0.39391000  1.0
  N  N112  1  0.41426000  0.28026000  0.98619000  1.0
  N  N113  1  0.69452000  0.71974000  0.51380000  1.0
  N  N114  1  0.58574000  0.71974000  0.01381000  1.0
  N  N115  1  0.30548000  0.28026000  0.48619000  1.0
  N  N116  1  0.53555000  0.29504000  0.96332000  1.0
  N  N117  1  0.83060000  0.70496000  0.53667000  1.0
  N  N118  1  0.46443000  0.70497000  0.03668000  1.0
  N  N119  1  0.16940000  0.29504000  0.46333000  1.0
  N  N120  1  0.65785000  0.18832000  0.00715000  1.0
  N  N121  1  0.84618000  0.81167000  0.49285000  1.0
  N  N122  1  0.34216000  0.81167000  0.99285000  1.0
  N  N123  1  0.15382000  0.18833000  0.50715000  1.0
  N  N124  1  0.13141000  0.67319000  0.08391000  1.0
  N  N125  1  0.80460000  0.32682000  0.41609000  1.0
  N  N126  1  0.86859000  0.32681000  0.91609000  1.0
  N  N127  1  0.19539000  0.67319000  0.58391000  1.0
  N  N128  1  0.15130000  0.55479000  0.04710000  1.0
  N  N129  1  0.70609000  0.44521000  0.45290000  1.0
  N  N130  1  0.84870000  0.44520000  0.95290000  1.0
  N  N131  1  0.29391000  0.55479000  0.54710000  1.0
  N  N132  1  0.12182000  0.45454000  0.08908000  1.0
  N  N133  1  0.57636000  0.54546000  0.41092000  1.0
  N  N134  1  0.87817000  0.54547000  0.91092000  1.0
  N  N135  1  0.42364000  0.45454000  0.58908000  1.0
