# generated using pymatgen
data_Cu3H28C46N2O13
_symmetry_space_group_name_H-M   'P 1'
_cell_length_a   19.40360000
_cell_length_b   19.40370000
_cell_length_c   33.82077643
_cell_angle_alpha   106.66557551
_cell_angle_beta   106.68319370
_cell_angle_gamma   89.98540000
_symmetry_Int_Tables_number   1
_chemical_formula_structural   Cu3H28C46N2O13
_chemical_formula_sum   'Cu12 H112 C184 N8 O52'
_cell_volume   11638.38954160
_cell_formula_units_Z   4
loop_
 _symmetry_equiv_pos_site_id
 _symmetry_equiv_pos_as_xyz
  1  'x, y, z'
loop_
 _atom_site_type_symbol
 _atom_site_label
 _atom_site_symmetry_multiplicity
 _atom_site_fract_x
 _atom_site_fract_y
 _atom_site_fract_z
 _atom_site_occupancy
  Cu  Cu0  1  0.00214000  0.93701000  0.00421000  1.0
  Cu  Cu1  1  0.93702000  0.00211000  0.50421000  1.0
  Cu  Cu2  1  0.99786000  0.06299000  0.99579000  1.0
  Cu  Cu3  1  0.00210000  0.56719000  0.00421000  1.0
  Cu  Cu4  1  0.43280000  0.99793000  0.49579000  1.0
  Cu  Cu5  1  0.06298000  0.99789000  0.49579000  1.0
  Cu  Cu6  1  0.56720000  0.00206000  0.50421000  1.0
  Cu  Cu7  1  0.99790000  0.43281000  0.99579000  1.0
  Cu  Cu8  1  0.39539000  0.64533000  0.79071000  1.0
  Cu  Cu9  1  0.64538000  0.39532000  0.29071000  1.0
  Cu  Cu10  1  0.60461000  0.35467000  0.20929000  1.0
  Cu  Cu11  1  0.35462000  0.60468000  0.70929000  1.0
  H  H12  1  0.44192000  0.65168000  0.88395000  1.0
  H  H13  1  0.65170000  0.44202000  0.38393000  1.0
  H  H14  1  0.55808000  0.34832000  0.11605000  1.0
  H  H15  1  0.44190000  0.73223000  0.88393000  1.0
  H  H16  1  0.26773000  0.55797000  0.61605000  1.0
  H  H17  1  0.34830000  0.55798000  0.61607000  1.0
  H  H18  1  0.73227000  0.44202000  0.38395000  1.0
  H  H19  1  0.55809000  0.26777000  0.11607000  1.0
  H  H20  1  0.08614000  0.91387000  0.74996000  1.0
  H  H21  1  0.91379000  0.66379000  0.25000000  1.0
  H  H22  1  0.33621000  0.08621000  0.25000000  1.0
  H  H23  1  0.66391000  0.33618000  0.75004000  1.0
  H  H24  1  0.91386000  0.08614000  0.25004000  1.0
  H  H25  1  0.08621000  0.33621000  0.75000000  1.0
  H  H26  1  0.66379000  0.91379000  0.75000000  1.0
  H  H27  1  0.33609000  0.66382000  0.24996000  1.0
  H  H28  1  0.23266000  0.78747000  0.81623000  1.0
  H  H29  1  0.78736000  0.58349000  0.31618000  1.0
  H  H30  1  0.41653000  0.21260000  0.18380000  1.0
  H  H31  1  0.58348000  0.52881000  0.81615000  1.0
  H  H32  1  0.47125000  0.41643000  0.68378000  1.0
  H  H33  1  0.21267000  0.76733000  0.68386000  1.0
  H  H34  1  0.52880000  0.23273000  0.31620000  1.0
  H  H35  1  0.76731000  0.47118000  0.18382000  1.0
  H  H36  1  0.76735000  0.21253000  0.18378000  1.0
  H  H37  1  0.21264000  0.41651000  0.68382000  1.0
  H  H38  1  0.58347000  0.78740000  0.81620000  1.0
  H  H39  1  0.41653000  0.47119000  0.18386000  1.0
  H  H40  1  0.52876000  0.58357000  0.31623000  1.0
  H  H41  1  0.78734000  0.23267000  0.31615000  1.0
  H  H42  1  0.47120000  0.76727000  0.68380000  1.0
  H  H43  1  0.23269000  0.52882000  0.81618000  1.0
  H  H44  1  0.13348000  0.78070000  0.84037000  1.0
  H  H45  1  0.78056000  0.70684000  0.34040000  1.0
  H  H46  1  0.29322000  0.21933000  0.15960000  1.0
  H  H47  1  0.70690000  0.55981000  0.84045000  1.0
  H  H48  1  0.44034000  0.29311000  0.65964000  1.0
  H  H49  1  0.21936000  0.86645000  0.65955000  1.0
  H  H50  1  0.55973000  0.13362000  0.34040000  1.0
  H  H51  1  0.86644000  0.44016000  0.15960000  1.0
  H  H52  1  0.86652000  0.21930000  0.15964000  1.0
  H  H53  1  0.21944000  0.29316000  0.65960000  1.0
  H  H54  1  0.70678000  0.78067000  0.84040000  1.0
  H  H55  1  0.29310000  0.44019000  0.15955000  1.0
  H  H56  1  0.55966000  0.70689000  0.34036000  1.0
  H  H57  1  0.78064000  0.13355000  0.34045000  1.0
  H  H58  1  0.44027000  0.86638000  0.65960000  1.0
  H  H59  1  0.13356000  0.55984000  0.84040000  1.0
  H  H60  1  0.09440000  0.82804000  0.90630000  1.0
  H  H61  1  0.82795000  0.81192000  0.40632000  1.0
  H  H62  1  0.18809000  0.17200000  0.09370000  1.0
  H  H63  1  0.81198000  0.57825000  0.90635000  1.0
  H  H64  1  0.42174000  0.18810000  0.59370000  1.0
  H  H65  1  0.17190000  0.90563000  0.59365000  1.0
  H  H66  1  0.57830000  0.09439000  0.40630000  1.0
  H  H67  1  0.90560000  0.42163000  0.09368000  1.0
  H  H68  1  0.90560000  0.17197000  0.09370000  1.0
  H  H69  1  0.17205000  0.18808000  0.59368000  1.0
  H  H70  1  0.81191000  0.82801000  0.90630000  1.0
  H  H71  1  0.18802000  0.42175000  0.09365000  1.0
  H  H72  1  0.57826000  0.81190000  0.40630000  1.0
  H  H73  1  0.82810000  0.09437000  0.40635000  1.0
  H  H74  1  0.42170000  0.90561000  0.59370000  1.0
  H  H75  1  0.09440000  0.57837000  0.90632000  1.0
  H  H76  1  0.08576000  0.03834000  0.88817000  1.0
  H  H77  1  0.03819000  0.80235000  0.38812000  1.0
  H  H78  1  0.19767000  0.96174000  0.11190000  1.0
  H  H79  1  0.80244000  0.34980000  0.88812000  1.0
  H  H80  1  0.65017000  0.19759000  0.61183000  1.0
  H  H81  1  0.96168000  0.91432000  0.61188000  1.0
  H  H82  1  0.34984000  0.08577000  0.38810000  1.0
  H  H83  1  0.91423000  0.65007000  0.11188000  1.0
  H  H84  1  0.91424000  0.96166000  0.11183000  1.0
  H  H85  1  0.96181000  0.19765000  0.61188000  1.0
  H  H86  1  0.80233000  0.03826000  0.88810000  1.0
  H  H87  1  0.19756000  0.65020000  0.11188000  1.0
  H  H88  1  0.34983000  0.80241000  0.38817000  1.0
  H  H89  1  0.03832000  0.08567000  0.38812000  1.0
  H  H90  1  0.65016000  0.91423000  0.61190000  1.0
  H  H91  1  0.08577000  0.34993000  0.88812000  1.0
  H  H92  1  0.12599000  0.99207000  0.82248000  1.0
  H  H93  1  0.99190000  0.69645000  0.32246000  1.0
  H  H94  1  0.30360000  0.00801000  0.17757000  1.0
  H  H95  1  0.69652000  0.33052000  0.82245000  1.0
  H  H96  1  0.66959000  0.30351000  0.67752000  1.0
  H  H97  1  0.00807000  0.87407000  0.67755000  1.0
  H  H98  1  0.33043000  0.12603000  0.32242000  1.0
  H  H99  1  0.87399000  0.66944000  0.17754000  1.0
  H  H100  1  0.87401000  0.00793000  0.17752000  1.0
  H  H101  1  0.00810000  0.30355000  0.67754000  1.0
  H  H102  1  0.69639000  0.99199000  0.82242000  1.0
  H  H103  1  0.30348000  0.66948000  0.17755000  1.0
  H  H104  1  0.33041000  0.69649000  0.32248000  1.0
  H  H105  1  0.99193000  0.12592000  0.32245000  1.0
  H  H106  1  0.66956000  0.87397000  0.67757000  1.0
  H  H107  1  0.12601000  0.33056000  0.82246000  1.0
  H  H108  1  0.11056000  0.81966000  0.00765000  1.0
  H  H109  1  0.81976000  0.89707000  0.50764000  1.0
  H  H110  1  0.10288000  0.18034000  0.99236000  1.0
  H  H111  1  0.89712000  0.68788000  0.00762000  1.0
  H  H112  1  0.31201000  0.10290000  0.49235000  1.0
  H  H113  1  0.18026000  0.88950000  0.49238000  1.0
  H  H114  1  0.68798000  0.11052000  0.50764000  1.0
  H  H115  1  0.88943000  0.31212000  0.99236000  1.0
  H  H116  1  0.88944000  0.18034000  0.99235000  1.0
  H  H117  1  0.18024000  0.10293000  0.49236000  1.0
  H  H118  1  0.89712000  0.81967000  0.00764000  1.0
  H  H119  1  0.10288000  0.31212000  0.99238000  1.0
  H  H120  1  0.68799000  0.89709000  0.50765000  1.0
  H  H121  1  0.81974000  0.11050000  0.50762000  1.0
  H  H122  1  0.31203000  0.88947000  0.49236000  1.0
  H  H123  1  0.11057000  0.68788000  0.00764000  1.0
  C  C124  1  0.12591000  0.87411000  0.74997000  1.0
  C  C125  1  0.87403000  0.62403000  0.25000000  1.0
  C  C126  1  0.37596000  0.12596000  0.25000000  1.0
  C  C127  1  0.62414000  0.37594000  0.75003000  1.0
  C  C128  1  0.87409000  0.12589000  0.25003000  1.0
  C  C129  1  0.12597000  0.37597000  0.75000000  1.0
  C  C130  1  0.62404000  0.87404000  0.75000000  1.0
  C  C131  1  0.37586000  0.62406000  0.24997000  1.0
  C  C132  1  0.15523000  0.85339000  0.78747000  1.0
  C  C133  1  0.85327000  0.63219000  0.28747000  1.0
  C  C134  1  0.36787000  0.14667000  0.21252000  1.0
  C  C135  1  0.63226000  0.43419000  0.78748000  1.0
  C  C136  1  0.56592000  0.36776000  0.71253000  1.0
  C  C137  1  0.14671000  0.84477000  0.71252000  1.0
  C  C138  1  0.43415000  0.15535000  0.28748000  1.0
  C  C139  1  0.84472000  0.56580000  0.21253000  1.0
  C  C140  1  0.84477000  0.14661000  0.21253000  1.0
  C  C141  1  0.14673000  0.36781000  0.71253000  1.0
  C  C142  1  0.63213000  0.85333000  0.78748000  1.0
  C  C143  1  0.36774000  0.56581000  0.21252000  1.0
  C  C144  1  0.43408000  0.63224000  0.28747000  1.0
  C  C145  1  0.85329000  0.15522000  0.28748000  1.0
  C  C146  1  0.56585000  0.84465000  0.71252000  1.0
  C  C147  1  0.15528000  0.43420000  0.78747000  1.0
  C  C148  1  0.08797000  0.93610000  0.90137000  1.0
  C  C149  1  0.93598000  0.81341000  0.40135000  1.0
  C  C150  1  0.18664000  0.06396000  0.09866000  1.0
  C  C151  1  0.81346000  0.46525000  0.90138000  1.0
  C  C152  1  0.53473000  0.18660000  0.59863000  1.0
  C  C153  1  0.06387000  0.91208000  0.59862000  1.0
  C  C154  1  0.46530000  0.08798000  0.40134000  1.0
  C  C155  1  0.91206000  0.53463000  0.09865000  1.0
  C  C156  1  0.91203000  0.06391000  0.09863000  1.0
  C  C157  1  0.06402000  0.18659000  0.59865000  1.0
  C  C158  1  0.81336000  0.93604000  0.90134000  1.0
  C  C159  1  0.18654000  0.53475000  0.09862000  1.0
  C  C160  1  0.46528000  0.81340000  0.40137000  1.0
  C  C161  1  0.93613000  0.08792000  0.40138000  1.0
  C  C162  1  0.53470000  0.91202000  0.59866000  1.0
  C  C163  1  0.08794000  0.46537000  0.90135000  1.0
  C  C164  1  0.13240000  0.88295000  0.82667000  1.0
  C  C165  1  0.88279000  0.69421000  0.32668000  1.0
  C  C166  1  0.30590000  0.11709000  0.17331000  1.0
  C  C167  1  0.69425000  0.44385000  0.82670000  1.0
  C  C168  1  0.55628000  0.30573000  0.67333000  1.0
  C  C169  1  0.11715000  0.86755000  0.67330000  1.0
  C  C170  1  0.44378000  0.13259000  0.32669000  1.0
  C  C171  1  0.86754000  0.55611000  0.17333000  1.0
  C  C172  1  0.86761000  0.11705000  0.17334000  1.0
  C  C173  1  0.11722000  0.30579000  0.67333000  1.0
  C  C174  1  0.69410000  0.88291000  0.82669000  1.0
  C  C175  1  0.30575000  0.55615000  0.17330000  1.0
  C  C176  1  0.44371000  0.69427000  0.32666000  1.0
  C  C177  1  0.88285000  0.13245000  0.32670000  1.0
  C  C178  1  0.55622000  0.86741000  0.67331000  1.0
  C  C179  1  0.13246000  0.44389000  0.82667000  1.0
  C  C180  1  0.06079000  0.96247000  0.93969000  1.0
  C  C181  1  0.96243000  0.87889000  0.43967000  1.0
  C  C182  1  0.12111000  0.03758000  0.06036000  1.0
  C  C183  1  0.87897000  0.47718000  0.93968000  1.0
  C  C184  1  0.52277000  0.12110000  0.56031000  1.0
  C  C185  1  0.03750000  0.93929000  0.56032000  1.0
  C  C186  1  0.47721000  0.06075000  0.43964000  1.0
  C  C187  1  0.93922000  0.52276000  0.06033000  1.0
  C  C188  1  0.93921000  0.03754000  0.06031000  1.0
  C  C189  1  0.03758000  0.12111000  0.56033000  1.0
  C  C190  1  0.87889000  0.96243000  0.93964000  1.0
  C  C191  1  0.12103000  0.52283000  0.06032000  1.0
  C  C192  1  0.47722000  0.87890000  0.43969000  1.0
  C  C193  1  0.96251000  0.06071000  0.43968000  1.0
  C  C194  1  0.52277000  0.93925000  0.56035000  1.0
  C  C195  1  0.06078000  0.47725000  0.93967000  1.0
  C  C196  1  0.22748000  0.77264000  0.75006000  1.0
  C  C197  1  0.77255000  0.52254000  0.25000000  1.0
  C  C198  1  0.47746000  0.22746000  0.25000000  1.0
  C  C199  1  0.52258000  0.47742000  0.74994000  1.0
  C  C200  1  0.77252000  0.22736000  0.24994000  1.0
  C  C201  1  0.22745000  0.47745000  0.75000000  1.0
  C  C202  1  0.52254000  0.77254000  0.75000000  1.0
  C  C203  1  0.47742000  0.52258000  0.25006000  1.0
  C  C204  1  0.20704000  0.80300000  0.78727000  1.0
  C  C205  1  0.80290000  0.58015000  0.28724000  1.0
  C  C206  1  0.41987000  0.19709000  0.21276000  1.0
  C  C207  1  0.58019000  0.48434000  0.78720000  1.0
  C  C208  1  0.51574000  0.41978000  0.71273000  1.0
  C  C209  1  0.19714000  0.79299000  0.71280000  1.0
  C  C210  1  0.48434000  0.20711000  0.28725000  1.0
  C  C211  1  0.79291000  0.51566000  0.21276000  1.0
  C  C212  1  0.79295000  0.19699000  0.21273000  1.0
  C  C213  1  0.19710000  0.41985000  0.71276000  1.0
  C  C214  1  0.58014000  0.80291000  0.78725000  1.0
  C  C215  1  0.41981000  0.51567000  0.21280000  1.0
  C  C216  1  0.48427000  0.58023000  0.28727000  1.0
  C  C217  1  0.80287000  0.20701000  0.28721000  1.0
  C  C218  1  0.51566000  0.79289000  0.71275000  1.0
  C  C219  1  0.20709000  0.48434000  0.78724000  1.0
  C  C220  1  0.12417000  0.83757000  0.85114000  1.0
  C  C221  1  0.83743000  0.72691000  0.35117000  1.0
  C  C222  1  0.27318000  0.16246000  0.14883000  1.0
  C  C223  1  0.72697000  0.51368000  0.85120000  1.0
  C  C224  1  0.48643000  0.27303000  0.64886000  1.0
  C  C225  1  0.16248000  0.87577000  0.64880000  1.0
  C  C226  1  0.51363000  0.12435000  0.35118000  1.0
  C  C227  1  0.87575000  0.48626000  0.14883000  1.0
  C  C228  1  0.87583000  0.16243000  0.14886000  1.0
  C  C229  1  0.16256000  0.27309000  0.64883000  1.0
  C  C230  1  0.72683000  0.83754000  0.85118000  1.0
  C  C231  1  0.27303000  0.48632000  0.14880000  1.0
  C  C232  1  0.51357000  0.72697000  0.35114000  1.0
  C  C233  1  0.83752000  0.12423000  0.35120000  1.0
  C  C234  1  0.48637000  0.87565000  0.64882000  1.0
  C  C235  1  0.12426000  0.51374000  0.85117000  1.0
  C  C236  1  0.10216000  0.86363000  0.88791000  1.0
  C  C237  1  0.86351000  0.78576000  0.38791000  1.0
  C  C238  1  0.21431000  0.13642000  0.11209000  1.0
  C  C239  1  0.78579000  0.52429000  0.88795000  1.0
  C  C240  1  0.47572000  0.21425000  0.61209000  1.0
  C  C241  1  0.13634000  0.89784000  0.61205000  1.0
  C  C242  1  0.52433000  0.10222000  0.38791000  1.0
  C  C243  1  0.89784000  0.47560000  0.11209000  1.0
  C  C244  1  0.89783000  0.13638000  0.11209000  1.0
  C  C245  1  0.13649000  0.21424000  0.61209000  1.0
  C  C246  1  0.78569000  0.86359000  0.88791000  1.0
  C  C247  1  0.21421000  0.47571000  0.11205000  1.0
  C  C248  1  0.52428000  0.78575000  0.38791000  1.0
  C  C249  1  0.86366000  0.10216000  0.38795000  1.0
  C  C250  1  0.47567000  0.89778000  0.61209000  1.0
  C  C251  1  0.10215000  0.52441000  0.88791000  1.0
  C  C252  1  0.09658000  0.98199000  0.87745000  1.0
  C  C253  1  0.98185000  0.78081000  0.37743000  1.0
  C  C254  1  0.21924000  0.01807000  0.12258000  1.0
  C  C255  1  0.78090000  0.39547000  0.87743000  1.0
  C  C256  1  0.60454000  0.21913000  0.62255000  1.0
  C  C257  1  0.01803000  0.90347000  0.62256000  1.0
  C  C258  1  0.39549000  0.09665000  0.37742000  1.0
  C  C259  1  0.90338000  0.60442000  0.12257000  1.0
  C  C260  1  0.90342000  0.01801000  0.12255000  1.0
  C  C261  1  0.01815000  0.21919000  0.62257000  1.0
  C  C262  1  0.78077000  0.98193000  0.87742000  1.0
  C  C263  1  0.21909000  0.60453000  0.12256000  1.0
  C  C264  1  0.39546000  0.78087000  0.37745000  1.0
  C  C265  1  0.98197000  0.09653000  0.37744000  1.0
  C  C266  1  0.60451000  0.90334000  0.62258000  1.0
  C  C267  1  0.09662000  0.39558000  0.87743000  1.0
  C  C268  1  0.28197000  0.71814000  0.75009000  1.0
  C  C269  1  0.71807000  0.46806000  0.25000000  1.0
  C  C270  1  0.53193000  0.28193000  0.25000000  1.0
  C  C271  1  0.46805000  0.53188000  0.74991000  1.0
  C  C272  1  0.71803000  0.28186000  0.24992000  1.0
  C  C273  1  0.28193000  0.53193000  0.75000000  1.0
  C  C274  1  0.46807000  0.71807000  0.75000000  1.0
  C  C275  1  0.53195000  0.46812000  0.25009000  1.0
  C  C276  1  0.11843000  0.95566000  0.84052000  1.0
  C  C277  1  0.95550000  0.72202000  0.34051000  1.0
  C  C278  1  0.27806000  0.04439000  0.15950000  1.0
  C  C279  1  0.72213000  0.38495000  0.84051000  1.0
  C  C280  1  0.61514000  0.27791000  0.65948000  1.0
  C  C281  1  0.04444000  0.88162000  0.65949000  1.0
  C  C282  1  0.38489000  0.11856000  0.34050000  1.0
  C  C283  1  0.88151000  0.61499000  0.15949000  1.0
  C  C284  1  0.88157000  0.04434000  0.15948000  1.0
  C  C285  1  0.04450000  0.27798000  0.65949000  1.0
  C  C286  1  0.72194000  0.95561000  0.84050000  1.0
  C  C287  1  0.27787000  0.61505000  0.15949000  1.0
  C  C288  1  0.38486000  0.72209000  0.34052000  1.0
  C  C289  1  0.95556000  0.11838000  0.34051000  1.0
  C  C290  1  0.61510000  0.88144000  0.65949000  1.0
  C  C291  1  0.11849000  0.38501000  0.84051000  1.0
  C  C292  1  0.06299000  0.78973000  0.00770000  1.0
  C  C293  1  0.78984000  0.94470000  0.50770000  1.0
  C  C294  1  0.05525000  0.21026000  0.99230000  1.0
  C  C295  1  0.94474000  0.71786000  0.00768000  1.0
  C  C296  1  0.28203000  0.05529000  0.49230000  1.0
  C  C297  1  0.21017000  0.93706000  0.49232000  1.0
  C  C298  1  0.71796000  0.06295000  0.50770000  1.0
  C  C299  1  0.93700000  0.28214000  0.99230000  1.0
  C  C300  1  0.93701000  0.21027000  0.99230000  1.0
  C  C301  1  0.21016000  0.05530000  0.49230000  1.0
  C  C302  1  0.94475000  0.78974000  0.00770000  1.0
  C  C303  1  0.05526000  0.28215000  0.99232000  1.0
  C  C304  1  0.71797000  0.94471000  0.50770000  1.0
  C  C305  1  0.78982000  0.06294000  0.50768000  1.0
  C  C306  1  0.28204000  0.93705000  0.49230000  1.0
  C  C307  1  0.06300000  0.71786000  0.00770000  1.0
  N  N308  1  0.00384000  0.82549000  0.00767000  1.0
  N  N309  1  0.82556000  0.00379000  0.50765000  1.0
  N  N310  1  0.99616000  0.17452000  0.99233000  1.0
  N  N311  1  0.00386000  0.68209000  0.00765000  1.0
  N  N312  1  0.31781000  0.99617000  0.49233000  1.0
  N  N313  1  0.17443000  0.99621000  0.49235000  1.0
  N  N314  1  0.68219000  0.00383000  0.50767000  1.0
  N  N315  1  0.99614000  0.31792000  0.99235000  1.0
  O  O316  1  0.04707000  0.02849000  0.95022000  1.0
  O  O317  1  0.02848000  0.90305000  0.45021000  1.0
  O  O318  1  0.09696000  0.97151000  0.04980000  1.0
  O  O319  1  0.90315000  0.42167000  0.95024000  1.0
  O  O320  1  0.57827000  0.09685000  0.54978000  1.0
  O  O321  1  0.97144000  0.95291000  0.54976000  1.0
  O  O322  1  0.42171000  0.04716000  0.45020000  1.0
  O  O323  1  0.95284000  0.57827000  0.04979000  1.0
  O  O324  1  0.95293000  0.97151000  0.04978000  1.0
  O  O325  1  0.97152000  0.09694000  0.54979000  1.0
  O  O326  1  0.90304000  0.02849000  0.95020000  1.0
  O  O327  1  0.09685000  0.57832000  0.04976000  1.0
  O  O328  1  0.42173000  0.90315000  0.45022000  1.0
  O  O329  1  0.02856000  0.04709000  0.45024000  1.0
  O  O330  1  0.57829000  0.95284000  0.54980000  1.0
  O  O331  1  0.04716000  0.42172000  0.95021000  1.0
  O  O332  1  0.05174000  0.91612000  0.95846000  1.0
  O  O333  1  0.91611000  0.90677000  0.45844000  1.0
  O  O334  1  0.09319000  0.08392000  0.04161000  1.0
  O  O335  1  0.90685000  0.54226000  0.95842000  1.0
  O  O336  1  0.45766000  0.09328000  0.54154000  1.0
  O  O337  1  0.08385000  0.94844000  0.54158000  1.0
  O  O338  1  0.54230000  0.05158000  0.45839000  1.0
  O  O339  1  0.94833000  0.45767000  0.04156000  1.0
  O  O340  1  0.94826000  0.08388000  0.04154000  1.0
  O  O341  1  0.08389000  0.09324000  0.54156000  1.0
  O  O342  1  0.90681000  0.91609000  0.95839000  1.0
  O  O343  1  0.09314000  0.45773000  0.04158000  1.0
  O  O344  1  0.54234000  0.90672000  0.45846000  1.0
  O  O345  1  0.91615000  0.05156000  0.45842000  1.0
  O  O346  1  0.45769000  0.94842000  0.54161000  1.0
  O  O347  1  0.05167000  0.54233000  0.95844000  1.0
  O  O348  1  0.32123000  0.71538000  0.78695000  1.0
  O  O349  1  0.71535000  0.46566000  0.28687000  1.0
  O  O350  1  0.53428000  0.28470000  0.21313000  1.0
  O  O351  1  0.46569000  0.57148000  0.78679000  1.0
  O  O352  1  0.42843000  0.53428000  0.71305000  1.0
  O  O353  1  0.28468000  0.67890000  0.71320000  1.0
  O  O354  1  0.57157000  0.32114000  0.28687000  1.0
  O  O355  1  0.67879000  0.42847000  0.21312000  1.0
  O  O356  1  0.67876000  0.28462000  0.21304000  1.0
  O  O357  1  0.28465000  0.53433000  0.71313000  1.0
  O  O358  1  0.46572000  0.71530000  0.78687000  1.0
  O  O359  1  0.53430000  0.42852000  0.21320000  1.0
  O  O360  1  0.57157000  0.46572000  0.28695000  1.0
  O  O361  1  0.71531000  0.32109000  0.28679000  1.0
  O  O362  1  0.42842000  0.67885000  0.71312000  1.0
  O  O363  1  0.32120000  0.57153000  0.78687000  1.0
  O  O364  1  0.43288000  0.68264000  0.86532000  1.0
  O  O365  1  0.68268000  0.43245000  0.36532000  1.0
  O  O366  1  0.56712000  0.31736000  0.13468000  1.0
  O  O367  1  0.31732000  0.56755000  0.63468000  1.0
