# generated using pymatgen
data_CdH12(CO)6
_symmetry_space_group_name_H-M   'P 1'
_cell_length_a   5.51513000
_cell_length_b   8.79045909
_cell_length_c   10.99800000
_cell_angle_alpha   85.83700040
_cell_angle_beta   89.98010000
_cell_angle_gamma   71.73342778
_symmetry_Int_Tables_number   1
_chemical_formula_structural   CdH12(CO)6
_chemical_formula_sum   'Cd2 H24 C12 O12'
_cell_volume   504.84339680
_cell_formula_units_Z   2
loop_
 _symmetry_equiv_pos_site_id
 _symmetry_equiv_pos_as_xyz
  1  'x, y, z'
loop_
 _atom_site_type_symbol
 _atom_site_label
 _atom_site_symmetry_multiplicity
 _atom_site_fract_x
 _atom_site_fract_y
 _atom_site_fract_z
 _atom_site_occupancy
  Cd  Cd0  1  0.64418000  0.99992000  0.75001000  1.0
  Cd  Cd1  1  0.35581000  0.00009000  0.24999000  1.0
  H  H2  1  0.28584000  0.76522000  0.05071000  1.0
  H  H3  1  0.94880000  0.76526000  0.55082000  1.0
  H  H4  1  0.71415000  0.23478000  0.94930000  1.0
  H  H5  1  0.05121000  0.23473000  0.44917000  1.0
  H  H6  1  0.09736000  0.63812000  0.07025000  1.0
  H  H7  1  0.26426000  0.63816000  0.57030000  1.0
  H  H8  1  0.90264000  0.36188000  0.92975000  1.0
  H  H9  1  0.73574000  0.36184000  0.42970000  1.0
  H  H10  1  0.52731000  0.60387000  0.88540000  1.0
  H  H11  1  0.86858000  0.60399000  0.38553000  1.0
  H  H12  1  0.47268000  0.39614000  0.11460000  1.0
  H  H13  1  0.13143000  0.39600000  0.61447000  1.0
  H  H14  1  0.32969000  0.48026000  0.89549000  1.0
  H  H15  1  0.18986000  0.48054000  0.39535000  1.0
  H  H16  1  0.67030000  0.51975000  0.10451000  1.0
  H  H17  1  0.81015000  0.51946000  0.60465000  1.0
  H  H18  1  0.14054000  0.19235000  0.77297000  1.0
  H  H19  1  0.66645000  0.19269000  0.27304000  1.0
  H  H20  1  0.85946000  0.80765000  0.22702000  1.0
  H  H21  1  0.33355000  0.80731000  0.72696000  1.0
  H  H22  1  0.26727000  0.15573000  0.90829000  1.0
  H  H23  1  0.57650000  0.15583000  0.40836000  1.0
  H  H24  1  0.73273000  0.84427000  0.09171000  1.0
  H  H25  1  0.42350000  0.84417000  0.59164000  1.0
  C  C26  1  0.01058000  0.79712000  0.91035000  1.0
  C  C27  1  0.19231000  0.79734000  0.41050000  1.0
  C  C28  1  0.98942000  0.20288000  0.08965000  1.0
  C  C29  1  0.80769000  0.20266000  0.58949000  1.0
  C  C30  1  0.20241000  0.68787000  0.00144000  1.0
  C  C31  1  0.10960000  0.68798000  0.50149000  1.0
  C  C32  1  0.79759000  0.31213000  0.99857000  1.0
  C  C33  1  0.89042000  0.31201000  0.49851000  1.0
  C  C34  1  0.41335000  0.55338000  0.94908000  1.0
  C  C35  1  0.03315000  0.55349000  0.44908000  1.0
  C  C36  1  0.58665000  0.44662000  0.05092000  1.0
  C  C37  1  0.96686000  0.44650000  0.55092000  1.0
  O  O38  1  0.79052000  0.87830000  0.94824000  1.0
  O  O39  1  0.33107000  0.87860000  0.44838000  1.0
  O  O40  1  0.20946000  0.12170000  0.05176000  1.0
  O  O41  1  0.66893000  0.12140000  0.55161000  1.0
  O  O42  1  0.06281000  0.81116000  0.79802000  1.0
  O  O43  1  0.12634000  0.81134000  0.29815000  1.0
  O  O44  1  0.93719000  0.18884000  0.20198000  1.0
  O  O45  1  0.87366000  0.18866000  0.70185000  1.0
  O  O46  1  0.29982000  0.18327000  0.82040000  1.0
  O  O47  1  0.51624000  0.18361000  0.32051000  1.0
  O  O48  1  0.70017000  0.81674000  0.17960000  1.0
  O  O49  1  0.48375000  0.81639000  0.67949000  1.0
