# generated using pymatgen
data_Zn2H22C28(N2O3)3
_symmetry_space_group_name_H-M   'P 1'
_cell_length_a   11.04090000
_cell_length_b   11.50500000
_cell_length_c   12.20730000
_cell_angle_alpha   93.59620000
_cell_angle_beta   107.08300000
_cell_angle_gamma   106.29600000
_symmetry_Int_Tables_number   1
_chemical_formula_structural   Zn2H22C28(N2O3)3
_chemical_formula_sum   'Zn4 H44 C56 N12 O18'
_cell_volume   1404.75914014
_cell_formula_units_Z   2
loop_
 _symmetry_equiv_pos_site_id
 _symmetry_equiv_pos_as_xyz
  1  'x, y, z'
loop_
 _atom_site_type_symbol
 _atom_site_label
 _atom_site_symmetry_multiplicity
 _atom_site_fract_x
 _atom_site_fract_y
 _atom_site_fract_z
 _atom_site_occupancy
  Zn  Zn0  1  0.68545000  0.25008000  0.03996000  1.0
  Zn  Zn1  1  0.31455000  0.74993000  0.96004000  1.0
  Zn  Zn2  1  0.74722000  0.01389000  0.77902000  1.0
  Zn  Zn3  1  0.25278000  0.98611000  0.22098000  1.0
  H  H4  1  0.94862000  0.10716000  0.99116000  1.0
  H  H5  1  0.05138000  0.89283000  0.00884000  1.0
  H  H6  1  0.99219000  0.03944000  0.89578000  1.0
  H  H7  1  0.00781000  0.96056000  0.10422000  1.0
  H  H8  1  0.07728000  0.53043000  0.94094000  1.0
  H  H9  1  0.92272000  0.46958000  0.05906000  1.0
  H  H10  1  0.03756000  0.32264000  0.00469000  1.0
  H  H11  1  0.96244000  0.67736000  0.99531000  1.0
  H  H12  1  0.23599000  0.26396000  0.11706000  1.0
  H  H13  1  0.76401000  0.73604000  0.88294000  1.0
  H  H14  1  0.46449000  0.41780000  0.16653000  1.0
  H  H15  1  0.53551000  0.58220000  0.83347000  1.0
  H  H16  1  0.68230000  0.58653000  0.21402000  1.0
  H  H17  1  0.31770000  0.41347000  0.78598000  1.0
  H  H18  1  0.82893000  0.82736000  0.21085000  1.0
  H  H19  1  0.17107000  0.17264000  0.78914000  1.0
  H  H20  1  0.76173000  0.00997000  0.15708000  1.0
  H  H21  1  0.23827000  0.99003000  0.84292000  1.0
  H  H22  1  0.58981000  0.99280000  0.10956000  1.0
  H  H23  1  0.41019000  0.00720000  0.89045000  1.0
  H  H24  1  0.95200000  0.26415000  0.79904000  1.0
  H  H25  1  0.04800000  0.73585000  0.20096000  1.0
  H  H26  1  0.94829000  0.47534000  0.75304000  1.0
  H  H27  1  0.05171000  0.52466000  0.24696000  1.0
  H  H28  1  0.72700000  0.50507000  0.65952000  1.0
  H  H29  1  0.27300000  0.49492000  0.34048000  1.0
  H  H30  1  0.51903000  0.32449000  0.61154000  1.0
  H  H31  1  0.48096000  0.67551000  0.38846000  1.0
  H  H32  1  0.32558000  0.12974000  0.55852000  1.0
  H  H33  1  0.67442000  0.87025000  0.44148000  1.0
  H  H34  1  0.21886000  0.88066000  0.54784000  1.0
  H  H35  1  0.78114000  0.11933000  0.45216000  1.0
  H  H36  1  0.51157000  0.75880000  0.65583000  1.0
  H  H37  1  0.48842000  0.24119000  0.34417000  1.0
  H  H38  1  0.34073000  0.70959000  0.56858000  1.0
  H  H39  1  0.65927000  0.29041000  0.43142000  1.0
  H  H40  1  0.88751000  0.88262000  0.44981000  1.0
  H  H41  1  0.11249000  0.11738000  0.55019000  1.0
  H  H42  1  0.95071000  0.72345000  0.35708000  1.0
  H  H43  1  0.04929000  0.27655000  0.64292000  1.0
  H  H44  1  0.05890000  0.58897000  0.47692000  1.0
  H  H45  1  0.94110000  0.41103000  0.52308000  1.0
  H  H46  1  0.10455000  0.61981000  0.69070000  1.0
  H  H47  1  0.89545000  0.38019000  0.30930000  1.0
  C  C48  1  0.15871000  0.50011000  0.99120000  1.0
  C  C49  1  0.84129000  0.49990000  0.00880000  1.0
  C  C50  1  0.13816000  0.38551000  0.02619000  1.0
  C  C51  1  0.86184000  0.61449000  0.97381000  1.0
  C  C52  1  0.24843000  0.35392000  0.09013000  1.0
  C  C53  1  0.75157000  0.64609000  0.90987000  1.0
  C  C54  1  0.37522000  0.43858000  0.11760000  1.0
  C  C55  1  0.62477000  0.56142000  0.88240000  1.0
  C  C56  1  0.38840000  0.55258000  0.08032000  1.0
  C  C57  1  0.61160000  0.44743000  0.91968000  1.0
  C  C58  1  0.51597000  0.64907000  0.10759000  1.0
  C  C59  1  0.48403000  0.35093000  0.89241000  1.0
  C  C60  1  0.64810000  0.65759000  0.17270000  1.0
  C  C61  1  0.35190000  0.34241000  0.82730000  1.0
  C  C62  1  0.72348000  0.77616000  0.17105000  1.0
  C  C63  1  0.27652000  0.22385000  0.82895000  1.0
  C  C64  1  0.66589000  0.95810000  0.09160000  1.0
  C  C65  1  0.33411000  0.04190000  0.90840000  1.0
  C  C66  1  0.67778000  0.98562000  0.97381000  1.0
  C  C67  1  0.32222000  0.01439000  0.02619000  1.0
  C  C68  1  0.85958000  0.28339000  0.75688000  1.0
  C  C69  1  0.14042000  0.71661000  0.24312000  1.0
  C  C70  1  0.85623000  0.39908000  0.73149000  1.0
  C  C71  1  0.14377000  0.60092000  0.26851000  1.0
  C  C72  1  0.73262000  0.41515000  0.67903000  1.0
  C  C73  1  0.26738000  0.58484000  0.32097000  1.0
  C  C74  1  0.61711000  0.31523000  0.65223000  1.0
  C  C75  1  0.38288000  0.68476000  0.34777000  1.0
  C  C76  1  0.62819000  0.20120000  0.67884000  1.0
  C  C77  1  0.37181000  0.79879000  0.32116000  1.0
  C  C78  1  0.51467000  0.08961000  0.65007000  1.0
  C  C79  1  0.48533000  0.91038000  0.34993000  1.0
  C  C80  1  0.37704000  0.06585000  0.59289000  1.0
  C  C81  1  0.62295000  0.93414000  0.40711000  1.0
  C  C82  1  0.32110000  0.94041000  0.58539000  1.0
  C  C83  1  0.67890000  0.05959000  0.41462000  1.0
  C  C84  1  0.41355000  0.76904000  0.64791000  1.0
  C  C85  1  0.58645000  0.23096000  0.35209000  1.0
  C  C86  1  0.37270000  0.72447000  0.75179000  1.0
  C  C87  1  0.62730000  0.27553000  0.24821000  1.0
  C  C88  1  0.95154000  0.83699000  0.62218000  1.0
  C  C89  1  0.04846000  0.16301000  0.37782000  1.0
  C  C90  1  0.92988000  0.82172000  0.50249000  1.0
  C  C91  1  0.07012000  0.17828000  0.49751000  1.0
  C  C92  1  0.96717000  0.73250000  0.45004000  1.0
  C  C93  1  0.03283000  0.26750000  0.54996000  1.0
  C  C94  1  0.02838000  0.65811000  0.51730000  1.0
  C  C95  1  0.97162000  0.34189000  0.48270000  1.0
  C  C96  1  0.05287000  0.67448000  0.63684000  1.0
  C  C97  1  0.94713000  0.32552000  0.36316000  1.0
  C  C98  1  0.01561000  0.76379000  0.69099000  1.0
  C  C99  1  0.98440000  0.23621000  0.30901000  1.0
  C  C100  1  0.90626000  0.93397000  0.67174000  1.0
  C  C101  1  0.09374000  0.06603000  0.32826000  1.0
  C  C102  1  0.05276000  0.78357000  0.82118000  1.0
  C  C103  1  0.94724000  0.21643000  0.17882000  1.0
  N  N104  1  0.28063000  0.58202000  0.01730000  1.0
  N  N105  1  0.71937000  0.41798000  0.98270000  1.0
  N  N106  1  0.51217000  0.75555000  0.06900000  1.0
  N  N107  1  0.48783000  0.24445000  0.93100000  1.0
  N  N108  1  0.63819000  0.83122000  0.10771000  1.0
  N  N109  1  0.36181000  0.16878000  0.89229000  1.0
  N  N110  1  0.74854000  0.18726000  0.73174000  1.0
  N  N111  1  0.25146000  0.81274000  0.26826000  1.0
  N  N112  1  0.54006000  0.98469000  0.67573000  1.0
  N  N113  1  0.45994000  0.01531000  0.32426000  1.0
  N  N114  1  0.42227000  0.89529000  0.63544000  1.0
  N  N115  1  0.57773000  0.10471000  0.36456000  1.0
  O  O116  1  0.67474000  0.09134000  0.94887000  1.0
  O  O117  1  0.32526000  0.90866000  0.05113000  1.0
  O  O118  1  0.69528000  0.90880000  0.90643000  1.0
  O  O119  1  0.30472000  0.09121000  0.09358000  1.0
  O  O120  1  0.34963000  0.61281000  0.75694000  1.0
  O  O121  1  0.65037000  0.38719000  0.24306000  1.0
  O  O122  1  0.36555000  0.80651000  0.82383000  1.0
  O  O123  1  0.63446000  0.19349000  0.17617000  1.0
  O  O124  1  0.79087000  0.89365000  0.68622000  1.0
  O  O125  1  0.20913000  0.10635000  0.31378000  1.0
  O  O126  1  0.97608000  0.04384000  0.68901000  1.0
  O  O127  1  0.02392000  0.95616000  0.31099000  1.0
  O  O128  1  0.03055000  0.87227000  0.87067000  1.0
  O  O129  1  0.96945000  0.12773000  0.12933000  1.0
  O  O130  1  0.10773000  0.71015000  0.87563000  1.0
  O  O131  1  0.89227000  0.28985000  0.12437000  1.0
  O  O132  1  0.94132000  0.09404000  0.90637000  1.0
  O  O133  1  0.05868000  0.90596000  0.09363000  1.0
