# generated using pymatgen
data_CuH3(CN2)2
_symmetry_space_group_name_H-M   'P 1'
_cell_length_a   8.23597000
_cell_length_b   9.53314000
_cell_length_c   10.28380000
_cell_angle_alpha   90.00010000
_cell_angle_beta   90.00020000
_cell_angle_gamma   71.87300000
_symmetry_Int_Tables_number   1
_chemical_formula_structural   CuH3(CN2)2
_chemical_formula_sum   'Cu8 H24 C16 N32'
_cell_volume   767.35568066
_cell_formula_units_Z   8
loop_
 _symmetry_equiv_pos_site_id
 _symmetry_equiv_pos_as_xyz
  1  'x, y, z'
loop_
 _atom_site_type_symbol
 _atom_site_label
 _atom_site_symmetry_multiplicity
 _atom_site_fract_x
 _atom_site_fract_y
 _atom_site_fract_z
 _atom_site_occupancy
  Cu  Cu0  1  0.68910000  0.01393000  0.38279000  1.0
  Cu  Cu1  1  0.81090000  0.48607000  0.88279000  1.0
  Cu  Cu2  1  0.31090000  0.98608000  0.61721000  1.0
  Cu  Cu3  1  0.18910000  0.51393000  0.11721000  1.0
  Cu  Cu4  1  0.99792000  0.84126000  0.61598000  1.0
  Cu  Cu5  1  0.50208000  0.65874000  0.11598000  1.0
  Cu  Cu6  1  0.00208000  0.15875000  0.38402000  1.0
  Cu  Cu7  1  0.49792000  0.34126000  0.88402000  1.0
  H  H8  1  0.45618000  0.27177000  0.58288000  1.0
  H  H9  1  0.04382000  0.22823000  0.08288000  1.0
  H  H10  1  0.54382000  0.72823000  0.41712000  1.0
  H  H11  1  0.95618000  0.77177000  0.91712000  1.0
  H  H12  1  0.68608000  0.83971000  0.14307000  1.0
  H  H13  1  0.81392000  0.66029000  0.64307000  1.0
  H  H14  1  0.31392000  0.16029000  0.85693000  1.0
  H  H15  1  0.18608000  0.33971000  0.35693000  1.0
  H  H16  1  0.81741000  0.68648000  0.07358000  1.0
  H  H17  1  0.68259000  0.81352000  0.57358000  1.0
  H  H18  1  0.18259000  0.31352000  0.92642000  1.0
  H  H19  1  0.31741000  0.18647000  0.42641000  1.0
  H  H20  1  0.20456000  0.56338000  0.43091000  1.0
  H  H21  1  0.29544000  0.93662000  0.93090000  1.0
  H  H22  1  0.79544000  0.43662000  0.56910000  1.0
  H  H23  1  0.70456000  0.06338000  0.06910000  1.0
  H  H24  1  0.86714000  0.16767000  0.91998000  1.0
  H  H25  1  0.63286000  0.33233000  0.41997000  1.0
  H  H26  1  0.13286000  0.83233000  0.08002000  1.0
  H  H27  1  0.36714000  0.66767000  0.58003000  1.0
  H  H28  1  0.00046000  0.01611000  0.84868000  1.0
  H  H29  1  0.49954000  0.48388000  0.34868000  1.0
  H  H30  1  0.99954000  0.98388000  0.15132000  1.0
  H  H31  1  0.50046000  0.51612000  0.65132000  1.0
  C  C32  1  0.89897000  0.73995000  0.24536000  1.0
  C  C33  1  0.60103000  0.76004000  0.74536000  1.0
  C  C34  1  0.10103000  0.26004000  0.75464000  1.0
  C  C35  1  0.39897000  0.23996000  0.25464000  1.0
  C  C36  1  0.09312000  0.63807000  0.38365000  1.0
  C  C37  1  0.40688000  0.86193000  0.88365000  1.0
  C  C38  1  0.90689000  0.36193000  0.61635000  1.0
  C  C39  1  0.59312000  0.13807000  0.11635000  1.0
  C  C40  1  0.77813000  0.10384000  0.75686000  1.0
  C  C41  1  0.72186000  0.39616000  0.25686000  1.0
  C  C42  1  0.22187000  0.89616000  0.24314000  1.0
  C  C43  1  0.27813000  0.60384000  0.74314000  1.0
  C  C44  1  0.57368000  0.19986000  0.62476000  1.0
  C  C45  1  0.92632000  0.30014000  0.12476000  1.0
  C  C46  1  0.42632000  0.80014000  0.37524000  1.0
  C  C47  1  0.07368000  0.69986000  0.87524000  1.0
  N  N48  1  0.85902000  0.82061000  0.35435000  1.0
  N  N49  1  0.64098000  0.67938000  0.85435000  1.0
  N  N50  1  0.14098000  0.17939000  0.64565000  1.0
  N  N51  1  0.35902000  0.32062000  0.14565000  1.0
  N  N52  1  0.98713000  0.75340000  0.44411000  1.0
  N  N53  1  0.51288000  0.74660000  0.94411000  1.0
  N  N54  1  0.01288000  0.24661000  0.55589000  1.0
  N  N55  1  0.48712000  0.25340000  0.05589000  1.0
  N  N56  1  0.04582000  0.62474000  0.25806000  1.0
  N  N57  1  0.45418000  0.87526000  0.75806000  1.0
  N  N58  1  0.95418000  0.37526000  0.74194000  1.0
  N  N59  1  0.54581000  0.12474000  0.24194000  1.0
  N  N60  1  0.80992000  0.77585000  0.13086000  1.0
  N  N61  1  0.69008000  0.72415000  0.63086000  1.0
  N  N62  1  0.19008000  0.22416000  0.86914000  1.0
  N  N63  1  0.30992000  0.27584000  0.36914000  1.0
  N  N64  1  0.81616000  0.02440000  0.64739000  1.0
  N  N65  1  0.68384000  0.47560000  0.14739000  1.0
  N  N66  1  0.18384000  0.97560000  0.35261000  1.0
  N  N67  1  0.31616000  0.52440000  0.85261000  1.0
  N  N68  1  0.68234000  0.08751000  0.56102000  1.0
  N  N69  1  0.81766000  0.41249000  0.06102000  1.0
  N  N70  1  0.31766000  0.91249000  0.43898000  1.0
  N  N71  1  0.18234000  0.58751000  0.93898000  1.0
  N  N72  1  0.62738000  0.21502000  0.74753000  1.0
  N  N73  1  0.87261000  0.28498000  0.24753000  1.0
  N  N74  1  0.37262000  0.78498000  0.25247000  1.0
  N  N75  1  0.12738000  0.71502000  0.75247000  1.0
  N  N76  1  0.87636000  0.07446000  0.86768000  1.0
  N  N77  1  0.62364000  0.42554000  0.36768000  1.0
  N  N78  1  0.12364000  0.92554000  0.13232000  1.0
  N  N79  1  0.37635000  0.57447000  0.63233000  1.0
