# generated using pymatgen
data_Nd2H28C26O19
_symmetry_space_group_name_H-M   'P 1'
_cell_length_a   12.34420000
_cell_length_b   12.81600000
_cell_length_c   24.28720000
_cell_angle_alpha   90.00000000
_cell_angle_beta   90.00010000
_cell_angle_gamma   89.99990000
_symmetry_Int_Tables_number   1
_chemical_formula_structural   Nd2H28C26O19
_chemical_formula_sum   'Nd8 H112 C104 O76'
_cell_volume   3842.31439113
_cell_formula_units_Z   4
loop_
 _symmetry_equiv_pos_site_id
 _symmetry_equiv_pos_as_xyz
  1  'x, y, z'
loop_
 _atom_site_type_symbol
 _atom_site_label
 _atom_site_symmetry_multiplicity
 _atom_site_fract_x
 _atom_site_fract_y
 _atom_site_fract_z
 _atom_site_occupancy
  Nd  Nd0  1  0.94749000  0.39875000  0.06757000  1.0
  Nd  Nd1  1  0.94748000  0.60126000  0.93243000  1.0
  Nd  Nd2  1  0.05251000  0.89875000  0.43243000  1.0
  Nd  Nd3  1  0.05252000  0.10126000  0.56757000  1.0
  Nd  Nd4  1  0.73044000  0.62033000  0.41479000  1.0
  Nd  Nd5  1  0.73045000  0.37967000  0.58520000  1.0
  Nd  Nd6  1  0.26955000  0.12033000  0.08520000  1.0
  Nd  Nd7  1  0.26956000  0.87966000  0.91479000  1.0
  H  H8  1  0.09768000  0.30235000  0.25383000  1.0
  H  H9  1  0.09768000  0.69765000  0.74617000  1.0
  H  H10  1  0.90232000  0.80235000  0.24617000  1.0
  H  H11  1  0.90232000  0.19765000  0.75383000  1.0
  H  H12  1  0.75015000  0.33255000  0.24189000  1.0
  H  H13  1  0.75014000  0.66746000  0.75811000  1.0
  H  H14  1  0.24985000  0.83254000  0.25811000  1.0
  H  H15  1  0.24985000  0.16746000  0.74189000  1.0
  H  H16  1  0.90114000  0.26672000  0.39888000  1.0
  H  H17  1  0.90115000  0.73328000  0.60112000  1.0
  H  H18  1  0.09885000  0.76671000  0.10112000  1.0
  H  H19  1  0.09886000  0.23328000  0.89888000  1.0
  H  H20  1  0.05655000  0.28964000  0.43776000  1.0
  H  H21  1  0.05656000  0.71036000  0.56224000  1.0
  H  H22  1  0.94344000  0.78964000  0.06224000  1.0
  H  H23  1  0.94345000  0.21036000  0.93777000  1.0
  H  H24  1  0.27228000  0.18371000  0.40787000  1.0
  H  H25  1  0.27228000  0.81629000  0.59213000  1.0
  H  H26  1  0.72771000  0.68371000  0.09213000  1.0
  H  H27  1  0.72772000  0.31629000  0.90787000  1.0
  H  H28  1  0.22879000  0.22172000  0.47523000  1.0
  H  H29  1  0.22879000  0.77828000  0.52478000  1.0
  H  H30  1  0.77121000  0.72172000  0.02478000  1.0
  H  H31  1  0.77121000  0.27828000  0.97522000  1.0
  H  H32  1  0.25579000  0.31855000  0.42483000  1.0
  H  H33  1  0.25579000  0.68145000  0.57517000  1.0
  H  H34  1  0.74421000  0.81855000  0.07517000  1.0
  H  H35  1  0.74421000  0.18145000  0.92483000  1.0
  H  H36  1  0.73293000  0.20386000  0.40885000  1.0
  H  H37  1  0.73293000  0.79614000  0.59115000  1.0
  H  H38  1  0.26706000  0.70386000  0.09115000  1.0
  H  H39  1  0.26706000  0.29614000  0.90885000  1.0
  H  H40  1  0.53100000  0.34436000  0.40225000  1.0
  H  H41  1  0.53100000  0.65564000  0.59775000  1.0
  H  H42  1  0.46900000  0.84436000  0.09775000  1.0
  H  H43  1  0.46901000  0.15564000  0.90225000  1.0
  H  H44  1  0.55580000  0.24544000  0.45217000  1.0
  H  H45  1  0.55580000  0.75456000  0.54783000  1.0
  H  H46  1  0.44420000  0.74544000  0.04783000  1.0
  H  H47  1  0.44420000  0.25456000  0.95217000  1.0
  H  H48  1  0.53872000  0.21005000  0.38187000  1.0
  H  H49  1  0.53872000  0.78995000  0.61812000  1.0
  H  H50  1  0.46128000  0.71005000  0.11813000  1.0
  H  H51  1  0.46128000  0.28995000  0.88187000  1.0
  H  H52  1  0.90860000  0.00000000  0.00000000  1.0
  H  H53  1  0.09140000  0.50000000  0.50000000  1.0
  H  H54  1  0.60596000  0.04333000  0.08592000  1.0
  H  H55  1  0.60597000  0.95667000  0.91408000  1.0
  H  H56  1  0.39403000  0.54333000  0.41408000  1.0
  H  H57  1  0.39404000  0.45667000  0.58592000  1.0
  H  H58  1  0.95685000  0.97411000  0.08577000  1.0
  H  H59  1  0.95686000  0.02589000  0.91423000  1.0
  H  H60  1  0.04314000  0.47411000  0.41423000  1.0
  H  H61  1  0.04315000  0.52590000  0.58577000  1.0
  H  H62  1  0.91487000  0.12170000  0.18340000  1.0
  H  H63  1  0.91487000  0.87830000  0.81660000  1.0
  H  H64  1  0.08513000  0.62170000  0.31660000  1.0
  H  H65  1  0.08513000  0.37830000  0.68340000  1.0
  H  H66  1  0.03185000  0.04164000  0.17323000  1.0
  H  H67  1  0.03186000  0.95837000  0.82677000  1.0
  H  H68  1  0.96814000  0.54163000  0.32677000  1.0
  H  H69  1  0.96815000  0.45837000  0.67323000  1.0
  H  H70  1  0.90324000  0.98319000  0.18484000  1.0
  H  H71  1  0.90325000  0.01681000  0.81516000  1.0
  H  H72  1  0.09675000  0.48319000  0.31516000  1.0
  H  H73  1  0.09676000  0.51681000  0.68484000  1.0
  H  H74  1  0.59173000  0.50999000  0.91125000  1.0
  H  H75  1  0.59174000  0.49001000  0.08875000  1.0
  H  H76  1  0.40827000  0.00999000  0.58875000  1.0
  H  H77  1  0.40826000  0.99001000  0.41125000  1.0
  H  H78  1  0.28851000  0.50000000  0.00000000  1.0
  H  H79  1  0.71149000  0.00000000  0.50000000  1.0
  H  H80  1  0.23518000  0.44063000  0.92155000  1.0
  H  H81  1  0.23518000  0.55936000  0.07845000  1.0
  H  H82  1  0.76482000  0.94064000  0.57845000  1.0
  H  H83  1  0.76482000  0.05936000  0.42155000  1.0
  H  H84  1  0.27010000  0.55834000  0.81243000  1.0
  H  H85  1  0.27010000  0.44166000  0.18757000  1.0
  H  H86  1  0.72990000  0.05834000  0.68757000  1.0
  H  H87  1  0.72990000  0.94166000  0.31243000  1.0
  H  H88  1  0.14935000  0.49208000  0.83276000  1.0
  H  H89  1  0.14935000  0.50791000  0.16725000  1.0
  H  H90  1  0.85065000  0.99209000  0.66725000  1.0
  H  H91  1  0.85065000  0.00792000  0.33275000  1.0
  H  H92  1  0.26985000  0.41948000  0.81972000  1.0
  H  H93  1  0.26985000  0.58052000  0.18028000  1.0
  H  H94  1  0.73015000  0.91948000  0.68028000  1.0
  H  H95  1  0.73015000  0.08052000  0.31972000  1.0
  H  H96  1  0.87071000  0.74304000  0.32850000  1.0
  H  H97  1  0.87071000  0.25696000  0.67149000  1.0
  H  H98  1  0.12929000  0.24305000  0.17149000  1.0
  H  H99  1  0.12929000  0.75696000  0.82850000  1.0
  H  H100  1  0.81514000  0.65346000  0.29246000  1.0
  H  H101  1  0.81514000  0.34654000  0.70753000  1.0
  H  H102  1  0.18486000  0.15346000  0.20753000  1.0
  H  H103  1  0.18486000  0.84654000  0.79246000  1.0
  H  H104  1  0.48957000  0.69602000  0.40000000  1.0
  H  H105  1  0.48957000  0.30399000  0.60000000  1.0
  H  H106  1  0.51043000  0.19601000  0.10000000  1.0
  H  H107  1  0.51043000  0.80398000  0.90000000  1.0
  H  H108  1  0.57898000  0.77720000  0.38255000  1.0
  H  H109  1  0.57899000  0.22280000  0.61745000  1.0
  H  H110  1  0.42101000  0.27719000  0.11745000  1.0
  H  H111  1  0.42102000  0.72279000  0.88255000  1.0
  H  H112  1  0.66928000  0.44123000  0.33262000  1.0
  H  H113  1  0.66928000  0.55877000  0.66737000  1.0
  H  H114  1  0.33071000  0.94123000  0.16737000  1.0
  H  H115  1  0.33072000  0.05877000  0.83262000  1.0
  H  H116  1  0.59134000  0.53457000  0.31491000  1.0
  H  H117  1  0.59135000  0.46543000  0.68509000  1.0
  H  H118  1  0.40865000  0.03457000  0.18509000  1.0
  H  H119  1  0.40866000  0.96543000  0.81491000  1.0
  C  C120  1  0.00894000  0.28050000  0.32896000  1.0
  C  C121  1  0.00894000  0.71950000  0.67104000  1.0
  C  C122  1  0.99106000  0.78050000  0.17104000  1.0
  C  C123  1  0.99106000  0.21950000  0.82896000  1.0
  C  C124  1  0.01763000  0.29906000  0.27248000  1.0
  C  C125  1  0.01762000  0.70094000  0.72752000  1.0
  C  C126  1  0.98237000  0.79906000  0.22752000  1.0
  C  C127  1  0.98238000  0.20094000  0.77248000  1.0
  C  C128  1  0.92436000  0.31679000  0.24150000  1.0
  C  C129  1  0.92436000  0.68320000  0.75850000  1.0
  C  C130  1  0.07564000  0.81680000  0.25850000  1.0
  C  C131  1  0.07564000  0.18321000  0.74150000  1.0
  C  C132  1  0.82235000  0.31807000  0.26647000  1.0
  C  C133  1  0.82235000  0.68193000  0.73353000  1.0
  C  C134  1  0.17765000  0.81807000  0.23353000  1.0
  C  C135  1  0.17765000  0.18193000  0.76647000  1.0
  C  C136  1  0.81512000  0.30093000  0.32298000  1.0
  C  C137  1  0.81512000  0.69907000  0.67702000  1.0
  C  C138  1  0.18488000  0.80093000  0.17702000  1.0
  C  C139  1  0.18488000  0.19907000  0.82298000  1.0
  C  C140  1  0.90730000  0.27984000  0.35478000  1.0
  C  C141  1  0.90730000  0.72016000  0.64522000  1.0
  C  C142  1  0.09270000  0.77983000  0.14522000  1.0
  C  C143  1  0.09270000  0.22016000  0.85478000  1.0
  C  C144  1  0.10562000  0.23634000  0.41216000  1.0
  C  C145  1  0.10562000  0.76367000  0.58785000  1.0
  C  C146  1  0.89438000  0.73633000  0.08785000  1.0
  C  C147  1  0.89439000  0.26366000  0.91215000  1.0
  C  C148  1  0.05998000  0.12591000  0.41842000  1.0
  C  C149  1  0.05998000  0.87409000  0.58159000  1.0
  C  C150  1  0.94002000  0.62591000  0.08159000  1.0
  C  C151  1  0.94002000  0.37409000  0.91842000  1.0
  C  C152  1  0.22331000  0.23984000  0.43124000  1.0
  C  C153  1  0.22331000  0.76016000  0.56876000  1.0
  C  C154  1  0.77669000  0.73984000  0.06876000  1.0
  C  C155  1  0.77669000  0.26016000  0.93124000  1.0
  C  C156  1  0.69366000  0.27952000  0.40125000  1.0
  C  C157  1  0.69366000  0.72047000  0.59874000  1.0
  C  C158  1  0.30634000  0.77952000  0.09875000  1.0
  C  C159  1  0.30635000  0.22047000  0.90125000  1.0
  C  C160  1  0.74256000  0.35805000  0.44207000  1.0
  C  C161  1  0.74256000  0.64195000  0.55793000  1.0
  C  C162  1  0.25744000  0.85805000  0.05793000  1.0
  C  C163  1  0.25744000  0.14194000  0.94207000  1.0
  C  C164  1  0.57180000  0.26949000  0.40963000  1.0
  C  C165  1  0.57180000  0.73051000  0.59037000  1.0
  C  C166  1  0.42820000  0.76949000  0.09037000  1.0
  C  C167  1  0.42820000  0.23051000  0.90963000  1.0
  C  C168  1  0.93250000  0.33560000  0.18110000  1.0
  C  C169  1  0.93250000  0.66440000  0.81890000  1.0
  C  C170  1  0.06750000  0.83560000  0.31890000  1.0
  C  C171  1  0.06750000  0.16440000  0.68110000  1.0
  C  C172  1  0.82048000  0.00000000  0.00000000  1.0
  C  C173  1  0.17952000  0.50000000  0.50000000  1.0
  C  C174  1  0.76241000  0.02550000  0.04789000  1.0
  C  C175  1  0.76241000  0.97450000  0.95211000  1.0
  C  C176  1  0.23759000  0.52550000  0.45211000  1.0
  C  C177  1  0.23759000  0.47450000  0.54789000  1.0
  C  C178  1  0.64911000  0.02582000  0.04795000  1.0
  C  C179  1  0.64911000  0.97419000  0.95205000  1.0
  C  C180  1  0.35089000  0.52581000  0.45205000  1.0
  C  C181  1  0.35089000  0.47418000  0.54795000  1.0
  C  C182  1  0.59284000  0.00000000  1.00000000  1.0
  C  C183  1  0.40716000  0.50000000  0.50000000  1.0
  C  C184  1  0.47132000  0.00000000  0.00000000  1.0
  C  C185  1  0.52868000  0.50000000  0.50000000  1.0
  C  C186  1  0.92332000  0.04661000  0.10344000  1.0
  C  C187  1  0.92333000  0.95339000  0.89656000  1.0
  C  C188  1  0.07667000  0.54660000  0.39656000  1.0
  C  C189  1  0.07668000  0.45340000  0.60344000  1.0
  C  C190  1  0.97985000  0.13908000  0.07501000  1.0
  C  C191  1  0.97986000  0.86093000  0.92499000  1.0
  C  C192  1  0.02014000  0.63907000  0.42499000  1.0
  C  C193  1  0.02015000  0.36093000  0.57501000  1.0
  C  C194  1  0.94487000  0.04888000  0.16525000  1.0
  C  C195  1  0.94487000  0.95112000  0.83475000  1.0
  C  C196  1  0.05513000  0.54888000  0.33475000  1.0
  C  C197  1  0.05513000  0.45112000  0.66525000  1.0
  C  C198  1  0.60272000  0.50000000  1.00000000  1.0
  C  C199  1  0.39728000  0.00000000  0.50000000  1.0
  C  C200  1  0.54736000  0.50518000  0.94993000  1.0
  C  C201  1  0.54736000  0.49482000  0.05007000  1.0
  C  C202  1  0.45264000  0.00518000  0.55007000  1.0
  C  C203  1  0.45264000  0.99482000  0.44993000  1.0
  C  C204  1  0.43433000  0.50197000  0.95015000  1.0
  C  C205  1  0.43433000  0.49803000  0.04985000  1.0
  C  C206  1  0.56567000  0.00197000  0.54985000  1.0
  C  C207  1  0.56567000  0.99803000  0.45015000  1.0
  C  C208  1  0.37656000  0.50000000  0.00000000  1.0
  C  C209  1  0.62344000  0.00000000  0.50000000  1.0
  C  C210  1  0.72377000  0.50000000  1.00000000  1.0
  C  C211  1  0.27623000  0.00000000  0.50000000  1.0
  C  C212  1  0.27041000  0.50413000  0.89666000  1.0
  C  C213  1  0.27041000  0.49586000  0.10334000  1.0
  C  C214  1  0.72959000  0.00414000  0.60334000  1.0
  C  C215  1  0.72959000  0.99587000  0.39666000  1.0
  C  C216  1  0.22669000  0.60699000  0.92005000  1.0
  C  C217  1  0.22669000  0.39301000  0.07996000  1.0
  C  C218  1  0.77332000  0.10699000  0.57996000  1.0
  C  C219  1  0.77331000  0.89301000  0.42004000  1.0
  C  C220  1  0.23790000  0.49280000  0.83650000  1.0
  C  C221  1  0.23790000  0.50719000  0.16351000  1.0
  C  C222  1  0.76210000  0.99281000  0.66351000  1.0
  C  C223  1  0.76210000  0.00720000  0.33649000  1.0
  O  O224  1  0.71134000  0.30847000  0.34454000  1.0
  O  O225  1  0.71134000  0.69153000  0.65545000  1.0
  O  O226  1  0.28866000  0.80846000  0.15545000  1.0
  O  O227  1  0.28866000  0.19153000  0.84454000  1.0
  O  O228  1  0.78295000  0.44239000  0.42437000  1.0
  O  O229  1  0.78295000  0.55761000  0.57563000  1.0
  O  O230  1  0.21705000  0.94239000  0.07563000  1.0
  O  O231  1  0.21706000  0.05760000  0.92437000  1.0
  O  O232  1  0.73796000  0.32942000  0.49170000  1.0
  O  O233  1  0.73795000  0.67058000  0.50830000  1.0
  O  O234  1  0.26205000  0.82943000  0.00830000  1.0
  O  O235  1  0.26205000  0.17057000  0.99170000  1.0
  O  O236  1  0.10549000  0.26899000  0.35585000  1.0
  O  O237  1  0.10549000  0.73102000  0.64416000  1.0
  O  O238  1  0.89451000  0.76898000  0.14415000  1.0
  O  O239  1  0.89451000  0.23101000  0.85585000  1.0
  O  O240  1  0.03600000  0.09569000  0.46746000  1.0
  O  O241  1  0.03600000  0.90431000  0.53254000  1.0
  O  O242  1  0.96400000  0.59569000  0.03254000  1.0
  O  O243  1  0.96400000  0.40430000  0.96746000  1.0
  O  O244  1  0.05128000  0.06598000  0.37752000  1.0
  O  O245  1  0.05128000  0.93402000  0.62248000  1.0
  O  O246  1  0.94871000  0.56598000  0.12248000  1.0
  O  O247  1  0.94872000  0.43402000  0.87752000  1.0
  O  O248  1  0.02575000  0.32738000  0.15712000  1.0
  O  O249  1  0.02574000  0.67262000  0.84288000  1.0
  O  O250  1  0.97425000  0.82738000  0.34288000  1.0
  O  O251  1  0.97426000  0.17262000  0.65712000  1.0
  O  O252  1  0.84845000  0.35991000  0.15387000  1.0
  O  O253  1  0.84844000  0.64009000  0.84613000  1.0
  O  O254  1  0.15155000  0.85992000  0.34613000  1.0
  O  O255  1  0.15156000  0.14009000  0.65387000  1.0
  O  O256  1  0.80828000  0.04868000  0.09747000  1.0
  O  O257  1  0.80829000  0.95132000  0.90253000  1.0
  O  O258  1  0.19171000  0.54868000  0.40253000  1.0
  O  O259  1  0.19172000  0.45133000  0.59747000  1.0
  O  O260  1  0.92353000  0.21386000  0.05639000  1.0
  O  O261  1  0.92353000  0.78614000  0.94361000  1.0
  O  O262  1  0.07647000  0.71386000  0.44361000  1.0
  O  O263  1  0.07647000  0.28615000  0.55640000  1.0
  O  O264  1  0.08211000  0.13433000  0.07356000  1.0
  O  O265  1  0.08212000  0.86566000  0.92644000  1.0
  O  O266  1  0.91788000  0.63433000  0.42644000  1.0
  O  O267  1  0.91789000  0.36567000  0.57356000  1.0
  O  O268  1  0.42385000  0.03725000  0.04221000  1.0
  O  O269  1  0.42387000  0.96275000  0.95778000  1.0
  O  O270  1  0.57614000  0.53725000  0.45779000  1.0
  O  O271  1  0.57614000  0.46276000  0.54221000  1.0
  O  O272  1  0.13555000  0.60315000  0.94378000  1.0
  O  O273  1  0.13555000  0.39685000  0.05622000  1.0
  O  O274  1  0.86445000  0.10315000  0.55622000  1.0
  O  O275  1  0.86445000  0.89685000  0.44378000  1.0
  O  O276  1  0.28333000  0.68807000  0.91325000  1.0
  O  O277  1  0.28333000  0.31193000  0.08675000  1.0
  O  O278  1  0.71668000  0.18807000  0.58675000  1.0
  O  O279  1  0.71668000  0.81193000  0.41324000  1.0
  O  O280  1  0.38637000  0.50013000  0.89906000  1.0
  O  O281  1  0.38637000  0.49987000  0.10095000  1.0
  O  O282  1  0.61364000  0.00013000  0.60095000  1.0
  O  O283  1  0.61363000  0.99987000  0.39905000  1.0
  O  O284  1  0.77128000  0.45457000  0.03992000  1.0
  O  O285  1  0.77128000  0.54543000  0.96008000  1.0
  O  O286  1  0.22872000  0.95457000  0.46008000  1.0
  O  O287  1  0.22872000  0.04543000  0.53992000  1.0
  O  O288  1  0.80623000  0.69560000  0.32539000  1.0
  O  O289  1  0.80623000  0.30440000  0.67461000  1.0
  O  O290  1  0.19377000  0.19560000  0.17461000  1.0
  O  O291  1  0.19377000  0.80440000  0.82539000  1.0
  O  O292  1  0.55212000  0.70573000  0.37607000  1.0
  O  O293  1  0.55213000  0.29427000  0.62393000  1.0
  O  O294  1  0.44787000  0.20572000  0.12393000  1.0
  O  O295  1  0.44787000  0.79427000  0.87607000  1.0
  O  O296  1  0.66145000  0.51809000  0.33084000  1.0
  O  O297  1  0.66145000  0.48191000  0.66915000  1.0
  O  O298  1  0.33855000  0.01809000  0.16915000  1.0
  O  O299  1  0.33855000  0.98191000  0.83084000  1.0
