# generated using pymatgen
data_Ni2H12C13S4N8O
_symmetry_space_group_name_H-M   'P 1'
_cell_length_a   8.66260000
_cell_length_b   9.10822000
_cell_length_c   13.86370000
_cell_angle_alpha   89.36770000
_cell_angle_beta   85.30310000
_cell_angle_gamma   64.62960000
_symmetry_Int_Tables_number   1
_chemical_formula_structural   Ni2H12C13S4N8O
_chemical_formula_sum   'Ni4 H24 C26 S8 N16 O2'
_cell_volume   984.69230914
_cell_formula_units_Z   2
loop_
 _symmetry_equiv_pos_site_id
 _symmetry_equiv_pos_as_xyz
  1  'x, y, z'
loop_
 _atom_site_type_symbol
 _atom_site_label
 _atom_site_symmetry_multiplicity
 _atom_site_fract_x
 _atom_site_fract_y
 _atom_site_fract_z
 _atom_site_occupancy
  Ni  Ni0  1  0.37120000  0.60298000  0.32230000  1.0
  Ni  Ni1  1  0.63012000  0.39726000  0.67682000  1.0
  Ni  Ni2  1  0.09766000  0.84641000  0.17959000  1.0
  Ni  Ni3  1  0.89907000  0.15542000  0.82195000  1.0
  H  H4  1  0.35052000  0.80669000  0.49785000  1.0
  H  H5  1  0.64747000  0.19254000  0.50050000  1.0
  H  H6  1  0.20671000  0.10310000  0.54618000  1.0
  H  H7  1  0.79142000  0.89601000  0.45260000  1.0
  H  H8  1  0.99352000  0.29479000  0.43450000  1.0
  H  H9  1  0.00516000  0.70481000  0.56406000  1.0
  H  H10  1  0.94578000  0.16725000  0.28422000  1.0
  H  H11  1  0.05320000  0.83308000  0.71412000  1.0
  H  H12  1  0.31414000  0.91376000  0.02081000  1.0
  H  H13  1  0.68863000  0.08768000  0.98094000  1.0
  H  H14  1  0.63259000  0.82672000  0.97346000  1.0
  H  H15  1  0.37096000  0.17314000  0.02785000  1.0
  H  H16  1  0.84093000  0.64351000  0.08814000  1.0
  H  H17  1  0.16178000  0.35392000  0.91284000  1.0
  H  H18  1  0.71465000  0.56144000  0.23915000  1.0
  H  H19  1  0.28791000  0.43452000  0.76090000  1.0
  H  H20  1  0.50711000  0.27272000  0.29662000  1.0
  H  H21  1  0.49154000  0.72712000  0.70348000  1.0
  H  H22  1  0.54543000  0.20201000  0.14987000  1.0
  H  H23  1  0.45583000  0.79615000  0.85032000  1.0
  H  H24  1  0.66247000  0.32153000  0.12557000  1.0
  H  H25  1  0.33823000  0.67701000  0.87398000  1.0
  H  H26  1  0.43383000  0.41336000  0.12584000  1.0
  H  H27  1  0.56694000  0.58494000  0.87500000  1.0
  C  C28  1  0.25828000  0.89603000  0.45390000  1.0
  C  C29  1  0.73989000  0.10353000  0.54450000  1.0
  C  C30  1  0.17666000  0.06096000  0.48009000  1.0
  C  C31  1  0.82151000  0.93846000  0.51855000  1.0
  C  C32  1  0.06174000  0.16463000  0.41894000  1.0
  C  C33  1  0.93687000  0.83498000  0.57960000  1.0
  C  C34  1  0.03533000  0.09619000  0.33584000  1.0
  C  C35  1  0.96362000  0.90392000  0.66239000  1.0
  C  C36  1  0.41407000  0.83496000  0.06504000  1.0
  C  C37  1  0.58904000  0.16531000  0.93623000  1.0
  C  C38  1  0.58840000  0.78757000  0.04042000  1.0
  C  C39  1  0.41478000  0.21188000  0.96064000  1.0
  C  C40  1  0.70293000  0.68586000  0.10256000  1.0
  C  C41  1  0.29977000  0.31212000  0.89822000  1.0
  C  C42  1  0.63487000  0.63978000  0.18573000  1.0
  C  C43  1  0.36779000  0.35730000  0.81469000  1.0
  C  C44  1  0.02086000  0.84577000  0.94692000  1.0
  C  C45  1  0.97606000  0.15987000  0.05469000  1.0
  C  C46  1  0.71745000  0.95299000  0.26372000  1.0
  C  C47  1  0.27393000  0.04936000  0.73952000  1.0
  C  C48  1  0.13831000  0.51460000  0.22261000  1.0
  C  C49  1  0.86488000  0.48271000  0.77716000  1.0
  C  C50  1  0.35402000  0.45343000  0.53304000  1.0
  C  C51  1  0.64787000  0.54929000  0.46466000  1.0
  C  C52  1  0.54371000  0.32196000  0.15981000  1.0
  C  C53  1  0.45770000  0.67612000  0.84043000  1.0
  S  S54  1  0.10062000  0.70445000  0.02551000  1.0
  S  S55  1  0.89535000  0.30361000  0.97788000  1.0
  S  S56  1  0.52916000  0.02582000  0.32361000  1.0
  S  S57  1  0.46118000  0.97802000  0.67869000  1.0
  S  S58  1  0.09390000  0.36930000  0.19434000  1.0
  S  S59  1  0.91162000  0.62630000  0.80587000  1.0
  S  S60  1  0.24194000  0.48518000  0.43954000  1.0
  S  S61  1  0.76027000  0.51752000  0.55796000  1.0
  N  N62  1  0.23088000  0.83849000  0.37171000  1.0
  N  N63  1  0.76778000  0.16142000  0.62647000  1.0
  N  N64  1  0.12102000  0.93776000  0.31334000  1.0
  N  N65  1  0.87814000  0.06230000  0.68465000  1.0
  N  N66  1  0.35665000  0.78345000  0.14494000  1.0
  N  N67  1  0.64621000  0.21623000  0.85584000  1.0
  N  N68  1  0.46625000  0.68715000  0.20446000  1.0
  N  N69  1  0.53622000  0.31083000  0.79580000  1.0
  N  N70  1  0.96236000  0.94411000  0.88729000  1.0
  N  N71  1  0.03500000  0.05664000  0.11155000  1.0
  N  N72  1  0.85337000  0.90037000  0.21904000  1.0
  N  N73  1  0.13910000  0.10193000  0.78544000  1.0
  N  N74  1  0.17743000  0.62267000  0.24193000  1.0
  N  N75  1  0.82367000  0.37612000  0.75759000  1.0
  N  N76  1  0.43540000  0.43077000  0.60069000  1.0
  N  N77  1  0.56768000  0.57283000  0.39636000  1.0
  O  O78  1  0.53123000  0.35780000  0.26170000  1.0
  O  O79  1  0.47243000  0.63948000  0.73842000  1.0
