# generated using pymatgen
data_CdH11C20(NO2)3
_symmetry_space_group_name_H-M   'P 1'
_cell_length_a   12.22890000
_cell_length_b   13.39720000
_cell_length_c   14.52270000
_cell_angle_alpha   90.00030000
_cell_angle_beta   90.00010000
_cell_angle_gamma   112.89900000
_symmetry_Int_Tables_number   1
_chemical_formula_structural   CdH11C20(NO2)3
_chemical_formula_sum   'Cd4 H44 C80 N12 O24'
_cell_volume   2191.79055474
_cell_formula_units_Z   4
loop_
 _symmetry_equiv_pos_site_id
 _symmetry_equiv_pos_as_xyz
  1  'x, y, z'
loop_
 _atom_site_type_symbol
 _atom_site_label
 _atom_site_symmetry_multiplicity
 _atom_site_fract_x
 _atom_site_fract_y
 _atom_site_fract_z
 _atom_site_occupancy
  Cd  Cd0  1  0.45155000  0.06867000  0.10767000  1.0
  Cd  Cd1  1  0.04846000  0.43133000  0.60767000  1.0
  Cd  Cd2  1  0.54846000  0.93133000  0.89233000  1.0
  Cd  Cd3  1  0.95155000  0.56867000  0.39232000  1.0
  H  H4  1  0.37125000  0.82586000  0.18026000  1.0
  H  H5  1  0.12876000  0.67414000  0.68026000  1.0
  H  H6  1  0.62875000  0.17414000  0.81974000  1.0
  H  H7  1  0.87124000  0.32585000  0.31973000  1.0
  H  H8  1  0.19711000  0.64696000  0.17480000  1.0
  H  H9  1  0.30289000  0.85304000  0.67480000  1.0
  H  H10  1  0.80289000  0.35304000  0.82520000  1.0
  H  H11  1  0.69710000  0.14695000  0.32520000  1.0
  H  H12  1  0.00595000  0.80797000  0.02643000  1.0
  H  H13  1  0.49405000  0.69204000  0.52644000  1.0
  H  H14  1  0.99405000  0.19205000  0.97356000  1.0
  H  H15  1  0.50595000  0.30796000  0.47357000  1.0
  H  H16  1  0.18727000  0.98102000  0.04114000  1.0
  H  H17  1  0.31274000  0.51899000  0.54114000  1.0
  H  H18  1  0.81274000  0.01899000  0.95886000  1.0
  H  H19  1  0.68727000  0.48101000  0.45886000  1.0
  H  H20  1  0.91030000  0.33095000  0.13607000  1.0
  H  H21  1  0.58971000  0.16905000  0.63606000  1.0
  H  H22  1  0.08971000  0.66905000  0.86393000  1.0
  H  H23  1  0.41029000  0.83095000  0.36393000  1.0
  H  H24  1  0.73243000  0.15551000  0.13266000  1.0
  H  H25  1  0.76758000  0.34450000  0.63266000  1.0
  H  H26  1  0.26758000  0.84450000  0.86734000  1.0
  H  H27  1  0.23242000  0.65550000  0.36734000  1.0
  H  H28  1  0.51791000  0.30434000  0.02947000  1.0
  H  H29  1  0.98209000  0.19566000  0.52948000  1.0
  H  H30  1  0.48209000  0.69566000  0.97053000  1.0
  H  H31  1  0.01791000  0.80434000  0.47052000  1.0
  H  H32  1  0.68407000  0.48593000  0.03072000  1.0
  H  H33  1  0.81594000  0.01407000  0.53072000  1.0
  H  H34  1  0.31593000  0.51407000  0.96928000  1.0
  H  H35  1  0.18407000  0.98593000  0.46928000  1.0
  H  H36  1  0.64715000  0.93498000  0.32390000  1.0
  H  H37  1  0.85285000  0.56502000  0.82390000  1.0
  H  H38  1  0.35285000  0.06502000  0.67610000  1.0
  H  H39  1  0.14715000  0.43498000  0.17610000  1.0
  H  H40  1  0.79654000  0.70793000  0.13145000  1.0
  H  H41  1  0.70346000  0.79207000  0.63146000  1.0
  H  H42  1  0.20346000  0.29207000  0.86855000  1.0
  H  H43  1  0.29655000  0.20793000  0.36854000  1.0
  H  H44  1  0.68955000  0.81283000  0.05770000  1.0
  H  H45  1  0.81046000  0.68718000  0.55771000  1.0
  H  H46  1  0.31046000  0.18718000  0.94230000  1.0
  H  H47  1  0.18955000  0.31283000  0.44230000  1.0
  C  C48  1  0.28857000  0.81784000  0.14670000  1.0
  C  C49  1  0.21143000  0.68216000  0.64670000  1.0
  C  C50  1  0.71142000  0.18216000  0.85330000  1.0
  C  C51  1  0.78857000  0.31784000  0.35329000  1.0
  C  C52  1  0.19285000  0.71899000  0.14303000  1.0
  C  C53  1  0.30715000  0.78101000  0.64304000  1.0
  C  C54  1  0.80714000  0.28101000  0.85697000  1.0
  C  C55  1  0.69285000  0.21898000  0.35696000  1.0
  C  C56  1  0.08834000  0.71287000  0.09820000  1.0
  C  C57  1  0.41166000  0.78714000  0.59821000  1.0
  C  C58  1  0.91166000  0.28714000  0.90179000  1.0
  C  C59  1  0.58834000  0.21286000  0.40179000  1.0
  C  C60  1  0.08523000  0.80903000  0.06119000  1.0
  C  C61  1  0.41478000  0.69097000  0.56119000  1.0
  C  C62  1  0.91477000  0.19098000  0.93881000  1.0
  C  C63  1  0.58523000  0.30903000  0.43881000  1.0
  C  C64  1  0.18519000  0.90450000  0.06866000  1.0
  C  C65  1  0.31482000  0.59550000  0.56867000  1.0
  C  C66  1  0.81481000  0.09550000  0.93134000  1.0
  C  C67  1  0.68519000  0.40450000  0.43133000  1.0
  C  C68  1  0.99145000  0.61227000  0.09041000  1.0
  C  C69  1  0.50854000  0.88773000  0.59042000  1.0
  C  C70  1  0.00854000  0.38773000  0.90959000  1.0
  C  C71  1  0.49145000  0.11227000  0.40958000  1.0
  C  C72  1  0.90937000  0.52427000  0.08558000  1.0
  C  C73  1  0.59064000  0.97574000  0.58557000  1.0
  C  C74  1  0.09063000  0.47573000  0.91443000  1.0
  C  C75  1  0.40937000  0.02427000  0.41442000  1.0
  C  C76  1  0.81225000  0.42340000  0.08298000  1.0
  C  C77  1  0.68775000  0.07660000  0.58297000  1.0
  C  C78  1  0.18775000  0.57660000  0.91703000  1.0
  C  C79  1  0.31224000  0.92340000  0.41702000  1.0
  C  C80  1  0.82476000  0.32801000  0.11201000  1.0
  C  C81  1  0.67524000  0.17199000  0.61200000  1.0
  C  C82  1  0.17524000  0.67199000  0.88800000  1.0
  C  C83  1  0.32476000  0.82801000  0.38799000  1.0
  C  C84  1  0.72662000  0.23075000  0.10967000  1.0
  C  C85  1  0.77339000  0.26925000  0.60967000  1.0
  C  C86  1  0.27339000  0.76926000  0.89033000  1.0
  C  C87  1  0.22661000  0.73074000  0.39033000  1.0
  C  C88  1  0.60654000  0.31366000  0.05180000  1.0
  C  C89  1  0.89347000  0.18634000  0.55180000  1.0
  C  C90  1  0.39346000  0.68634000  0.94820000  1.0
  C  C91  1  0.10654000  0.81366000  0.44820000  1.0
  C  C92  1  0.69945000  0.41462000  0.05222000  1.0
  C  C93  1  0.80055000  0.08538000  0.55221000  1.0
  C  C94  1  0.30055000  0.58538000  0.94779000  1.0
  C  C95  1  0.19945000  0.91462000  0.44778000  1.0
  C  C96  1  0.59394000  0.94274000  0.14540000  1.0
  C  C97  1  0.90605000  0.55726000  0.64539000  1.0
  C  C98  1  0.40605000  0.05726000  0.85461000  1.0
  C  C99  1  0.09394000  0.44274000  0.35460000  1.0
  C  C100  1  0.66119000  0.88024000  0.18616000  1.0
  C  C101  1  0.83881000  0.61976000  0.68616000  1.0
  C  C102  1  0.33881000  0.11976000  0.81385000  1.0
  C  C103  1  0.16119000  0.38024000  0.31384000  1.0
  C  C104  1  0.68035000  0.88579000  0.28146000  1.0
  C  C105  1  0.81964000  0.61420000  0.78146000  1.0
  C  C106  1  0.31964000  0.11420000  0.71855000  1.0
  C  C107  1  0.18036000  0.38580000  0.21854000  1.0
  C  C108  1  0.74307000  0.82935000  0.31987000  1.0
  C  C109  1  0.75692000  0.67064000  0.81988000  1.0
  C  C110  1  0.25693000  0.17065000  0.68013000  1.0
  C  C111  1  0.24308000  0.32935000  0.18012000  1.0
  C  C112  1  0.78577000  0.76414000  0.26803000  1.0
  C  C113  1  0.71422000  0.73585000  0.76803000  1.0
  C  C114  1  0.21423000  0.23586000  0.73197000  1.0
  C  C115  1  0.28577000  0.26415000  0.23197000  1.0
  C  C116  1  0.76510000  0.75915000  0.17295000  1.0
  C  C117  1  0.73489000  0.74085000  0.67295000  1.0
  C  C118  1  0.23490000  0.24085000  0.82705000  1.0
  C  C119  1  0.26511000  0.25916000  0.32705000  1.0
  C  C120  1  0.70430000  0.81682000  0.13198000  1.0
  C  C121  1  0.79570000  0.68318000  0.63198000  1.0
  C  C122  1  0.29570000  0.18318000  0.86802000  1.0
  C  C123  1  0.20431000  0.31682000  0.36802000  1.0
  C  C124  1  0.84386000  0.69601000  0.31282000  1.0
  C  C125  1  0.65613000  0.80398000  0.81282000  1.0
  C  C126  1  0.15614000  0.30399000  0.68719000  1.0
  C  C127  1  0.34387000  0.19601000  0.18718000  1.0
  N  N128  1  0.28574000  0.90899000  0.10993000  1.0
  N  N129  1  0.21426000  0.59101000  0.60993000  1.0
  N  N130  1  0.71425000  0.09101000  0.89008000  1.0
  N  N131  1  0.78574000  0.40899000  0.39007000  1.0
  N  N132  1  0.61931000  0.22307000  0.08025000  1.0
  N  N133  1  0.88069000  0.27694000  0.58025000  1.0
  N  N134  1  0.38069000  0.77694000  0.91975000  1.0
  N  N135  1  0.11931000  0.72306000  0.41975000  1.0
  N  N136  1  0.76720000  0.84435000  0.41910000  1.0
  N  N137  1  0.73280000  0.65565000  0.91910000  1.0
  N  N138  1  0.23280000  0.15565000  0.58090000  1.0
  N  N139  1  0.26720000  0.34435000  0.08090000  1.0
  O  O140  1  0.55637000  0.99555000  0.20205000  1.0
  O  O141  1  0.94363000  0.50445000  0.70205000  1.0
  O  O142  1  0.44363000  0.00444000  0.79796000  1.0
  O  O143  1  0.05637000  0.49555000  0.29795000  1.0
  O  O144  1  0.57653000  0.94065000  0.05928000  1.0
  O  O145  1  0.92346000  0.55934000  0.55928000  1.0
  O  O146  1  0.42346000  0.05935000  0.94072000  1.0
  O  O147  1  0.07653000  0.44065000  0.44072000  1.0
  O  O148  1  0.68023000  0.81590000  0.47135000  1.0
  O  O149  1  0.81977000  0.68409000  0.97135000  1.0
  O  O150  1  0.31977000  0.18409000  0.52865000  1.0
  O  O151  1  0.18023000  0.31591000  0.02865000  1.0
  O  O152  1  0.87184000  0.89112000  0.44396000  1.0
  O  O153  1  0.62815000  0.60888000  0.94396000  1.0
  O  O154  1  0.12816000  0.10888000  0.55605000  1.0
  O  O155  1  0.37185000  0.39112000  0.05604000  1.0
  O  O156  1  0.81440000  0.66485000  0.39556000  1.0
  O  O157  1  0.68560000  0.83514000  0.89557000  1.0
  O  O158  1  0.18560000  0.33514000  0.60444000  1.0
  O  O159  1  0.31440000  0.16485000  0.10443000  1.0
  O  O160  1  0.91717000  0.67166000  0.26582000  1.0
  O  O161  1  0.58282000  0.82833000  0.76582000  1.0
  O  O162  1  0.08283000  0.32834000  0.73419000  1.0
  O  O163  1  0.41718000  0.17166000  0.23418000  1.0
