# generated using pymatgen
data_GaH4C4Br3N2
_symmetry_space_group_name_H-M   'P 1'
_cell_length_a   6.58134000
_cell_length_b   6.58119000
_cell_length_c   11.94030000
_cell_angle_alpha   79.21240000
_cell_angle_beta   79.20970000
_cell_angle_gamma   61.54970000
_symmetry_Int_Tables_number   1
_chemical_formula_structural   GaH4C4Br3N2
_chemical_formula_sum   'Ga2 H8 C8 Br6 N4'
_cell_volume   443.78908410
_cell_formula_units_Z   2
loop_
 _symmetry_equiv_pos_site_id
 _symmetry_equiv_pos_as_xyz
  1  'x, y, z'
loop_
 _atom_site_type_symbol
 _atom_site_label
 _atom_site_symmetry_multiplicity
 _atom_site_fract_x
 _atom_site_fract_y
 _atom_site_fract_z
 _atom_site_occupancy
  Ga  Ga0  1  0.28867000  0.71134000  0.75000000  1.0
  Ga  Ga1  1  0.71133000  0.28867000  0.25000000  1.0
  H  H2  1  0.64383000  0.58049000  0.52649000  1.0
  H  H3  1  0.41946000  0.35617000  0.97352000  1.0
  H  H4  1  0.35618000  0.41947000  0.47351000  1.0
  H  H5  1  0.58053000  0.64385000  0.02647000  1.0
  H  H6  1  0.22619000  0.22117000  0.65211000  1.0
  H  H7  1  0.77884000  0.77384000  0.84787000  1.0
  H  H8  1  0.77382000  0.77879000  0.34788000  1.0
  H  H9  1  0.22115000  0.22620000  0.15213000  1.0
  C  C10  1  0.57800000  0.76864000  0.51443000  1.0
  C  C11  1  0.23130000  0.42202000  0.98558000  1.0
  C  C12  1  0.42204000  0.23130000  0.48555000  1.0
  C  C13  1  0.76870000  0.57801000  0.01441000  1.0
  C  C14  1  0.34880000  0.12182000  0.58416000  1.0
  C  C15  1  0.87818000  0.65121000  0.91583000  1.0
  C  C16  1  0.65121000  0.87808000  0.41585000  1.0
  C  C17  1  0.12181000  0.34881000  0.08417000  1.0
  Br  Br18  1  0.63847000  0.36155000  0.75001000  1.0
  Br  Br19  1  0.36155000  0.63846000  0.25002000  1.0
  Br  Br20  1  0.01532000  0.75624000  0.63204000  1.0
  Br  Br21  1  0.24371000  0.98474000  0.86797000  1.0
  Br  Br22  1  0.98470000  0.24375000  0.36797000  1.0
  Br  Br23  1  0.75627000  0.01531000  0.13203000  1.0
  N  N24  1  0.42736000  0.89059000  0.59819000  1.0
  N  N25  1  0.10944000  0.57262000  0.90182000  1.0
  N  N26  1  0.57262000  0.10943000  0.40181000  1.0
  N  N27  1  0.89054000  0.42741000  0.09818000  1.0
