# generated using pymatgen
data_CoH21C21(N4O3)2
_symmetry_space_group_name_H-M   'P 1'
_cell_length_a   14.19260000
_cell_length_b   14.22300000
_cell_length_c   15.43000000
_cell_angle_alpha   98.03710000
_cell_angle_beta   89.99990000
_cell_angle_gamma   90.00000000
_symmetry_Int_Tables_number   1
_chemical_formula_structural   CoH21C21(N4O3)2
_chemical_formula_sum   'Co4 H84 C84 N32 O24'
_cell_volume   3084.12704460
_cell_formula_units_Z   4
loop_
 _symmetry_equiv_pos_site_id
 _symmetry_equiv_pos_as_xyz
  1  'x, y, z'
loop_
 _atom_site_type_symbol
 _atom_site_label
 _atom_site_symmetry_multiplicity
 _atom_site_fract_x
 _atom_site_fract_y
 _atom_site_fract_z
 _atom_site_occupancy
  Co  Co0  1  0.51425000  0.73532000  0.59074000  1.0
  Co  Co1  1  0.98575000  0.23531000  0.09074000  1.0
  Co  Co2  1  0.48575000  0.26469000  0.40926000  1.0
  Co  Co3  1  0.01425000  0.76468000  0.90926000  1.0
  H  H4  1  0.69139000  0.73176000  0.48159000  1.0
  H  H5  1  0.80861000  0.23176000  0.98159000  1.0
  H  H6  1  0.30861000  0.26825000  0.51841000  1.0
  H  H7  1  0.19139000  0.76824000  0.01840000  1.0
  H  H8  1  0.85141000  0.65588000  0.47362000  1.0
  H  H9  1  0.64859000  0.15588000  0.97362000  1.0
  H  H10  1  0.14859000  0.34412000  0.52638000  1.0
  H  H11  1  0.35141000  0.84411000  0.02637000  1.0
  H  H12  1  0.76460000  0.50410000  0.68383000  1.0
  H  H13  1  0.73539000  0.00410000  0.18384000  1.0
  H  H14  1  0.23540000  0.49590000  0.31617000  1.0
  H  H15  1  0.26460000  0.99590000  0.81617000  1.0
  H  H16  1  0.60690000  0.58001000  0.67802000  1.0
  H  H17  1  0.89310000  0.08001000  0.17802000  1.0
  H  H18  1  0.39310000  0.41999000  0.32199000  1.0
  H  H19  1  0.10690000  0.91999000  0.82198000  1.0
  H  H20  1  0.93892000  0.42962000  0.66666667  1.0
  H  H21  1  0.56108000  0.92962000  0.16668000  1.0
  H  H22  1  0.06108000  0.57038000  0.33333333  1.0
  H  H23  1  0.43891000  0.07038000  0.83332000  1.0
  H  H24  1  0.93069000  0.54923000  0.71797000  1.0
  H  H25  1  0.56931000  0.04923000  0.21797000  1.0
  H  H26  1  0.06931000  0.45078000  0.28203000  1.0
  H  H27  1  0.43069000  0.95078000  0.78203000  1.0
  H  H28  1  0.03388000  0.50668000  0.65711000  1.0
  H  H29  1  0.46611000  0.00668000  0.15711000  1.0
  H  H30  1  0.96612000  0.49332000  0.34289000  1.0
  H  H31  1  0.53388000  0.99332000  0.84289000  1.0
  H  H32  1  0.46521000  0.85587000  0.44632000  1.0
  H  H33  1  0.03480000  0.35587000  0.94632000  1.0
  H  H34  1  0.53480000  0.14413000  0.55368000  1.0
  H  H35  1  0.96520000  0.64413000  0.05368000  1.0
  H  H36  1  0.46295000  0.83612000  0.28471000  1.0
  H  H37  1  0.03706000  0.33612000  0.78471000  1.0
  H  H38  1  0.53706000  0.16388000  0.71529000  1.0
  H  H39  1  0.96295000  0.66388000  0.21529000  1.0
  H  H40  1  0.53025000  0.53917000  0.28721000  1.0
  H  H41  1  0.96974000  0.03917000  0.78720000  1.0
  H  H42  1  0.46974000  0.46083000  0.71280000  1.0
  H  H43  1  0.03026000  0.96083000  0.21279000  1.0
  H  H44  1  0.53297000  0.57175000  0.44713000  1.0
  H  H45  1  0.96702000  0.07175000  0.94713000  1.0
  H  H46  1  0.46703000  0.42825000  0.55287000  1.0
  H  H47  1  0.03296000  0.92825000  0.05286000  1.0
  H  H48  1  0.46086000  0.57563000  0.05981000  1.0
  H  H49  1  0.03913000  0.07563000  0.55981000  1.0
  H  H50  1  0.53913000  0.42437000  0.94019000  1.0
  H  H51  1  0.96087000  0.92437000  0.44019000  1.0
  H  H52  1  0.45390000  0.52288000  0.15866000  1.0
  H  H53  1  0.04609000  0.02288000  0.65866000  1.0
  H  H54  1  0.54609000  0.47712000  0.84134000  1.0
  H  H55  1  0.95391000  0.97712000  0.34134000  1.0
  H  H56  1  0.56488000  0.54202000  0.11095000  1.0
  H  H57  1  0.93512000  0.04203000  0.61095000  1.0
  H  H58  1  0.43512000  0.45798000  0.88905000  1.0
  H  H59  1  0.06489000  0.95798000  0.38905000  1.0
  H  H60  1  0.39257000  0.70489000  0.74805000  1.0
  H  H61  1  0.10743000  0.20489000  0.24805000  1.0
  H  H62  1  0.60742000  0.29512000  0.25195000  1.0
  H  H63  1  0.89257000  0.79511000  0.75195000  1.0
  H  H64  1  0.41393000  0.70455000  0.90818000  1.0
  H  H65  1  0.08608000  0.20455000  0.40818000  1.0
  H  H66  1  0.58607000  0.29546000  0.09182000  1.0
  H  H67  1  0.91392000  0.79545000  0.59182000  1.0
  H  H68  1  0.69526000  0.81273000  0.87964000  1.0
  H  H69  1  0.80474000  0.31273000  0.37964000  1.0
  H  H70  1  0.30474000  0.18726000  0.12037000  1.0
  H  H71  1  0.19526000  0.68727000  0.62036000  1.0
  H  H72  1  0.66347000  0.80462000  0.72122000  1.0
  H  H73  1  0.83654000  0.30462000  0.22122000  1.0
  H  H74  1  0.33653000  0.19538000  0.27878000  1.0
  H  H75  1  0.16346000  0.69538000  0.77878000  1.0
  H  H76  1  0.66400000  0.79801000  0.11336000  1.0
  H  H77  1  0.83600000  0.29801000  0.61336000  1.0
  H  H78  1  0.33600000  0.20198000  0.88664000  1.0
  H  H79  1  0.16400000  0.70199000  0.38664000  1.0
  H  H80  1  0.69316000  0.85406000  0.01959000  1.0
  H  H81  1  0.80685000  0.35406000  0.51959000  1.0
  H  H82  1  0.30685000  0.14594000  0.98041000  1.0
  H  H83  1  0.19315000  0.64595000  0.48041000  1.0
  H  H84  1  0.72077000  0.73382000  0.02037000  1.0
  H  H85  1  0.77924000  0.23382000  0.52036000  1.0
  H  H86  1  0.27923000  0.26617000  0.97964000  1.0
  H  H87  1  0.22076000  0.76618000  0.47964000  1.0
  C  C88  1  0.71039000  0.67956000  0.52396000  1.0
  C  C89  1  0.78961000  0.17956000  0.02396000  1.0
  C  C90  1  0.28961000  0.32044000  0.47605000  1.0
  C  C91  1  0.21039000  0.82043000  0.97604000  1.0
  C  C92  1  0.79882000  0.63803000  0.52007000  1.0
  C  C93  1  0.70117000  0.13803000  0.02007000  1.0
  C  C94  1  0.20118000  0.36198000  0.47994000  1.0
  C  C95  1  0.29882000  0.86197000  0.97993000  1.0
  C  C96  1  0.82143000  0.57431000  0.57867000  1.0
  C  C97  1  0.67857000  0.07430000  0.07867000  1.0
  C  C98  1  0.17857000  0.42570000  0.42133000  1.0
  C  C99  1  0.32143000  0.92569000  0.92133000  1.0
  C  C100  1  0.75148000  0.55355000  0.63729000  1.0
  C  C101  1  0.74851000  0.05355000  0.13729000  1.0
  C  C102  1  0.24852000  0.44645000  0.36272000  1.0
  C  C103  1  0.25149000  0.94645000  0.86271000  1.0
  C  C104  1  0.66359000  0.59595000  0.63477000  1.0
  C  C105  1  0.83641000  0.09595000  0.13477000  1.0
  C  C106  1  0.33642000  0.40405000  0.36523000  1.0
  C  C107  1  0.16359000  0.90405000  0.86523000  1.0
  C  C108  1  0.91590000  0.53114000  0.57746000  1.0
  C  C109  1  0.58409000  0.03114000  0.07746000  1.0
  C  C110  1  0.08409000  0.46886000  0.42254000  1.0
  C  C111  1  0.41591000  0.96886000  0.92254000  1.0
  C  C112  1  0.95687000  0.50358000  0.65977000  1.0
  C  C113  1  0.54313000  0.00358000  0.15977000  1.0
  C  C114  1  0.04313000  0.49642000  0.34023000  1.0
  C  C115  1  0.45687000  0.99642000  0.84023000  1.0
  C  C116  1  0.48002000  0.78689000  0.40871000  1.0
  C  C117  1  0.01998000  0.28689000  0.90871000  1.0
  C  C118  1  0.51998000  0.21311000  0.59129000  1.0
  C  C119  1  0.98002000  0.71311000  0.09129000  1.0
  C  C120  1  0.47803000  0.77527000  0.31802000  1.0
  C  C121  1  0.02197000  0.27527000  0.81803000  1.0
  C  C122  1  0.52197000  0.22473000  0.68198000  1.0
  C  C123  1  0.97803000  0.72472000  0.18197000  1.0
  C  C124  1  0.49598000  0.68532000  0.27033000  1.0
  C  C125  1  0.00402000  0.18532000  0.77033000  1.0
  C  C126  1  0.50401000  0.31468000  0.72967000  1.0
  C  C127  1  0.99599000  0.81468000  0.22967000  1.0
  C  C128  1  0.51462000  0.61084000  0.31867000  1.0
  C  C129  1  0.98537000  0.11085000  0.81867000  1.0
  C  C130  1  0.48538000  0.38916000  0.68133000  1.0
  C  C131  1  0.01463000  0.88916000  0.18132000  1.0
  C  C132  1  0.51673000  0.62877000  0.40946000  1.0
  C  C133  1  0.98327000  0.12877000  0.90946000  1.0
  C  C134  1  0.48328000  0.37123000  0.59055000  1.0
  C  C135  1  0.01672000  0.87123000  0.09054000  1.0
  C  C136  1  0.49802000  0.67011000  0.17406000  1.0
  C  C137  1  0.00198000  0.17011000  0.67406000  1.0
  C  C138  1  0.50198000  0.32989000  0.82594000  1.0
  C  C139  1  0.99803000  0.82989000  0.32594000  1.0
  C  C140  1  0.49379000  0.57188000  0.12370000  1.0
  C  C141  1  0.00621000  0.07188000  0.62370000  1.0
  C  C142  1  0.50621000  0.42812000  0.87630000  1.0
  C  C143  1  0.99380000  0.92812000  0.37630000  1.0
  C  C144  1  0.45921000  0.72666000  0.77973000  1.0
  C  C145  1  0.04080000  0.22665000  0.27973000  1.0
  C  C146  1  0.54079000  0.27335000  0.22027000  1.0
  C  C147  1  0.95920000  0.77335000  0.72026000  1.0
  C  C148  1  0.47101000  0.72737000  0.86888000  1.0
  C  C149  1  0.02900000  0.22737000  0.36888000  1.0
  C  C150  1  0.52899000  0.27263000  0.13112000  1.0
  C  C151  1  0.97100000  0.77263000  0.63112000  1.0
  C  C152  1  0.55689000  0.75853000  0.90860000  1.0
  C  C153  1  0.94312000  0.25853000  0.40859000  1.0
  C  C154  1  0.44311000  0.24147000  0.09141000  1.0
  C  C155  1  0.05689000  0.74147000  0.59140000  1.0
  C  C156  1  0.62717000  0.78717000  0.85399000  1.0
  C  C157  1  0.87284000  0.28717000  0.35399000  1.0
  C  C158  1  0.37283000  0.21283000  0.14601000  1.0
  C  C159  1  0.12717000  0.71283000  0.64601000  1.0
  C  C160  1  0.60983000  0.78305000  0.76498000  1.0
  C  C161  1  0.89018000  0.28305000  0.26498000  1.0
  C  C162  1  0.39017000  0.21695000  0.23502000  1.0
  C  C163  1  0.10982000  0.71695000  0.73502000  1.0
  C  C164  1  0.57287000  0.76109000  0.00317000  1.0
  C  C165  1  0.92713000  0.26109000  0.50317000  1.0
  C  C166  1  0.42712000  0.23891000  0.99683000  1.0
  C  C167  1  0.07287000  0.73891000  0.49682000  1.0
  C  C168  1  0.66761000  0.78850000  0.04173000  1.0
  C  C169  1  0.83240000  0.28850000  0.54173000  1.0
  C  C170  1  0.33239000  0.21149000  0.95827000  1.0
  C  C171  1  0.16761000  0.71150000  0.45827000  1.0
  N  N172  1  0.64327000  0.65935000  0.58040000  1.0
  N  N173  1  0.85672000  0.15935000  0.08041000  1.0
  N  N174  1  0.35673000  0.34065000  0.41960000  1.0
  N  N175  1  0.14327000  0.84065000  0.91959000  1.0
  N  N176  1  0.95622000  0.52080000  0.50075000  1.0
  N  N177  1  0.54378000  0.02080000  0.00075000  1.0
  N  N178  1  0.04378000  0.47920000  0.49925000  1.0
  N  N179  1  0.45622000  0.97920000  0.99925000  1.0
  N  N180  1  0.50017000  0.71522000  0.45484000  1.0
  N  N181  1  0.99983000  0.21522000  0.95484000  1.0
  N  N182  1  0.49983000  0.28478000  0.54516000  1.0
  N  N183  1  0.00016000  0.78478000  0.04516000  1.0
  N  N184  1  0.50639000  0.74528000  0.13558000  1.0
  N  N185  1  0.99361000  0.24528000  0.63558000  1.0
  N  N186  1  0.49360000  0.25472000  0.86442000  1.0
  N  N187  1  0.00639000  0.75472000  0.36442000  1.0
  N  N188  1  0.52763000  0.75290000  0.72701000  1.0
  N  N189  1  0.97238000  0.25290000  0.22702000  1.0
  N  N190  1  0.47237000  0.24711000  0.27299000  1.0
  N  N191  1  0.02763000  0.74710000  0.77298000  1.0
  N  N192  1  0.50185000  0.73723000  0.04848000  1.0
  N  N193  1  0.99816000  0.23723000  0.54848000  1.0
  N  N194  1  0.49815000  0.26277000  0.95152000  1.0
  N  N195  1  0.00184000  0.76277000  0.45151000  1.0
  N  N196  1  0.54336000  0.91907000  0.60546000  1.0
  N  N197  1  0.95664000  0.41907000  0.10546000  1.0
  N  N198  1  0.45664000  0.08093000  0.39454000  1.0
  N  N199  1  0.04336000  0.58093000  0.89454000  1.0
  N  N200  1  0.37087000  0.61626000  0.59020000  1.0
  N  N201  1  0.12912000  0.11626000  0.09020000  1.0
  N  N202  1  0.62913000  0.38374000  0.40980000  1.0
  N  N203  1  0.87087000  0.88373000  0.90980000  1.0
  O  O204  1  0.61029000  0.85873000  0.58541000  1.0
  O  O205  1  0.88971000  0.35872000  0.08541000  1.0
  O  O206  1  0.38972000  0.14127000  0.41459000  1.0
  O  O207  1  0.11028000  0.64127000  0.91459000  1.0
  O  O208  1  0.46094000  0.88234000  0.60991000  1.0
  O  O209  1  0.03906000  0.38234000  0.10991000  1.0
  O  O210  1  0.53906000  0.11766000  0.39009000  1.0
  O  O211  1  0.96094000  0.61766000  0.89008000  1.0
  O  O212  1  0.55758000  0.00543000  0.61990000  1.0
  O  O213  1  0.94242000  0.50543000  0.11990000  1.0
  O  O214  1  0.44242000  0.99457000  0.38010000  1.0
  O  O215  1  0.05758000  0.49457000  0.88009000  1.0
  O  O216  1  0.35912000  0.70611000  0.59212000  1.0
  O  O217  1  0.14088000  0.20611000  0.09212000  1.0
  O  O218  1  0.64088000  0.29389000  0.40788000  1.0
  O  O219  1  0.85912000  0.79389000  0.90788000  1.0
  O  O220  1  0.45700000  0.58966000  0.59582000  1.0
  O  O221  1  0.04300000  0.08965000  0.09582000  1.0
  O  O222  1  0.54300000  0.41035000  0.40418000  1.0
  O  O223  1  0.95700000  0.91034000  0.90418000  1.0
  O  O224  1  0.30438000  0.55930000  0.58377000  1.0
  O  O225  1  0.19562000  0.05930000  0.08377000  1.0
  O  O226  1  0.69563000  0.44070000  0.41623000  1.0
  O  O227  1  0.80437000  0.94069000  0.91623000  1.0
