# generated using pymatgen
data_FeAg2H8(C3N2)4
_symmetry_space_group_name_H-M   'P 1'
_cell_length_a   6.62193000
_cell_length_b   8.69609000
_cell_length_c   13.74530000
_cell_angle_alpha   87.14010000
_cell_angle_beta   82.44170000
_cell_angle_gamma   67.62640000
_symmetry_Int_Tables_number   1
_chemical_formula_structural   FeAg2H8(C3N2)4
_chemical_formula_sum   'Fe2 Ag4 H16 C24 N16'
_cell_volume   725.57774005
_cell_formula_units_Z   2
loop_
 _symmetry_equiv_pos_site_id
 _symmetry_equiv_pos_as_xyz
  1  'x, y, z'
loop_
 _atom_site_type_symbol
 _atom_site_label
 _atom_site_symmetry_multiplicity
 _atom_site_fract_x
 _atom_site_fract_y
 _atom_site_fract_z
 _atom_site_occupancy
  Fe  Fe0  1  0.97857000  0.01759000  0.00454000  1.0
  Fe  Fe1  1  0.00395000  0.01761000  0.49522000  1.0
  Ag  Ag2  1  0.48124000  0.03729000  0.24995000  1.0
  Ag  Ag3  1  0.51952000  0.96040000  0.75005000  1.0
  Ag  Ag4  1  0.66395000  0.67284000  0.24989000  1.0
  Ag  Ag5  1  0.33882000  0.32261000  0.74986000  1.0
  H  H6  1  0.48935000  0.16671000  0.98717000  1.0
  H  H7  1  0.34410000  0.16655000  0.51276000  1.0
  H  H8  1  0.51718000  0.82023000  0.01637000  1.0
  H  H9  1  0.66217000  0.82012000  0.48360000  1.0
  H  H10  1  0.17061000  0.42073000  0.05178000  1.0
  H  H11  1  0.40876000  0.42076000  0.44848000  1.0
  H  H12  1  0.83792000  0.56504000  0.94825000  1.0
  H  H13  1  0.59690000  0.56496000  0.55199000  1.0
  H  H14  1  0.24451000  0.61215000  0.16356000  1.0
  H  H15  1  0.14334000  0.61244000  0.33686000  1.0
  H  H16  1  0.75917000  0.38176000  0.83391000  1.0
  H  H17  1  0.85910000  0.38206000  0.66631000  1.0
  H  H18  1  0.90206000  0.29445000  0.14188000  1.0
  H  H19  1  0.80332000  0.29480000  0.35828000  1.0
  H  H20  1  0.10639000  0.70963000  0.85263000  1.0
  H  H21  1  0.18342000  0.71041000  0.64726000  1.0
  C  C22  1  0.16595000  0.23481000  0.86451000  1.0
  C  C23  1  0.59926000  0.23474000  0.63516000  1.0
  C  C24  1  0.82962000  0.77164000  0.13745000  1.0
  C  C25  1  0.39902000  0.77179000  0.36217000  1.0
  C  C26  1  0.50966000  0.25239000  0.03630000  1.0
  C  C27  1  0.23803000  0.25241000  0.46375000  1.0
  C  C28  1  0.49834000  0.73740000  0.96448000  1.0
  C  C29  1  0.76390000  0.73745000  0.53550000  1.0
  C  C30  1  0.33386000  0.39377000  0.07240000  1.0
  C  C31  1  0.27238000  0.39393000  0.42788000  1.0
  C  C32  1  0.67407000  0.59632000  0.92725000  1.0
  C  C33  1  0.72939000  0.59644000  0.57290000  1.0
  C  C34  1  0.37392000  0.49737000  0.13444000  1.0
  C  C35  1  0.12869000  0.49764000  0.36592000  1.0
  C  C36  1  0.63102000  0.49691000  0.86325000  1.0
  C  C37  1  0.87195000  0.49724000  0.63692000  1.0
  C  C38  1  0.25586000  0.04658000  0.15975000  1.0
  C  C39  1  0.69743000  0.04677000  0.34006000  1.0
  C  C40  1  0.73876000  0.95713000  0.84234000  1.0
  C  C41  1  0.30363000  0.95738000  0.65763000  1.0
  C  C42  1  0.73785000  0.32396000  0.12203000  1.0
  C  C43  1  0.93809000  0.32424000  0.37811000  1.0
  C  C44  1  0.27062000  0.67517000  0.87419000  1.0
  C  C45  1  0.05378000  0.67573000  0.62576000  1.0
  N  N46  1  0.57684000  0.46018000  0.15999000  1.0
  N  N47  1  0.96287000  0.46055000  0.34032000  1.0
  N  N48  1  0.42936000  0.53710000  0.83568000  1.0
  N  N49  1  0.03328000  0.53767000  0.66440000  1.0
  N  N50  1  0.14755000  0.03367000  0.10189000  1.0
  N  N51  1  0.81883000  0.03376000  0.39786000  1.0
  N  N52  1  0.82961000  0.98493000  0.90311000  1.0
  N  N53  1  0.18535000  0.98506000  0.59671000  1.0
  N  N54  1  0.08855000  0.15915000  0.92034000  1.0
  N  N55  1  0.75248000  0.15902000  0.57941000  1.0
  N  N56  1  0.88821000  0.86183000  0.08498000  1.0
  N  N57  1  0.25020000  0.86188000  0.41472000  1.0
  N  N58  1  0.71502000  0.21698000  0.05977000  1.0
  N  N59  1  0.06807000  0.21705000  0.44021000  1.0
  N  N60  1  0.29681000  0.77528000  0.93820000  1.0
  N  N61  1  0.92753000  0.77554000  0.56167000  1.0
