# generated using pymatgen
data_Ag2H11C12N5O7
_symmetry_space_group_name_H-M   'P 1'
_cell_length_a   7.78492000
_cell_length_b   7.89362400
_cell_length_c   13.58070000
_cell_angle_alpha   82.01346113
_cell_angle_beta   89.42860000
_cell_angle_gamma   63.95687460
_symmetry_Int_Tables_number   1
_chemical_formula_structural   Ag2H11C12N5O7
_chemical_formula_sum   'Ag4 H22 C24 N10 O14'
_cell_volume   741.31881746
_cell_formula_units_Z   2
loop_
 _symmetry_equiv_pos_site_id
 _symmetry_equiv_pos_as_xyz
  1  'x, y, z'
loop_
 _atom_site_type_symbol
 _atom_site_label
 _atom_site_symmetry_multiplicity
 _atom_site_fract_x
 _atom_site_fract_y
 _atom_site_fract_z
 _atom_site_occupancy
  Ag  Ag0  1  0.90787000  0.95282000  0.23060000  1.0
  Ag  Ag1  1  0.09212000  0.04718000  0.76939000  1.0
  Ag  Ag2  1  0.90397000  0.31129000  0.31784000  1.0
  Ag  Ag3  1  0.09603000  0.68872000  0.68216000  1.0
  H  H4  1  0.79389000  0.68494000  0.19082000  1.0
  H  H5  1  0.20610000  0.31506000  0.80917000  1.0
  H  H6  1  0.61520000  0.80577000  0.09205000  1.0
  H  H7  1  0.38481000  0.19422000  0.90794000  1.0
  H  H8  1  0.75136000  0.55186000  0.10839000  1.0
  H  H9  1  0.24864000  0.44814000  0.89161000  1.0
  H  H10  1  0.28505000  0.89280000  0.13756000  1.0
  H  H11  1  0.71495000  0.10719000  0.86243000  1.0
  H  H12  1  0.52953000  0.37230000  0.41639000  1.0
  H  H13  1  0.47048000  0.62770000  0.58361000  1.0
  H  H14  1  0.64245000  0.90319000  0.38579000  1.0
  H  H15  1  0.35755000  0.09681000  0.61422000  1.0
  H  H16  1  0.16894000  0.39390000  0.14315000  1.0
  H  H17  1  0.83106000  0.60610000  0.85685000  1.0
  H  H18  1  0.66841000  0.30851000  0.10945000  1.0
  H  H19  1  0.33159000  0.69148000  0.89054000  1.0
  H  H20  1  0.42419000  0.43270000  0.05752000  1.0
  H  H21  1  0.57581000  0.56729000  0.94248000  1.0
  H  H22  1  0.57876000  0.19565000  0.03718000  1.0
  H  H23  1  0.42123000  0.80434000  0.96282000  1.0
  H  H24  1  0.14122000  0.43613000  0.53811000  1.0
  H  H25  1  0.85879000  0.56387000  0.46189000  1.0
  C  C26  1  0.67997000  0.67677000  0.14713000  1.0
  C  C27  1  0.32004000  0.32322000  0.85286000  1.0
  C  C28  1  0.53793000  0.65352000  0.21438000  1.0
  C  C29  1  0.46207000  0.34648000  0.78561000  1.0
  C  C30  1  0.34098000  0.77683000  0.20037000  1.0
  C  C31  1  0.65901000  0.22317000  0.79963000  1.0
  C  C32  1  0.27978000  0.61472000  0.33967000  1.0
  C  C33  1  0.72021000  0.38528000  0.66033000  1.0
  C  C34  1  0.47496000  0.49082000  0.35468000  1.0
  C  C35  1  0.52504000  0.50918000  0.64532000  1.0
  C  C36  1  0.14387000  0.57721000  0.40747000  1.0
  C  C37  1  0.85613000  0.42279000  0.59253000  1.0
  C  C38  1  0.53710000  0.01366000  0.33165000  1.0
  C  C39  1  0.46289000  0.98635000  0.66835000  1.0
  C  C40  1  0.34169000  0.08389000  0.34730000  1.0
  C  C41  1  0.65831000  0.91612000  0.65270000  1.0
  C  C42  1  0.26835000  0.01474000  0.44126000  1.0
  C  C43  1  0.73165000  0.98527000  0.55875000  1.0
  C  C44  1  0.27522000  0.28432000  0.19756000  1.0
  C  C45  1  0.72478000  0.71568000  0.80244000  1.0
  C  C46  1  0.47075000  0.21821000  0.18175000  1.0
  C  C47  1  0.52925000  0.78179000  0.81824000  1.0
  C  C48  1  0.53779000  0.29546000  0.09167000  1.0
  C  C49  1  0.46222000  0.70453000  0.90832000  1.0
  N  N50  1  0.60191000  0.50884000  0.29169000  1.0
  N  N51  1  0.39809000  0.49116000  0.70831000  1.0
  N  N52  1  0.21302000  0.75702000  0.26177000  1.0
  N  N53  1  0.78698000  0.24297000  0.73823000  1.0
  N  N54  1  0.60085000  0.08104000  0.25025000  1.0
  N  N55  1  0.39915000  0.91896000  0.74975000  1.0
  N  N56  1  0.21272000  0.21925000  0.27952000  1.0
  N  N57  1  0.78727000  0.78076000  0.72048000  1.0
  N  N58  1  0.98584000  0.79882000  0.98762000  1.0
  N  N59  1  0.01416000  0.20118000  0.01239000  1.0
  O  O60  1  0.22794000  0.47672000  0.49322000  1.0
  O  O61  1  0.77204000  0.52329000  0.50678000  1.0
  O  O62  1  0.97379000  0.62745000  0.38072000  1.0
  O  O63  1  0.02622000  0.37255000  0.61929000  1.0
  O  O64  1  0.38246000  0.85530000  0.48781000  1.0
  O  O65  1  0.61751000  0.14473000  0.51220000  1.0
  O  O66  1  0.10180000  0.12623000  0.46348000  1.0
  O  O67  1  0.89819000  0.87381000  0.53652000  1.0
  O  O68  1  0.83889000  0.93098000  0.01670000  1.0
  O  O69  1  0.16113000  0.06902000  0.98331000  1.0
  O  O70  1  0.10660000  0.66707000  0.04981000  1.0
  O  O71  1  0.89342000  0.33292000  0.95018000  1.0
  O  O72  1  0.01026000  0.79923000  0.89446000  1.0
  O  O73  1  0.98973000  0.20078000  0.10554000  1.0
