# generated using pymatgen
data_Pr2H13C24Br3O14
_symmetry_space_group_name_H-M   'P 1'
_cell_length_a   12.38510000
_cell_length_b   12.38520000
_cell_length_c   21.49370000
_cell_angle_alpha   85.66190000
_cell_angle_beta   85.66150000
_cell_angle_gamma   71.85390000
_symmetry_Int_Tables_number   1
_chemical_formula_structural   Pr2H13C24Br3O14
_chemical_formula_sum   'Pr8 H52 C96 Br12 O56'
_cell_volume   3119.28741200
_cell_formula_units_Z   4
loop_
 _symmetry_equiv_pos_site_id
 _symmetry_equiv_pos_as_xyz
  1  'x, y, z'
loop_
 _atom_site_type_symbol
 _atom_site_label
 _atom_site_symmetry_multiplicity
 _atom_site_fract_x
 _atom_site_fract_y
 _atom_site_fract_z
 _atom_site_occupancy
  Pr  Pr0  1  0.90712000  0.51841000  0.35760000  1.0
  Pr  Pr1  1  0.48157000  0.09289000  0.14240000  1.0
  Pr  Pr2  1  0.09289000  0.48158000  0.64240000  1.0
  Pr  Pr3  1  0.51842000  0.90712000  0.85760000  1.0
  Pr  Pr4  1  0.78324000  0.87746000  0.26565000  1.0
  Pr  Pr5  1  0.12254000  0.21677000  0.23435000  1.0
  Pr  Pr6  1  0.21676000  0.12254000  0.73435000  1.0
  Pr  Pr7  1  0.87745000  0.78324000  0.76565000  1.0
  H  H8  1  0.81091000  0.44314000  0.49086000  1.0
  H  H9  1  0.55685000  0.18910000  0.00914000  1.0
  H  H10  1  0.18909000  0.55686000  0.50914000  1.0
  H  H11  1  0.44314000  0.81091000  0.99086000  1.0
  H  H12  1  0.87261000  0.52470000  0.51419000  1.0
  H  H13  1  0.47529000  0.12740000  0.98581000  1.0
  H  H14  1  0.12740000  0.47529000  0.48581000  1.0
  H  H15  1  0.52470000  0.87261000  0.01419000  1.0
  H  H16  1  0.80565000  0.09189000  0.24725000  1.0
  H  H17  1  0.90811000  0.19423000  0.25273000  1.0
  H  H18  1  0.19427000  0.90811000  0.75274000  1.0
  H  H19  1  0.09189000  0.80569000  0.74725000  1.0
  H  H20  1  0.74621000  0.11209000  0.31491000  1.0
  H  H21  1  0.88793000  0.25375000  0.18509000  1.0
  H  H22  1  0.25376000  0.88792000  0.68509000  1.0
  H  H23  1  0.11209000  0.74622000  0.81491000  1.0
  H  H24  1  0.50228000  0.55061000  0.36958000  1.0
  H  H25  1  0.44940000  0.49773000  0.13042000  1.0
  H  H26  1  0.49773000  0.44939000  0.63042000  1.0
  H  H27  1  0.55061000  0.50227000  0.86958000  1.0
  H  H28  1  0.20493000  0.82015000  0.31006000  1.0
  H  H29  1  0.17984000  0.79507000  0.18994000  1.0
  H  H30  1  0.79507000  0.17985000  0.68994000  1.0
  H  H31  1  0.82016000  0.20494000  0.81006000  1.0
  H  H32  1  0.53769000  0.85552000  0.27197000  1.0
  H  H33  1  0.14449000  0.46231000  0.22802000  1.0
  H  H34  1  0.46231000  0.14448000  0.72803000  1.0
  H  H35  1  0.85551000  0.53769000  0.77198000  1.0
  H  H36  1  0.09621000  0.00212000  0.38170000  1.0
  H  H37  1  0.99787000  0.90379000  0.11830000  1.0
  H  H38  1  0.90379000  0.99787000  0.61830000  1.0
  H  H39  1  0.00213000  0.09621000  0.88171000  1.0
  H  H40  1  0.20083000  0.99618000  0.57022000  1.0
  H  H41  1  0.00382000  0.79917000  0.92978000  1.0
  H  H42  1  0.79917000  0.00382000  0.42978000  1.0
  H  H43  1  0.99618000  0.20083000  0.07023000  1.0
  H  H44  1  0.98910000  0.30661000  0.48442000  1.0
  H  H45  1  0.69338000  0.01091000  0.01559000  1.0
  H  H46  1  0.01091000  0.69338000  0.51558000  1.0
  H  H47  1  0.30662000  0.98909000  0.98441000  1.0
  H  H48  1  0.24273000  0.30447000  0.48526000  1.0
  H  H49  1  0.69552000  0.75727000  0.01474000  1.0
  H  H50  1  0.75728000  0.69552000  0.51474000  1.0
  H  H51  1  0.30448000  0.24273000  0.98526000  1.0
  H  H52  1  0.56789000  0.07274000  0.42680000  1.0
  H  H53  1  0.92727000  0.43211000  0.07319000  1.0
  H  H54  1  0.43211000  0.92727000  0.57319000  1.0
  H  H55  1  0.07273000  0.56789000  0.92681000  1.0
  H  H56  1  0.33109000  0.24894000  0.28924000  1.0
  H  H57  1  0.75107000  0.66890000  0.21076000  1.0
  H  H58  1  0.66890000  0.75107000  0.71076000  1.0
  H  H59  1  0.24893000  0.33111000  0.78924000  1.0
  C  C60  1  0.65819000  0.65680000  0.33268000  1.0
  C  C61  1  0.34322000  0.34181000  0.16732000  1.0
  C  C62  1  0.34182000  0.34321000  0.66732000  1.0
  C  C63  1  0.65678000  0.65819000  0.83268000  1.0
  C  C64  1  0.53356000  0.69931000  0.32262000  1.0
  C  C65  1  0.30070000  0.46644000  0.17738000  1.0
  C  C66  1  0.46645000  0.30068000  0.67737000  1.0
  C  C67  1  0.69931000  0.53356000  0.82262000  1.0
  C  C68  1  0.46396000  0.63349000  0.34621000  1.0
  C  C69  1  0.36653000  0.53604000  0.15378000  1.0
  C  C70  1  0.53604000  0.36651000  0.65379000  1.0
  C  C71  1  0.63348000  0.46396000  0.84621000  1.0
  C  C72  1  0.34713000  0.67707000  0.34004000  1.0
  C  C73  1  0.32294000  0.65287000  0.15995000  1.0
  C  C74  1  0.65288000  0.32293000  0.65996000  1.0
  C  C75  1  0.67706000  0.34713000  0.84005000  1.0
  C  C76  1  0.29695000  0.78509000  0.31233000  1.0
  C  C77  1  0.21491000  0.70305000  0.18767000  1.0
  C  C78  1  0.70305000  0.21491000  0.68768000  1.0
  C  C79  1  0.78509000  0.29695000  0.81233000  1.0
  C  C80  1  0.36721000  0.84858000  0.28729000  1.0
  C  C81  1  0.15142000  0.63278000  0.21271000  1.0
  C  C82  1  0.63278000  0.15142000  0.71271000  1.0
  C  C83  1  0.84858000  0.36722000  0.78729000  1.0
  C  C84  1  0.48500000  0.80486000  0.29193000  1.0
  C  C85  1  0.19514000  0.51500000  0.20807000  1.0
  C  C86  1  0.51500000  0.19514000  0.70807000  1.0
  C  C87  1  0.80486000  0.48500000  0.79193000  1.0
  C  C88  1  0.31796000  0.96501000  0.25706000  1.0
  C  C89  1  0.03500000  0.68203000  0.24294000  1.0
  C  C90  1  0.68203000  0.03500000  0.74295000  1.0
  C  C91  1  0.96500000  0.31797000  0.75706000  1.0
  C  C92  1  0.97096000  0.22753000  0.37436000  1.0
  C  C93  1  0.77246000  0.02905000  0.12564000  1.0
  C  C94  1  0.02904000  0.77246000  0.62564000  1.0
  C  C95  1  0.22754000  0.97096000  0.87436000  1.0
  C  C96  1  0.03312000  0.15998000  0.42862000  1.0
  C  C97  1  0.84002000  0.96688000  0.07138000  1.0
  C  C98  1  0.96688000  0.84002000  0.57138000  1.0
  C  C99  1  0.15997000  0.03312000  0.92862000  1.0
  C  C100  1  0.09476000  0.04421000  0.42462000  1.0
  C  C101  1  0.95579000  0.90524000  0.07539000  1.0
  C  C102  1  0.90524000  0.95579000  0.57538000  1.0
  C  C103  1  0.04421000  0.09476000  0.92462000  1.0
  C  C104  1  0.15386000  0.98663000  0.47611000  1.0
  C  C105  1  0.01337000  0.84614000  0.02390000  1.0
  C  C106  1  0.84614000  0.01337000  0.52389000  1.0
  C  C107  1  0.98663000  0.15386000  0.97611000  1.0
  C  C108  1  0.15454000  0.04143000  0.53022000  1.0
  C  C109  1  0.95858000  0.84546000  0.96979000  1.0
  C  C110  1  0.84546000  0.95858000  0.46978000  1.0
  C  C111  1  0.04142000  0.15455000  0.03022000  1.0
  C  C112  1  0.09583000  0.15770000  0.53271000  1.0
  C  C113  1  0.84231000  0.90417000  0.96729000  1.0
  C  C114  1  0.90417000  0.84231000  0.46729000  1.0
  C  C115  1  0.15769000  0.09584000  0.03272000  1.0
  C  C116  1  0.03436000  0.21627000  0.48235000  1.0
  C  C117  1  0.78374000  0.96565000  0.01766000  1.0
  C  C118  1  0.96564000  0.78373000  0.51765000  1.0
  C  C119  1  0.21626000  0.03435000  0.98235000  1.0
  C  C120  1  0.10250000  0.21920000  0.58879000  1.0
  C  C121  1  0.78079000  0.89751000  0.91121000  1.0
  C  C122  1  0.89750000  0.78081000  0.41121000  1.0
  C  C123  1  0.21921000  0.10249000  0.08879000  1.0
  C  C124  1  0.15799000  0.36013000  0.37002000  1.0
  C  C125  1  0.63987000  0.84201000  0.12998000  1.0
  C  C126  1  0.84200000  0.63987000  0.62998000  1.0
  C  C127  1  0.36013000  0.15800000  0.87002000  1.0
  C  C128  1  0.27319000  0.28393000  0.38555000  1.0
  C  C129  1  0.71608000  0.72681000  0.11445000  1.0
  C  C130  1  0.72681000  0.71608000  0.61445000  1.0
  C  C131  1  0.28392000  0.27320000  0.88555000  1.0
  C  C132  1  0.30249000  0.26357000  0.44804000  1.0
  C  C133  1  0.73643000  0.69752000  0.05196000  1.0
  C  C134  1  0.69752000  0.73643000  0.55196000  1.0
  C  C135  1  0.26357000  0.30248000  0.94804000  1.0
  C  C136  1  0.40869000  0.18858000  0.46191000  1.0
  C  C137  1  0.81142000  0.59131000  0.03809000  1.0
  C  C138  1  0.59131000  0.81142000  0.53809000  1.0
  C  C139  1  0.18858000  0.40870000  0.96191000  1.0
  C  C140  1  0.48617000  0.13320000  0.41530000  1.0
  C  C141  1  0.86681000  0.51383000  0.08469000  1.0
  C  C142  1  0.51383000  0.86680000  0.58469000  1.0
  C  C143  1  0.13320000  0.48617000  0.91530000  1.0
  C  C144  1  0.45667000  0.15473000  0.35285000  1.0
  C  C145  1  0.84529000  0.54333000  0.14715000  1.0
  C  C146  1  0.54333000  0.84527000  0.64715000  1.0
  C  C147  1  0.15473000  0.45667000  0.85285000  1.0
  C  C148  1  0.35087000  0.23073000  0.33815000  1.0
  C  C149  1  0.76928000  0.64913000  0.16184000  1.0
  C  C150  1  0.64913000  0.76927000  0.66185000  1.0
  C  C151  1  0.23072000  0.35088000  0.83815000  1.0
  C  C152  1  0.53651000  0.09297000  0.30192000  1.0
  C  C153  1  0.90705000  0.46348000  0.19807000  1.0
  C  C154  1  0.46348000  0.90704000  0.69807000  1.0
  C  C155  1  0.09296000  0.53652000  0.80193000  1.0
  Br  Br156  1  0.25157000  0.58914000  0.37209000  1.0
  Br  Br157  1  0.41086000  0.74843000  0.12791000  1.0
  Br  Br158  1  0.74843000  0.41086000  0.62791000  1.0
  Br  Br159  1  0.58913000  0.25157000  0.87209000  1.0
  Br  Br160  1  0.23742000  0.82942000  0.47356000  1.0
  Br  Br161  1  0.17059000  0.76258000  0.02644000  1.0
  Br  Br162  1  0.76258000  0.17058000  0.52644000  1.0
  Br  Br163  1  0.82940000  0.23738000  0.97358000  1.0
  Br  Br164  1  0.44624000  0.15881000  0.54682000  1.0
  Br  Br165  1  0.84118000  0.55375000  0.95318000  1.0
  Br  Br166  1  0.55375000  0.84118000  0.45318000  1.0
  Br  Br167  1  0.15883000  0.44626000  0.04682000  1.0
  O  O168  1  0.72325000  0.71528000  0.30928000  1.0
  O  O169  1  0.28474000  0.27674000  0.19071000  1.0
  O  O170  1  0.27675000  0.28473000  0.69071000  1.0
  O  O171  1  0.71526000  0.72326000  0.80929000  1.0
  O  O172  1  0.69760000  0.56405000  0.36432000  1.0
  O  O173  1  0.43596000  0.30240000  0.13568000  1.0
  O  O174  1  0.30241000  0.43595000  0.63568000  1.0
  O  O175  1  0.56404000  0.69760000  0.86431000  1.0
  O  O176  1  0.38174000  0.00303000  0.21830000  1.0
  O  O177  1  0.99697000  0.61825000  0.28171000  1.0
  O  O178  1  0.61825000  0.99698000  0.78170000  1.0
  O  O179  1  0.00302000  0.38175000  0.71829000  1.0
  O  O180  1  0.21557000  0.02103000  0.27276000  1.0
  O  O181  1  0.97897000  0.78442000  0.22724000  1.0
  O  O182  1  0.78443000  0.97897000  0.72724000  1.0
  O  O183  1  0.02103000  0.21558000  0.77276000  1.0
  O  O184  1  0.90076000  0.32505000  0.38341000  1.0
  O  O185  1  0.67495000  0.09925000  0.11659000  1.0
  O  O186  1  0.09924000  0.67495000  0.61659000  1.0
  O  O187  1  0.32504000  0.90076000  0.88341000  1.0
  O  O188  1  0.99545000  0.18467000  0.32080000  1.0
  O  O189  1  0.81533000  0.00457000  0.17921000  1.0
  O  O190  1  0.00456000  0.81533000  0.67920000  1.0
  O  O191  1  0.18467000  0.99544000  0.82080000  1.0
  O  O192  1  0.07897000  0.32661000  0.58309000  1.0
  O  O193  1  0.67339000  0.92103000  0.91691000  1.0
  O  O194  1  0.92103000  0.67339000  0.41691000  1.0
  O  O195  1  0.32661000  0.07897000  0.08309000  1.0
  O  O196  1  0.13355000  0.15853000  0.63860000  1.0
  O  O197  1  0.84147000  0.86645000  0.86140000  1.0
  O  O198  1  0.86645000  0.84147000  0.36140000  1.0
  O  O199  1  0.15853000  0.13355000  0.13860000  1.0
  O  O200  1  0.11786000  0.35067000  0.31798000  1.0
  O  O201  1  0.64935000  0.88213000  0.18202000  1.0
  O  O202  1  0.88214000  0.64934000  0.68203000  1.0
  O  O203  1  0.35066000  0.11787000  0.81798000  1.0
  O  O204  1  0.09941000  0.43228000  0.40862000  1.0
  O  O205  1  0.56772000  0.90059000  0.09138000  1.0
  O  O206  1  0.90059000  0.56772000  0.59138000  1.0
  O  O207  1  0.43228000  0.09942000  0.90862000  1.0
  O  O208  1  0.52294000  0.13273000  0.24602000  1.0
  O  O209  1  0.86729000  0.47705000  0.25398000  1.0
  O  O210  1  0.47705000  0.86729000  0.75398000  1.0
  O  O211  1  0.13272000  0.52295000  0.74602000  1.0
  O  O212  1  0.61494000  0.00261000  0.31847000  1.0
  O  O213  1  0.99741000  0.38506000  0.18152000  1.0
  O  O214  1  0.38506000  0.99740000  0.68152000  1.0
  O  O215  1  0.00260000  0.61494000  0.81848000  1.0
  O  O216  1  0.85299000  0.49560000  0.47635000  1.0
  O  O217  1  0.50439000  0.14701000  0.02365000  1.0
  O  O218  1  0.14701000  0.50440000  0.52365000  1.0
  O  O219  1  0.49560000  0.85300000  0.97635000  1.0
  O  O220  1  0.81400000  0.06710000  0.29197000  1.0
  O  O221  1  0.93297000  0.18596000  0.20802000  1.0
  O  O222  1  0.18598000  0.93294000  0.70802000  1.0
  O  O223  1  0.06708000  0.81400000  0.79197000  1.0
