# generated using pymatgen
data_Zn6H32C71(Cl5O23)2
_symmetry_space_group_name_H-M   'P 1'
_cell_length_a   18.62720000
_cell_length_b   18.67170000
_cell_length_c   18.70720000
_cell_angle_alpha   109.65800000
_cell_angle_beta   108.87700000
_cell_angle_gamma   109.05200000
_symmetry_Int_Tables_number   1
_chemical_formula_structural   Zn6H32C71(Cl5O23)2
_chemical_formula_sum   'Zn6 H32 C71 Cl10 O46'
_cell_volume   5058.88112924
_cell_formula_units_Z   1
loop_
 _symmetry_equiv_pos_site_id
 _symmetry_equiv_pos_as_xyz
  1  'x, y, z'
loop_
 _atom_site_type_symbol
 _atom_site_label
 _atom_site_symmetry_multiplicity
 _atom_site_fract_x
 _atom_site_fract_y
 _atom_site_fract_z
 _atom_site_occupancy
  Zn  Zn0  1  0.95666000  0.94692000  0.50985000  1.0
  Zn  Zn1  1  0.08012000  0.07520000  0.50903000  1.0
  Zn  Zn2  1  0.05145000  0.49876000  0.06290000  1.0
  Zn  Zn3  1  0.93054000  0.50084000  0.93472000  1.0
  Zn  Zn4  1  0.49965000  0.92195000  0.92873000  1.0
  Zn  Zn5  1  0.49835000  0.04412000  0.05958000  1.0
  H  H6  1  0.93605000  0.71383000  0.33809000  1.0
  H  H7  1  0.90813000  0.83512000  0.21045000  1.0
  H  H8  1  0.33368000  0.15878000  0.74610000  1.0
  H  H9  1  0.18535000  0.82888000  0.73715000  1.0
  H  H10  1  0.04782000  0.75424000  0.36845000  1.0
  H  H11  1  0.95929000  0.35549000  0.70295000  1.0
  H  H12  1  0.02329000  0.23888000  0.92948000  1.0
  H  H13  1  0.90708000  0.17833000  0.87226000  1.0
  H  H14  1  0.90976000  0.05875000  0.76506000  1.0
  H  H15  1  0.58907000  0.93248000  0.26946000  1.0
  H  H16  1  0.00270000  0.62789000  0.24269000  1.0
  H  H17  1  0.79162000  0.22116000  0.18120000  1.0
  H  H18  1  0.92052000  0.33222000  0.19591000  1.0
  H  H19  1  0.11654000  0.60145000  0.86808000  1.0
  H  H20  1  0.47443000  0.82051000  0.15913000  1.0
  H  H21  1  0.89293000  0.60250000  0.20328000  1.0
  H  H22  1  0.43526000  0.89646000  0.18494000  1.0
  H  H23  1  0.37150000  0.72243000  0.18638000  1.0
  H  H24  1  0.33019000  0.79606000  0.21028000  1.0
  H  H25  1  0.12420000  0.86722000  0.35086000  1.0
  H  H26  1  0.10047000  0.74323000  0.24739000  1.0
  H  H27  1  0.20253000  0.85162000  0.16815000  1.0
  H  H28  1  0.91027000  0.83312000  0.04832000  1.0
  H  H29  1  0.07644000  0.80041000  0.85534000  1.0
  H  H30  1  0.08797000  0.76234000  0.51923000  1.0
  H  H31  1  0.15122000  0.12582000  0.83621000  1.0
  H  H32  1  0.98800000  0.97708000  0.23394000  1.0
  H  H33  1  0.77131000  0.05907000  0.02976000  1.0
  H  H34  1  0.68303000  0.83639000  0.41786000  1.0
  H  H35  1  0.12905000  0.61269000  0.69983000  1.0
  H  H36  1  0.74622000  0.79449000  0.25349000  1.0
  H  H37  1  0.68032000  0.58397000  0.03098000  1.0
  C  C38  1  0.15753000  0.04070000  0.62908000  1.0
  C  C39  1  0.96497000  0.68442000  0.16374000  1.0
  C  C40  1  0.88948000  0.70612000  0.13390000  1.0
  C  C41  1  0.05816000  0.76497000  0.21551000  1.0
  C  C42  1  0.18956000  0.97722000  0.72538000  1.0
  C  C43  1  0.21860000  0.04270000  0.70499000  1.0
  C  C44  1  0.30701000  0.10569000  0.75836000  1.0
  C  C45  1  0.36181000  0.10080000  0.82652000  1.0
  C  C46  1  0.33249000  0.03180000  0.84376000  1.0
  C  C47  1  0.24476000  0.97068000  0.79028000  1.0
  C  C48  1  0.17583000  0.88396000  0.76824000  1.0
  C  C49  1  0.99542000  0.87927000  0.38328000  1.0
  C  C50  1  0.10966000  0.89491000  0.69735000  1.0
  C  C51  1  0.96627000  0.16994000  0.74514000  1.0
  C  C52  1  0.97167000  0.16859000  0.67230000  1.0
  C  C53  1  0.97022000  0.23910000  0.65994000  1.0
  C  C54  1  0.96204000  0.30376000  0.71642000  1.0
  C  C55  1  0.96093000  0.30520000  0.79158000  1.0
  C  C56  1  0.96356000  0.23666000  0.80442000  1.0
  C  C57  1  0.96532000  0.19928000  0.86495000  1.0
  C  C58  1  0.96799000  0.12244000  0.79692000  1.0
  C  C59  1  0.77340000  0.02406000  0.33473000  1.0
  C  C60  1  0.92051000  0.03545000  0.39646000  1.0
  C  C61  1  0.84847000  0.03359000  0.32926000  1.0
  C  C62  1  0.84817000  0.03519000  0.25451000  1.0
  C  C63  1  0.77599000  0.02710000  0.18954000  1.0
  C  C64  1  0.70261000  0.02217000  0.19894000  1.0
  C  C65  1  0.70450000  0.02119000  0.27371000  1.0
  C  C66  1  0.64551000  0.99808000  0.31127000  1.0
  C  C67  1  0.72599000  0.00065000  0.38299000  1.0
  C  C68  1  0.89796000  0.37457000  0.01299000  1.0
  C  C69  1  0.96566000  0.61374000  0.09202000  1.0
  C  C70  1  0.13476000  0.60282000  0.01648000  1.0
  C  C71  1  0.98457000  0.10063000  0.61723000  1.0
  C  C72  1  0.96364000  0.37922000  0.85764000  1.0
  C  C73  1  0.61388000  0.07639000  0.96854000  1.0
  C  C74  1  0.39167000  0.02018000  0.90986000  1.0
  C  C75  1  0.38763000  0.84069000  0.96949000  1.0
  C  C76  1  0.62396000  0.01054000  0.13023000  1.0
  C  C77  1  0.81779000  0.28949000  0.06695000  1.0
  C  C78  1  0.82763000  0.29446000  0.99801000  1.0
  C  C79  1  0.76276000  0.22368000  0.91443000  1.0
  C  C80  1  0.69333000  0.15152000  0.90280000  1.0
  C  C81  1  0.68429000  0.14921000  0.97432000  1.0
  C  C82  1  0.98331000  0.73197000  0.31592000  1.0
  C  C83  1  0.74714000  0.22195000  0.05575000  1.0
  C  C84  1  0.77734000  0.26044000  0.15241000  1.0
  C  C85  1  0.86126000  0.33514000  0.16491000  1.0
  C  C86  1  0.28726000  0.72059000  0.07006000  1.0
  C  C87  1  0.20303000  0.65748000  0.00416000  1.0
  C  C88  1  0.18172000  0.65010000  0.92173000  1.0
  C  C89  1  0.23996000  0.70465000  0.90648000  1.0
  C  C90  1  0.32376000  0.77256000  0.97557000  1.0
  C  C91  1  0.34462000  0.77679000  0.05578000  1.0
  C  C92  1  0.41605000  0.82721000  0.14973000  1.0
  C  C93  1  0.95878000  0.65494000  0.23121000  1.0
  C  C94  1  0.35076000  0.76426000  0.16601000  1.0
  C  C95  1  0.90124000  0.77862000  0.21887000  1.0
  C  C96  1  0.06650000  0.84273000  0.28989000  1.0
  C  C97  1  0.98601000  0.80974000  0.30196000  1.0
  C  C98  1  0.09474000  0.79073000  0.16074000  1.0
  C  C99  1  0.88228000  0.73548000  0.06399000  1.0
  C  C100  1  0.15737000  0.87677000  0.83921000  1.0
  C  C101  1  0.06289000  0.82228000  0.60289000  1.0
  C  C102  1  0.04606000  0.11201000  0.83582000  1.0
  C  C103  1  0.92387000  0.04003000  0.23951000  1.0
  C  C104  1  0.77668000  0.01318000  0.10578000  1.0
  C  C105  1  0.70206000  0.90844000  0.36852000  1.0
  C  C106  1  0.20967000  0.69494000  0.81814000  1.0
  C  C107  1  0.82274000  0.75080000  0.23366000  1.0
  C  C108  1  0.80031000  0.62130000  0.08534000  1.0
  Cl  Cl109  1  0.47009000  0.18036000  0.88878000  1.0
  Cl  Cl110  1  0.03265000  0.91520000  0.72434000  1.0
  Cl  Cl111  1  0.97731000  0.24889000  0.57338000  1.0
  Cl  Cl112  1  0.60845000  0.07018000  0.35084000  1.0
  Cl  Cl113  1  0.76871000  0.07873000  0.49164000  1.0
  Cl  Cl114  1  0.76810000  0.22262000  0.82407000  1.0
  Cl  Cl115  1  0.61675000  0.06866000  0.79895000  1.0
  Cl  Cl116  1  0.71183000  0.29556000  0.18870000  1.0
  Cl  Cl117  1  0.88605000  0.44498000  0.22059000  1.0
  Cl  Cl118  1  0.09244000  0.93714000  0.27455000  1.0
  O  O119  1  0.07957000  0.97946000  0.59115000  1.0
  O  O120  1  0.87469000  0.40947000  0.96948000  1.0
  O  O121  1  0.02119000  0.59064000  0.12014000  1.0
  O  O122  1  0.91610000  0.58607000  0.01244000  1.0
  O  O123  1  0.15820000  0.58015000  0.07436000  1.0
  O  O124  1  0.05731000  0.58242000  0.96834000  1.0
  O  O125  1  0.01333000  0.40456000  0.93627000  1.0
  O  O126  1  0.91652000  0.41212000  0.83154000  1.0
  O  O127  1  0.58756000  0.99724000  0.91368000  1.0
  O  O128  1  0.58767000  0.09903000  0.02229000  1.0
  O  O129  1  0.41050000  0.96167000  0.87927000  1.0
  O  O130  1  0.18452000  0.09640000  0.60524000  1.0
  O  O131  1  0.41732000  0.06871000  0.99007000  1.0
  O  O132  1  0.41698000  0.81772000  0.91748000  1.0
  O  O133  1  0.41140000  0.91851000  0.02198000  1.0
  O  O134  1  0.59664000  0.95665000  0.05229000  1.0
  O  O135  1  0.59028000  0.05650000  0.15761000  1.0
  O  O136  1  0.94306000  0.85194000  0.41059000  1.0
  O  O137  1  0.05405000  0.95731000  0.41829000  1.0
  O  O138  1  0.89568000  0.98455000  0.42469000  1.0
  O  O139  1  0.99930000  0.08726000  0.42068000  1.0
  O  O140  1  0.93802000  0.02118000  0.59674000  1.0
  O  O141  1  0.04186000  0.12618000  0.59577000  1.0
  O  O142  1  0.97603000  0.40286000  0.07067000  1.0
  O  O143  1  0.05321000  0.77456000  0.08678000  1.0
  O  O144  1  0.18344000  0.83323000  0.20512000  1.0
  O  O145  1  0.84193000  0.68543000  0.98626000  1.0
  O  O146  1  0.92083000  0.82318000  0.09805000  1.0
  O  O147  1  0.20211000  0.93112000  0.91596000  1.0
  O  O148  1  0.08559000  0.79997000  0.80648000  1.0
  O  O149  1  0.98501000  0.78020000  0.55422000  1.0
  O  O150  1  0.12192000  0.80984000  0.57965000  1.0
  O  O151  1  0.05628000  0.08507000  0.88723000  1.0
  O  O152  1  0.10479000  0.13721000  0.80880000  1.0
  O  O153  1  0.96590000  0.09602000  0.22777000  1.0
  O  O154  1  0.93623000  0.97314000  0.23957000  1.0
  O  O155  1  0.78170000  0.95214000  0.06135000  1.0
  O  O156  1  0.77282000  0.07581000  0.08614000  1.0
  O  O157  1  0.68043000  0.84854000  0.29871000  1.0
  O  O158  1  0.70233000  0.89826000  0.43634000  1.0
  O  O159  1  0.23635000  0.75360000  0.80216000  1.0
  O  O160  1  0.14662000  0.61204000  0.75481000  1.0
  O  O161  1  0.79131000  0.68635000  0.24012000  1.0
  O  O162  1  0.79398000  0.80901000  0.23964000  1.0
  O  O163  1  0.78896000  0.54881000  0.07013000  1.0
  O  O164  1  0.73430000  0.63895000  0.05971000  1.0
