# generated using pymatgen
data_KZnP2H9(C2O3)2
_symmetry_space_group_name_H-M   'P 1'
_cell_length_a   4.82665000
_cell_length_b   14.21360000
_cell_length_c   14.29750000
_cell_angle_alpha   91.24300000
_cell_angle_beta   89.99960000
_cell_angle_gamma   89.99980000
_symmetry_Int_Tables_number   1
_chemical_formula_structural   KZnP2H9(C2O3)2
_chemical_formula_sum   'K4 Zn4 P8 H36 C16 O24'
_cell_volume   980.63591284
_cell_formula_units_Z   4
loop_
 _symmetry_equiv_pos_site_id
 _symmetry_equiv_pos_as_xyz
  1  'x, y, z'
loop_
 _atom_site_type_symbol
 _atom_site_label
 _atom_site_symmetry_multiplicity
 _atom_site_fract_x
 _atom_site_fract_y
 _atom_site_fract_z
 _atom_site_occupancy
  K  K0  1  0.78184000  0.82382000  0.11932000  1.0
  K  K1  1  0.28184000  0.67618000  0.38069000  1.0
  K  K2  1  0.21816000  0.17618000  0.88068000  1.0
  K  K3  1  0.71816000  0.32382000  0.61932000  1.0
  Zn  Zn4  1  0.79775000  0.50757000  0.38772000  1.0
  Zn  Zn5  1  0.29776000  0.99242000  0.11228000  1.0
  Zn  Zn6  1  0.20224000  0.49242000  0.61228000  1.0
  Zn  Zn7  1  0.70224000  0.00758000  0.88772000  1.0
  P  P8  1  0.81379000  0.59538000  0.18386000  1.0
  P  P9  1  0.31381000  0.90462000  0.31614000  1.0
  P  P10  1  0.18620000  0.40462000  0.81614000  1.0
  P  P11  1  0.68620000  0.09538000  0.68386000  1.0
  P  P12  1  0.80495000  0.11347000  0.07780000  1.0
  P  P13  1  0.30494000  0.38653000  0.42219000  1.0
  P  P14  1  0.19505000  0.88654000  0.92219000  1.0
  P  P15  1  0.69505000  0.61347000  0.57781000  1.0
  H  H16  1  0.37695000  0.64018000  0.14665000  1.0
  H  H17  1  0.87696000  0.85982000  0.35336000  1.0
  H  H18  1  0.62305000  0.35982000  0.85336000  1.0
  H  H19  1  0.12305000  0.14018000  0.64664000  1.0
  H  H20  1  0.95446000  0.49312000  0.05991000  1.0
  H  H21  1  0.45447000  0.00689000  0.44009000  1.0
  H  H22  1  0.04553000  0.50689000  0.94009000  1.0
  H  H23  1  0.54553000  0.99312000  0.55991000  1.0
  H  H24  1  0.12141000  0.46917000  0.16670000  1.0
  H  H25  1  0.62142000  0.03083000  0.33333333  1.0
  H  H26  1  0.87858000  0.53083000  0.83330000  1.0
  H  H27  1  0.37858000  0.96917000  0.66666667  1.0
  H  H28  1  0.70275000  0.38782000  0.22548000  1.0
  H  H29  1  0.20276000  0.11218000  0.27452000  1.0
  H  H30  1  0.29725000  0.61218000  0.77452000  1.0
  H  H31  1  0.79724000  0.88782000  0.72548000  1.0
  H  H32  1  0.51675000  0.41451000  0.12311000  1.0
  H  H33  1  0.01676000  0.08549000  0.37689000  1.0
  H  H34  1  0.48324000  0.58549000  0.87689000  1.0
  H  H35  1  0.98325000  0.91451000  0.62311000  1.0
  H  H36  1  0.81161000  0.31504000  0.02554000  1.0
  H  H37  1  0.31161000  0.18496000  0.47446000  1.0
  H  H38  1  0.18839000  0.68496000  0.97446000  1.0
  H  H39  1  0.68839000  0.81504000  0.52554000  1.0
  H  H40  1  0.06012000  0.30366000  0.11511000  1.0
  H  H41  1  0.56012000  0.19634000  0.38489000  1.0
  H  H42  1  0.93988000  0.69634000  0.88489000  1.0
  H  H43  1  0.43989000  0.80366000  0.61511000  1.0
  H  H44  1  0.72968000  0.21224000  0.21143000  1.0
  H  H45  1  0.22968000  0.28776000  0.28857000  1.0
  H  H46  1  0.27032000  0.78776000  0.78857000  1.0
  H  H47  1  0.77032000  0.71224000  0.71142000  1.0
  H  H48  1  0.46586000  0.22423000  0.12622000  1.0
  H  H49  1  0.96587000  0.27577000  0.37378000  1.0
  H  H50  1  0.53414000  0.77577000  0.87378000  1.0
  H  H51  1  0.03414000  0.72423000  0.62622000  1.0
  C  C52  1  0.91800000  0.48271000  0.13483000  1.0
  C  C53  1  0.41802000  0.01729000  0.36517000  1.0
  C  C54  1  0.08199000  0.51729000  0.86517000  1.0
  C  C55  1  0.58199000  0.98271000  0.63483000  1.0
  C  C56  1  0.72523000  0.39923000  0.14990000  1.0
  C  C57  1  0.22524000  0.10077000  0.35010000  1.0
  C  C58  1  0.27476000  0.60077000  0.85010000  1.0
  C  C59  1  0.77477000  0.89923000  0.64990000  1.0
  C  C60  1  0.83604000  0.30946000  0.10182000  1.0
  C  C61  1  0.33605000  0.19054000  0.39818000  1.0
  C  C62  1  0.16396000  0.69054000  0.89818000  1.0
  C  C63  1  0.66396000  0.80946000  0.60182000  1.0
  C  C64  1  0.69150000  0.22081000  0.13615000  1.0
  C  C65  1  0.19150000  0.27919000  0.36385000  1.0
  C  C66  1  0.30850000  0.77919000  0.86385000  1.0
  C  C67  1  0.80850000  0.72081000  0.63614000  1.0
  O  O68  1  0.06246000  0.66115000  0.17987000  1.0
  O  O69  1  0.56248000  0.83885000  0.32013000  1.0
  O  O70  1  0.93754000  0.33885000  0.82013000  1.0
  O  O71  1  0.43754000  0.16115000  0.67987000  1.0
  O  O72  1  0.57303000  0.63684000  0.11945000  1.0
  O  O73  1  0.07304000  0.86316000  0.38056000  1.0
  O  O74  1  0.42696000  0.36317000  0.88056000  1.0
  O  O75  1  0.92697000  0.13684000  0.61944000  1.0
  O  O76  1  0.68637000  0.58216000  0.28085000  1.0
  O  O77  1  0.18639000  0.91783000  0.21915000  1.0
  O  O78  1  0.31363000  0.41784000  0.71915000  1.0
  O  O79  1  0.81363000  0.08216000  0.78085000  1.0
  O  O80  1  0.12536000  0.11129000  0.08275000  1.0
  O  O81  1  0.62535000  0.38871000  0.41725000  1.0
  O  O82  1  0.87464000  0.88871000  0.91725000  1.0
  O  O83  1  0.37464000  0.61129000  0.58276000  1.0
  O  O84  1  0.70836000  0.11822000  0.97479000  1.0
  O  O85  1  0.20834000  0.38178000  0.52521000  1.0
  O  O86  1  0.29164000  0.88178000  0.02521000  1.0
  O  O87  1  0.79164000  0.61822000  0.47479000  1.0
  O  O88  1  0.68873000  0.02693000  0.12847000  1.0
  O  O89  1  0.18873000  0.47307000  0.37153000  1.0
  O  O90  1  0.31126000  0.97307000  0.87153000  1.0
  O  O91  1  0.81126000  0.52693000  0.62847000  1.0
