# generated using pymatgen
data_DyH6C7O9
_symmetry_space_group_name_H-M   'P 1'
_cell_length_a   9.84948000
_cell_length_b   9.84942000
_cell_length_c   13.04193273
_cell_angle_alpha   95.40088868
_cell_angle_beta   108.93777517
_cell_angle_gamma   116.46500000
_symmetry_Int_Tables_number   1
_chemical_formula_structural   DyH6C7O9
_chemical_formula_sum   'Dy4 H24 C28 O36'
_cell_volume   1027.85549598
_cell_formula_units_Z   4
loop_
 _symmetry_equiv_pos_site_id
 _symmetry_equiv_pos_as_xyz
  1  'x, y, z'
loop_
 _atom_site_type_symbol
 _atom_site_label
 _atom_site_symmetry_multiplicity
 _atom_site_fract_x
 _atom_site_fract_y
 _atom_site_fract_z
 _atom_site_occupancy
  Dy  Dy0  1  0.73189000  0.45694000  0.99577000  1.0
  Dy  Dy1  1  0.96149000  0.73644000  0.50425000  1.0
  Dy  Dy2  1  0.26813000  0.54307000  0.00424000  1.0
  Dy  Dy3  1  0.03850000  0.26355000  0.49575000  1.0
  H  H4  1  0.70185000  0.45697000  0.76500000  1.0
  H  H5  1  0.19211000  0.93720000  0.73503000  1.0
  H  H6  1  0.29817000  0.54305000  0.23501000  1.0
  H  H7  1  0.80789000  0.06280000  0.26497000  1.0
  H  H8  1  0.86684000  0.45233000  0.81742000  1.0
  H  H9  1  0.13498000  0.04974000  0.68260000  1.0
  H  H10  1  0.13317000  0.54767000  0.18258000  1.0
  H  H11  1  0.86503000  0.95027000  0.31741000  1.0
  H  H12  1  0.98679000  0.93116000  0.14682000  1.0
  H  H13  1  0.28437000  0.84045000  0.35331000  1.0
  H  H14  1  0.01321000  0.06884000  0.85317000  1.0
  H  H15  1  0.71560000  0.15955000  0.64668000  1.0
  H  H16  1  0.17658000  0.25146000  0.20050000  1.0
  H  H17  1  0.55075000  0.97626000  0.29936000  1.0
  H  H18  1  0.82343000  0.74854000  0.79949000  1.0
  H  H19  1  0.44923000  0.02373000  0.70063000  1.0
  H  H20  1  0.44742000  0.15088000  0.92073000  1.0
  H  H21  1  0.73030000  0.52716000  0.57937000  1.0
  H  H22  1  0.55260000  0.84913000  0.07928000  1.0
  H  H23  1  0.26969000  0.47283000  0.42063000  1.0
  H  H24  1  0.37463000  0.24909000  0.86157000  1.0
  H  H25  1  0.88751000  0.51326000  0.63847000  1.0
  H  H26  1  0.62538000  0.75091000  0.13843000  1.0
  H  H27  1  0.11249000  0.48674000  0.36153000  1.0
  C  C28  1  0.11882000  0.77261000  0.03070000  1.0
  C  C29  1  0.24226000  0.08864000  0.46950000  1.0
  C  C30  1  0.88120000  0.22739000  0.96930000  1.0
  C  C31  1  0.75773000  0.91136000  0.53050000  1.0
  C  C32  1  0.31707000  0.19418000  0.11921000  1.0
  C  C33  1  0.57509000  0.19824000  0.38071000  1.0
  C  C34  1  0.68293000  0.80581000  0.88078000  1.0
  C  C35  1  0.42489000  0.80176000  0.61928000  1.0
  C  C36  1  0.09586000  0.99827000  0.13078000  1.0
  C  C37  1  0.36756000  0.96550000  0.36922000  1.0
  C  C38  1  0.90414000  0.00172000  0.86921000  1.0
  C  C39  1  0.63242000  0.03449000  0.63077000  1.0
  C  C40  1  0.44389000  0.33912000  0.10938000  1.0
  C  C41  1  0.73001000  0.33483000  0.39061000  1.0
  C  C42  1  0.55612000  0.66088000  0.89062000  1.0
  C  C43  1  0.26997000  0.66517000  0.60939000  1.0
  C  C44  1  0.19435000  0.16469000  0.15778000  1.0
  C  C45  1  0.50689000  0.03690000  0.34214000  1.0
  C  C46  1  0.80565000  0.83530000  0.84221000  1.0
  C  C47  1  0.49309000  0.96309000  0.65785000  1.0
  C  C48  1  0.94491000  0.60142000  0.26354000  1.0
  C  C49  1  0.83786000  0.68132000  0.23645000  1.0
  C  C50  1  0.05509000  0.39859000  0.73647000  1.0
  C  C51  1  0.16214000  0.31869000  0.76356000  1.0
  C  C52  1  0.16359000  0.93559000  0.07736000  1.0
  C  C53  1  0.35845000  0.08673000  0.42271000  1.0
  C  C54  1  0.83642000  0.06441000  0.92264000  1.0
  C  C55  1  0.64154000  0.91328000  0.57729000  1.0
  O  O56  1  0.97622000  0.66270000  0.01614000  1.0
  O  O57  1  0.14693000  0.96056000  0.48404000  1.0
  O  O58  1  0.02379000  0.33730000  0.98386000  1.0
  O  O59  1  0.85306000  0.03944000  0.51595000  1.0
  O  O60  1  0.22651000  0.75188000  0.00954000  1.0
  O  O61  1  0.24266000  0.21747000  0.49073000  1.0
  O  O62  1  0.77351000  0.24813000  0.99046000  1.0
  O  O63  1  0.75733000  0.78253000  0.50927000  1.0
  O  O64  1  0.93596000  0.51498000  0.18045000  1.0
  O  O65  1  0.83485000  0.75570000  0.31959000  1.0
  O  O66  1  0.06405000  0.48503000  0.81955000  1.0
  O  O67  1  0.16516000  0.24431000  0.68043000  1.0
  O  O68  1  0.42311000  0.45828000  0.11835000  1.0
  O  O69  1  0.84010000  0.30493000  0.38160000  1.0
  O  O70  1  0.57691000  0.54172000  0.88166000  1.0
  O  O71  1  0.15988000  0.69506000  0.61840000  1.0
  O  O72  1  0.30075000  0.05459000  0.07149000  1.0
  O  O73  1  0.48339000  0.22974000  0.42856000  1.0
  O  O74  1  0.69926000  0.94541000  0.92851000  1.0
  O  O75  1  0.51659000  0.77026000  0.57143000  1.0
  O  O76  1  0.56022000  0.33600000  0.08916000  1.0
  O  O77  1  0.74733000  0.47145000  0.41093000  1.0
  O  O78  1  0.43978000  0.66399000  0.91084000  1.0
  O  O79  1  0.25267000  0.52854000  0.58907000  1.0
  O  O80  1  0.03834000  0.63247000  0.36620000  1.0
  O  O81  1  0.76587000  0.67176000  0.13376000  1.0
  O  O82  1  0.96167000  0.36755000  0.63381000  1.0
  O  O83  1  0.23414000  0.32826000  0.86625000  1.0
  O  O84  1  0.75307000  0.40959000  0.81477000  1.0
  O  O85  1  0.09497000  0.93860000  0.68519000  1.0
  O  O86  1  0.24693000  0.59042000  0.18523000  1.0
  O  O87  1  0.90503000  0.06140000  0.31481000  1.0
  O  O88  1  0.45500000  0.21250000  0.86617000  1.0
  O  O89  1  0.84653000  0.58919000  0.63390000  1.0
  O  O90  1  0.54501000  0.78751000  0.13384000  1.0
  O  O91  1  0.15347000  0.41081000  0.36610000  1.0
