# generated using pymatgen
data_CuH8C10Se2BrN2
_symmetry_space_group_name_H-M   'P 1'
_cell_length_a   19.62835389
_cell_length_b   19.62860000
_cell_length_c   19.62880000
_cell_angle_alpha   65.93000000
_cell_angle_beta   79.37935395
_cell_angle_gamma   114.06896616
_symmetry_Int_Tables_number   1
_chemical_formula_structural   CuH8C10Se2BrN2
_chemical_formula_sum   'Cu16 H128 C160 Se32 Br16 N32'
_cell_volume   5719.81118028
_cell_formula_units_Z   16
loop_
 _symmetry_equiv_pos_site_id
 _symmetry_equiv_pos_as_xyz
  1  'x, y, z'
loop_
 _atom_site_type_symbol
 _atom_site_label
 _atom_site_symmetry_multiplicity
 _atom_site_fract_x
 _atom_site_fract_y
 _atom_site_fract_z
 _atom_site_occupancy
  Cu  Cu0  1  0.58375000  0.08545000  0.44954000  1.0
  Cu  Cu1  1  0.96501000  0.41455000  0.50170000  1.0
  Cu  Cu2  1  0.94955000  0.41455000  0.08375000  1.0
  Cu  Cu3  1  0.00170000  0.08546000  0.46501000  1.0
  Cu  Cu4  1  0.41624000  0.91454000  0.55047000  1.0
  Cu  Cu5  1  0.03500000  0.58545000  0.49830000  1.0
  Cu  Cu6  1  0.05046000  0.58546000  0.91625000  1.0
  Cu  Cu7  1  0.99830000  0.91455000  0.53499000  1.0
  Cu  Cu8  1  0.49830000  0.53330000  0.41626000  1.0
  Cu  Cu9  1  0.55046000  0.96670000  0.03500000  1.0
  Cu  Cu10  1  0.53499000  0.53328000  0.05047000  1.0
  Cu  Cu11  1  0.91626000  0.96670000  0.99830000  1.0
  Cu  Cu12  1  0.50170000  0.46671000  0.58374000  1.0
  Cu  Cu13  1  0.44954000  0.03329000  0.96500000  1.0
  Cu  Cu14  1  0.46500000  0.46671000  0.94954000  1.0
  Cu  Cu15  1  0.08374000  0.03329000  0.00170000  1.0
  H  H16  1  0.70066000  0.33004000  0.49919000  1.0
  H  H17  1  0.58586000  0.35812000  0.50240000  1.0
  H  H18  1  0.47085000  0.27022000  0.47770000  1.0
  H  H19  1  0.47382000  0.15605000  0.44987000  1.0
  H  H20  1  0.77237000  0.15620000  0.18681000  1.0
  H  H21  1  0.82910000  0.06623000  0.25118000  1.0
  H  H22  1  0.77826000  0.98106000  0.40512000  1.0
  H  H23  1  0.66813000  0.98679000  0.48836000  1.0
  H  H24  1  0.67077000  0.16997000  0.62938000  1.0
  H  H25  1  0.63948000  0.14188000  0.77226000  1.0
  H  H26  1  0.75208000  0.22977000  0.79937000  1.0
  H  H27  1  0.89408000  0.34395000  0.68223000  1.0
  H  H28  1  0.15698000  0.34380000  0.38383000  1.0
  H  H29  1  0.18259000  0.43377000  0.23713000  1.0
  H  H30  1  0.11382000  0.51894000  0.20280000  1.0
  H  H31  1  0.02486000  0.51322000  0.31866000  1.0
  H  H32  1  0.99920000  0.16996000  0.20065000  1.0
  H  H33  1  0.00240000  0.14188000  0.08586000  1.0
  H  H34  1  0.97769000  0.22977000  0.97086000  1.0
  H  H35  1  0.94986000  0.34395000  0.97382000  1.0
  H  H36  1  0.68681000  0.34380000  0.27238000  1.0
  H  H37  1  0.75118000  0.43377000  0.32910000  1.0
  H  H38  1  0.90511000  0.51894000  0.27826000  1.0
  H  H39  1  0.98836000  0.51322000  0.16812000  1.0
  H  H40  1  0.12938000  0.33003000  0.17077000  1.0
  H  H41  1  0.27226000  0.35811000  0.13948000  1.0
  H  H42  1  0.29937000  0.27022000  0.25208000  1.0
  H  H43  1  0.18223000  0.15605000  0.39408000  1.0
  H  H44  1  0.88383000  0.15620000  0.65698000  1.0
  H  H45  1  0.73712000  0.06622000  0.68260000  1.0
  H  H46  1  0.70279000  0.98106000  0.61383000  1.0
  H  H47  1  0.81865000  0.98679000  0.52485000  1.0
  H  H48  1  0.29935000  0.66997000  0.50080000  1.0
  H  H49  1  0.41415000  0.64189000  0.49759000  1.0
  H  H50  1  0.52915000  0.72978000  0.52230000  1.0
  H  H51  1  0.52618000  0.84395000  0.55014000  1.0
  H  H52  1  0.22763000  0.84380000  0.81319000  1.0
  H  H53  1  0.17090000  0.93377000  0.74882000  1.0
  H  H54  1  0.22173000  0.01893000  0.59489000  1.0
  H  H55  1  0.33187000  0.01321000  0.51164000  1.0
  H  H56  1  0.32924000  0.83004000  0.37061000  1.0
  H  H57  1  0.36052000  0.85812000  0.22774000  1.0
  H  H58  1  0.24792000  0.77023000  0.20063000  1.0
  H  H59  1  0.10592000  0.65605000  0.31777000  1.0
  H  H60  1  0.84302000  0.65621000  0.61616000  1.0
  H  H61  1  0.81741000  0.56623000  0.76287000  1.0
  H  H62  1  0.88618000  0.48106000  0.79719000  1.0
  H  H63  1  0.97514000  0.48678000  0.68134000  1.0
  H  H64  1  0.00080000  0.83004000  0.79934000  1.0
  H  H65  1  0.99760000  0.85812000  0.91414000  1.0
  H  H66  1  0.02231000  0.77024000  0.02914000  1.0
  H  H67  1  0.05014000  0.65606000  0.02618000  1.0
  H  H68  1  0.31319000  0.65621000  0.72763000  1.0
  H  H69  1  0.24882000  0.56623000  0.67090000  1.0
  H  H70  1  0.09488000  0.48106000  0.72175000  1.0
  H  H71  1  0.01164000  0.48678000  0.83188000  1.0
  H  H72  1  0.87062000  0.66997000  0.82923000  1.0
  H  H73  1  0.72774000  0.64189000  0.86052000  1.0
  H  H74  1  0.70063000  0.72978000  0.74792000  1.0
  H  H75  1  0.81777000  0.84395000  0.60591000  1.0
  H  H76  1  0.11617000  0.84380000  0.34302000  1.0
  H  H77  1  0.26287000  0.93376000  0.31741000  1.0
  H  H78  1  0.29720000  0.01893000  0.38618000  1.0
  H  H79  1  0.18134000  0.01321000  0.47515000  1.0
  H  H80  1  0.37061000  0.69985000  0.29934000  1.0
  H  H81  1  0.22774000  0.58826000  0.41413000  1.0
  H  H82  1  0.20063000  0.44856000  0.52914000  1.0
  H  H83  1  0.31777000  0.42369000  0.52618000  1.0
  H  H84  1  0.61617000  0.45919000  0.22762000  1.0
  H  H85  1  0.76287000  0.58028000  0.17090000  1.0
  H  H86  1  0.79720000  0.68338000  0.22174000  1.0
  H  H87  1  0.68134000  0.65649000  0.33188000  1.0
  H  H88  1  0.50081000  0.80015000  0.32923000  1.0
  H  H89  1  0.49760000  0.91174000  0.36051000  1.0
  H  H90  1  0.52230000  0.05145000  0.24793000  1.0
  H  H91  1  0.55013000  0.07631000  0.10592000  1.0
  H  H92  1  0.81318000  0.04081000  0.84302000  1.0
  H  H93  1  0.74882000  0.91972000  0.81741000  1.0
  H  H94  1  0.59488000  0.81662000  0.88618000  1.0
  H  H95  1  0.51164000  0.84352000  0.97515000  1.0
  H  H96  1  0.82923000  0.69984000  0.00081000  1.0
  H  H97  1  0.86052000  0.58826000  0.99759000  1.0
  H  H98  1  0.74792000  0.44855000  0.02230000  1.0
  H  H99  1  0.60591000  0.42368000  0.05014000  1.0
  H  H100  1  0.34302000  0.45919000  0.31318000  1.0
  H  H101  1  0.31741000  0.58028000  0.24882000  1.0
  H  H102  1  0.38618000  0.68337000  0.09488000  1.0
  H  H103  1  0.47515000  0.65648000  0.01164000  1.0
  H  H104  1  0.79934000  0.80014000  0.87062000  1.0
  H  H105  1  0.91414000  0.91174000  0.72774000  1.0
  H  H106  1  0.02914000  0.05145000  0.70063000  1.0
  H  H107  1  0.02618000  0.07632000  0.81776000  1.0
  H  H108  1  0.72763000  0.04081000  0.11616000  1.0
  H  H109  1  0.67089000  0.91971000  0.26287000  1.0
  H  H110  1  0.72174000  0.81662000  0.29719000  1.0
  H  H111  1  0.83188000  0.84351000  0.18134000  1.0
  H  H112  1  0.62939000  0.30015000  0.70066000  1.0
  H  H113  1  0.77226000  0.41174000  0.58586000  1.0
  H  H114  1  0.79937000  0.55144000  0.47086000  1.0
  H  H115  1  0.68223000  0.57631000  0.47382000  1.0
  H  H116  1  0.38383000  0.54081000  0.77237000  1.0
  H  H117  1  0.23713000  0.41972000  0.82910000  1.0
  H  H118  1  0.20280000  0.31662000  0.77826000  1.0
  H  H119  1  0.31867000  0.34353000  0.66812000  1.0
  H  H120  1  0.49920000  0.19985000  0.67076000  1.0
  H  H121  1  0.50240000  0.08825000  0.63948000  1.0
  H  H122  1  0.47769000  0.94854000  0.75208000  1.0
  H  H123  1  0.44986000  0.92368000  0.89409000  1.0
  H  H124  1  0.18682000  0.95918000  0.15698000  1.0
  H  H125  1  0.25119000  0.08028000  0.18258000  1.0
  H  H126  1  0.40512000  0.18337000  0.11382000  1.0
  H  H127  1  0.48837000  0.15648000  0.02485000  1.0
  H  H128  1  0.17076000  0.30015000  0.99920000  1.0
  H  H129  1  0.13948000  0.41175000  0.00240000  1.0
  H  H130  1  0.25208000  0.55146000  0.97769000  1.0
  H  H131  1  0.39409000  0.57632000  0.94986000  1.0
  H  H132  1  0.65698000  0.54082000  0.68682000  1.0
  H  H133  1  0.68259000  0.41972000  0.75119000  1.0
  H  H134  1  0.61382000  0.31662000  0.90512000  1.0
  H  H135  1  0.52485000  0.34351000  0.98837000  1.0
  H  H136  1  0.20065000  0.19985000  0.12939000  1.0
  H  H137  1  0.08586000  0.08826000  0.27226000  1.0
  H  H138  1  0.97085000  0.94855000  0.29938000  1.0
  H  H139  1  0.97382000  0.92369000  0.18223000  1.0
  H  H140  1  0.27237000  0.95918000  0.88384000  1.0
  H  H141  1  0.32911000  0.08028000  0.73713000  1.0
  H  H142  1  0.27826000  0.18337000  0.70281000  1.0
  H  H143  1  0.16812000  0.15647000  0.81867000  1.0
  C  C144  1  0.64520000  0.22807000  0.47388000  1.0
  C  C145  1  0.64896000  0.29282000  0.48920000  1.0
  C  C146  1  0.58568000  0.30837000  0.49057000  1.0
  C  C147  1  0.52083000  0.25898000  0.47704000  1.0
  C  C148  1  0.52175000  0.19604000  0.46201000  1.0
  C  C149  1  0.69191000  0.11889000  0.30404000  1.0
  C  C150  1  0.75076000  0.11738000  0.25331000  1.0
  C  C151  1  0.78232000  0.06750000  0.28943000  1.0
  C  C152  1  0.75357000  0.01944000  0.37510000  1.0
  C  C153  1  0.69361000  0.02268000  0.42129000  1.0
  C  C154  1  0.79804000  0.27192000  0.58288000  1.0
  C  C155  1  0.71798000  0.20718000  0.64386000  1.0
  C  C156  1  0.70106000  0.19163000  0.72269000  1.0
  C  C157  1  0.76399000  0.24102000  0.73814000  1.0
  C  C158  1  0.84195000  0.30396000  0.67429000  1.0
  C  C159  1  0.07707000  0.38111000  0.42698000  1.0
  C  C160  1  0.12931000  0.38262000  0.36662000  1.0
  C  C161  1  0.14307000  0.43250000  0.28518000  1.0
  C  C162  1  0.10546000  0.48056000  0.26588000  1.0
  C  C163  1  0.05604000  0.47734000  0.32907000  1.0
  C  C164  1  0.97388000  0.27192000  0.14520000  1.0
  C  C165  1  0.98920000  0.20718000  0.14896000  1.0
  C  C166  1  0.99057000  0.19163000  0.08568000  1.0
  C  C167  1  0.97703000  0.24102000  0.02083000  1.0
  C  C168  1  0.96201000  0.30396000  0.02175000  1.0
  C  C169  1  0.80404000  0.38111000  0.19191000  1.0
  C  C170  1  0.75331000  0.38262000  0.25076000  1.0
  C  C171  1  0.78942000  0.43250000  0.28233000  1.0
  C  C172  1  0.87509000  0.48056000  0.25357000  1.0
  C  C173  1  0.92130000  0.47734000  0.19360000  1.0
  C  C174  1  0.08288000  0.22808000  0.29804000  1.0
  C  C175  1  0.14387000  0.29282000  0.21797000  1.0
  C  C176  1  0.22269000  0.30836000  0.20106000  1.0
  C  C177  1  0.23815000  0.25898000  0.26398000  1.0
  C  C178  1  0.17429000  0.19604000  0.34195000  1.0
  C  C179  1  0.92698000  0.11890000  0.57706000  1.0
  C  C180  1  0.86661000  0.11737000  0.62931000  1.0
  C  C181  1  0.78517000  0.06749000  0.64308000  1.0
  C  C182  1  0.76587000  0.01945000  0.60546000  1.0
  C  C183  1  0.82906000  0.02267000  0.55603000  1.0
  C  C184  1  0.35480000  0.77193000  0.52612000  1.0
  C  C185  1  0.35105000  0.70719000  0.51079000  1.0
  C  C186  1  0.41433000  0.69164000  0.50942000  1.0
  C  C187  1  0.47917000  0.74102000  0.52297000  1.0
  C  C188  1  0.47825000  0.80396000  0.53799000  1.0
  C  C189  1  0.30809000  0.88111000  0.69596000  1.0
  C  C190  1  0.24924000  0.88262000  0.74669000  1.0
  C  C191  1  0.21768000  0.93250000  0.71057000  1.0
  C  C192  1  0.24642000  0.98055000  0.62491000  1.0
  C  C193  1  0.30639000  0.97733000  0.57871000  1.0
  C  C194  1  0.20196000  0.72807000  0.41713000  1.0
  C  C195  1  0.28202000  0.79282000  0.35614000  1.0
  C  C196  1  0.29894000  0.80837000  0.27731000  1.0
  C  C197  1  0.23601000  0.75898000  0.26186000  1.0
  C  C198  1  0.15805000  0.69604000  0.32571000  1.0
  C  C199  1  0.92293000  0.61889000  0.57302000  1.0
  C  C200  1  0.87069000  0.61738000  0.63338000  1.0
  C  C201  1  0.85693000  0.56751000  0.71481000  1.0
  C  C202  1  0.89454000  0.51945000  0.73412000  1.0
  C  C203  1  0.94396000  0.52266000  0.67093000  1.0
  C  C204  1  0.02612000  0.72808000  0.85480000  1.0
  C  C205  1  0.01079000  0.79281000  0.85105000  1.0
  C  C206  1  0.00942000  0.80837000  0.91433000  1.0
  C  C207  1  0.02297000  0.75899000  0.97917000  1.0
  C  C208  1  0.03799000  0.69604000  0.97825000  1.0
  C  C209  1  0.19596000  0.61889000  0.80809000  1.0
  C  C210  1  0.24669000  0.61739000  0.74924000  1.0
  C  C211  1  0.21057000  0.56750000  0.71768000  1.0
  C  C212  1  0.12491000  0.51945000  0.74643000  1.0
  C  C213  1  0.07870000  0.52266000  0.80641000  1.0
  C  C214  1  0.91713000  0.77193000  0.70195000  1.0
  C  C215  1  0.85614000  0.70718000  0.78202000  1.0
  C  C216  1  0.77731000  0.69163000  0.79894000  1.0
  C  C217  1  0.76185000  0.74102000  0.73602000  1.0
  C  C218  1  0.82571000  0.80396000  0.65806000  1.0
  C  C219  1  0.07302000  0.88111000  0.42294000  1.0
  C  C220  1  0.13338000  0.88262000  0.37070000  1.0
  C  C221  1  0.21482000  0.93250000  0.35693000  1.0
  C  C222  1  0.23413000  0.98055000  0.39454000  1.0
  C  C223  1  0.17094000  0.97733000  0.44396000  1.0
  C  C224  1  0.41712000  0.61908000  0.35480000  1.0
  C  C225  1  0.35614000  0.63817000  0.35103000  1.0
  C  C226  1  0.27731000  0.57626000  0.41431000  1.0
  C  C227  1  0.26185000  0.49787000  0.47916000  1.0
  C  C228  1  0.32571000  0.48377000  0.47825000  1.0
  C  C229  1  0.57302000  0.49596000  0.30809000  1.0
  C  C230  1  0.63338000  0.50408000  0.24924000  1.0
  C  C231  1  0.71482000  0.57175000  0.21768000  1.0
  C  C232  1  0.73413000  0.62867000  0.24642000  1.0
  C  C233  1  0.67094000  0.61490000  0.30639000  1.0
  C  C234  1  0.52612000  0.88092000  0.20195000  1.0
  C  C235  1  0.51080000  0.86184000  0.28202000  1.0
  C  C236  1  0.50943000  0.92375000  0.29894000  1.0
  C  C237  1  0.52296000  0.00213000  0.23602000  1.0
  C  C238  1  0.53799000  0.01624000  0.15805000  1.0
  C  C239  1  0.69596000  0.00405000  0.92293000  1.0
  C  C240  1  0.74668000  0.99593000  0.87070000  1.0
  C  C241  1  0.71057000  0.92825000  0.85693000  1.0
  C  C242  1  0.62491000  0.87134000  0.89454000  1.0
  C  C243  1  0.57870000  0.88510000  0.94397000  1.0
  C  C244  1  0.70196000  0.61909000  0.02611000  1.0
  C  C245  1  0.78202000  0.63815000  0.01080000  1.0
  C  C246  1  0.79894000  0.57625000  0.00942000  1.0
  C  C247  1  0.73602000  0.49787000  0.02296000  1.0
  C  C248  1  0.65805000  0.48376000  0.03799000  1.0
  C  C249  1  0.42293000  0.49594000  0.19596000  1.0
  C  C250  1  0.37069000  0.50407000  0.24668000  1.0
  C  C251  1  0.35693000  0.57175000  0.21057000  1.0
  C  C252  1  0.39454000  0.62866000  0.12490000  1.0
  C  C253  1  0.44397000  0.61490000  0.07870000  1.0
  C  C254  1  0.85480000  0.88092000  0.91712000  1.0
  C  C255  1  0.85104000  0.86184000  0.85614000  1.0
  C  C256  1  0.91432000  0.92375000  0.77731000  1.0
  C  C257  1  0.97916000  0.00213000  0.76185000  1.0
  C  C258  1  0.97825000  0.01624000  0.82570000  1.0
  C  C259  1  0.80809000  0.00404000  0.07302000  1.0
  C  C260  1  0.74924000  0.99592000  0.13338000  1.0
  C  C261  1  0.71767000  0.92824000  0.21483000  1.0
  C  C262  1  0.74643000  0.87133000  0.23412000  1.0
  C  C263  1  0.80640000  0.88510000  0.17093000  1.0
  C  C264  1  0.58288000  0.38092000  0.64520000  1.0
  C  C265  1  0.64387000  0.36184000  0.64896000  1.0
  C  C266  1  0.72269000  0.42374000  0.58568000  1.0
  C  C267  1  0.73815000  0.50213000  0.52083000  1.0
  C  C268  1  0.67429000  0.51624000  0.52175000  1.0
  C  C269  1  0.42698000  0.50405000  0.69191000  1.0
  C  C270  1  0.36662000  0.49593000  0.75076000  1.0
  C  C271  1  0.28518000  0.42825000  0.78232000  1.0
  C  C272  1  0.26588000  0.37134000  0.75357000  1.0
  C  C273  1  0.32907000  0.38511000  0.69360000  1.0
  C  C274  1  0.47389000  0.11909000  0.79804000  1.0
  C  C275  1  0.48920000  0.13815000  0.71798000  1.0
  C  C276  1  0.49057000  0.07625000  0.70106000  1.0
  C  C277  1  0.47703000  0.99786000  0.76399000  1.0
  C  C278  1  0.46201000  0.98376000  0.84194000  1.0
  C  C279  1  0.30405000  0.99595000  0.07706000  1.0
  C  C280  1  0.25332000  0.00407000  0.12930000  1.0
  C  C281  1  0.28944000  0.07175000  0.14306000  1.0
  C  C282  1  0.37510000  0.12866000  0.10546000  1.0
  C  C283  1  0.42130000  0.11489000  0.05604000  1.0
  C  C284  1  0.29804000  0.38092000  0.97389000  1.0
  C  C285  1  0.21798000  0.36185000  0.98920000  1.0
  C  C286  1  0.20106000  0.42376000  0.99057000  1.0
  C  C287  1  0.26398000  0.50213000  0.97704000  1.0
  C  C288  1  0.34195000  0.51625000  0.96201000  1.0
  C  C289  1  0.57706000  0.50405000  0.80405000  1.0
  C  C290  1  0.62930000  0.49593000  0.75333000  1.0
  C  C291  1  0.64307000  0.42825000  0.78944000  1.0
  C  C292  1  0.60546000  0.37134000  0.87510000  1.0
  C  C293  1  0.55603000  0.38510000  0.92131000  1.0
  C  C294  1  0.14520000  0.11908000  0.08288000  1.0
  C  C295  1  0.14896000  0.13816000  0.14386000  1.0
  C  C296  1  0.08568000  0.07625000  0.22269000  1.0
  C  C297  1  0.02083000  0.99786000  0.23815000  1.0
  C  C298  1  0.02175000  0.98376000  0.17429000  1.0
  C  C299  1  0.19191000  0.99595000  0.92698000  1.0
  C  C300  1  0.25076000  0.00407000  0.86663000  1.0
  C  C301  1  0.28233000  0.07175000  0.78518000  1.0
  C  C302  1  0.25357000  0.12866000  0.76588000  1.0
  C  C303  1  0.19360000  0.11489000  0.82907000  1.0
  Se  Se304  1  0.72279000  0.19207000  0.47204000  1.0
  Se  Se305  1  0.64349000  0.18664000  0.26366000  1.0
  Se  Se306  1  0.83589000  0.30793000  0.46929000  1.0
  Se  Se307  1  0.04971000  0.31337000  0.54314000  1.0
  Se  Se308  1  0.97204000  0.30793000  0.22279000  1.0
  Se  Se309  1  0.76366000  0.31337000  0.14348000  1.0
  Se  Se310  1  0.96928000  0.19207000  0.33589000  1.0
  Se  Se311  1  0.04314000  0.18663000  0.54971000  1.0
  Se  Se312  1  0.27721000  0.80793000  0.52796000  1.0
  Se  Se313  1  0.35651000  0.81336000  0.73634000  1.0
  Se  Se314  1  0.16411000  0.69207000  0.53072000  1.0
  Se  Se315  1  0.95029000  0.68663000  0.45685000  1.0
  Se  Se316  1  0.02796000  0.69207000  0.77722000  1.0
  Se  Se317  1  0.23634000  0.68663000  0.85652000  1.0
  Se  Se318  1  0.03072000  0.80793000  0.66411000  1.0
  Se  Se319  1  0.95685000  0.81336000  0.45030000  1.0
  Se  Se320  1  0.53072000  0.69483000  0.27721000  1.0
  Se  Se321  1  0.45685000  0.40715000  0.35651000  1.0
  Se  Se322  1  0.52796000  0.80517000  0.16411000  1.0
  Se  Se323  1  0.73635000  0.09286000  0.95029000  1.0
  Se  Se324  1  0.66411000  0.69482000  0.02796000  1.0
  Se  Se325  1  0.45029000  0.40714000  0.23635000  1.0
  Se  Se326  1  0.77722000  0.80517000  0.03071000  1.0
  Se  Se327  1  0.85651000  0.09285000  0.95686000  1.0
  Se  Se328  1  0.46928000  0.30517000  0.72279000  1.0
  Se  Se329  1  0.54315000  0.59286000  0.64349000  1.0
  Se  Se330  1  0.47204000  0.19482000  0.83590000  1.0
  Se  Se331  1  0.26366000  0.90714000  0.04971000  1.0
  Se  Se332  1  0.33589000  0.30517000  0.97204000  1.0
  Se  Se333  1  0.54970000  0.59285000  0.76367000  1.0
  Se  Se334  1  0.22279000  0.19483000  0.96928000  1.0
  Se  Se335  1  0.14349000  0.90714000  0.04315000  1.0
  Br  Br336  1  0.53721000  0.96537000  0.59533000  1.0
  Br  Br337  1  0.93930000  0.53464000  0.42815000  1.0
  Br  Br338  1  0.09534000  0.53464000  0.03721000  1.0
  Br  Br339  1  0.92816000  0.96537000  0.43930000  1.0
  Br  Br340  1  0.46279000  0.03464000  0.40467000  1.0
  Br  Br341  1  0.06070000  0.46537000  0.57185000  1.0
  Br  Br342  1  0.90466000  0.46536000  0.96279000  1.0
  Br  Br343  1  0.07184000  0.03463000  0.56070000  1.0
  Br  Br344  1  0.57184000  0.63255000  0.46280000  1.0
  Br  Br345  1  0.40467000  0.86745000  0.06070000  1.0
  Br  Br346  1  0.56070000  0.63254000  0.90467000  1.0
  Br  Br347  1  0.96279000  0.86744000  0.07185000  1.0
  Br  Br348  1  0.42815000  0.36745000  0.53722000  1.0
  Br  Br349  1  0.59534000  0.13254000  0.93930000  1.0
  Br  Br350  1  0.43930000  0.36745000  0.09534000  1.0
  Br  Br351  1  0.03722000  0.13255000  0.92815000  1.0
  N  N352  1  0.58277000  0.18026000  0.46067000  1.0
  N  N353  1  0.66327000  0.07188000  0.38667000  1.0
  N  N354  1  0.85907000  0.31973000  0.59749000  1.0
  N  N355  1  0.04146000  0.42813000  0.40861000  1.0
  N  N356  1  0.96066000  0.31973000  0.08278000  1.0
  N  N357  1  0.88667000  0.42813000  0.16327000  1.0
  N  N358  1  0.09749000  0.18027000  0.35907000  1.0
  N  N359  1  0.90860000  0.07187000  0.54145000  1.0
  N  N360  1  0.41722000  0.81973000  0.53934000  1.0
  N  N361  1  0.33673000  0.92812000  0.61333000  1.0
  N  N362  1  0.14093000  0.68026000  0.40251000  1.0
  N  N363  1  0.95854000  0.57187000  0.59139000  1.0
  N  N364  1  0.03934000  0.68027000  0.91722000  1.0
  N  N365  1  0.11333000  0.57188000  0.83674000  1.0
  N  N366  1  0.90251000  0.81973000  0.64093000  1.0
  N  N367  1  0.09139000  0.92812000  0.45855000  1.0
  N  N368  1  0.40251000  0.54344000  0.41723000  1.0
  N  N369  1  0.59139000  0.54994000  0.33674000  1.0
  N  N370  1  0.53934000  0.95657000  0.14093000  1.0
  N  N371  1  0.61333000  0.95007000  0.95855000  1.0
  N  N372  1  0.64093000  0.54344000  0.03934000  1.0
  N  N373  1  0.45855000  0.54994000  0.11333000  1.0
  N  N374  1  0.91723000  0.95656000  0.90251000  1.0
  N  N375  1  0.83674000  0.95006000  0.09139000  1.0
  N  N376  1  0.59749000  0.45656000  0.58277000  1.0
  N  N377  1  0.40862000  0.45008000  0.66325000  1.0
  N  N378  1  0.46066000  0.04343000  0.85907000  1.0
  N  N379  1  0.38668000  0.04994000  0.04145000  1.0
  N  N380  1  0.35907000  0.45656000  0.96066000  1.0
  N  N381  1  0.54145000  0.45006000  0.88667000  1.0
  N  N382  1  0.08278000  0.04344000  0.09748000  1.0
  N  N383  1  0.16326000  0.04993000  0.90862000  1.0
