# generated using pymatgen
data_CoH28C36(NO)4
_symmetry_space_group_name_H-M   'P 1'
_cell_length_a   9.09769000
_cell_length_b   11.04480000
_cell_length_c   16.37560000
_cell_angle_alpha   71.51000000
_cell_angle_beta   76.58240000
_cell_angle_gamma   81.29810000
_symmetry_Int_Tables_number   1
_chemical_formula_structural   CoH28C36(NO)4
_chemical_formula_sum   'Co2 H56 C72 N8 O8'
_cell_volume   1512.52658878
_cell_formula_units_Z   2
loop_
 _symmetry_equiv_pos_site_id
 _symmetry_equiv_pos_as_xyz
  1  'x, y, z'
loop_
 _atom_site_type_symbol
 _atom_site_label
 _atom_site_symmetry_multiplicity
 _atom_site_fract_x
 _atom_site_fract_y
 _atom_site_fract_z
 _atom_site_occupancy
  Co  Co0  1  0.47185000  0.63750000  0.24969000  1.0
  Co  Co1  1  0.52815000  0.36250000  0.75031000  1.0
  H  H2  1  0.61866000  0.52526000  0.39275000  1.0
  H  H3  1  0.38134000  0.47474000  0.60725000  1.0
  H  H4  1  0.79993000  0.44721000  0.41065000  1.0
  H  H5  1  0.20007000  0.55279000  0.58936000  1.0
  H  H6  1  0.67158000  0.36864000  0.38233000  1.0
  H  H7  1  0.32842000  0.63136000  0.61767000  1.0
  H  H8  1  0.65958000  0.74850000  0.04563000  1.0
  H  H9  1  0.34042000  0.25149000  0.95437000  1.0
  H  H10  1  0.88037000  0.77137000  0.91904000  1.0
  H  H11  1  0.11964000  0.22863000  0.08096000  1.0
  H  H12  1  0.13404000  0.66524000  0.94118000  1.0
  H  H13  1  0.86597000  0.33476000  0.05882000  1.0
  H  H14  1  0.17634000  0.52615000  0.08745000  1.0
  H  H15  1  0.82366000  0.47384000  0.91255000  1.0
  H  H16  1  0.03127000  0.41942000  0.34277000  1.0
  H  H17  1  0.96873000  0.58057000  0.65723000  1.0
  H  H18  1  0.14616000  0.42856000  0.23907000  1.0
  H  H19  1  0.85384000  0.57144000  0.76094000  1.0
  H  H20  1  0.86736000  0.31260000  0.19693000  1.0
  H  H21  1  0.13265000  0.68740000  0.80308000  1.0
  H  H22  1  0.85081000  0.08873000  0.20288000  1.0
  H  H23  1  0.14919000  0.91127000  0.79712000  1.0
  H  H24  1  0.98546000  0.90934000  0.30373000  1.0
  H  H25  1  0.01454000  0.09066000  0.69627000  1.0
  H  H26  1  0.13161000  0.95953000  0.39789000  1.0
  H  H27  1  0.86839000  0.04047000  0.60211000  1.0
  H  H28  1  0.12461000  0.23098000  0.45364000  1.0
  H  H29  1  0.87539000  0.76902000  0.54636000  1.0
  H  H30  1  0.24266000  0.09493000  0.43749000  1.0
  H  H31  1  0.75735000  0.90507000  0.56251000  1.0
  H  H32  1  0.30348000  0.52342000  0.42598000  1.0
  H  H33  1  0.69652000  0.47658000  0.57402000  1.0
  H  H34  1  0.29974000  0.36033000  0.49438000  1.0
  H  H35  1  0.70026000  0.63967000  0.50562000  1.0
  H  H36  1  0.13873000  0.44050000  0.44956000  1.0
  H  H37  1  0.86127000  0.55950000  0.55044000  1.0
  H  H38  1  0.35329000  0.08174000  0.25261000  1.0
  H  H39  1  0.64670000  0.91826000  0.74739000  1.0
  H  H40  1  0.49377000  0.13480000  0.09959000  1.0
  H  H41  1  0.50622000  0.86520000  0.90041000  1.0
  H  H42  1  0.59845000  0.34455000  0.02460000  1.0
  H  H43  1  0.40154000  0.65545000  0.97540000  1.0
  H  H44  1  0.57258000  0.50866000  0.10441000  1.0
  H  H45  1  0.42741000  0.49134000  0.89559000  1.0
  H  H46  1  0.29322000  0.75803000  0.48372000  1.0
  H  H47  1  0.70679000  0.24197000  0.51628000  1.0
  H  H48  1  0.26039000  0.85764000  0.60516000  1.0
  H  H49  1  0.73961000  0.14237000  0.39484000  1.0
  H  H50  1  0.65368000  0.99234000  0.33252000  1.0
  H  H51  1  0.34633000  0.00767000  0.66747000  1.0
  H  H52  1  0.94810000  0.83447000  0.17080000  1.0
  H  H53  1  0.05190000  0.16553000  0.82920000  1.0
  H  H54  1  0.71977000  0.94420000  0.11093000  1.0
  H  H55  1  0.28023000  0.05580000  0.88906000  1.0
  H  H56  1  0.39185000  0.90994000  0.01500000  1.0
  H  H57  1  0.60815000  0.09006000  0.98500000  1.0
  C  C58  1  0.71377000  0.46193000  0.37059000  1.0
  C  C59  1  0.28623000  0.53807000  0.62942000  1.0
  C  C60  1  0.77586000  0.51837000  0.27608000  1.0
  C  C61  1  0.22414000  0.48163000  0.72392000  1.0
  C  C62  1  0.79563000  0.62457000  0.13673000  1.0
  C  C63  1  0.20437000  0.37542000  0.86327000  1.0
  C  C64  1  0.77101000  0.69990000  0.05390000  1.0
  C  C65  1  0.22899000  0.30010000  0.94610000  1.0
  C  C66  1  0.89495000  0.71208000  0.98439000  1.0
  C  C67  1  0.10505000  0.28792000  0.01561000  1.0
  C  C68  1  0.03916000  0.65159000  0.99685000  1.0
  C  C69  1  0.96084000  0.34841000  0.00315000  1.0
  C  C70  1  0.06475000  0.57402000  0.07869000  1.0
  C  C71  1  0.93526000  0.42597000  0.92131000  1.0
  C  C72  1  0.94017000  0.56134000  0.14809000  1.0
  C  C73  1  0.05982000  0.43865000  0.85192000  1.0
  C  C74  1  0.03425000  0.40356000  0.27948000  1.0
  C  C75  1  0.96575000  0.59643000  0.72052000  1.0
  C  C76  1  0.01261000  0.26472000  0.29146000  1.0
  C  C77  1  0.98739000  0.73528000  0.70854000  1.0
  C  C78  1  0.92570000  0.23514000  0.24121000  1.0
  C  C79  1  0.07431000  0.76485000  0.75879000  1.0
  C  C80  1  0.91501000  0.10854000  0.24511000  1.0
  C  C81  1  0.08499000  0.89146000  0.75489000  1.0
  C  C82  1  0.98859000  0.00850000  0.30192000  1.0
  C  C83  1  0.01141000  0.99150000  0.69808000  1.0
  C  C84  1  0.07157000  0.03692000  0.35430000  1.0
  C  C85  1  0.92843000  0.96307000  0.64570000  1.0
  C  C86  1  0.08608000  0.16364000  0.34945000  1.0
  C  C87  1  0.91392000  0.83636000  0.65055000  1.0
  C  C88  1  0.18869000  0.18690000  0.40304000  1.0
  C  C89  1  0.81130000  0.81310000  0.59697000  1.0
  C  C90  1  0.26367000  0.42990000  0.43620000  1.0
  C  C91  1  0.73633000  0.57010000  0.56380000  1.0
  C  C92  1  0.32632000  0.38849000  0.35632000  1.0
  C  C93  1  0.67368000  0.61151000  0.64368000  1.0
  C  C94  1  0.38265000  0.26755000  0.26471000  1.0
  C  C95  1  0.61735000  0.73245000  0.73529000  1.0
  C  C96  1  0.39880000  0.17444000  0.22142000  1.0
  C  C97  1  0.60119000  0.82556000  0.77858000  1.0
  C  C98  1  0.47838000  0.20544000  0.13501000  1.0
  C  C99  1  0.52161000  0.79457000  0.86499000  1.0
  C  C100  1  0.53947000  0.32455000  0.09292000  1.0
  C  C101  1  0.46052000  0.67545000  0.90707000  1.0
  C  C102  1  0.52591000  0.41630000  0.13684000  1.0
  C  C103  1  0.47408000  0.58370000  0.86316000  1.0
  C  C104  1  0.44716000  0.38590000  0.22417000  1.0
  C  C105  1  0.55284000  0.61411000  0.77583000  1.0
  C  C106  1  0.47739000  0.86855000  0.40208000  1.0
  C  C107  1  0.52261000  0.13145000  0.59791000  1.0
  C  C108  1  0.36537000  0.83077000  0.47947000  1.0
  C  C109  1  0.63463000  0.16923000  0.52053000  1.0
  C  C110  1  0.34802000  0.88541000  0.54628000  1.0
  C  C111  1  0.65199000  0.11460000  0.45372000  1.0
  C  C112  1  0.44359000  0.98028000  0.53935000  1.0
  C  C113  1  0.55643000  0.01973000  0.46064000  1.0
  C  C114  1  0.56980000  0.96260000  0.39289000  1.0
  C  C115  1  0.43021000  0.03741000  0.60710000  1.0
  C  C116  1  0.49539000  0.80746000  0.33029000  1.0
  C  C117  1  0.50461000  0.19254000  0.66971000  1.0
  C  C118  1  0.17573000  0.86193000  0.09924000  1.0
  C  C119  1  0.82427000  0.13807000  0.90076000  1.0
  C  C120  1  0.01971000  0.88466000  0.10958000  1.0
  C  C121  1  0.98029000  0.11535000  0.89042000  1.0
  C  C122  1  0.95219000  0.96936000  0.04080000  1.0
  C  C123  1  0.04781000  0.03064000  0.95920000  1.0
  C  C124  1  0.79221000  0.99263000  0.04938000  1.0
  C  C125  1  0.20779000  0.00737000  0.95062000  1.0
  C  C126  1  0.26955000  0.92644000  0.01950000  1.0
  C  C127  1  0.73045000  0.07356000  0.98049000  1.0
  C  C128  1  0.24618000  0.76703000  0.17022000  1.0
  C  C129  1  0.75383000  0.23297000  0.82978000  1.0
  N  N130  1  0.69670000  0.59597000  0.21788000  1.0
  N  N131  1  0.30330000  0.40403000  0.78212000  1.0
  N  N132  1  0.92309000  0.49460000  0.23700000  1.0
  N  N133  1  0.07691000  0.50540000  0.76300000  1.0
  N  N134  1  0.41122000  0.45805000  0.28353000  1.0
  N  N135  1  0.58877000  0.54195000  0.71646000  1.0
  N  N136  1  0.30512000  0.27251000  0.34784000  1.0
  N  N137  1  0.69488000  0.72749000  0.65216000  1.0
  O  O138  1  0.43428000  0.69866000  0.35354000  1.0
  O  O139  1  0.56572000  0.30134000  0.64647000  1.0
  O  O140  1  0.56465000  0.85851000  0.25450000  1.0
  O  O141  1  0.43535000  0.14148000  0.74550000  1.0
  O  O142  1  0.17071000  0.71653000  0.24489000  1.0
  O  O143  1  0.82930000  0.28347000  0.75511000  1.0
  O  O144  1  0.39277000  0.74083000  0.14814000  1.0
  O  O145  1  0.60724000  0.25917000  0.85185000  1.0
