# generated using pymatgen
data_AgBH8C4(SF2)2
_symmetry_space_group_name_H-M   'P 1'
_cell_length_a   7.70102000
_cell_length_b   7.70102000
_cell_length_c   14.04290000
_cell_angle_alpha   89.99990000
_cell_angle_beta   90.00010000
_cell_angle_gamma   90.00000000
_symmetry_Int_Tables_number   1
_chemical_formula_structural   AgBH8C4(SF2)2
_chemical_formula_sum   'Ag4 B4 H32 C16 S8 F16'
_cell_volume   832.82414148
_cell_formula_units_Z   4
loop_
 _symmetry_equiv_pos_site_id
 _symmetry_equiv_pos_as_xyz
  1  'x, y, z'
loop_
 _atom_site_type_symbol
 _atom_site_label
 _atom_site_symmetry_multiplicity
 _atom_site_fract_x
 _atom_site_fract_y
 _atom_site_fract_z
 _atom_site_occupancy
  Ag  Ag0  1  0.50000000  0.00000000  0.00000000  1.0
  Ag  Ag1  1  0.00000000  0.50000000  0.50000000  1.0
  Ag  Ag2  1  0.50000000  0.00000000  0.50000000  1.0
  Ag  Ag3  1  0.00000000  0.50000000  0.00000000  1.0
  B  B4  1  0.50000000  0.00000000  0.25000000  1.0
  B  B5  1  0.00000000  0.50000000  0.75000000  1.0
  B  B6  1  0.50000000  0.00000000  0.75000000  1.0
  B  B7  1  0.00000000  0.50000000  0.25000000  1.0
  H  H8  1  0.15163000  0.94321000  0.16347000  1.0
  H  H9  1  0.05679000  0.15163000  0.66347000  1.0
  H  H10  1  0.94321000  0.84837000  0.66347000  1.0
  H  H11  1  0.44321000  0.65163000  0.33653000  1.0
  H  H12  1  0.84837000  0.05679000  0.16347000  1.0
  H  H13  1  0.34837000  0.44321000  0.83653000  1.0
  H  H14  1  0.65163000  0.55679000  0.83653000  1.0
  H  H15  1  0.55679000  0.34837000  0.33653000  1.0
  H  H16  1  0.84837000  0.05679000  0.83653000  1.0
  H  H17  1  0.94321000  0.84837000  0.33653000  1.0
  H  H18  1  0.05679000  0.15163000  0.33653000  1.0
  H  H19  1  0.55679000  0.34837000  0.66347000  1.0
  H  H20  1  0.15163000  0.94321000  0.83653000  1.0
  H  H21  1  0.65163000  0.55679000  0.16347000  1.0
  H  H22  1  0.34837000  0.44321000  0.16347000  1.0
  H  H23  1  0.44321000  0.65163000  0.66347000  1.0
  H  H24  1  0.14025000  0.14334000  0.10094000  1.0
  H  H25  1  0.85665000  0.14025000  0.60094000  1.0
  H  H26  1  0.14334000  0.85975000  0.60094000  1.0
  H  H27  1  0.64335000  0.64025000  0.39906000  1.0
  H  H28  1  0.85975000  0.85666000  0.10094000  1.0
  H  H29  1  0.35975000  0.64335000  0.89906000  1.0
  H  H30  1  0.64025000  0.35666000  0.89906000  1.0
  H  H31  1  0.35665000  0.35975000  0.39906000  1.0
  H  H32  1  0.85975000  0.85665000  0.89906000  1.0
  H  H33  1  0.14334000  0.85975000  0.39906000  1.0
  H  H34  1  0.85665000  0.14025000  0.39906000  1.0
  H  H35  1  0.35665000  0.35975000  0.60094000  1.0
  H  H36  1  0.14025000  0.14334000  0.89905000  1.0
  H  H37  1  0.64025000  0.35666000  0.10094000  1.0
  H  H38  1  0.35975000  0.64334000  0.10094000  1.0
  H  H39  1  0.64335000  0.64025000  0.60094000  1.0
  C  C40  1  0.09824000  0.00766000  0.10020000  1.0
  C  C41  1  0.99234000  0.09824000  0.60020000  1.0
  C  C42  1  0.00766000  0.90176000  0.60020000  1.0
  C  C43  1  0.50766000  0.59824000  0.39980000  1.0
  C  C44  1  0.90176000  0.99234000  0.10020000  1.0
  C  C45  1  0.40176000  0.50766000  0.89980000  1.0
  C  C46  1  0.59824000  0.49234000  0.89980000  1.0
  C  C47  1  0.49234000  0.40176000  0.39980000  1.0
  C  C48  1  0.90176000  0.99234000  0.89980000  1.0
  C  C49  1  0.00766000  0.90176000  0.39980000  1.0
  C  C50  1  0.99234000  0.09824000  0.39980000  1.0
  C  C51  1  0.49234000  0.40176000  0.60020000  1.0
  C  C52  1  0.09824000  0.00766000  0.89980000  1.0
  C  C53  1  0.59824000  0.49234000  0.10020000  1.0
  C  C54  1  0.40176000  0.50766000  0.10020000  1.0
  C  C55  1  0.50766000  0.59824000  0.60020000  1.0
  S  S56  1  0.19843000  0.89666000  0.00000000  1.0
  S  S57  1  0.10334000  0.19844000  0.50000000  1.0
  S  S58  1  0.89666000  0.80157000  0.50000000  1.0
  S  S59  1  0.39666000  0.69843000  0.50000000  1.0
  S  S60  1  0.80157000  0.10334000  0.00000000  1.0
  S  S61  1  0.30157000  0.39666000  0.00000000  1.0
  S  S62  1  0.69843000  0.60334000  0.00000000  1.0
  S  S63  1  0.60334000  0.30156000  0.50000000  1.0
  F  F64  1  0.50026000  0.84984000  0.19160000  1.0
  F  F65  1  0.15016000  0.50025000  0.69160000  1.0
  F  F66  1  0.84984000  0.49974000  0.69160000  1.0
  F  F67  1  0.34984000  0.00025000  0.30840000  1.0
  F  F68  1  0.49974000  0.15016000  0.19160000  1.0
  F  F69  1  0.99974000  0.34984000  0.80840000  1.0
  F  F70  1  0.00026000  0.65016000  0.80840000  1.0
  F  F71  1  0.65016000  0.99975000  0.30840000  1.0
  F  F72  1  0.49975000  0.15016000  0.80840000  1.0
  F  F73  1  0.84984000  0.49974000  0.30840000  1.0
  F  F74  1  0.15016000  0.50025000  0.30840000  1.0
  F  F75  1  0.65016000  0.99975000  0.69160000  1.0
  F  F76  1  0.50026000  0.84984000  0.80840000  1.0
  F  F77  1  0.00026000  0.65016000  0.19160000  1.0
  F  F78  1  0.99975000  0.34984000  0.19160000  1.0
  F  F79  1  0.34984000  0.00025000  0.69160000  1.0
