# generated using pymatgen
data_YH23C20N3O8
_symmetry_space_group_name_H-M   'P 1'
_cell_length_a   10.13770000
_cell_length_b   10.34350000
_cell_length_c   12.68835934
_cell_angle_alpha   96.19662472
_cell_angle_beta   107.96901056
_cell_angle_gamma   118.89500000
_symmetry_Int_Tables_number   1
_chemical_formula_structural   YH23C20N3O8
_chemical_formula_sum   'Y2 H46 C40 N6 O16'
_cell_volume   1053.95279804
_cell_formula_units_Z   2
loop_
 _symmetry_equiv_pos_site_id
 _symmetry_equiv_pos_as_xyz
  1  'x, y, z'
loop_
 _atom_site_type_symbol
 _atom_site_label
 _atom_site_symmetry_multiplicity
 _atom_site_fract_x
 _atom_site_fract_y
 _atom_site_fract_z
 _atom_site_occupancy
  Y  Y0  1  0.83079000  0.28089000  0.30378000  1.0
  Y  Y1  1  0.16921000  0.71911000  0.69622000  1.0
  H  H2  1  0.07532000  0.12880000  0.39136000  1.0
  H  H3  1  0.92468000  0.87120000  0.60864000  1.0
  H  H4  1  0.12046000  0.33904000  0.69776000  1.0
  H  H5  1  0.87954000  0.66096000  0.30224000  1.0
  H  H6  1  0.13681000  0.06874000  0.21512000  1.0
  H  H7  1  0.86319000  0.93126000  0.78488000  1.0
  H  H8  1  0.77359000  0.04234000  0.91246000  1.0
  H  H9  1  0.22641000  0.95766000  0.08754000  1.0
  H  H10  1  0.80749000  0.65269000  0.09771000  1.0
  H  H11  1  0.19251000  0.34731000  0.90229000  1.0
  H  H12  1  0.33768000  0.24710000  0.03174000  1.0
  H  H13  1  0.66232000  0.75290000  0.96826000  1.0
  H  H14  1  0.24941000  0.37637000  0.31409000  1.0
  H  H15  1  0.75059000  0.62363000  0.68591000  1.0
  H  H16  1  0.51640000  0.65576000  0.67326000  1.0
  H  H17  1  0.48360000  0.34424000  0.32674000  1.0
  H  H18  1  0.47154000  0.89225000  0.10039000  1.0
  H  H19  1  0.52845000  0.10776000  0.89961000  1.0
  H  H20  1  0.31572000  0.72278000  0.34559000  1.0
  H  H21  1  0.68428000  0.27722000  0.65441000  1.0
  H  H22  1  0.49931000  0.91039000  0.39206000  1.0
  H  H23  1  0.50068000  0.08960000  0.60794000  1.0
  H  H24  1  0.26677000  0.90979000  0.43065000  1.0
  H  H25  1  0.73323000  0.09021000  0.56935000  1.0
  H  H26  1  0.14681000  0.84267000  0.27961000  1.0
  H  H27  1  0.85318000  0.15732000  0.72038000  1.0
  H  H28  1  0.33667000  0.02922000  0.34272000  1.0
  H  H29  1  0.66333000  0.97078000  0.65728000  1.0
  H  H30  1  0.22852000  0.68708000  0.03692000  1.0
  H  H31  1  0.77148000  0.31293000  0.96308000  1.0
  H  H32  1  0.10859000  0.67829000  0.11484000  1.0
  H  H33  1  0.89141000  0.32171000  0.88516000  1.0
  H  H34  1  0.09054000  0.42578000  0.06227000  1.0
  H  H35  1  0.90946000  0.57422000  0.93773000  1.0
  H  H36  1  0.16632000  0.50625000  0.21395000  1.0
  H  H37  1  0.83368000  0.49375000  0.78605000  1.0
  H  H38  1  0.30596000  0.52312000  0.14966000  1.0
  H  H39  1  0.69403000  0.47687000  0.85033000  1.0
  H  H40  1  0.25305000  0.16304000  0.73702000  1.0
  H  H41  1  0.74695000  0.83696000  0.26298000  1.0
  H  H42  1  0.37919000  0.35350000  0.73131000  1.0
  H  H43  1  0.62081000  0.64649000  0.26869000  1.0
  H  H44  1  0.36847000  0.24397000  0.55252000  1.0
  H  H45  1  0.63153000  0.75603000  0.44748000  1.0
  H  H46  1  0.23768000  0.05436000  0.55833000  1.0
  H  H47  1  0.76231000  0.94563000  0.44166000  1.0
  C  C48  1  0.95106000  0.06349000  0.07136000  1.0
  C  C49  1  0.04894000  0.93651000  0.92864000  1.0
  C  C50  1  0.07729000  0.03787000  0.12073000  1.0
  C  C51  1  0.92271000  0.96213000  0.87927000  1.0
  C  C52  1  0.87382000  0.02512000  0.95000000  1.0
  C  C53  1  0.12618000  0.97488000  0.05000000  1.0
  C  C54  1  0.89993000  0.13130000  0.14843000  1.0
  C  C55  1  0.10007000  0.86870000  0.85157000  1.0
  C  C56  1  0.58098000  0.44384000  0.07227000  1.0
  C  C57  1  0.41902000  0.55616000  0.92773000  1.0
  C  C58  1  0.67278000  0.58661000  0.05467000  1.0
  C  C59  1  0.32722000  0.41339000  0.94533000  1.0
  C  C60  1  0.40750000  0.35741000  0.01692000  1.0
  C  C61  1  0.59250000  0.64259000  0.98308000  1.0
  C  C62  1  0.66647000  0.38497000  0.15164000  1.0
  C  C63  1  0.33353000  0.61503000  0.84836000  1.0
  C  C64  1  0.37007000  0.51967000  0.49225000  1.0
  C  C65  1  0.62993000  0.48033000  0.50775000  1.0
  C  C66  1  0.36047000  0.43147000  0.39473000  1.0
  C  C67  1  0.63953000  0.56853000  0.60527000  1.0
  C  C68  1  0.51071000  0.58802000  0.59790000  1.0
  C  C69  1  0.48929000  0.41198000  0.40210000  1.0
  C  C70  1  0.22880000  0.53673000  0.48561000  1.0
  C  C71  1  0.77119000  0.46326000  0.51438000  1.0
  C  C72  1  0.48872000  0.91624000  0.19214000  1.0
  C  C73  1  0.51128000  0.08376000  0.80786000  1.0
  C  C74  1  0.36895000  0.83606000  0.33054000  1.0
  C  C75  1  0.63105000  0.16394000  0.66946000  1.0
  C  C76  1  0.27463000  0.90955000  0.34634000  1.0
  C  C77  1  0.72536000  0.09045000  0.65366000  1.0
  C  C78  1  0.21722000  0.67523000  0.11917000  1.0
  C  C79  1  0.78278000  0.32477000  0.88083000  1.0
  C  C80  1  0.19473000  0.52432000  0.13810000  1.0
  C  C81  1  0.80527000  0.47568000  0.86190000  1.0
  C  C82  1  0.04519000  0.21563000  0.52967000  1.0
  C  C83  1  0.95481000  0.78437000  0.47033000  1.0
  C  C84  1  0.26332000  0.23971000  0.68226000  1.0
  C  C85  1  0.73669000  0.76030000  0.31775000  1.0
  C  C86  1  0.25556000  0.16881000  0.56450000  1.0
  C  C87  1  0.74444000  0.83119000  0.43550000  1.0
  N  N88  1  0.36425000  0.81208000  0.21298000  1.0
  N  N89  1  0.63575000  0.18792000  0.78702000  1.0
  N  N90  1  0.11326000  0.15789000  0.47961000  1.0
  N  N91  1  0.88674000  0.84211000  0.52039000  1.0
  N  N92  1  0.12046000  0.25412000  0.64769000  1.0
  N  N93  1  0.87954000  0.74588000  0.35231000  1.0
  O  O94  1  0.95029000  0.13838000  0.25611000  1.0
  O  O95  1  0.04971000  0.86162000  0.74389000  1.0
  O  O96  1  0.81001000  0.18322000  0.10871000  1.0
  O  O97  1  0.18999000  0.81678000  0.89129000  1.0
  O  O98  1  0.82493000  0.47221000  0.21010000  1.0
  O  O99  1  0.17507000  0.52779000  0.78990000  1.0
  O  O100  1  0.58248000  0.25167000  0.16174000  1.0
  O  O101  1  0.41752000  0.74833000  0.83826000  1.0
  O  O102  1  0.10493000  0.47647000  0.38753000  1.0
  O  O103  1  0.89507000  0.52354000  0.61247000  1.0
  O  O104  1  0.24188000  0.60927000  0.57918000  1.0
  O  O105  1  0.75812000  0.39073000  0.42082000  1.0
  O  O106  1  0.61733000  0.03382000  0.27093000  1.0
  O  O107  1  0.38267000  0.96618000  0.72907000  1.0
  O  O108  1  0.92706000  0.22945000  0.47657000  1.0
  O  O109  1  0.07294000  0.77056000  0.52343000  1.0
