# generated using pymatgen
data_CoH14C17O6
_symmetry_space_group_name_H-M   'P 1'
_cell_length_a   10.04030000
_cell_length_b   13.69330000
_cell_length_c   14.13743020
_cell_angle_alpha   61.03421104
_cell_angle_beta   83.38932309
_cell_angle_gamma   76.24870000
_symmetry_Int_Tables_number   1
_chemical_formula_structural   CoH14C17O6
_chemical_formula_sum   'Co4 H56 C68 O24'
_cell_volume   1651.80194122
_cell_formula_units_Z   4
loop_
 _symmetry_equiv_pos_site_id
 _symmetry_equiv_pos_as_xyz
  1  'x, y, z'
loop_
 _atom_site_type_symbol
 _atom_site_label
 _atom_site_symmetry_multiplicity
 _atom_site_fract_x
 _atom_site_fract_y
 _atom_site_fract_z
 _atom_site_occupancy
  Co  Co0  1  0.25001000  0.42467000  0.15067000  1.0
  Co  Co1  1  0.74999000  0.57533000  0.84933000  1.0
  Co  Co2  1  0.50000000  0.50000000  0.00000000  1.0
  Co  Co3  1  0.00000000  0.50000000  0.00000000  1.0
  H  H4  1  0.29064000  0.84339000  0.84461000  1.0
  H  H5  1  0.20937000  0.31200000  0.84462000  1.0
  H  H6  1  0.70936000  0.15662000  0.15539000  1.0
  H  H7  1  0.79063000  0.68800000  0.15538000  1.0
  H  H8  1  0.16747000  0.04422000  0.77996000  1.0
  H  H9  1  0.33255000  0.17582000  0.77997000  1.0
  H  H10  1  0.83253000  0.95578000  0.22005000  1.0
  H  H11  1  0.66745000  0.82418000  0.22003000  1.0
  H  H12  1  0.72503000  0.49017000  0.23299000  1.0
  H  H13  1  0.77493000  0.27685000  0.23300000  1.0
  H  H14  1  0.27497000  0.50984000  0.76700000  1.0
  H  H15  1  0.22507000  0.72315000  0.76700000  1.0
  H  H16  1  0.39519000  0.36416000  0.44701000  1.0
  H  H17  1  0.10480000  0.18884000  0.44699000  1.0
  H  H18  1  0.60481000  0.63584000  0.55299000  1.0
  H  H19  1  0.89520000  0.81115000  0.55301000  1.0
  H  H20  1  0.81123000  0.92754000  0.96324000  1.0
  H  H21  1  0.68878000  0.10922000  0.96324000  1.0
  H  H22  1  0.18877000  0.07246000  0.03676000  1.0
  H  H23  1  0.31122000  0.89077000  0.03677000  1.0
  H  H24  1  0.93790000  0.72575000  0.02785000  1.0
  H  H25  1  0.56210000  0.24641000  0.02785000  1.0
  H  H26  1  0.06209000  0.27425000  0.97214000  1.0
  H  H27  1  0.43789000  0.75359000  0.97215000  1.0
  H  H28  1  0.85619000  0.45864000  0.38890000  1.0
  H  H29  1  0.64379000  0.15246000  0.38892000  1.0
  H  H30  1  0.14382000  0.54136000  0.61110000  1.0
  H  H31  1  0.35621000  0.84754000  0.61108000  1.0
  H  H32  1  0.52506000  0.33000000  0.60315000  1.0
  H  H33  1  0.97495000  0.06687000  0.60313000  1.0
  H  H34  1  0.47494000  0.67000000  0.39685000  1.0
  H  H35  1  0.02506000  0.93314000  0.39686000  1.0
  H  H36  1  0.89484000  0.38249000  0.72826000  1.0
  H  H37  1  0.60519000  0.88923000  0.72828000  1.0
  H  H38  1  0.10516000  0.61751000  0.27174000  1.0
  H  H39  1  0.39481000  0.11077000  0.27172000  1.0
  H  H40  1  0.81264000  0.29116000  0.84415000  1.0
  H  H41  1  0.68739000  0.86469000  0.84416000  1.0
  H  H42  1  0.18736000  0.70884000  0.15585000  1.0
  H  H43  1  0.31261000  0.13531000  0.15584000  1.0
  H  H44  1  0.99479000  0.20718000  0.69748000  1.0
  H  H45  1  0.50522000  0.09533000  0.69749000  1.0
  H  H46  1  0.00520000  0.79282000  0.30252000  1.0
  H  H47  1  0.49479000  0.90468000  0.30251000  1.0
  H  H48  1  0.05423000  0.19687000  0.81790000  1.0
  H  H49  1  0.44579000  0.98522000  0.81791000  1.0
  H  H50  1  0.94577000  0.80313000  0.18210000  1.0
  H  H51  1  0.55421000  0.01478000  0.18209000  1.0
  H  H52  1  0.70466000  0.24459000  0.71565000  1.0
  H  H53  1  0.79536000  0.03976000  0.71565000  1.0
  H  H54  1  0.29534000  0.75540000  0.28435000  1.0
  H  H55  1  0.20464000  0.96024000  0.28435000  1.0
  H  H56  1  0.64353000  0.38438000  0.70247000  1.0
  H  H57  1  0.85649000  0.91315000  0.70247000  1.0
  H  H58  1  0.35647000  0.61562000  0.29752000  1.0
  H  H59  1  0.14351000  0.08685000  0.29753000  1.0
  C  C60  1  0.12401000  0.77128000  0.94369000  1.0
  C  C61  1  0.37601000  0.28503000  0.94369000  1.0
  C  C62  1  0.87599000  0.22872000  0.05631000  1.0
  C  C63  1  0.62399000  0.71497000  0.05631000  1.0
  C  C64  1  0.98215000  0.99822000  0.87050000  1.0
  C  C65  1  0.51786000  0.13128000  0.87051000  1.0
  C  C66  1  0.01785000  0.00179000  0.12950000  1.0
  C  C67  1  0.48214000  0.86871000  0.12950000  1.0
  C  C68  1  0.47756000  0.44559000  0.23748000  1.0
  C  C69  1  0.02241000  0.31694000  0.23747000  1.0
  C  C70  1  0.52244000  0.55442000  0.76252000  1.0
  C  C71  1  0.97759000  0.68307000  0.76252000  1.0
  C  C72  1  0.18635000  0.86204000  0.87202000  1.0
  C  C73  1  0.31366000  0.26594000  0.87203000  1.0
  C  C74  1  0.81365000  0.13797000  0.12798000  1.0
  C  C75  1  0.68634000  0.73405000  0.12798000  1.0
  C  C76  1  0.11702000  0.97504000  0.83533000  1.0
  C  C77  1  0.38300000  0.18962000  0.83534000  1.0
  C  C78  1  0.88298000  0.02496000  0.16467000  1.0
  C  C79  1  0.61700000  0.81037000  0.16467000  1.0
  C  C80  1  0.70005000  0.39157000  0.50498000  1.0
  C  C81  1  0.79995000  0.10345000  0.50498000  1.0
  C  C82  1  0.29995000  0.60843000  0.49502000  1.0
  C  C83  1  0.20005000  0.89655000  0.49502000  1.0
  C  C84  1  0.55107000  0.43051000  0.32997000  1.0
  C  C85  1  0.94891000  0.23953000  0.32997000  1.0
  C  C86  1  0.44893000  0.56950000  0.67002000  1.0
  C  C87  1  0.05109000  0.76047000  0.67003000  1.0
  C  C88  1  0.68117000  0.45770000  0.31383000  1.0
  C  C89  1  0.81881000  0.22847000  0.31383000  1.0
  C  C90  1  0.31883000  0.54229000  0.68617000  1.0
  C  C91  1  0.18120000  0.77153000  0.68617000  1.0
  C  C92  1  0.20132000  0.65188000  0.99067000  1.0
  C  C93  1  0.29871000  0.35746000  0.99067000  1.0
  C  C94  1  0.79868000  0.34812000  0.00933000  1.0
  C  C95  1  0.70130000  0.64254000  0.00933000  1.0
  C  C96  1  0.49645000  0.38448000  0.43485000  1.0
  C  C97  1  0.00354000  0.18067000  0.43484000  1.0
  C  C98  1  0.50355000  0.61552000  0.56515000  1.0
  C  C99  1  0.99646000  0.81932000  0.56516000  1.0
  C  C100  1  0.91714000  0.90776000  0.93944000  1.0
  C  C101  1  0.58287000  0.15280000  0.93944000  1.0
  C  C102  1  0.08285000  0.09224000  0.06056000  1.0
  C  C103  1  0.41713000  0.84719000  0.06057000  1.0
  C  C104  1  0.98762000  0.79621000  0.97521000  1.0
  C  C105  1  0.51241000  0.22858000  0.97521000  1.0
  C  C106  1  0.01238000  0.20379000  0.02479000  1.0
  C  C107  1  0.48760000  0.77140000  0.02480000  1.0
  C  C108  1  0.75440000  0.43950000  0.39993000  1.0
  C  C109  1  0.74559000  0.16057000  0.39993000  1.0
  C  C110  1  0.24560000  0.56049000  0.60007000  1.0
  C  C111  1  0.25441000  0.83943000  0.60006000  1.0
  C  C112  1  0.56988000  0.36438000  0.52252000  1.0
  C  C113  1  0.93012000  0.11310000  0.52251000  1.0
  C  C114  1  0.43012000  0.63562000  0.47748000  1.0
  C  C115  1  0.06988000  0.88689000  0.47749000  1.0
  C  C116  1  0.85181000  0.30531000  0.76373000  1.0
  C  C117  1  0.64820000  0.93096000  0.76374000  1.0
  C  C118  1  0.14818000  0.69469000  0.23627000  1.0
  C  C119  1  0.35179000  0.06905000  0.23626000  1.0
  C  C120  1  0.96364000  0.20315000  0.77653000  1.0
  C  C121  1  0.53638000  0.02032000  0.77654000  1.0
  C  C122  1  0.03636000  0.79685000  0.22347000  1.0
  C  C123  1  0.46363000  0.97968000  0.22346000  1.0
  C  C124  1  0.73393000  0.32553000  0.69394000  1.0
  C  C125  1  0.76609000  0.98053000  0.69395000  1.0
  C  C126  1  0.26607000  0.67447000  0.30606000  1.0
  C  C127  1  0.23391000  0.01947000  0.30605000  1.0
  O  O128  1  0.54057000  0.47304000  0.14753000  1.0
  O  O129  1  0.95940000  0.37945000  0.14753000  1.0
  O  O130  1  0.45943000  0.52698000  0.85246000  1.0
  O  O131  1  0.04060000  0.62055000  0.85247000  1.0
  O  O132  1  0.13497000  0.57172000  0.05574000  1.0
  O  O133  1  0.36505000  0.37255000  0.05574000  1.0
  O  O134  1  0.86502000  0.42829000  0.94425000  1.0
  O  O135  1  0.63495000  0.62745000  0.94426000  1.0
  O  O136  1  0.32849000  0.63139000  0.97330000  1.0
  O  O137  1  0.17153000  0.39530000  0.97332000  1.0
  O  O138  1  0.67151000  0.36861000  0.02670000  1.0
  O  O139  1  0.82847000  0.60471000  0.02668000  1.0
  O  O140  1  0.35420000  0.42864000  0.25398000  1.0
  O  O141  1  0.14578000  0.31739000  0.25396000  1.0
  O  O142  1  0.64580000  0.57136000  0.74603000  1.0
  O  O143  1  0.85422000  0.68261000  0.74604000  1.0
  O  O144  1  0.90519000  0.10419000  0.84228000  1.0
  O  O145  1  0.59483000  0.05354000  0.84228000  1.0
  O  O146  1  0.09481000  0.89581000  0.15773000  1.0
  O  O147  1  0.40517000  0.94645000  0.15773000  1.0
  O  O148  1  0.78180000  0.37491000  0.58387000  1.0
  O  O149  1  0.71821000  0.04121000  0.58388000  1.0
  O  O150  1  0.21820000  0.62508000  0.41613000  1.0
  O  O151  1  0.28180000  0.95879000  0.41613000  1.0
