# generated using pymatgen
data_CdH8C6(NO)6
_symmetry_space_group_name_H-M   'P 1'
_cell_length_a   6.67220000
_cell_length_b   10.94600000
_cell_length_c   15.34820000
_cell_angle_alpha   90.00010000
_cell_angle_beta   90.00030000
_cell_angle_gamma   89.99980000
_symmetry_Int_Tables_number   1
_chemical_formula_structural   CdH8C6(NO)6
_chemical_formula_sum   'Cd4 H32 C24 N24 O24'
_cell_volume   1120.93892237
_cell_formula_units_Z   4
loop_
 _symmetry_equiv_pos_site_id
 _symmetry_equiv_pos_as_xyz
  1  'x, y, z'
loop_
 _atom_site_type_symbol
 _atom_site_label
 _atom_site_symmetry_multiplicity
 _atom_site_fract_x
 _atom_site_fract_y
 _atom_site_fract_z
 _atom_site_occupancy
  Cd  Cd0  1  0.00000000  0.00000000  0.00000000  1.0
  Cd  Cd1  1  0.50000000  0.00000000  0.50000000  1.0
  Cd  Cd2  1  0.00000000  0.50000000  0.50000000  1.0
  Cd  Cd3  1  0.50000000  0.50000000  0.00000000  1.0
  H  H4  1  0.80807000  0.26129000  0.04403000  1.0
  H  H5  1  0.69192000  0.73871000  0.54403000  1.0
  H  H6  1  0.19191000  0.76129000  0.45597000  1.0
  H  H7  1  0.30806000  0.23871000  0.95597000  1.0
  H  H8  1  0.19192000  0.73871000  0.95597000  1.0
  H  H9  1  0.30808000  0.26130000  0.45597000  1.0
  H  H10  1  0.80809000  0.23871000  0.54404000  1.0
  H  H11  1  0.69195000  0.76128000  0.04403000  1.0
  H  H12  1  0.66387000  0.40529000  0.79913000  1.0
  H  H13  1  0.83612000  0.59471000  0.29913000  1.0
  H  H14  1  0.33613000  0.90529000  0.70087000  1.0
  H  H15  1  0.16388000  0.09471000  0.20087000  1.0
  H  H16  1  0.33613000  0.59471000  0.20087000  1.0
  H  H17  1  0.16387000  0.40529000  0.70087000  1.0
  H  H18  1  0.66388000  0.09472000  0.29913000  1.0
  H  H19  1  0.83613000  0.90530000  0.79913000  1.0
  H  H20  1  0.23821000  0.88802000  0.85479000  1.0
  H  H21  1  0.26179000  0.11198000  0.35479000  1.0
  H  H22  1  0.76179000  0.38801000  0.64521000  1.0
  H  H23  1  0.73821000  0.61197000  0.14521000  1.0
  H  H24  1  0.76179000  0.11198000  0.14521000  1.0
  H  H25  1  0.73821000  0.88802000  0.64521000  1.0
  H  H26  1  0.23821000  0.61197000  0.35479000  1.0
  H  H27  1  0.26179000  0.38801000  0.85479000  1.0
  H  H28  1  0.32769000  0.01910000  0.86138000  1.0
  H  H29  1  0.17230000  0.98091000  0.36138000  1.0
  H  H30  1  0.67229000  0.51909000  0.63862000  1.0
  H  H31  1  0.82769000  0.48090000  0.13862000  1.0
  H  H32  1  0.67230000  0.98090000  0.13862000  1.0
  H  H33  1  0.82769000  0.01910000  0.63862000  1.0
  H  H34  1  0.32769000  0.48090000  0.36138000  1.0
  H  H35  1  0.17230000  0.51909000  0.86138000  1.0
  C  C36  1  0.79809000  0.26771000  0.97375000  1.0
  C  C37  1  0.70190000  0.73230000  0.47376000  1.0
  C  C38  1  0.20190000  0.76771000  0.52625000  1.0
  C  C39  1  0.29809000  0.23230000  0.02625000  1.0
  C  C40  1  0.20190000  0.73230000  0.02624000  1.0
  C  C41  1  0.29809000  0.26771000  0.52625000  1.0
  C  C42  1  0.79810000  0.23230000  0.47376000  1.0
  C  C43  1  0.70192000  0.76770000  0.97375000  1.0
  C  C44  1  0.72412000  0.34364000  0.84770000  1.0
  C  C45  1  0.77587000  0.65636000  0.34770000  1.0
  C  C46  1  0.27587000  0.84364000  0.65230000  1.0
  C  C47  1  0.22414000  0.15636000  0.15230000  1.0
  C  C48  1  0.27587000  0.65636000  0.15230000  1.0
  C  C49  1  0.22413000  0.34364000  0.65230000  1.0
  C  C50  1  0.72413000  0.15636000  0.34770000  1.0
  C  C51  1  0.77588000  0.84364000  0.84770000  1.0
  C  C52  1  0.82757000  0.23289000  0.83830000  1.0
  C  C53  1  0.67243000  0.76712000  0.33830000  1.0
  C  C54  1  0.17243000  0.73289000  0.66170000  1.0
  C  C55  1  0.32758000  0.26711000  0.16170000  1.0
  C  C56  1  0.17243000  0.76711000  0.16170000  1.0
  C  C57  1  0.32757000  0.23289000  0.66170000  1.0
  C  C58  1  0.82757000  0.26712000  0.33830000  1.0
  C  C59  1  0.67243000  0.73289000  0.83830000  1.0
  N  N60  1  0.87368000  0.18522000  0.91908000  1.0
  N  N61  1  0.62632000  0.81478000  0.41908000  1.0
  N  N62  1  0.12632000  0.68523000  0.58092000  1.0
  N  N63  1  0.37368000  0.31478000  0.08092000  1.0
  N  N64  1  0.12632000  0.81478000  0.08091000  1.0
  N  N65  1  0.37368000  0.18522000  0.58091000  1.0
  N  N66  1  0.87368000  0.31478000  0.41909000  1.0
  N  N67  1  0.62633000  0.68522000  0.91908000  1.0
  N  N68  1  0.70514000  0.36445000  0.93372000  1.0
  N  N69  1  0.79484000  0.63555000  0.43373000  1.0
  N  N70  1  0.29485000  0.86445000  0.56627000  1.0
  N  N71  1  0.20515000  0.13555000  0.06628000  1.0
  N  N72  1  0.29485000  0.63555000  0.06627000  1.0
  N  N73  1  0.20515000  0.36445000  0.56627000  1.0
  N  N74  1  0.70516000  0.13555000  0.43373000  1.0
  N  N75  1  0.79486000  0.86445000  0.93372000  1.0
  N  N76  1  0.86998000  0.17678000  0.75895000  1.0
  N  N77  1  0.63001000  0.82322000  0.25895000  1.0
  N  N78  1  0.13002000  0.67678000  0.74105000  1.0
  N  N79  1  0.36999000  0.32323000  0.24105000  1.0
  N  N80  1  0.13002000  0.82322000  0.24105000  1.0
  N  N81  1  0.36998000  0.17677000  0.74105000  1.0
  N  N82  1  0.86998000  0.32322000  0.25895000  1.0
  N  N83  1  0.63002000  0.67678000  0.75895000  1.0
  O  O84  1  0.81843000  0.23089000  0.68944000  1.0
  O  O85  1  0.68156000  0.76912000  0.18944000  1.0
  O  O86  1  0.18158000  0.73088000  0.81056000  1.0
  O  O87  1  0.31843000  0.26911000  0.31056000  1.0
  O  O88  1  0.18158000  0.76911000  0.31056000  1.0
  O  O89  1  0.31842000  0.23087000  0.81056000  1.0
  O  O90  1  0.81843000  0.26911000  0.18944000  1.0
  O  O91  1  0.68158000  0.73089000  0.68944000  1.0
  O  O92  1  0.95485000  0.07453000  0.75624000  1.0
  O  O93  1  0.54514000  0.92548000  0.25624000  1.0
  O  O94  1  0.04515000  0.57453000  0.74376000  1.0
  O  O95  1  0.45485000  0.42547000  0.24376000  1.0
  O  O96  1  0.04515000  0.92547000  0.24376000  1.0
  O  O97  1  0.45486000  0.07452000  0.74376000  1.0
  O  O98  1  0.95485000  0.42547000  0.25624000  1.0
  O  O99  1  0.54516000  0.57453000  0.75623000  1.0
  O  O100  1  0.26641000  0.95408000  0.89636000  1.0
  O  O101  1  0.23358000  0.04593000  0.39637000  1.0
  O  O102  1  0.73358000  0.45407000  0.60363000  1.0
  O  O103  1  0.76641000  0.54592000  0.10364000  1.0
  O  O104  1  0.73358000  0.04593000  0.10364000  1.0
  O  O105  1  0.76642000  0.95408000  0.60363000  1.0
  O  O106  1  0.26641000  0.54592000  0.39637000  1.0
  O  O107  1  0.23358000  0.45407000  0.89636000  1.0
