# generated using pymatgen
data_MnH20C22(NO)4
_symmetry_space_group_name_H-M   'P 1'
_cell_length_a   11.91710000
_cell_length_b   11.91700000
_cell_length_c   16.43340000
_cell_angle_alpha   72.49150000
_cell_angle_beta   72.49210000
_cell_angle_gamma   78.03380000
_symmetry_Int_Tables_number   1
_chemical_formula_structural   MnH20C22(NO)4
_chemical_formula_sum   'Mn4 H80 C88 N16 O16'
_cell_volume   2104.99859166
_cell_formula_units_Z   4
loop_
 _symmetry_equiv_pos_site_id
 _symmetry_equiv_pos_as_xyz
  1  'x, y, z'
loop_
 _atom_site_type_symbol
 _atom_site_label
 _atom_site_symmetry_multiplicity
 _atom_site_fract_x
 _atom_site_fract_y
 _atom_site_fract_z
 _atom_site_occupancy
  Mn  Mn0  1  0.89615000  0.67127000  0.45104000  1.0
  Mn  Mn1  1  0.32873000  0.10386000  0.04896000  1.0
  Mn  Mn2  1  0.10385000  0.32873000  0.54897000  1.0
  Mn  Mn3  1  0.67127000  0.89614000  0.95104000  1.0
  H  H4  1  0.34843000  0.02067000  0.25165000  1.0
  H  H5  1  0.97932000  0.65157000  0.24835000  1.0
  H  H6  1  0.65157000  0.97932000  0.74836000  1.0
  H  H7  1  0.02067000  0.34843000  0.75165000  1.0
  H  H8  1  0.33648000  0.06889000  0.46623000  1.0
  H  H9  1  0.93111000  0.66353000  0.03377000  1.0
  H  H10  1  0.66352000  0.93111000  0.53377000  1.0
  H  H11  1  0.06889000  0.33648000  0.96623000  1.0
  H  H12  1  0.70428000  0.84169000  0.21731000  1.0
  H  H13  1  0.15830000  0.29573000  0.28269000  1.0
  H  H14  1  0.29572000  0.15830000  0.78269000  1.0
  H  H15  1  0.84170000  0.70428000  0.71731000  1.0
  H  H16  1  0.52222000  0.93060000  0.46325000  1.0
  H  H17  1  0.06940000  0.47778000  0.03675000  1.0
  H  H18  1  0.47778000  0.06941000  0.53675000  1.0
  H  H19  1  0.93059000  0.52222000  0.96325000  1.0
  H  H20  1  0.23451000  0.13459000  0.31832000  1.0
  H  H21  1  0.86541000  0.76549000  0.18168000  1.0
  H  H22  1  0.76548000  0.86541000  0.68169000  1.0
  H  H23  1  0.13459000  0.23451000  0.81832000  1.0
  H  H24  1  0.16955000  0.15475000  0.42536000  1.0
  H  H25  1  0.84525000  0.83046000  0.07463000  1.0
  H  H26  1  0.83045000  0.84525000  0.57464000  1.0
  H  H27  1  0.15475000  0.16954000  0.92537000  1.0
  H  H28  1  0.20835000  0.87185000  0.51480000  1.0
  H  H29  1  0.12815000  0.79164000  0.98521000  1.0
  H  H30  1  0.79164000  0.12815000  0.48521000  1.0
  H  H31  1  0.87185000  0.20836000  0.01479000  1.0
  H  H32  1  0.05463000  0.08805000  0.30330000  1.0
  H  H33  1  0.91195000  0.94537000  0.19669000  1.0
  H  H34  1  0.94537000  0.91195000  0.69670000  1.0
  H  H35  1  0.08805000  0.05463000  0.80331000  1.0
  H  H36  1  0.07412000  0.72209000  0.53947000  1.0
  H  H37  1  0.27791000  0.92588000  0.96054000  1.0
  H  H38  1  0.92588000  0.27791000  0.46054000  1.0
  H  H39  1  0.72208000  0.07412000  0.03946000  1.0
  H  H40  1  0.93066000  0.92590000  0.33372000  1.0
  H  H41  1  0.07409000  0.06934000  0.16628000  1.0
  H  H42  1  0.06934000  0.07409000  0.66628000  1.0
  H  H43  1  0.92590000  0.93066000  0.83372000  1.0
  H  H44  1  0.78335000  0.32711000  0.63680000  1.0
  H  H45  1  0.67288000  0.21665000  0.86321000  1.0
  H  H46  1  0.21666000  0.67289000  0.36320000  1.0
  H  H47  1  0.32711000  0.78335000  0.13680000  1.0
  H  H48  1  0.71501000  0.19474000  0.71419000  1.0
  H  H49  1  0.80526000  0.28499000  0.78582000  1.0
  H  H50  1  0.28500000  0.80526000  0.28580000  1.0
  H  H51  1  0.19473000  0.71502000  0.21418000  1.0
  H  H52  1  0.54037000  0.25313000  0.65660000  1.0
  H  H53  1  0.74687000  0.45964000  0.84339000  1.0
  H  H54  1  0.45964000  0.74687000  0.34340000  1.0
  H  H55  1  0.25312000  0.54038000  0.15660000  1.0
  H  H56  1  0.58113000  0.37813000  0.50314000  1.0
  H  H57  1  0.62186000  0.41889000  0.99685000  1.0
  H  H58  1  0.41888000  0.62186000  0.49685000  1.0
  H  H59  1  0.37814000  0.58112000  0.00315000  1.0
  H  H60  1  0.51376000  0.47115000  0.57625000  1.0
  H  H61  1  0.52885000  0.48627000  0.92374000  1.0
  H  H62  1  0.48625000  0.52885000  0.42375000  1.0
  H  H63  1  0.47114000  0.51375000  0.07627000  1.0
  H  H64  1  0.67204000  0.68078000  0.61973000  1.0
  H  H65  1  0.31922000  0.32797000  0.88028000  1.0
  H  H66  1  0.32796000  0.31924000  0.38026000  1.0
  H  H67  1  0.68078000  0.67201000  0.11972000  1.0
  H  H68  1  0.60185000  0.55552000  0.68449000  1.0
  H  H69  1  0.44449000  0.39816000  0.81551000  1.0
  H  H70  1  0.39816000  0.44450000  0.31549000  1.0
  H  H71  1  0.55552000  0.60182000  0.18449000  1.0
  H  H72  1  0.63931000  0.67231000  0.77967000  1.0
  H  H73  1  0.32770000  0.36070000  0.72033000  1.0
  H  H74  1  0.36069000  0.32770000  0.22032000  1.0
  H  H75  1  0.67231000  0.63928000  0.27967000  1.0
  H  H76  1  0.39356000  0.79319000  0.75040000  1.0
  H  H77  1  0.20681000  0.60645000  0.74960000  1.0
  H  H78  1  0.60643000  0.20680000  0.24959000  1.0
  H  H79  1  0.79320000  0.39354000  0.25040000  1.0
  H  H80  1  0.45987000  0.79441000  0.83905000  1.0
  H  H81  1  0.20559000  0.54014000  0.66096000  1.0
  H  H82  1  0.54013000  0.20559000  0.16095000  1.0
  H  H83  1  0.79442000  0.45985000  0.33904000  1.0
  C  C84  1  0.42388000  0.98927000  0.36336000  1.0
  C  C85  1  0.01072000  0.57612000  0.13664000  1.0
  C  C86  1  0.57612000  0.01072000  0.63664000  1.0
  C  C87  1  0.98928000  0.42388000  0.86337000  1.0
  C  C88  1  0.42489000  0.98316000  0.27867000  1.0
  C  C89  1  0.01683000  0.57511000  0.22133000  1.0
  C  C90  1  0.57510000  0.01683000  0.72133000  1.0
  C  C91  1  0.98316000  0.42489000  0.77867000  1.0
  C  C92  1  0.72591000  0.81811000  0.38319000  1.0
  C  C93  1  0.18189000  0.27409000  0.11681000  1.0
  C  C94  1  0.27409000  0.18189000  0.61681000  1.0
  C  C95  1  0.81811000  0.72591000  0.88319000  1.0
  C  C96  1  0.62452000  0.88203000  0.34403000  1.0
  C  C97  1  0.11797000  0.37548000  0.15597000  1.0
  C  C98  1  0.37548000  0.11797000  0.65597000  1.0
  C  C99  1  0.88203000  0.62452000  0.84403000  1.0
  C  C100  1  0.62666000  0.88225000  0.25810000  1.0
  C  C101  1  0.11775000  0.37334000  0.24190000  1.0
  C  C102  1  0.37334000  0.11775000  0.74190000  1.0
  C  C103  1  0.88225000  0.62666000  0.75811000  1.0
  C  C104  1  0.52577000  0.93145000  0.22632000  1.0
  C  C105  1  0.06854000  0.47423000  0.27368000  1.0
  C  C106  1  0.47423000  0.06855000  0.77368000  1.0
  C  C107  1  0.93145000  0.52577000  0.72632000  1.0
  C  C108  1  0.52433000  0.93516000  0.39569000  1.0
  C  C109  1  0.06484000  0.47568000  0.10431000  1.0
  C  C110  1  0.47568000  0.06484000  0.60431000  1.0
  C  C111  1  0.93516000  0.52432000  0.89569000  1.0
  C  C112  1  0.14087000  0.99333000  0.40735000  1.0
  C  C113  1  0.00667000  0.85914000  0.09265000  1.0
  C  C114  1  0.85913000  0.00667000  0.59265000  1.0
  C  C115  1  0.99333000  0.14087000  0.90735000  1.0
  C  C116  1  0.52439000  0.92751000  0.13614000  1.0
  C  C117  1  0.07248000  0.47561000  0.36386000  1.0
  C  C118  1  0.47561000  0.07249000  0.86386000  1.0
  C  C119  1  0.92751000  0.52440000  0.63614000  1.0
  C  C120  1  0.21846000  0.08841000  0.38897000  1.0
  C  C121  1  0.91159000  0.78154000  0.11103000  1.0
  C  C122  1  0.78153000  0.91159000  0.61103000  1.0
  C  C123  1  0.08841000  0.21846000  0.88897000  1.0
  C  C124  1  0.14588000  0.88875000  0.47442000  1.0
  C  C125  1  0.11125000  0.85412000  0.02558000  1.0
  C  C126  1  0.85412000  0.11125000  0.52558000  1.0
  C  C127  1  0.88875000  0.14588000  0.97442000  1.0
  C  C128  1  0.06088000  0.00795000  0.35657000  1.0
  C  C129  1  0.99205000  0.93912000  0.14344000  1.0
  C  C130  1  0.93912000  0.99205000  0.64344000  1.0
  C  C131  1  0.00795000  0.06088000  0.85657000  1.0
  C  C132  1  0.07301000  0.80434000  0.48741000  1.0
  C  C133  1  0.19566000  0.92699000  0.01260000  1.0
  C  C134  1  0.92699000  0.19566000  0.51259000  1.0
  C  C135  1  0.80434000  0.07301000  0.98741000  1.0
  C  C136  1  0.99221000  0.91869000  0.37301000  1.0
  C  C137  1  0.08130000  0.00779000  0.12699000  1.0
  C  C138  1  0.00779000  0.08131000  0.62699000  1.0
  C  C139  1  0.91869000  0.99221000  0.87301000  1.0
  C  C140  1  0.70852000  0.27579000  0.66206000  1.0
  C  C141  1  0.72420000  0.29149000  0.83794000  1.0
  C  C142  1  0.29149000  0.72421000  0.33793000  1.0
  C  C143  1  0.27579000  0.70852000  0.16206000  1.0
  C  C144  1  0.61293000  0.30718000  0.63051000  1.0
  C  C145  1  0.69281000  0.38708000  0.86949000  1.0
  C  C146  1  0.38708000  0.69282000  0.36949000  1.0
  C  C147  1  0.30718000  0.61293000  0.13051000  1.0
  C  C148  1  0.69267000  0.48132000  0.51454000  1.0
  C  C149  1  0.51867000  0.30737000  0.98544000  1.0
  C  C150  1  0.30734000  0.51868000  0.48545000  1.0
  C  C151  1  0.48133000  0.69264000  0.01456000  1.0
  C  C152  1  0.59469000  0.41170000  0.55501000  1.0
  C  C153  1  0.58829000  0.40533000  0.94498000  1.0
  C  C154  1  0.40532000  0.58829000  0.44499000  1.0
  C  C155  1  0.41171000  0.59468000  0.05502000  1.0
  C  C156  1  0.58862000  0.65358000  0.66721000  1.0
  C  C157  1  0.34642000  0.41140000  0.83280000  1.0
  C  C158  1  0.41139000  0.34642000  0.33278000  1.0
  C  C159  1  0.65359000  0.58859000  0.16720000  1.0
  C  C160  1  0.49457000  0.69562000  0.62170000  1.0
  C  C161  1  0.30438000  0.50544000  0.87830000  1.0
  C  C162  1  0.50543000  0.30439000  0.37829000  1.0
  C  C163  1  0.69562000  0.49454000  0.12170000  1.0
  C  C164  1  0.56557000  0.69764000  0.74853000  1.0
  C  C165  1  0.30236000  0.43444000  0.75147000  1.0
  C  C166  1  0.43443000  0.30237000  0.25146000  1.0
  C  C167  1  0.69765000  0.56555000  0.24853000  1.0
  C  C168  1  0.46779000  0.76448000  0.78101000  1.0
  C  C169  1  0.23552000  0.53222000  0.71899000  1.0
  C  C170  1  0.53221000  0.23552000  0.21898000  1.0
  C  C171  1  0.76449000  0.46777000  0.28101000  1.0
  N  N172  1  0.99787000  0.81744000  0.43719000  1.0
  N  N173  1  0.18255000  0.00213000  0.06282000  1.0
  N  N174  1  0.00213000  0.18255000  0.56282000  1.0
  N  N175  1  0.81744000  0.99787000  0.93719000  1.0
  N  N176  1  0.32807000  0.04428000  0.41426000  1.0
  N  N177  1  0.95572000  0.67193000  0.08574000  1.0
  N  N178  1  0.67193000  0.95572000  0.58575000  1.0
  N  N179  1  0.04428000  0.32807000  0.91426000  1.0
  N  N180  1  0.77203000  0.53630000  0.48138000  1.0
  N  N181  1  0.46368000  0.22799000  0.01861000  1.0
  N  N182  1  0.22797000  0.46369000  0.51861000  1.0
  N  N183  1  0.53633000  0.77202000  0.98139000  1.0
  N  N184  1  0.41819000  0.72914000  0.58608000  1.0
  N  N185  1  0.27085000  0.58182000  0.91392000  1.0
  N  N186  1  0.58181000  0.27086000  0.41392000  1.0
  N  N187  1  0.72915000  0.41815000  0.08608000  1.0
  O  O188  1  0.71914000  0.81064000  0.46377000  1.0
  O  O189  1  0.18936000  0.28086000  0.03624000  1.0
  O  O190  1  0.28087000  0.18937000  0.53623000  1.0
  O  O191  1  0.81063000  0.71914000  0.96377000  1.0
  O  O192  1  0.81757000  0.76815000  0.33603000  1.0
  O  O193  1  0.23185000  0.18243000  0.16397000  1.0
  O  O194  1  0.18242000  0.23185000  0.66397000  1.0
  O  O195  1  0.76815000  0.81758000  0.83603000  1.0
  O  O196  1  0.42679000  0.95917000  0.11335000  1.0
  O  O197  1  0.04083000  0.57322000  0.38665000  1.0
  O  O198  1  0.57322000  0.04083000  0.88665000  1.0
  O  O199  1  0.95917000  0.42678000  0.61336000  1.0
  O  O200  1  0.62198000  0.89081000  0.08685000  1.0
  O  O201  1  0.10917000  0.37802000  0.41315000  1.0
  O  O202  1  0.37802000  0.10918000  0.91316000  1.0
  O  O203  1  0.89082000  0.62199000  0.58685000  1.0
