# generated using pymatgen
data_NaZnPH2(CO3)2
_symmetry_space_group_name_H-M   'P 1'
_cell_length_a   9.68088000
_cell_length_b   10.19720000
_cell_length_c   10.81300000
_cell_angle_alpha   90.00000000
_cell_angle_beta   90.00000000
_cell_angle_gamma   90.00000000
_symmetry_Int_Tables_number   1
_chemical_formula_structural   NaZnPH2(CO3)2
_chemical_formula_sum   'Na8 Zn8 P8 H16 C16 O48'
_cell_volume   1067.43632329
_cell_formula_units_Z   8
loop_
 _symmetry_equiv_pos_site_id
 _symmetry_equiv_pos_as_xyz
  1  'x, y, z'
loop_
 _atom_site_type_symbol
 _atom_site_label
 _atom_site_symmetry_multiplicity
 _atom_site_fract_x
 _atom_site_fract_y
 _atom_site_fract_z
 _atom_site_occupancy
  Na  Na0  1  0.08447000  0.62360000  0.42250000  1.0
  Na  Na1  1  0.91553000  0.87640000  0.92250000  1.0
  Na  Na2  1  0.58447000  0.37640000  0.07750000  1.0
  Na  Na3  1  0.41553000  0.12360000  0.57750000  1.0
  Na  Na4  1  0.91553000  0.37640000  0.57750000  1.0
  Na  Na5  1  0.08447000  0.12360000  0.07750000  1.0
  Na  Na6  1  0.41553000  0.62360000  0.92250000  1.0
  Na  Na7  1  0.58447000  0.87640000  0.42250000  1.0
  Zn  Zn8  1  0.91606000  0.82214000  0.60578000  1.0
  Zn  Zn9  1  0.08394000  0.67786000  0.10578000  1.0
  Zn  Zn10  1  0.41606000  0.17786000  0.89422000  1.0
  Zn  Zn11  1  0.58394000  0.32214000  0.39422000  1.0
  Zn  Zn12  1  0.08394000  0.17786000  0.39422000  1.0
  Zn  Zn13  1  0.91606000  0.32214000  0.89422000  1.0
  Zn  Zn14  1  0.58394000  0.82214000  0.10578000  1.0
  Zn  Zn15  1  0.41606000  0.67786000  0.60578000  1.0
  P  P16  1  0.72092000  0.59609000  0.46175000  1.0
  P  P17  1  0.27908000  0.90391000  0.96175000  1.0
  P  P18  1  0.22092000  0.40391000  0.03825000  1.0
  P  P19  1  0.77908000  0.09609000  0.53825000  1.0
  P  P20  1  0.27908000  0.40391000  0.53825000  1.0
  P  P21  1  0.72092000  0.09609000  0.03825000  1.0
  P  P22  1  0.77908000  0.59609000  0.96175000  1.0
  P  P23  1  0.22092000  0.90391000  0.46175000  1.0
  H  H24  1  0.82363000  0.78452000  0.25026000  1.0
  H  H25  1  0.17637000  0.71548000  0.75026000  1.0
  H  H26  1  0.32363000  0.21548000  0.24974000  1.0
  H  H27  1  0.67637000  0.28452000  0.74974000  1.0
  H  H28  1  0.17637000  0.21548000  0.74974000  1.0
  H  H29  1  0.82363000  0.28452000  0.24974000  1.0
  H  H30  1  0.67637000  0.78452000  0.75026000  1.0
  H  H31  1  0.32363000  0.71548000  0.25026000  1.0
  H  H32  1  0.77776000  0.56526000  0.24249000  1.0
  H  H33  1  0.22224000  0.93474000  0.74249000  1.0
  H  H34  1  0.27776000  0.43474000  0.25751000  1.0
  H  H35  1  0.72224000  0.06526000  0.75751000  1.0
  H  H36  1  0.22224000  0.43475000  0.75751000  1.0
  H  H37  1  0.77776000  0.06526000  0.25751000  1.0
  H  H38  1  0.72224000  0.56526000  0.74249000  1.0
  H  H39  1  0.27776000  0.93474000  0.24249000  1.0
  C  C40  1  0.70335000  0.62724000  0.29266000  1.0
  C  C41  1  0.29665000  0.87276000  0.79266000  1.0
  C  C42  1  0.20336000  0.37276000  0.20734000  1.0
  C  C43  1  0.79664000  0.12724000  0.70734000  1.0
  C  C44  1  0.29664000  0.37276000  0.70734000  1.0
  C  C45  1  0.70336000  0.12724000  0.20734000  1.0
  C  C46  1  0.79665000  0.62724000  0.79266000  1.0
  C  C47  1  0.20335000  0.87276000  0.29266000  1.0
  C  C48  1  0.55534000  0.59208000  0.26015000  1.0
  C  C49  1  0.44466000  0.90792000  0.76015000  1.0
  C  C50  1  0.05534000  0.40791000  0.23985000  1.0
  C  C51  1  0.94466000  0.09208000  0.73985000  1.0
  C  C52  1  0.44466000  0.40791000  0.73985000  1.0
  C  C53  1  0.55534000  0.09209000  0.23985000  1.0
  C  C54  1  0.94466000  0.59208000  0.76015000  1.0
  C  C55  1  0.05534000  0.90792000  0.26015000  1.0
  O  O56  1  0.86286000  0.64699000  0.50476000  1.0
  O  O57  1  0.13714000  0.85301000  0.00476000  1.0
  O  O58  1  0.36286000  0.35301000  0.99524000  1.0
  O  O59  1  0.63714000  0.14699000  0.49524000  1.0
  O  O60  1  0.13714000  0.35301000  0.49524000  1.0
  O  O61  1  0.86286000  0.14699000  0.99524000  1.0
  O  O62  1  0.63714000  0.64699000  0.00476000  1.0
  O  O63  1  0.36286000  0.85301000  0.50476000  1.0
  O  O64  1  0.71403000  0.44624000  0.47936000  1.0
  O  O65  1  0.28597000  0.05376000  0.97936000  1.0
  O  O66  1  0.21403000  0.55377000  0.02064000  1.0
  O  O67  1  0.78597000  0.94623000  0.52064000  1.0
  O  O68  1  0.28597000  0.55377000  0.52064000  1.0
  O  O69  1  0.71403000  0.94623000  0.02064000  1.0
  O  O70  1  0.78597000  0.44624000  0.97936000  1.0
  O  O71  1  0.21403000  0.05376000  0.47936000  1.0
  O  O72  1  0.60062000  0.67312000  0.51728000  1.0
  O  O73  1  0.39938000  0.82688000  0.01728000  1.0
  O  O74  1  0.10062000  0.32688000  0.98273000  1.0
  O  O75  1  0.89938000  0.17312000  0.48272000  1.0
  O  O76  1  0.39938000  0.32688000  0.48272000  1.0
  O  O77  1  0.60062000  0.17312000  0.98273000  1.0
  O  O78  1  0.89938000  0.67312000  0.01728000  1.0
  O  O79  1  0.10062000  0.82688000  0.51728000  1.0
  O  O80  1  0.72247000  0.76352000  0.26469000  1.0
  O  O81  1  0.27753000  0.73648000  0.76469000  1.0
  O  O82  1  0.22247000  0.23648000  0.23531000  1.0
  O  O83  1  0.77753000  0.26352000  0.73531000  1.0
  O  O84  1  0.27753000  0.23648000  0.73531000  1.0
  O  O85  1  0.72247000  0.26352000  0.23531000  1.0
  O  O86  1  0.77753000  0.76352000  0.76469000  1.0
  O  O87  1  0.22247000  0.73648000  0.26469000  1.0
  O  O88  1  0.51436000  0.47439000  0.26827000  1.0
  O  O89  1  0.48564000  0.02561000  0.76827000  1.0
  O  O90  1  0.01436000  0.52561000  0.23173000  1.0
  O  O91  1  0.98564000  0.97438000  0.73173000  1.0
  O  O92  1  0.48564000  0.52561000  0.73173000  1.0
  O  O93  1  0.51436000  0.97439000  0.23173000  1.0
  O  O94  1  0.98564000  0.47439000  0.76827000  1.0
  O  O95  1  0.01436000  0.02561000  0.26827000  1.0
  O  O96  1  0.47811000  0.68716000  0.22713000  1.0
  O  O97  1  0.52189000  0.81284000  0.72713000  1.0
  O  O98  1  0.97811000  0.31284000  0.27287000  1.0
  O  O99  1  0.02189000  0.18715000  0.77286000  1.0
  O  O100  1  0.52189000  0.31285000  0.77287000  1.0
  O  O101  1  0.47811000  0.18716000  0.27286000  1.0
  O  O102  1  0.02189000  0.68716000  0.72713000  1.0
  O  O103  1  0.97811000  0.81284000  0.22713000  1.0
