# generated using pymatgen
data_ZnH12C18(NO2)2
_symmetry_space_group_name_H-M   'P 1'
_cell_length_a   11.38050000
_cell_length_b   12.51692311
_cell_length_c   15.21620000
_cell_angle_alpha   92.15230950
_cell_angle_beta   111.95870000
_cell_angle_gamma   117.03453556
_symmetry_Int_Tables_number   1
_chemical_formula_structural   ZnH12C18(NO2)2
_chemical_formula_sum   'Zn4 H48 C72 N8 O16'
_cell_volume   1733.20851361
_cell_formula_units_Z   4
loop_
 _symmetry_equiv_pos_site_id
 _symmetry_equiv_pos_as_xyz
  1  'x, y, z'
loop_
 _atom_site_type_symbol
 _atom_site_label
 _atom_site_symmetry_multiplicity
 _atom_site_fract_x
 _atom_site_fract_y
 _atom_site_fract_z
 _atom_site_occupancy
  Zn  Zn0  1  0.05752000  0.01660000  0.64573000  1.0
  Zn  Zn1  1  0.89515000  0.48352000  0.85432000  1.0
  Zn  Zn2  1  0.94248000  0.98340000  0.35427000  1.0
  Zn  Zn3  1  0.10484000  0.51648000  0.14568000  1.0
  H  H4  1  0.34339000  0.19657000  0.62958000  1.0
  H  H5  1  0.01761000  0.30394000  0.87062000  1.0
  H  H6  1  0.65661000  0.80343000  0.37042000  1.0
  H  H7  1  0.98239000  0.69606000  0.12938000  1.0
  H  H8  1  0.36688000  0.81600000  0.64540000  1.0
  H  H9  1  0.40596000  0.68475000  0.85509000  1.0
  H  H10  1  0.63313000  0.18400000  0.35461000  1.0
  H  H11  1  0.59404000  0.31525000  0.14490000  1.0
  H  H12  1  0.06594000  0.79742000  0.87991000  1.0
  H  H13  1  0.88933000  0.70287000  0.62019000  1.0
  H  H14  1  0.93407000  0.20259000  0.12010000  1.0
  H  H15  1  0.11067000  0.29713000  0.37980000  1.0
  H  H16  1  0.50780000  0.80616000  0.58097000  1.0
  H  H17  1  0.62114000  0.69456000  0.91854000  1.0
  H  H18  1  0.49219000  0.19384000  0.41902000  1.0
  H  H19  1  0.37885000  0.30544000  0.08146000  1.0
  H  H20  1  0.56461000  0.19978000  0.63225000  1.0
  H  H21  1  0.23311000  0.30089000  0.86809000  1.0
  H  H22  1  0.43539000  0.80021000  0.36776000  1.0
  H  H23  1  0.76690000  0.69911000  0.13191000  1.0
  H  H24  1  0.15484000  0.83104000  0.64347000  1.0
  H  H25  1  0.18078000  0.66966000  0.85712000  1.0
  H  H26  1  0.84516000  0.16896000  0.35653000  1.0
  H  H27  1  0.81922000  0.33034000  0.14287000  1.0
  H  H28  1  0.73707000  0.81723000  0.59117000  1.0
  H  H29  1  0.82867000  0.68276000  0.90830000  1.0
  H  H30  1  0.26292000  0.18277000  0.40881000  1.0
  H  H31  1  0.17131000  0.31724000  0.09169000  1.0
  H  H32  1  0.76382000  0.20365000  0.70500000  1.0
  H  H33  1  0.35530000  0.29673000  0.79577000  1.0
  H  H34  1  0.23620000  0.79635000  0.29502000  1.0
  H  H35  1  0.64470000  0.70327000  0.20423000  1.0
  H  H36  1  0.97776000  0.19638000  0.70356000  1.0
  H  H37  1  0.57750000  0.30342000  0.79696000  1.0
  H  H38  1  0.02225000  0.80362000  0.29645000  1.0
  H  H39  1  0.42250000  0.69658000  0.20305000  1.0
  H  H40  1  0.41279000  0.90525000  0.16953000  1.0
  H  H41  1  0.83809000  0.59460000  0.33047000  1.0
  H  H42  1  0.58721000  0.09475000  0.83046000  1.0
  H  H43  1  0.16192000  0.40540000  0.66952000  1.0
  H  H44  1  0.55065000  0.11416000  0.14580000  1.0
  H  H45  1  0.79090000  0.38568000  0.35440000  1.0
  H  H46  1  0.44935000  0.88583000  0.85421000  1.0
  H  H47  1  0.20911000  0.61432000  0.64560000  1.0
  H  H48  1  0.43843000  0.16607000  0.98884000  1.0
  H  H49  1  0.78397000  0.33403000  0.51138000  1.0
  H  H50  1  0.56158000  0.83393000  0.01117000  1.0
  H  H51  1  0.21602000  0.66596000  0.48862000  1.0
  C  C52  1  0.14520000  0.71362000  0.04201000  1.0
  C  C53  1  0.88989000  0.78634000  0.45810000  1.0
  C  C54  1  0.85480000  0.28639000  0.95799000  1.0
  C  C55  1  0.11011000  0.21365000  0.54189000  1.0
  C  C56  1  0.61541000  0.00477000  0.64249000  1.0
  C  C57  1  0.46841000  0.49579000  0.85764000  1.0
  C  C58  1  0.38460000  0.99523000  0.35752000  1.0
  C  C59  1  0.53158000  0.50421000  0.14236000  1.0
  C  C60  1  0.35300000  0.11399000  0.63263000  1.0
  C  C61  1  0.10673000  0.38654000  0.86758000  1.0
  C  C62  1  0.64700000  0.88601000  0.36738000  1.0
  C  C63  1  0.89327000  0.61346000  0.13243000  1.0
  C  C64  1  0.36564000  0.90205000  0.64019000  1.0
  C  C65  1  0.32381000  0.59867000  0.86021000  1.0
  C  C66  1  0.63436000  0.09795000  0.35982000  1.0
  C  C67  1  0.67619000  0.40133000  0.13979000  1.0
  C  C68  1  0.17023000  0.86755000  0.93940000  1.0
  C  C69  1  0.86413000  0.63266000  0.56082000  1.0
  C  C70  1  0.82978000  0.13246000  0.06061000  1.0
  C  C71  1  0.13588000  0.36734000  0.43918000  1.0
  C  C72  1  0.48448000  0.00652000  0.63796000  1.0
  C  C73  1  0.34041000  0.49419000  0.86229000  1.0
  C  C74  1  0.51551000  0.99347000  0.36205000  1.0
  C  C75  1  0.65960000  0.50582000  0.13771000  1.0
  C  C76  1  0.61015000  0.89499000  0.61140000  1.0
  C  C77  1  0.60399000  0.60551000  0.88831000  1.0
  C  C78  1  0.38985000  0.10501000  0.38860000  1.0
  C  C79  1  0.39601000  0.39449000  0.11168000  1.0
  C  C80  1  0.18133000  0.01551000  0.83142000  1.0
  C  C81  1  0.83504000  0.48485000  0.66886000  1.0
  C  C82  1  0.81868000  0.98450000  0.16859000  1.0
  C  C83  1  0.16496000  0.51515000  0.33113000  1.0
  C  C84  1  0.47607000  0.11483000  0.63378000  1.0
  C  C85  1  0.22788000  0.38581000  0.86646000  1.0
  C  C86  1  0.52392000  0.88516000  0.36622000  1.0
  C  C87  1  0.77212000  0.61419000  0.13355000  1.0
  C  C88  1  0.24722000  0.90960000  0.63952000  1.0
  C  C89  1  0.19846000  0.59103000  0.86089000  1.0
  C  C90  1  0.75277000  0.09039000  0.36047000  1.0
  C  C91  1  0.80153000  0.40896000  0.13911000  1.0
  C  C92  1  0.73703000  0.90001000  0.61604000  1.0
  C  C93  1  0.72101000  0.60009000  0.88367000  1.0
  C  C94  1  0.26297000  0.09999000  0.38394000  1.0
  C  C95  1  0.27899000  0.39991000  0.11633000  1.0
  C  C96  1  0.24492000  0.98563000  0.92627000  1.0
  C  C97  1  0.83394000  0.51466000  0.57405000  1.0
  C  C98  1  0.75509000  0.01438000  0.07374000  1.0
  C  C99  1  0.16606000  0.48534000  0.42595000  1.0
  C  C100  1  0.75115000  0.11531000  0.67846000  1.0
  C  C101  1  0.45746000  0.38501000  0.82199000  1.0
  C  C102  1  0.24885000  0.88469000  0.32155000  1.0
  C  C103  1  0.54253000  0.61499000  0.17802000  1.0
  C  C104  1  0.87181000  0.11212000  0.67922000  1.0
  C  C105  1  0.58027000  0.38784000  0.82107000  1.0
  C  C106  1  0.12819000  0.88787000  0.32078000  1.0
  C  C107  1  0.41972000  0.61216000  0.17893000  1.0
  C  C108  1  0.36657000  0.92902000  0.10197000  1.0
  C  C109  1  0.83601000  0.57095000  0.39813000  1.0
  C  C110  1  0.63342000  0.07098000  0.89803000  1.0
  C  C111  1  0.16400000  0.42905000  0.60186000  1.0
  C  C112  1  0.22939000  0.83933000  0.02784000  1.0
  C  C113  1  0.86278000  0.66068000  0.47230000  1.0
  C  C114  1  0.77062000  0.16068000  0.97217000  1.0
  C  C115  1  0.13722000  0.33932000  0.52769000  1.0
  C  C116  1  0.44235000  0.04627000  0.08845000  1.0
  C  C117  1  0.80814000  0.45373000  0.41176000  1.0
  C  C118  1  0.55766000  0.95373000  0.91156000  1.0
  C  C119  1  0.19187000  0.54627000  0.58823000  1.0
  C  C120  1  0.38117000  0.07523000  0.00140000  1.0
  C  C121  1  0.80520000  0.42493000  0.49889000  1.0
  C  C122  1  0.61884000  0.92477000  0.99861000  1.0
  C  C123  1  0.19481000  0.57507000  0.50111000  1.0
  N  N124  1  0.86577000  0.00692000  0.64825000  1.0
  N  N125  1  0.71044000  0.49295000  0.85175000  1.0
  N  N126  1  0.13422000  0.99307000  0.35175000  1.0
  N  N127  1  0.28956000  0.50705000  0.14825000  1.0
  N  N128  1  0.24042000  0.01405000  0.63588000  1.0
  N  N129  1  0.09086000  0.48649000  0.86441000  1.0
  N  N130  1  0.75957000  0.98594000  0.36412000  1.0
  N  N131  1  0.90914000  0.51351000  0.13560000  1.0
  O  O132  1  0.02171000  0.63632000  0.97260000  1.0
  O  O133  1  0.91313000  0.86362000  0.52753000  1.0
  O  O134  1  0.97829000  0.36369000  0.02739000  1.0
  O  O135  1  0.08686000  0.13637000  0.47246000  1.0
  O  O136  1  0.20053000  0.69285000  0.12500000  1.0
  O  O137  1  0.88288000  0.80709000  0.37509000  1.0
  O  O138  1  0.79947000  0.30716000  0.87500000  1.0
  O  O139  1  0.11712000  0.19291000  0.62491000  1.0
  O  O140  1  0.08314000  0.92383000  0.75628000  1.0
  O  O141  1  0.90308000  0.57651000  0.74391000  1.0
  O  O142  1  0.91686000  0.07618000  0.24373000  1.0
  O  O143  1  0.09691000  0.42348000  0.25609000  1.0
  O  O144  1  0.22730000  0.12747000  0.82790000  1.0
  O  O145  1  0.77266000  0.37286000  0.67238000  1.0
  O  O146  1  0.77271000  0.87254000  0.17211000  1.0
  O  O147  1  0.22733000  0.62713000  0.32761000  1.0
