# generated using pymatgen
data_ZnH6C7(N3O)2
_symmetry_space_group_name_H-M   'P 1'
_cell_length_a   8.94535000
_cell_length_b   11.76220000
_cell_length_c   11.76230000
_cell_angle_alpha   92.22180000
_cell_angle_beta   105.15300000
_cell_angle_gamma   105.15200000
_symmetry_Int_Tables_number   1
_chemical_formula_structural   ZnH6C7(N3O)2
_chemical_formula_sum   'Zn4 H24 C28 N24 O8'
_cell_volume   1145.39360820
_cell_formula_units_Z   4
loop_
 _symmetry_equiv_pos_site_id
 _symmetry_equiv_pos_as_xyz
  1  'x, y, z'
loop_
 _atom_site_type_symbol
 _atom_site_label
 _atom_site_symmetry_multiplicity
 _atom_site_fract_x
 _atom_site_fract_y
 _atom_site_fract_z
 _atom_site_occupancy
  Zn  Zn0  1  0.83810000  0.64095000  0.87882000  1.0
  Zn  Zn1  1  0.33810000  0.87883000  0.64094000  1.0
  Zn  Zn2  1  0.66190000  0.12118000  0.35906000  1.0
  Zn  Zn3  1  0.16190000  0.35906000  0.12118000  1.0
  H  H4  1  0.64586000  0.47680000  0.66497000  1.0
  H  H5  1  0.49328000  0.26143000  0.61438000  1.0
  H  H6  1  0.63260000  0.22487000  0.98889000  1.0
  H  H7  1  0.78738000  0.44193000  0.02403000  1.0
  H  H8  1  0.22603000  0.96157000  0.86031000  1.0
  H  H9  1  0.06817000  0.89656000  0.91934000  1.0
  H  H10  1  0.14586000  0.66497000  0.47680000  1.0
  H  H11  1  0.99327000  0.61438000  0.26143000  1.0
  H  H12  1  0.13255000  0.98889000  0.22487000  1.0
  H  H13  1  0.28734000  0.02404000  0.44193000  1.0
  H  H14  1  0.72603000  0.86031000  0.96156000  1.0
  H  H15  1  0.56817000  0.91935000  0.89654000  1.0
  H  H16  1  0.85413000  0.33503000  0.52320000  1.0
  H  H17  1  0.00672000  0.38561000  0.73858000  1.0
  H  H18  1  0.86743000  0.01110000  0.77514000  1.0
  H  H19  1  0.71264000  0.97596000  0.55807000  1.0
  H  H20  1  0.27397000  0.13969000  0.03843000  1.0
  H  H21  1  0.43184000  0.08066000  0.10345000  1.0
  H  H22  1  0.35415000  0.52320000  0.33502000  1.0
  H  H23  1  0.50674000  0.73857000  0.38561000  1.0
  H  H24  1  0.36740000  0.77515000  0.01111000  1.0
  H  H25  1  0.21261000  0.55808000  0.97595000  1.0
  H  H26  1  0.77396000  0.03843000  0.13969000  1.0
  H  H27  1  0.93183000  0.10345000  0.08066000  1.0
  C  C28  1  0.64050000  0.41707000  0.73346000  1.0
  C  C29  1  0.55431000  0.29794000  0.70655000  1.0
  C  C30  1  0.55077000  0.22728000  0.79933000  1.0
  C  C31  1  0.63464000  0.27839000  0.91557000  1.0
  C  C32  1  0.71951000  0.39779000  0.93538000  1.0
  C  C33  1  0.46236000  0.09718000  0.77607000  1.0
  C  C34  1  0.11680000  0.78962000  0.80136000  1.0
  C  C35  1  0.14049000  0.73346000  0.41708000  1.0
  C  C36  1  0.05430000  0.70655000  0.29795000  1.0
  C  C37  1  0.05075000  0.79933000  0.22728000  1.0
  C  C38  1  0.13461000  0.91557000  0.27838000  1.0
  C  C39  1  0.21947000  0.93539000  0.39779000  1.0
  C  C40  1  0.96236000  0.77605000  0.09718000  1.0
  C  C41  1  0.61680000  0.80138000  0.78961000  1.0
  C  C42  1  0.85950000  0.26653000  0.58293000  1.0
  C  C43  1  0.94568000  0.29344000  0.70207000  1.0
  C  C44  1  0.94925000  0.20066000  0.77274000  1.0
  C  C45  1  0.86538000  0.08442000  0.72163000  1.0
  C  C46  1  0.78052000  0.06461000  0.60222000  1.0
  C  C47  1  0.03764000  0.22393000  0.90283000  1.0
  C  C48  1  0.38321000  0.19863000  0.21038000  1.0
  C  C49  1  0.35951000  0.58293000  0.26653000  1.0
  C  C50  1  0.44569000  0.70206000  0.29344000  1.0
  C  C51  1  0.44924000  0.77273000  0.20067000  1.0
  C  C52  1  0.36536000  0.72163000  0.08443000  1.0
  C  C53  1  0.28051000  0.60221000  0.06461000  1.0
  C  C54  1  0.53764000  0.90283000  0.22394000  1.0
  C  C55  1  0.88320000  0.21038000  0.19863000  1.0
  N  N56  1  0.72165000  0.46582000  0.84574000  1.0
  N  N57  1  0.03061000  0.68191000  0.81804000  1.0
  N  N58  1  0.05861000  0.59997000  0.74636000  1.0
  N  N59  1  0.15755000  0.65412000  0.69033000  1.0
  N  N60  1  0.19617000  0.77378000  0.72179000  1.0
  N  N61  1  0.12180000  0.89600000  0.85246000  1.0
  N  N62  1  0.22164000  0.84574000  0.46582000  1.0
  N  N63  1  0.53062000  0.81805000  0.68190000  1.0
  N  N64  1  0.55861000  0.74637000  0.59996000  1.0
  N  N65  1  0.65755000  0.69033000  0.65411000  1.0
  N  N66  1  0.69616000  0.72179000  0.77377000  1.0
  N  N67  1  0.62180000  0.85246000  0.89599000  1.0
  N  N68  1  0.77836000  0.15426000  0.53419000  1.0
  N  N69  1  0.46938000  0.18195000  0.31809000  1.0
  N  N70  1  0.44139000  0.25363000  0.40003000  1.0
  N  N71  1  0.34246000  0.30967000  0.34589000  1.0
  N  N72  1  0.30384000  0.27821000  0.22623000  1.0
  N  N73  1  0.37820000  0.14754000  0.10401000  1.0
  N  N74  1  0.27835000  0.53418000  0.15425000  1.0
  N  N75  1  0.96939000  0.31809000  0.18195000  1.0
  N  N76  1  0.94139000  0.40003000  0.25363000  1.0
  N  N77  1  0.84245000  0.34588000  0.30966000  1.0
  N  N78  1  0.80384000  0.22622000  0.27821000  1.0
  N  N79  1  0.87819000  0.10400000  0.14754000  1.0
  O  O80  1  0.40434000  0.05382000  0.66607000  1.0
  O  O81  1  0.45195000  0.03852000  0.86236000  1.0
  O  O82  1  0.90434000  0.66606000  0.05381000  1.0
  O  O83  1  0.95195000  0.86236000  0.03852000  1.0
  O  O84  1  0.09565000  0.33394000  0.94619000  1.0
  O  O85  1  0.04807000  0.13763000  0.96149000  1.0
  O  O86  1  0.59565000  0.94618000  0.33394000  1.0
  O  O87  1  0.54806000  0.96148000  0.13763000  1.0
