# generated using pymatgen
data_CuH8C12N10O
_symmetry_space_group_name_H-M   'P 1'
_cell_length_a   6.17069000
_cell_length_b   9.96835000
_cell_length_c   27.11440000
_cell_angle_alpha   90.00130000
_cell_angle_beta   89.94340000
_cell_angle_gamma   89.99860000
_symmetry_Int_Tables_number   1
_chemical_formula_structural   CuH8C12N10O
_chemical_formula_sum   'Cu4 H32 C48 N40 O4'
_cell_volume   1667.84924891
_cell_formula_units_Z   4
loop_
 _symmetry_equiv_pos_site_id
 _symmetry_equiv_pos_as_xyz
  1  'x, y, z'
loop_
 _atom_site_type_symbol
 _atom_site_label
 _atom_site_symmetry_multiplicity
 _atom_site_fract_x
 _atom_site_fract_y
 _atom_site_fract_z
 _atom_site_occupancy
  Cu  Cu0  1  0.00040000  0.50001000  0.00118000  1.0
  Cu  Cu1  1  0.99954000  0.49996000  0.50118000  1.0
  Cu  Cu2  1  0.50037000  0.00000000  0.00118000  1.0
  Cu  Cu3  1  0.49953000  0.00003000  0.50117000  1.0
  H  H4  1  0.84734000  0.47479000  0.90046000  1.0
  H  H5  1  0.15262000  0.52507000  0.40042000  1.0
  H  H6  1  0.34730000  0.02520000  0.90046000  1.0
  H  H7  1  0.65259000  0.97491000  0.40042000  1.0
  H  H8  1  0.97816000  0.52143000  0.81473000  1.0
  H  H9  1  0.02179000  0.47869000  0.31474000  1.0
  H  H10  1  0.47811000  0.97856000  0.81472000  1.0
  H  H11  1  0.52177000  0.02130000  0.31474000  1.0
  H  H12  1  0.59772000  0.62945000  0.87883000  1.0
  H  H13  1  0.40238000  0.37011000  0.37906000  1.0
  H  H14  1  0.09775000  0.87056000  0.87883000  1.0
  H  H15  1  0.90242000  0.12988000  0.37906000  1.0
  H  H16  1  0.44374000  0.57386000  0.96076000  1.0
  H  H17  1  0.55624000  0.42555000  0.46096000  1.0
  H  H18  1  0.94373000  0.92615000  0.96076000  1.0
  H  H19  1  0.05625000  0.07444000  0.46095000  1.0
  H  H20  1  0.97759000  0.52144000  0.68760000  1.0
  H  H21  1  0.02250000  0.47848000  0.18761000  1.0
  H  H22  1  0.47759000  0.97856000  0.68760000  1.0
  H  H23  1  0.52254000  0.02153000  0.18761000  1.0
  H  H24  1  0.84673000  0.47481000  0.60195000  1.0
  H  H25  1  0.15323000  0.52533000  0.10189000  1.0
  H  H26  1  0.34673000  0.02519000  0.60195000  1.0
  H  H27  1  0.65327000  0.97469000  0.10189000  1.0
  H  H28  1  0.44281000  0.57426000  0.54131000  1.0
  H  H29  1  0.55703000  0.42636000  0.04152000  1.0
  H  H30  1  0.94280000  0.92575000  0.54131000  1.0
  H  H31  1  0.05699000  0.07363000  0.04153000  1.0
  H  H32  1  0.59674000  0.62983000  0.62318000  1.0
  H  H33  1  0.40309000  0.37066000  0.12344000  1.0
  H  H34  1  0.09674000  0.87019000  0.62317000  1.0
  H  H35  1  0.90307000  0.12934000  0.12345000  1.0
  C  C36  1  0.01127000  0.51025000  0.89342000  1.0
  C  C37  1  0.98876000  0.48950000  0.39344000  1.0
  C  C38  1  0.51124000  0.98975000  0.89342000  1.0
  C  C39  1  0.48875000  0.01050000  0.39344000  1.0
  C  C40  1  0.08643000  0.53443000  0.84605000  1.0
  C  C41  1  0.91349000  0.46553000  0.34609000  1.0
  C  C42  1  0.58640000  0.96558000  0.84604000  1.0
  C  C43  1  0.41347000  0.03446000  0.34609000  1.0
  C  C44  1  0.30185000  0.57686000  0.83973000  1.0
  C  C45  1  0.69811000  0.42302000  0.33986000  1.0
  C  C46  1  0.80184000  0.92314000  0.83972000  1.0
  C  C47  1  0.19812000  0.07699000  0.33986000  1.0
  C  C48  1  0.43118000  0.59435000  0.88166000  1.0
  C  C49  1  0.56890000  0.40524000  0.38185000  1.0
  C  C50  1  0.93119000  0.90565000  0.88166000  1.0
  C  C51  1  0.06892000  0.09475000  0.38185000  1.0
  C  C52  1  0.34401000  0.56541000  0.92776000  1.0
  C  C53  1  0.65605000  0.43412000  0.42792000  1.0
  C  C54  1  0.84402000  0.93462000  0.92776000  1.0
  C  C55  1  0.15606000  0.06587000  0.42792000  1.0
  C  C56  1  0.38921000  0.59742000  0.79062000  1.0
  C  C57  1  0.61079000  0.40253000  0.29078000  1.0
  C  C58  1  0.88922000  0.90259000  0.79062000  1.0
  C  C59  1  0.11082000  0.09747000  0.29078000  1.0
  C  C60  1  0.38875000  0.59761000  0.71151000  1.0
  C  C61  1  0.61130000  0.40245000  0.21168000  1.0
  C  C62  1  0.88874000  0.90240000  0.71151000  1.0
  C  C63  1  0.11131000  0.09754000  0.21168000  1.0
  C  C64  1  0.30114000  0.57711000  0.66245000  1.0
  C  C65  1  0.69884000  0.42302000  0.16259000  1.0
  C  C66  1  0.80114000  0.92289000  0.66245000  1.0
  C  C67  1  0.19886000  0.07696000  0.16259000  1.0
  C  C68  1  0.08580000  0.53453000  0.65624000  1.0
  C  C69  1  0.91421000  0.46555000  0.15629000  1.0
  C  C70  1  0.58581000  0.96547000  0.65624000  1.0
  C  C71  1  0.41425000  0.03447000  0.15629000  1.0
  C  C72  1  0.01062000  0.51029000  0.60889000  1.0
  C  C73  1  0.98933000  0.48989000  0.10892000  1.0
  C  C74  1  0.51062000  0.98970000  0.60889000  1.0
  C  C75  1  0.48934000  0.01010000  0.10891000  1.0
  C  C76  1  0.34312000  0.56576000  0.57436000  1.0
  C  C77  1  0.65679000  0.43472000  0.07452000  1.0
  C  C78  1  0.84311000  0.93425000  0.57435000  1.0
  C  C79  1  0.15676000  0.06528000  0.07453000  1.0
  C  C80  1  0.43029000  0.59466000  0.62043000  1.0
  C  C81  1  0.56963000  0.40568000  0.12062000  1.0
  C  C82  1  0.93027000  0.90535000  0.62043000  1.0
  C  C83  1  0.06962000  0.09432000  0.12063000  1.0
  N  N84  1  0.13749000  0.52502000  0.93351000  1.0
  N  N85  1  0.86254000  0.47458000  0.43359000  1.0
  N  N86  1  0.63747000  0.97497000  0.93351000  1.0
  N  N87  1  0.36255000  0.02542000  0.43359000  1.0
  N  N88  1  0.58501000  0.63258000  0.77658000  1.0
  N  N89  1  0.41502000  0.36735000  0.27682000  1.0
  N  N90  1  0.08502000  0.86743000  0.77658000  1.0
  N  N91  1  0.91504000  0.13264000  0.27683000  1.0
  N  N92  1  0.58471000  0.63271000  0.72536000  1.0
  N  N93  1  0.41531000  0.36735000  0.22560000  1.0
  N  N94  1  0.08471000  0.86730000  0.72536000  1.0
  N  N95  1  0.91532000  0.13263000  0.22561000  1.0
  N  N96  1  0.13666000  0.52526000  0.56872000  1.0
  N  N97  1  0.86330000  0.47511000  0.06880000  1.0
  N  N98  1  0.63663000  0.97473000  0.56872000  1.0
  N  N99  1  0.36328000  0.02490000  0.06880000  1.0
  N  N100  1  0.78624000  0.64634000  0.98465000  1.0
  N  N101  1  0.21224000  0.35349000  0.48490000  1.0
  N  N102  1  0.28623000  0.85367000  0.98465000  1.0
  N  N103  1  0.71223000  0.14650000  0.48491000  1.0
  N  N104  1  0.76799000  0.73896000  0.01251000  1.0
  N  N105  1  0.22930000  0.26131000  0.51301000  1.0
  N  N106  1  0.26799000  0.76106000  0.01251000  1.0
  N  N107  1  0.72930000  0.23869000  0.51301000  1.0
  N  N108  1  0.74543000  0.83334000  0.03795000  1.0
  N  N109  1  0.25087000  0.16732000  0.53866000  1.0
  N  N110  1  0.24543000  0.66666667  0.03796000  1.0
  N  N111  1  0.75087000  0.33268000  0.53866000  1.0
  N  N112  1  0.21460000  0.35370000  0.01765000  1.0
  N  N113  1  0.78698000  0.64650000  0.51738000  1.0
  N  N114  1  0.71460000  0.14629000  0.01765000  1.0
  N  N115  1  0.28698000  0.85349000  0.51738000  1.0
  N  N116  1  0.23287000  0.26109000  0.98979000  1.0
  N  N117  1  0.77000000  0.73866000  0.48926000  1.0
  N  N118  1  0.73288000  0.23890000  0.98979000  1.0
  N  N119  1  0.26999000  0.76134000  0.48926000  1.0
  N  N120  1  0.25557000  0.16669000  0.96436000  1.0
  N  N121  1  0.74837000  0.83265000  0.46362000  1.0
  N  N122  1  0.75559000  0.33333333  0.96436000  1.0
  N  N123  1  0.24837000  0.66734000  0.46362000  1.0
  O  O124  1  0.25721000  0.57278000  0.75113000  1.0
  O  O125  1  0.74284000  0.42726000  0.25124000  1.0
  O  O126  1  0.75720000  0.92723000  0.75113000  1.0
  O  O127  1  0.24284000  0.07272000  0.25125000  1.0
