# generated using pymatgen
data_CuH11C20SNO6
_symmetry_space_group_name_H-M   'P 1'
_cell_length_a   12.88820000
_cell_length_b   13.47770000
_cell_length_c   24.37330000
_cell_angle_alpha   90.00010000
_cell_angle_beta   90.00000000
_cell_angle_gamma   89.99990000
_symmetry_Int_Tables_number   1
_chemical_formula_structural   CuH11C20SNO6
_chemical_formula_sum   'Cu8 H88 C160 S8 N8 O48'
_cell_volume   4233.72247468
_cell_formula_units_Z   8
loop_
 _symmetry_equiv_pos_site_id
 _symmetry_equiv_pos_as_xyz
  1  'x, y, z'
loop_
 _atom_site_type_symbol
 _atom_site_label
 _atom_site_symmetry_multiplicity
 _atom_site_fract_x
 _atom_site_fract_y
 _atom_site_fract_z
 _atom_site_occupancy
  Cu  Cu0  1  0.48592000  0.04893000  0.45605000  1.0
  Cu  Cu1  1  0.01408000  0.54893000  0.54395000  1.0
  Cu  Cu2  1  0.51407000  0.45108000  0.95605000  1.0
  Cu  Cu3  1  0.98592000  0.95107000  0.04395000  1.0
  Cu  Cu4  1  0.51408000  0.95108000  0.54395000  1.0
  Cu  Cu5  1  0.98592000  0.45107000  0.45605000  1.0
  Cu  Cu6  1  0.48592000  0.54893000  0.04395000  1.0
  Cu  Cu7  1  0.01407000  0.04892000  0.95605000  1.0
  H  H8  1  0.70825000  0.29658000  0.49687000  1.0
  H  H9  1  0.79175000  0.79658000  0.50313000  1.0
  H  H10  1  0.29174000  0.20342000  0.99687000  1.0
  H  H11  1  0.20825000  0.70342000  0.00313000  1.0
  H  H12  1  0.29175000  0.70342000  0.50313000  1.0
  H  H13  1  0.20826000  0.20342000  0.49687000  1.0
  H  H14  1  0.70825000  0.79658000  0.00313000  1.0
  H  H15  1  0.79174000  0.29658000  0.99687000  1.0
  H  H16  1  0.76895000  0.45343000  0.64743000  1.0
  H  H17  1  0.73105000  0.95343000  0.35257000  1.0
  H  H18  1  0.23105000  0.04657000  0.14743000  1.0
  H  H19  1  0.26894000  0.54656000  0.85257000  1.0
  H  H20  1  0.23106000  0.54656000  0.35257000  1.0
  H  H21  1  0.26894000  0.04656000  0.64743000  1.0
  H  H22  1  0.76894000  0.95344000  0.85257000  1.0
  H  H23  1  0.73105000  0.45343000  0.14744000  1.0
  H  H24  1  0.55082000  0.21174000  0.64577000  1.0
  H  H25  1  0.94918000  0.71174000  0.35423000  1.0
  H  H26  1  0.44918000  0.28826000  0.14577000  1.0
  H  H27  1  0.05082000  0.78826000  0.85423000  1.0
  H  H28  1  0.44918000  0.78826000  0.35423000  1.0
  H  H29  1  0.05082000  0.28826000  0.64577000  1.0
  H  H30  1  0.55082000  0.71174000  0.85423000  1.0
  H  H31  1  0.94918000  0.21174000  0.14577000  1.0
  H  H32  1  0.73669000  0.26292000  0.88458000  1.0
  H  H33  1  0.76331000  0.76292000  0.11542000  1.0
  H  H34  1  0.26331000  0.23708000  0.38458000  1.0
  H  H35  1  0.23669000  0.73708000  0.61542000  1.0
  H  H36  1  0.26331000  0.73708000  0.11542000  1.0
  H  H37  1  0.23669000  0.23708000  0.88458000  1.0
  H  H38  1  0.73669000  0.76292000  0.61542000  1.0
  H  H39  1  0.76331000  0.26292000  0.38458000  1.0
  H  H40  1  0.83411000  0.11500000  0.85087000  1.0
  H  H41  1  0.66589000  0.61500000  0.14913000  1.0
  H  H42  1  0.16589000  0.38500000  0.35087000  1.0
  H  H43  1  0.33411000  0.88500000  0.64913000  1.0
  H  H44  1  0.16589000  0.88500000  0.14913000  1.0
  H  H45  1  0.33411000  0.38500000  0.85087000  1.0
  H  H46  1  0.83411000  0.61500000  0.64913000  1.0
  H  H47  1  0.66589000  0.11500000  0.35087000  1.0
  H  H48  1  0.82933000  0.07553000  0.74980000  1.0
  H  H49  1  0.67067000  0.57553000  0.25020000  1.0
  H  H50  1  0.17066000  0.42447000  0.24979000  1.0
  H  H51  1  0.32933000  0.92447000  0.75021000  1.0
  H  H52  1  0.17067000  0.92447000  0.25021000  1.0
  H  H53  1  0.32933000  0.42447000  0.74979000  1.0
  H  H54  1  0.82934000  0.57553000  0.75020000  1.0
  H  H55  1  0.67067000  0.07553000  0.24980000  1.0
  H  H56  1  0.73811000  0.18245000  0.68572000  1.0
  H  H57  1  0.76189000  0.68245000  0.31428000  1.0
  H  H58  1  0.26189000  0.31755000  0.18572000  1.0
  H  H59  1  0.23811000  0.81755000  0.81428000  1.0
  H  H60  1  0.26189000  0.81755000  0.31428000  1.0
  H  H61  1  0.23811000  0.31755000  0.68572000  1.0
  H  H62  1  0.73811000  0.68245000  0.81428000  1.0
  H  H63  1  0.76189000  0.18245000  0.18572000  1.0
  H  H64  1  0.52361000  0.46005000  0.64088000  1.0
  H  H65  1  0.97639000  0.96004000  0.35912000  1.0
  H  H66  1  0.47639000  0.03995000  0.14088000  1.0
  H  H67  1  0.02361000  0.53995000  0.85912000  1.0
  H  H68  1  0.47639000  0.53995000  0.35912000  1.0
  H  H69  1  0.02361000  0.03995000  0.64088000  1.0
  H  H70  1  0.52361000  0.96004000  0.85912000  1.0
  H  H71  1  0.97639000  0.46005000  0.14088000  1.0
  H  H72  1  0.41293000  0.60162000  0.66421000  1.0
  H  H73  1  0.08708000  0.10162000  0.33579000  1.0
  H  H74  1  0.58707000  0.89838000  0.16421000  1.0
  H  H75  1  0.91292000  0.39838000  0.83579000  1.0
  H  H76  1  0.58708000  0.39838000  0.33579000  1.0
  H  H77  1  0.91293000  0.89838000  0.66421000  1.0
  H  H78  1  0.41293000  0.10162000  0.83579000  1.0
  H  H79  1  0.08707000  0.60162000  0.16421000  1.0
  H  H80  1  0.39435000  0.65766000  0.76151000  1.0
  H  H81  1  0.10565000  0.15766000  0.23849000  1.0
  H  H82  1  0.60565000  0.84234000  0.26151000  1.0
  H  H83  1  0.89435000  0.34234000  0.73849000  1.0
  H  H84  1  0.60565000  0.34234000  0.23849000  1.0
  H  H85  1  0.89434000  0.84234000  0.76151000  1.0
  H  H86  1  0.39435000  0.15766000  0.73849000  1.0
  H  H87  1  0.10566000  0.65766000  0.26151000  1.0
  H  H88  1  0.48858000  0.56379000  0.83546000  1.0
  H  H89  1  0.01142000  0.06379000  0.16454000  1.0
  H  H90  1  0.51142000  0.93621000  0.33546000  1.0
  H  H91  1  0.98858000  0.43621000  0.66454000  1.0
  H  H92  1  0.51142000  0.43621000  0.16454000  1.0
  H  H93  1  0.98858000  0.93621000  0.83546000  1.0
  H  H94  1  0.48858000  0.06379000  0.66454000  1.0
  H  H95  1  0.01142000  0.56379000  0.33546000  1.0
  C  C96  1  0.57535000  0.15931000  0.53967000  1.0
  C  C97  1  0.92465000  0.65931000  0.46033000  1.0
  C  C98  1  0.42465000  0.34069000  0.03968000  1.0
  C  C99  1  0.07535000  0.84069000  0.96033000  1.0
  C  C100  1  0.42465000  0.84069000  0.46033000  1.0
  C  C101  1  0.07535000  0.34069000  0.53967000  1.0
  C  C102  1  0.57535000  0.65931000  0.96032000  1.0
  C  C103  1  0.92465000  0.15931000  0.03967000  1.0
  C  C104  1  0.62331000  0.24619000  0.56806000  1.0
  C  C105  1  0.87669000  0.74619000  0.43194000  1.0
  C  C106  1  0.37669000  0.25381000  0.06806000  1.0
  C  C107  1  0.12331000  0.75381000  0.93194000  1.0
  C  C108  1  0.37669000  0.75381000  0.43194000  1.0
  C  C109  1  0.12331000  0.25381000  0.56806000  1.0
  C  C110  1  0.62331000  0.74619000  0.93194000  1.0
  C  C111  1  0.87669000  0.24619000  0.06806000  1.0
  C  C112  1  0.69259000  0.30789000  0.54029000  1.0
  C  C113  1  0.80742000  0.80789000  0.45971000  1.0
  C  C114  1  0.30741000  0.19211000  0.04029000  1.0
  C  C115  1  0.19258000  0.69211000  0.95971000  1.0
  C  C116  1  0.30741000  0.69211000  0.45971000  1.0
  C  C117  1  0.19259000  0.19211000  0.54029000  1.0
  C  C118  1  0.69258000  0.80789000  0.95971000  1.0
  C  C119  1  0.80741000  0.30789000  0.04029000  1.0
  C  C120  1  0.74599000  0.38178000  0.56908000  1.0
  C  C121  1  0.75401000  0.88179000  0.43092000  1.0
  C  C122  1  0.25400000  0.11822000  0.06908000  1.0
  C  C123  1  0.24599000  0.61822000  0.93092000  1.0
  C  C124  1  0.25401000  0.61822000  0.43092000  1.0
  C  C125  1  0.24599000  0.11822000  0.56908000  1.0
  C  C126  1  0.74599000  0.88178000  0.93092000  1.0
  C  C127  1  0.75400000  0.38178000  0.06908000  1.0
  C  C128  1  0.72715000  0.39605000  0.62507000  1.0
  C  C129  1  0.77285000  0.89606000  0.37493000  1.0
  C  C130  1  0.27284000  0.10394000  0.12507000  1.0
  C  C131  1  0.22715000  0.60394000  0.87493000  1.0
  C  C132  1  0.27285000  0.60394000  0.37493000  1.0
  C  C133  1  0.22715000  0.10394000  0.62507000  1.0
  C  C134  1  0.72715000  0.89606000  0.87493000  1.0
  C  C135  1  0.77285000  0.39605000  0.12507000  1.0
  C  C136  1  0.65537000  0.33594000  0.65201000  1.0
  C  C137  1  0.84463000  0.83594000  0.34799000  1.0
  C  C138  1  0.34463000  0.16406000  0.15201000  1.0
  C  C139  1  0.15537000  0.66406000  0.84799000  1.0
  C  C140  1  0.34463000  0.66406000  0.34799000  1.0
  C  C141  1  0.15537000  0.16406000  0.65201000  1.0
  C  C142  1  0.65537000  0.83594000  0.84799000  1.0
  C  C143  1  0.84463000  0.33594000  0.15201000  1.0
  C  C144  1  0.60401000  0.26056000  0.62401000  1.0
  C  C145  1  0.89599000  0.76056000  0.37599000  1.0
  C  C146  1  0.39599000  0.23944000  0.12402000  1.0
  C  C147  1  0.10401000  0.73944000  0.87598000  1.0
  C  C148  1  0.39599000  0.73944000  0.37599000  1.0
  C  C149  1  0.10401000  0.23944000  0.62402000  1.0
  C  C150  1  0.60401000  0.76056000  0.87598000  1.0
  C  C151  1  0.89599000  0.26056000  0.12402000  1.0
  C  C152  1  0.83039000  0.43922000  0.54138000  1.0
  C  C153  1  0.66961000  0.93923000  0.45862000  1.0
  C  C154  1  0.16960000  0.06077000  0.04138000  1.0
  C  C155  1  0.33039000  0.56078000  0.95863000  1.0
  C  C156  1  0.16961000  0.56077000  0.45862000  1.0
  C  C157  1  0.33039000  0.06078000  0.54138000  1.0
  C  C158  1  0.83039000  0.93922000  0.95862000  1.0
  C  C159  1  0.66960000  0.43923000  0.04138000  1.0
  C  C160  1  0.68556000  0.28815000  0.74711000  1.0
  C  C161  1  0.81444000  0.78815000  0.25289000  1.0
  C  C162  1  0.31444000  0.21185000  0.24711000  1.0
  C  C163  1  0.18556000  0.71184000  0.75289000  1.0
  C  C164  1  0.31444000  0.71185000  0.25289000  1.0
  C  C165  1  0.18556000  0.21185000  0.74711000  1.0
  C  C166  1  0.68556000  0.78815000  0.75289000  1.0
  C  C167  1  0.81444000  0.28815000  0.24711000  1.0
  C  C168  1  0.68614000  0.30666000  0.80407000  1.0
  C  C169  1  0.81386000  0.80666000  0.19593000  1.0
  C  C170  1  0.31386000  0.19334000  0.30407000  1.0
  C  C171  1  0.18614000  0.69334000  0.69593000  1.0
  C  C172  1  0.31386000  0.69334000  0.19593000  1.0
  C  C173  1  0.18614000  0.19334000  0.80407000  1.0
  C  C174  1  0.68614000  0.80666000  0.69593000  1.0
  C  C175  1  0.81386000  0.30666000  0.30407000  1.0
  C  C176  1  0.56129000  0.46378000  0.77885000  1.0
  C  C177  1  0.93871000  0.96378000  0.22115000  1.0
  C  C178  1  0.43872000  0.03622000  0.27885000  1.0
  C  C179  1  0.06128000  0.53622000  0.72115000  1.0
  C  C180  1  0.43872000  0.53623000  0.22116000  1.0
  C  C181  1  0.06128000  0.03622000  0.77885000  1.0
  C  C182  1  0.56129000  0.96378000  0.72115000  1.0
  C  C183  1  0.93872000  0.46377000  0.27885000  1.0
  C  C184  1  0.57381000  0.43166000  0.72420000  1.0
  C  C185  1  0.92619000  0.93166000  0.27580000  1.0
  C  C186  1  0.42619000  0.06834000  0.22420000  1.0
  C  C187  1  0.07381000  0.56834000  0.77580000  1.0
  C  C188  1  0.42619000  0.56834000  0.27580000  1.0
  C  C189  1  0.07381000  0.06834000  0.72420000  1.0
  C  C190  1  0.57381000  0.93166000  0.77580000  1.0
  C  C191  1  0.92620000  0.43166000  0.22420000  1.0
  C  C192  1  0.73826000  0.24428000  0.84102000  1.0
  C  C193  1  0.76175000  0.74428000  0.15898000  1.0
  C  C194  1  0.26175000  0.25572000  0.34102000  1.0
  C  C195  1  0.23825000  0.75572000  0.65898000  1.0
  C  C196  1  0.26175000  0.75572000  0.15898000  1.0
  C  C197  1  0.23825000  0.25572000  0.84102000  1.0
  C  C198  1  0.73826000  0.74428000  0.65898000  1.0
  C  C199  1  0.76175000  0.24428000  0.34102000  1.0
  C  C200  1  0.79162000  0.16174000  0.82213000  1.0
  C  C201  1  0.70838000  0.66174000  0.17787000  1.0
  C  C202  1  0.20838000  0.33826000  0.32213000  1.0
  C  C203  1  0.29162000  0.83826000  0.67787000  1.0
  C  C204  1  0.20838000  0.83826000  0.17787000  1.0
  C  C205  1  0.29162000  0.33826000  0.82213000  1.0
  C  C206  1  0.79162000  0.66174000  0.67786000  1.0
  C  C207  1  0.70838000  0.16174000  0.32213000  1.0
  C  C208  1  0.78997000  0.14099000  0.76579000  1.0
  C  C209  1  0.71003000  0.64099000  0.23421000  1.0
  C  C210  1  0.21003000  0.35901000  0.26578000  1.0
  C  C211  1  0.28997000  0.85901000  0.73421000  1.0
  C  C212  1  0.21003000  0.85901000  0.23421000  1.0
  C  C213  1  0.28997000  0.35901000  0.76579000  1.0
  C  C214  1  0.78997000  0.64099000  0.73421000  1.0
  C  C215  1  0.71003000  0.14099000  0.26579000  1.0
  C  C216  1  0.73824000  0.20220000  0.72898000  1.0
  C  C217  1  0.76176000  0.70220000  0.27102000  1.0
  C  C218  1  0.26175000  0.29780000  0.22898000  1.0
  C  C219  1  0.23824000  0.79780000  0.77102000  1.0
  C  C220  1  0.26176000  0.79780000  0.27102000  1.0
  C  C221  1  0.23825000  0.29780000  0.72898000  1.0
  C  C222  1  0.73825000  0.70220000  0.77102000  1.0
  C  C223  1  0.76176000  0.20220000  0.22898000  1.0
  C  C224  1  0.51783000  0.48375000  0.68342000  1.0
  C  C225  1  0.98217000  0.98375000  0.31658000  1.0
  C  C226  1  0.48217000  0.01625000  0.18342000  1.0
  C  C227  1  0.01783000  0.51624000  0.81658000  1.0
  C  C228  1  0.48217000  0.51625000  0.31658000  1.0
  C  C229  1  0.01783000  0.01625000  0.68342000  1.0
  C  C230  1  0.51783000  0.98375000  0.81658000  1.0
  C  C231  1  0.98217000  0.48375000  0.18342000  1.0
  C  C232  1  0.45533000  0.56396000  0.69677000  1.0
  C  C233  1  0.04467000  0.06396000  0.30323000  1.0
  C  C234  1  0.54467000  0.93604000  0.19677000  1.0
  C  C235  1  0.95533000  0.43604000  0.80323000  1.0
  C  C236  1  0.54467000  0.43604000  0.30323000  1.0
  C  C237  1  0.95533000  0.93604000  0.69677000  1.0
  C  C238  1  0.45533000  0.06396000  0.80323000  1.0
  C  C239  1  0.04467000  0.56396000  0.19677000  1.0
  C  C240  1  0.44396000  0.59485000  0.75139000  1.0
  C  C241  1  0.05604000  0.09485000  0.24861000  1.0
  C  C242  1  0.55604000  0.90515000  0.25139000  1.0
  C  C243  1  0.94396000  0.40514000  0.74861000  1.0
  C  C244  1  0.55604000  0.40515000  0.24861000  1.0
  C  C245  1  0.94396000  0.90514000  0.75139000  1.0
  C  C246  1  0.44397000  0.09485000  0.74861000  1.0
  C  C247  1  0.05604000  0.59485000  0.25139000  1.0
  C  C248  1  0.49630000  0.54366000  0.79230000  1.0
  C  C249  1  0.00370000  0.04366000  0.20770000  1.0
  C  C250  1  0.50370000  0.95634000  0.29230000  1.0
  C  C251  1  0.99630000  0.45634000  0.70770000  1.0
  C  C252  1  0.50370000  0.45634000  0.20770000  1.0
  C  C253  1  0.99630000  0.95635000  0.79230000  1.0
  C  C254  1  0.49630000  0.04366000  0.70770000  1.0
  C  C255  1  0.00370000  0.54366000  0.29230000  1.0
  S  S256  1  0.63165000  0.41281000  0.83321000  1.0
  S  S257  1  0.86836000  0.91280000  0.16679000  1.0
  S  S258  1  0.36835000  0.08719000  0.33321000  1.0
  S  S259  1  0.13164000  0.58719000  0.66679000  1.0
  S  S260  1  0.36835000  0.58719000  0.16680000  1.0
  S  S261  1  0.13164000  0.08720000  0.83321000  1.0
  S  S262  1  0.63164000  0.91280000  0.66679000  1.0
  S  S263  1  0.86836000  0.41281000  0.33321000  1.0
  N  N264  1  0.63667000  0.35149000  0.70959000  1.0
  N  N265  1  0.86334000  0.85149000  0.29041000  1.0
  N  N266  1  0.36334000  0.14851000  0.20959000  1.0
  N  N267  1  0.13667000  0.64851000  0.79041000  1.0
  N  N268  1  0.36334000  0.64851000  0.29041000  1.0
  N  N269  1  0.13666000  0.14852000  0.70959000  1.0
  N  N270  1  0.63667000  0.85149000  0.79041000  1.0
  N  N271  1  0.86334000  0.35148000  0.20959000  1.0
  O  O272  1  0.55200000  0.16793000  0.48917000  1.0
  O  O273  1  0.94800000  0.66793000  0.51083000  1.0
  O  O274  1  0.44800000  0.33208000  0.98917000  1.0
  O  O275  1  0.05200000  0.83208000  0.01083000  1.0
  O  O276  1  0.44800000  0.83207000  0.51083000  1.0
  O  O277  1  0.05200000  0.33207000  0.48917000  1.0
  O  O278  1  0.55200000  0.66792000  0.01083000  1.0
  O  O279  1  0.94800000  0.16793000  0.98917000  1.0
  O  O280  1  0.56359000  0.08261000  0.56970000  1.0
  O  O281  1  0.93641000  0.58261000  0.43030000  1.0
  O  O282  1  0.43641000  0.41739000  0.06971000  1.0
  O  O283  1  0.06359000  0.91739000  0.93029000  1.0
  O  O284  1  0.43641000  0.91739000  0.43029000  1.0
  O  O285  1  0.06360000  0.41739000  0.56970000  1.0
  O  O286  1  0.56359000  0.58261000  0.93029000  1.0
  O  O287  1  0.93640000  0.08261000  0.06970000  1.0
  O  O288  1  0.85307000  0.41431000  0.49242000  1.0
  O  O289  1  0.64692000  0.91431000  0.50759000  1.0
  O  O290  1  0.14692000  0.08569000  0.99241000  1.0
  O  O291  1  0.35307000  0.58569000  0.00759000  1.0
  O  O292  1  0.14692000  0.58569000  0.50759000  1.0
  O  O293  1  0.35307000  0.08569000  0.49242000  1.0
  O  O294  1  0.85307000  0.91431000  0.00758000  1.0
  O  O295  1  0.64692000  0.41431000  0.99242000  1.0
  O  O296  1  0.87586000  0.50550000  0.57019000  1.0
  O  O297  1  0.62414000  0.00550000  0.42981000  1.0
  O  O298  1  0.12413000  0.99450000  0.07019000  1.0
  O  O299  1  0.37586000  0.49450000  0.92981000  1.0
  O  O300  1  0.12414000  0.49450000  0.42981000  1.0
  O  O301  1  0.37586000  0.99450000  0.57019000  1.0
  O  O302  1  0.87586000  0.00550000  0.92981000  1.0
  O  O303  1  0.62414000  0.50550000  0.07019000  1.0
  O  O304  1  0.55876000  0.38098000  0.87592000  1.0
  O  O305  1  0.94124000  0.88098000  0.12408000  1.0
  O  O306  1  0.44124000  0.11902000  0.37592000  1.0
  O  O307  1  0.05876000  0.61902000  0.62408000  1.0
  O  O308  1  0.44124000  0.61902000  0.12408000  1.0
  O  O309  1  0.05876000  0.11902000  0.87592000  1.0
  O  O310  1  0.55877000  0.88098000  0.62408000  1.0
  O  O311  1  0.94124000  0.38098000  0.37592000  1.0
  O  O312  1  0.71347000  0.48061000  0.84965000  1.0
  O  O313  1  0.78653000  0.98061000  0.15035000  1.0
  O  O314  1  0.28653000  0.01939000  0.34965000  1.0
  O  O315  1  0.21347000  0.51939000  0.65035000  1.0
  O  O316  1  0.28653000  0.51939000  0.15035000  1.0
  O  O317  1  0.21347000  0.01939000  0.84965000  1.0
  O  O318  1  0.71347000  0.98062000  0.65036000  1.0
  O  O319  1  0.78653000  0.48061000  0.34964000  1.0
