# generated using pymatgen
data_Co6H74C82N4O33
_symmetry_space_group_name_H-M   'P 1'
_cell_length_a   16.43370000
_cell_length_b   16.60840000
_cell_length_c   23.07270000
_cell_angle_alpha   92.14850000
_cell_angle_beta   90.00000000
_cell_angle_gamma   119.65300000
_symmetry_Int_Tables_number   1
_chemical_formula_structural   Co6H74C82N4O33
_chemical_formula_sum   'Co12 H148 C164 N8 O66'
_cell_volume   5467.58666434
_cell_formula_units_Z   2
loop_
 _symmetry_equiv_pos_site_id
 _symmetry_equiv_pos_as_xyz
  1  'x, y, z'
loop_
 _atom_site_type_symbol
 _atom_site_label
 _atom_site_symmetry_multiplicity
 _atom_site_fract_x
 _atom_site_fract_y
 _atom_site_fract_z
 _atom_site_occupancy
  Co  Co0  1  0.48456000  0.40406000  0.96274000  1.0
  Co  Co1  1  0.08050000  0.59595000  0.53726000  1.0
  Co  Co2  1  0.51544000  0.59595000  0.03726000  1.0
  Co  Co3  1  0.91951000  0.40406000  0.46274000  1.0
  Co  Co4  1  0.59450000  0.40956000  0.84468000  1.0
  Co  Co5  1  0.18494000  0.59045000  0.65532000  1.0
  Co  Co6  1  0.40550000  0.59044000  0.15532000  1.0
  Co  Co7  1  0.81505000  0.40955000  0.34468000  1.0
  Co  Co8  1  0.53417000  0.58448000  0.87046000  1.0
  Co  Co9  1  0.94969000  0.41551000  0.62954000  1.0
  Co  Co10  1  0.46582000  0.41551000  0.12954000  1.0
  Co  Co11  1  0.05032000  0.58449000  0.37046000  1.0
  H  H12  1  0.62494000  0.53212000  0.92719000  1.0
  H  H13  1  0.09282000  0.46788000  0.57281000  1.0
  H  H14  1  0.37505000  0.46787000  0.07281000  1.0
  H  H15  1  0.90718000  0.53212000  0.42719000  1.0
  H  H16  1  0.70257000  0.69571000  0.81856000  1.0
  H  H17  1  0.00685000  0.30428000  0.68144000  1.0
  H  H18  1  0.29743000  0.30429000  0.18144000  1.0
  H  H19  1  0.99314000  0.69571000  0.31856000  1.0
  H  H20  1  0.71272000  0.61350000  0.84307000  1.0
  H  H21  1  0.09922000  0.38650000  0.65693000  1.0
  H  H22  1  0.28728000  0.38650000  0.15693000  1.0
  H  H23  1  0.90078000  0.61350000  0.34307000  1.0
  H  H24  1  0.78506000  0.33684000  0.93070000  1.0
  H  H25  1  0.44822000  0.66317000  0.56930000  1.0
  H  H26  1  0.21494000  0.66316000  0.06930000  1.0
  H  H27  1  0.55178000  0.33683000  0.43070000  1.0
  H  H28  1  0.84127000  0.23352000  0.97009000  1.0
  H  H29  1  0.60776000  0.76649000  0.52991000  1.0
  H  H30  1  0.15873000  0.76649000  0.02991000  1.0
  H  H31  1  0.39224000  0.23351000  0.47009000  1.0
  H  H32  1  0.58422000  0.08597000  0.06197000  1.0
  H  H33  1  0.49825000  0.91404000  0.43803000  1.0
  H  H34  1  0.41579000  0.91403000  0.93803000  1.0
  H  H35  1  0.50174000  0.08596000  0.56197000  1.0
  H  H36  1  0.53077000  0.19336000  0.02530000  1.0
  H  H37  1  0.33742000  0.80664000  0.47470000  1.0
  H  H38  1  0.46922000  0.80664000  0.97470000  1.0
  H  H39  1  0.66258000  0.19336000  0.52530000  1.0
  H  H40  1  0.60691000  0.88408000  0.88616000  1.0
  H  H41  1  0.72281000  0.11590000  0.61384000  1.0
  H  H42  1  0.39309000  0.11590000  0.11384000  1.0
  H  H43  1  0.27718000  0.88409000  0.38616000  1.0
  H  H44  1  0.66591000  0.04260000  0.93143000  1.0
  H  H45  1  0.62330000  0.95739000  0.56857000  1.0
  H  H46  1  0.33409000  0.95738000  0.06856000  1.0
  H  H47  1  0.37670000  0.04261000  0.43143000  1.0
  H  H48  1  0.74940000  0.95924000  0.08475000  1.0
  H  H49  1  0.79016000  0.04077000  0.41525000  1.0
  H  H50  1  0.25060000  0.04076000  0.91525000  1.0
  H  H51  1  0.20984000  0.95924000  0.58475000  1.0
  H  H52  1  0.68630000  0.79927000  0.03925000  1.0
  H  H53  1  0.88703000  0.20073000  0.46075000  1.0
  H  H54  1  0.31370000  0.20072000  0.96075000  1.0
  H  H55  1  0.11297000  0.79927000  0.53925000  1.0
  H  H56  1  0.20807000  0.21070000  0.89867000  1.0
  H  H57  1  0.99736000  0.78928000  0.60133000  1.0
  H  H58  1  0.79193000  0.78929000  0.10133000  1.0
  H  H59  1  0.00264000  0.21071000  0.39867000  1.0
  H  H60  1  0.06228000  0.08232000  0.84917000  1.0
  H  H61  1  0.97995000  0.91767000  0.65083000  1.0
  H  H62  1  0.93772000  0.91768000  0.15083000  1.0
  H  H63  1  0.02004000  0.08233000  0.34917000  1.0
  H  H64  1  0.22831000  0.07553000  0.70677000  1.0
  H  H65  1  0.15277000  0.92447000  0.79323000  1.0
  H  H66  1  0.77169000  0.92448000  0.29323000  1.0
  H  H67  1  0.84721000  0.07553000  0.20677000  1.0
  H  H68  1  0.37348000  0.20018000  0.75798000  1.0
  H  H69  1  0.17330000  0.79982000  0.74202000  1.0
  H  H70  1  0.62652000  0.79982000  0.24202000  1.0
  H  H71  1  0.82669000  0.20018000  0.25798000  1.0
  H  H72  1  0.24558000  0.55518000  0.90761000  1.0
  H  H73  1  0.69039000  0.44482000  0.59239000  1.0
  H  H74  1  0.75443000  0.44482000  0.09239000  1.0
  H  H75  1  0.30960000  0.55518000  0.40761000  1.0
  H  H76  1  0.08635000  0.50379000  0.94814000  1.0
  H  H77  1  0.58256000  0.49621000  0.55186000  1.0
  H  H78  1  0.91365000  0.49621000  0.05186000  1.0
  H  H79  1  0.41744000  0.50378000  0.44813000  1.0
  H  H80  1  0.11453000  0.30937000  0.05255000  1.0
  H  H81  1  0.80516000  0.69062000  0.44745000  1.0
  H  H82  1  0.88546000  0.69062000  0.94745000  1.0
  H  H83  1  0.19484000  0.30937000  0.55255000  1.0
  H  H84  1  0.27399000  0.36104000  0.01248000  1.0
  H  H85  1  0.91294000  0.63895000  0.48752000  1.0
  H  H86  1  0.72601000  0.63895000  0.98752000  1.0
  H  H87  1  0.08705000  0.36105000  0.51248000  1.0
  H  H88  1  0.13662000  0.56396000  0.19128000  1.0
  H  H89  1  0.57265000  0.43603000  0.30873000  1.0
  H  H90  1  0.86338000  0.43604000  0.80872000  1.0
  H  H91  1  0.42735000  0.56397000  0.69127000  1.0
  H  H92  1  0.15259000  0.51233000  0.09179000  1.0
  H  H93  1  0.64025000  0.48767000  0.40821000  1.0
  H  H94  1  0.84741000  0.48767000  0.90821000  1.0
  H  H95  1  0.35975000  0.51234000  0.59179000  1.0
  H  H96  1  0.85785000  0.30930000  0.08701000  1.0
  H  H97  1  0.54855000  0.69069000  0.41300000  1.0
  H  H98  1  0.14215000  0.69070000  0.91299000  1.0
  H  H99  1  0.45145000  0.30931000  0.58701000  1.0
  H  H100  1  0.84415000  0.36168000  0.18856000  1.0
  H  H101  1  0.48247000  0.63832000  0.31145000  1.0
  H  H102  1  0.15585000  0.63832000  0.81144000  1.0
  H  H103  1  0.51753000  0.36168000  0.68856000  1.0
  H  H104  1  0.69559000  0.28478000  0.82993000  1.0
  H  H105  1  0.41082000  0.71522000  0.67007000  1.0
  H  H106  1  0.30441000  0.71522000  0.17007000  1.0
  H  H107  1  0.58919000  0.28478000  0.32993000  1.0
  H  H108  1  0.61631000  0.27633000  0.68229000  1.0
  H  H109  1  0.33999000  0.72367000  0.81771000  1.0
  H  H110  1  0.38369000  0.72367000  0.31771000  1.0
  H  H111  1  0.66002000  0.27633000  0.18229000  1.0
  H  H112  1  0.67574000  0.21711000  0.65464000  1.0
  H  H113  1  0.45863000  0.78289000  0.84536000  1.0
  H  H114  1  0.32426000  0.78289000  0.34536000  1.0
  H  H115  1  0.54137000  0.21711000  0.15464000  1.0
  H  H116  1  0.73813000  0.33942000  0.66514000  1.0
  H  H117  1  0.39871000  0.66058000  0.83486000  1.0
  H  H118  1  0.26187000  0.66058000  0.33486000  1.0
  H  H119  1  0.60129000  0.33942000  0.16514000  1.0
  H  H120  1  0.77678000  0.22262000  0.79718000  1.0
  H  H121  1  0.55417000  0.77739000  0.70282000  1.0
  H  H122  1  0.22322000  0.77739000  0.20282000  1.0
  H  H123  1  0.44583000  0.22262000  0.29718000  1.0
  H  H124  1  0.83550000  0.27151000  0.73140000  1.0
  H  H125  1  0.56400000  0.72850000  0.76860000  1.0
  H  H126  1  0.16450000  0.72850000  0.26860000  1.0
  H  H127  1  0.43601000  0.27151000  0.23140000  1.0
  H  H128  1  0.73756000  0.15673000  0.72979000  1.0
  H  H129  1  0.58085000  0.84328000  0.77021000  1.0
  H  H130  1  0.26244000  0.84328000  0.27021000  1.0
  H  H131  1  0.41916000  0.15672000  0.22979000  1.0
  H  H132  1  0.72608000  0.48066000  0.74418000  1.0
  H  H133  1  0.24542000  0.51934000  0.75582000  1.0
  H  H134  1  0.27391000  0.51934000  0.25582000  1.0
  H  H135  1  0.75458000  0.48066000  0.24418000  1.0
  H  H136  1  0.87580000  0.67301000  0.84190000  1.0
  H  H137  1  0.20280000  0.32700000  0.65810000  1.0
  H  H138  1  0.12420000  0.32699000  0.15810000  1.0
  H  H139  1  0.79721000  0.67300000  0.34190000  1.0
  H  H140  1  0.91288000  0.75118000  0.78344000  1.0
  H  H141  1  0.16171000  0.24882000  0.71656000  1.0
  H  H142  1  0.08711000  0.24882000  0.21657000  1.0
  H  H143  1  0.83829000  0.75118000  0.28344000  1.0
  H  H144  1  0.97388000  0.69049000  0.79938000  1.0
  H  H145  1  0.28340000  0.30952000  0.70062000  1.0
  H  H146  1  0.02612000  0.30951000  0.20062000  1.0
  H  H147  1  0.71661000  0.69048000  0.29938000  1.0
  H  H148  1  0.81699000  0.54974000  0.67464000  1.0
  H  H149  1  0.26725000  0.45026000  0.82537000  1.0
  H  H150  1  0.18301000  0.45026000  0.32537000  1.0
  H  H151  1  0.73275000  0.54974000  0.17463000  1.0
  H  H152  1  0.93670000  0.61593000  0.69573000  1.0
  H  H153  1  0.32077000  0.38407000  0.80428000  1.0
  H  H154  1  0.06330000  0.38407000  0.30428000  1.0
  H  H155  1  0.67923000  0.61593000  0.19573000  1.0
  H  H156  1  0.87323000  0.67389000  0.67936000  1.0
  H  H157  1  0.19934000  0.32611000  0.82063000  1.0
  H  H158  1  0.12677000  0.32611000  0.32064000  1.0
  H  H159  1  0.80066000  0.67389000  0.17937000  1.0
  C  C160  1  0.61759000  0.32923000  0.95059000  1.0
  C  C161  1  0.28836000  0.67076000  0.54940000  1.0
  C  C162  1  0.38240000  0.67076000  0.04940000  1.0
  C  C163  1  0.71164000  0.32924000  0.45059000  1.0
  C  C164  1  0.65399000  0.27073000  0.97532000  1.0
  C  C165  1  0.38326000  0.72926000  0.52468000  1.0
  C  C166  1  0.34601000  0.72927000  0.02468000  1.0
  C  C167  1  0.61674000  0.27073000  0.47532000  1.0
  C  C168  1  0.74146000  0.28217000  0.95967000  1.0
  C  C169  1  0.45930000  0.71783000  0.54032000  1.0
  C  C170  1  0.25853000  0.71783000  0.04032000  1.0
  C  C171  1  0.54070000  0.28216000  0.45967000  1.0
  C  C172  1  0.77288000  0.22467000  0.98111000  1.0
  C  C173  1  0.54821000  0.77533000  0.51888000  1.0
  C  C174  1  0.22712000  0.77533000  0.01889000  1.0
  C  C175  1  0.45179000  0.22466000  0.48111000  1.0
  C  C176  1  0.71496000  0.15414000  0.01733000  1.0
  C  C177  1  0.56083000  0.84586000  0.48266000  1.0
  C  C178  1  0.28504000  0.84586000  0.98266000  1.0
  C  C179  1  0.43918000  0.15413000  0.51733000  1.0
  C  C180  1  0.62799000  0.14209000  0.03384000  1.0
  C  C181  1  0.48590000  0.85791000  0.46615000  1.0
  C  C182  1  0.37201000  0.85791000  0.96615000  1.0
  C  C183  1  0.51410000  0.14209000  0.53384000  1.0
  C  C184  1  0.59832000  0.20124000  0.01327000  1.0
  C  C185  1  0.39708000  0.79875000  0.48672000  1.0
  C  C186  1  0.40168000  0.79875000  0.98673000  1.0
  C  C187  1  0.60292000  0.20124000  0.51327000  1.0
  C  C188  1  0.60172000  0.73598000  0.93432000  1.0
  C  C189  1  0.86575000  0.26402000  0.56569000  1.0
  C  C190  1  0.39827000  0.26402000  0.06569000  1.0
  C  C191  1  0.13426000  0.73598000  0.43432000  1.0
  C  C192  1  0.64178000  0.83136000  0.96029000  1.0
  C  C193  1  0.81042000  0.16864000  0.53972000  1.0
  C  C194  1  0.35822000  0.16863000  0.03972000  1.0
  C  C195  1  0.18958000  0.83136000  0.46029000  1.0
  C  C196  1  0.63751000  0.90078000  0.92988000  1.0
  C  C197  1  0.73672000  0.09922000  0.57012000  1.0
  C  C198  1  0.36249000  0.09921000  0.07012000  1.0
  C  C199  1  0.26327000  0.90078000  0.42988000  1.0
  C  C200  1  0.67058000  0.98931000  0.95493000  1.0
  C  C201  1  0.68127000  0.01069000  0.54507000  1.0
  C  C202  1  0.32942000  0.01068000  0.04507000  1.0
  C  C203  1  0.31873000  0.98931000  0.45493000  1.0
  C  C204  1  0.71019000  0.00941000  0.01105000  1.0
  C  C205  1  0.70078000  0.99059000  0.48895000  1.0
  C  C206  1  0.28981000  0.99059000  0.98895000  1.0
  C  C207  1  0.29921000  0.00940000  0.51105000  1.0
  C  C208  1  0.71771000  0.94184000  0.04133000  1.0
  C  C209  1  0.77587000  0.05816000  0.45867000  1.0
  C  C210  1  0.28229000  0.05815000  0.95867000  1.0
  C  C211  1  0.22412000  0.94184000  0.54133000  1.0
  C  C212  1  0.68322000  0.85348000  0.01598000  1.0
  C  C213  1  0.82974000  0.14653000  0.48402000  1.0
  C  C214  1  0.31678000  0.14652000  0.98402000  1.0
  C  C215  1  0.17025000  0.85347000  0.51598000  1.0
  C  C216  1  0.38748000  0.28287000  0.86222000  1.0
  C  C217  1  0.10461000  0.71714000  0.63777000  1.0
  C  C218  1  0.61253000  0.71713000  0.13777000  1.0
  C  C219  1  0.89539000  0.28287000  0.36223000  1.0
  C  C220  1  0.29961000  0.21108000  0.83186000  1.0
  C  C221  1  0.08852000  0.78892000  0.66814000  1.0
  C  C222  1  0.70040000  0.78891000  0.16814000  1.0
  C  C223  1  0.91147000  0.21108000  0.33186000  1.0
  C  C224  1  0.21178000  0.17990000  0.85690000  1.0
  C  C225  1  0.03187000  0.82010000  0.64310000  1.0
  C  C226  1  0.78823000  0.82010000  0.14310000  1.0
  C  C227  1  0.96812000  0.17990000  0.35691000  1.0
  C  C228  1  0.13072000  0.10963000  0.82944000  1.0
  C  C229  1  0.02107000  0.89036000  0.67056000  1.0
  C  C230  1  0.86929000  0.89036000  0.17057000  1.0
  C  C231  1  0.97891000  0.10963000  0.32944000  1.0
  C  C232  1  0.13800000  0.07156000  0.77603000  1.0
  C  C233  1  0.06643000  0.92842000  0.72397000  1.0
  C  C234  1  0.86200000  0.92843000  0.22397000  1.0
  C  C235  1  0.93356000  0.07157000  0.27603000  1.0
  C  C236  1  0.22453000  0.10511000  0.74898000  1.0
  C  C237  1  0.11941000  0.89488000  0.75101000  1.0
  C  C238  1  0.77547000  0.89488000  0.25101000  1.0
  C  C239  1  0.88059000  0.10512000  0.24899000  1.0
  C  C240  1  0.30490000  0.17388000  0.77734000  1.0
  C  C241  1  0.13102000  0.82612000  0.72265000  1.0
  C  C242  1  0.69510000  0.82611000  0.22265000  1.0
  C  C243  1  0.86897000  0.17388000  0.27735000  1.0
  C  C244  1  0.36854000  0.49783000  0.94056000  1.0
  C  C245  1  0.87072000  0.50218000  0.55945000  1.0
  C  C246  1  0.63146000  0.50218000  0.05944000  1.0
  C  C247  1  0.12929000  0.49783000  0.44056000  1.0
  C  C248  1  0.27015000  0.46273000  0.95856000  1.0
  C  C249  1  0.80742000  0.53728000  0.54145000  1.0
  C  C250  1  0.72985000  0.53728000  0.04144000  1.0
  C  C251  1  0.19258000  0.46273000  0.45856000  1.0
  C  C252  1  0.21629000  0.50080000  0.93895000  1.0
  C  C253  1  0.71549000  0.49921000  0.56106000  1.0
  C  C254  1  0.78371000  0.49921000  0.06106000  1.0
  C  C255  1  0.28451000  0.50080000  0.43894000  1.0
  C  C256  1  0.12784000  0.47269000  0.96145000  1.0
  C  C257  1  0.65515000  0.52732000  0.53856000  1.0
  C  C258  1  0.87216000  0.52731000  0.03855000  1.0
  C  C259  1  0.34485000  0.47269000  0.46145000  1.0
  C  C260  1  0.09368000  0.40556000  0.00309000  1.0
  C  C261  1  0.68812000  0.59445000  0.49692000  1.0
  C  C262  1  0.90632000  0.59444000  0.99691000  1.0
  C  C263  1  0.31188000  0.40556000  0.50309000  1.0
  C  C264  1  0.14420000  0.36331000  0.02097000  1.0
  C  C265  1  0.78090000  0.63669000  0.47904000  1.0
  C  C266  1  0.85579000  0.63669000  0.97903000  1.0
  C  C267  1  0.21910000  0.36331000  0.52096000  1.0
  C  C268  1  0.23272000  0.39247000  0.99893000  1.0
  C  C269  1  0.84025000  0.60753000  0.50107000  1.0
  C  C270  1  0.76728000  0.60754000  0.00107000  1.0
  C  C271  1  0.15974000  0.39247000  0.49893000  1.0
  C  C272  1  0.97906000  0.49477000  0.25659000  1.0
  C  C273  1  0.48429000  0.50523000  0.24342000  1.0
  C  C274  1  0.02094000  0.50524000  0.74341000  1.0
  C  C275  1  0.51571000  0.49477000  0.75658000  1.0
  C  C276  1  0.98939000  0.46678000  0.19601000  1.0
  C  C277  1  0.52260000  0.53322000  0.30399000  1.0
  C  C278  1  0.01061000  0.53323000  0.80399000  1.0
  C  C279  1  0.47739000  0.46678000  0.69601000  1.0
  C  C280  1  0.07548000  0.50874000  0.16812000  1.0
  C  C281  1  0.56673000  0.49125000  0.33188000  1.0
  C  C282  1  0.92453000  0.49126000  0.83188000  1.0
  C  C283  1  0.43327000  0.50875000  0.66812000  1.0
  C  C284  1  0.08430000  0.48047000  0.11198000  1.0
  C  C285  1  0.60384000  0.51953000  0.38802000  1.0
  C  C286  1  0.91570000  0.51954000  0.88802000  1.0
  C  C287  1  0.39617000  0.48047000  0.61198000  1.0
  C  C288  1  0.00495000  0.40886000  0.08308000  1.0
  C  C289  1  0.59609000  0.59114000  0.41692000  1.0
  C  C290  1  0.99505000  0.59114000  0.91692000  1.0
  C  C291  1  0.40391000  0.40887000  0.58308000  1.0
  C  C292  1  0.91813000  0.36536000  0.11035000  1.0
  C  C293  1  0.55278000  0.63464000  0.38965000  1.0
  C  C294  1  0.08187000  0.63465000  0.88965000  1.0
  C  C295  1  0.44722000  0.36536000  0.61035000  1.0
  C  C296  1  0.91078000  0.39460000  0.16633000  1.0
  C  C297  1  0.51618000  0.60540000  0.33368000  1.0
  C  C298  1  0.08923000  0.60541000  0.83367000  1.0
  C  C299  1  0.48382000  0.39460000  0.66633000  1.0
  C  C300  1  0.67498000  0.29521000  0.78649000  1.0
  C  C301  1  0.37978000  0.70480000  0.71351000  1.0
  C  C302  1  0.32502000  0.70480000  0.21351000  1.0
  C  C303  1  0.62023000  0.29521000  0.28649000  1.0
  C  C304  1  0.68225000  0.27498000  0.68244000  1.0
  C  C305  1  0.40727000  0.72502000  0.81756000  1.0
  C  C306  1  0.31775000  0.72502000  0.31756000  1.0
  C  C307  1  0.59273000  0.27498000  0.18244000  1.0
  C  C308  1  0.76728000  0.22651000  0.75051000  1.0
  C  C309  1  0.54077000  0.77349000  0.74949000  1.0
  C  C310  1  0.23272000  0.77349000  0.24949000  1.0
  C  C311  1  0.45924000  0.22651000  0.25051000  1.0
  C  C312  1  0.76569000  0.53545000  0.77764000  1.0
  C  C313  1  0.23025000  0.46455000  0.72236000  1.0
  C  C314  1  0.23430000  0.46455000  0.22236000  1.0
  C  C315  1  0.76975000  0.53544000  0.27764000  1.0
  C  C316  1  0.90475000  0.68562000  0.79841000  1.0
  C  C317  1  0.21914000  0.31439000  0.70159000  1.0
  C  C318  1  0.09525000  0.31438000  0.20159000  1.0
  C  C319  1  0.78086000  0.68561000  0.29841000  1.0
  C  C320  1  0.86847000  0.61240000  0.69878000  1.0
  C  C321  1  0.25607000  0.38760000  0.80122000  1.0
  C  C322  1  0.13153000  0.38760000  0.30122000  1.0
  C  C323  1  0.74393000  0.61240000  0.19878000  1.0
  N  N324  1  0.70474000  0.26363000  0.74173000  1.0
  N  N325  1  0.44112000  0.73637000  0.75827000  1.0
  N  N326  1  0.29526000  0.73637000  0.25827000  1.0
  N  N327  1  0.55889000  0.26363000  0.24173000  1.0
  N  N328  1  0.84204000  0.60904000  0.75911000  1.0
  N  N329  1  0.23300000  0.39096000  0.74089000  1.0
  N  N330  1  0.15796000  0.39096000  0.24089000  1.0
  N  N331  1  0.76700000  0.60904000  0.25911000  1.0
  O  O332  1  0.54899000  0.32959000  0.97573000  1.0
  O  O333  1  0.21940000  0.67041000  0.52426000  1.0
  O  O334  1  0.45100000  0.67041000  0.02426000  1.0
  O  O335  1  0.78059000  0.32959000  0.47573000  1.0
  O  O336  1  0.65730000  0.37307000  0.90514000  1.0
  O  O337  1  0.28424000  0.62693000  0.59485000  1.0
  O  O338  1  0.34269000  0.62693000  0.09485000  1.0
  O  O339  1  0.71577000  0.37307000  0.40514000  1.0
  O  O340  1  0.74526000  0.09569000  0.03875000  1.0
  O  O341  1  0.64957000  0.90431000  0.46124000  1.0
  O  O342  1  0.25474000  0.90431000  0.96124000  1.0
  O  O343  1  0.35043000  0.09569000  0.53876000  1.0
  O  O344  1  0.59587000  0.66912000  0.96333000  1.0
  O  O345  1  0.92675000  0.33088000  0.53668000  1.0
  O  O346  1  0.40412000  0.33087000  0.03668000  1.0
  O  O347  1  0.07325000  0.66912000  0.46332000  1.0
  O  O348  1  0.57402000  0.72130000  0.88100000  1.0
  O  O349  1  0.85272000  0.27869000  0.61901000  1.0
  O  O350  1  0.42597000  0.27869000  0.11901000  1.0
  O  O351  1  0.14728000  0.72130000  0.38100000  1.0
  O  O352  1  0.37830000  0.32355000  0.90782000  1.0
  O  O353  1  0.05476000  0.67646000  0.59217000  1.0
  O  O354  1  0.62170000  0.67646000  0.09217000  1.0
  O  O355  1  0.94525000  0.32355000  0.40782000  1.0
  O  O356  1  0.46472000  0.29736000  0.84093000  1.0
  O  O357  1  0.16737000  0.70266000  0.65906000  1.0
  O  O358  1  0.53528000  0.70265000  0.15906000  1.0
  O  O359  1  0.83263000  0.29735000  0.34093000  1.0
  O  O360  1  0.05686000  0.00000000  0.75000000  1.0
  O  O361  1  0.94313000  0.00000000  0.25000000  1.0
  O  O362  1  0.42143000  0.48667000  0.97688000  1.0
  O  O363  1  0.93475000  0.51333000  0.52312000  1.0
  O  O364  1  0.57858000  0.51333000  0.02312000  1.0
  O  O365  1  0.06525000  0.48668000  0.47688000  1.0
  O  O366  1  0.39692000  0.53682000  0.89276000  1.0
  O  O367  1  0.86012000  0.46320000  0.60725000  1.0
  O  O368  1  0.60308000  0.46320000  0.10725000  1.0
  O  O369  1  0.13990000  0.53682000  0.39275000  1.0
  O  O370  1  0.00610000  0.37881000  0.02660000  1.0
  O  O371  1  0.62730000  0.62120000  0.47340000  1.0
  O  O372  1  0.99390000  0.62119000  0.97340000  1.0
  O  O373  1  0.37270000  0.37881000  0.52660000  1.0
  O  O374  1  0.05286000  0.55194000  0.28613000  1.0
  O  O375  1  0.50093000  0.44807000  0.21387000  1.0
  O  O376  1  0.94714000  0.44807000  0.71387000  1.0
  O  O377  1  0.49908000  0.55194000  0.78613000  1.0
  O  O378  1  0.89605000  0.45895000  0.27492000  1.0
  O  O379  1  0.43709000  0.54104000  0.22509000  1.0
  O  O380  1  0.10395000  0.54103000  0.72509000  1.0
  O  O381  1  0.56290000  0.45895000  0.77492000  1.0
  O  O382  1  0.56938000  0.49363000  0.90280000  1.0
  O  O383  1  0.07575000  0.50637000  0.59719000  1.0
  O  O384  1  0.43062000  0.50637000  0.09719000  1.0
  O  O385  1  0.92425000  0.49363000  0.40281000  1.0
  O  O386  1  0.69462000  0.66113000  0.85313000  1.0
  O  O387  1  0.03348000  0.33887000  0.64687000  1.0
  O  O388  1  0.30539000  0.33887000  0.14687000  1.0
  O  O389  1  0.96652000  0.66113000  0.35313000  1.0
  O  O390  1  0.62735000  0.33432000  0.78016000  1.0
  O  O391  1  0.29304000  0.66569000  0.71984000  1.0
  O  O392  1  0.37265000  0.66570000  0.21984000  1.0
  O  O393  1  0.70697000  0.33432000  0.28016000  1.0
  O  O394  1  0.73801000  0.52701000  0.82926000  1.0
  O  O395  1  0.21101000  0.47298000  0.67074000  1.0
  O  O396  1  0.26198000  0.47298000  0.17074000  1.0
  O  O397  1  0.78899000  0.52701000  0.32927000  1.0
