# generated using pymatgen
data_ZnH14C14(NO)4
_symmetry_space_group_name_H-M   'P 1'
_cell_length_a   9.42247000
_cell_length_b   9.82528000
_cell_length_c   9.82528000
_cell_angle_alpha   76.28910000
_cell_angle_beta   68.27590000
_cell_angle_gamma   68.27590000
_symmetry_Int_Tables_number   1
_chemical_formula_structural   ZnH14C14(NO)4
_chemical_formula_sum   'Zn2 H28 C28 N8 O8'
_cell_volume   779.70061776
_cell_formula_units_Z   2
loop_
 _symmetry_equiv_pos_site_id
 _symmetry_equiv_pos_as_xyz
  1  'x, y, z'
loop_
 _atom_site_type_symbol
 _atom_site_label
 _atom_site_symmetry_multiplicity
 _atom_site_fract_x
 _atom_site_fract_y
 _atom_site_fract_z
 _atom_site_occupancy
  Zn  Zn0  1  0.99500000  0.71374000  0.34521000  1.0
  Zn  Zn1  1  0.49500000  0.34521000  0.71374000  1.0
  H  H2  1  0.71460000  0.81716000  0.17185000  1.0
  H  H3  1  0.21460000  0.17185000  0.81716000  1.0
  H  H4  1  0.89834000  0.60357000  0.07045000  1.0
  H  H5  1  0.39834000  0.07046000  0.60357000  1.0
  H  H6  1  0.13308000  0.53521000  0.57045000  1.0
  H  H7  1  0.63308000  0.57045000  0.53521000  1.0
  H  H8  1  0.06617000  0.50032000  0.84228000  1.0
  H  H9  1  0.56617000  0.84228000  0.50032000  1.0
  H  H10  1  0.65142000  0.89241000  0.85496000  1.0
  H  H11  1  0.15142000  0.85496000  0.89241000  1.0
  H  H12  1  0.73881000  0.91308000  0.58224000  1.0
  H  H13  1  0.23882000  0.58224000  0.91308000  1.0
  H  H14  1  0.31423000  0.55976000  0.12569000  1.0
  H  H15  1  0.81423000  0.12569000  0.55976000  1.0
  H  H16  1  0.59117000  0.57574000  0.03144000  1.0
  H  H17  1  0.09117000  0.03144000  0.57574000  1.0
  H  H18  1  0.42023000  0.93235000  0.29776000  1.0
  H  H19  1  0.92023000  0.29776000  0.93235000  1.0
  H  H20  1  0.14763000  0.90794000  0.37252000  1.0
  H  H21  1  0.64763000  0.37253000  0.90794000  1.0
  H  H22  1  0.02145000  0.23612000  0.33517000  1.0
  H  H23  1  0.52145000  0.33517000  0.23611000  1.0
  H  H24  1  0.21977000  0.23259000  0.30252000  1.0
  H  H25  1  0.71977000  0.30252000  0.23259000  1.0
  H  H26  1  0.20439000  0.10263000  0.11818000  1.0
  H  H27  1  0.70439000  0.11818000  0.10263000  1.0
  H  H28  1  0.06461000  0.26358000  0.06575000  1.0
  H  H29  1  0.56461000  0.06575000  0.26358000  1.0
  C  C30  1  0.02780000  0.61216000  0.63785000  1.0
  C  C31  1  0.52780000  0.63785000  0.61216000  1.0
  C  C32  1  0.98975000  0.59261000  0.78897000  1.0
  C  C33  1  0.48975000  0.78897000  0.59261000  1.0
  C  C34  1  0.85041000  0.69286000  0.87315000  1.0
  C  C35  1  0.35041000  0.87315000  0.69286000  1.0
  C  C36  1  0.75849000  0.81059000  0.79632000  1.0
  C  C37  1  0.25849000  0.79632000  0.81059000  1.0
  C  C38  1  0.80707000  0.82198000  0.64402000  1.0
  C  C39  1  0.30708000  0.64402000  0.82198000  1.0
  C  C40  1  0.34194000  0.64232000  0.15976000  1.0
  C  C41  1  0.84194000  0.15976000  0.64232000  1.0
  C  C42  1  0.49656000  0.65057000  0.10794000  1.0
  C  C43  1  0.99656000  0.10795000  0.65057000  1.0
  C  C44  1  0.53149000  0.75446000  0.15752000  1.0
  C  C45  1  0.03149000  0.15752000  0.75446000  1.0
  C  C46  1  0.40207000  0.84875000  0.25626000  1.0
  C  C47  1  0.90207000  0.25626000  0.84875000  1.0
  C  C48  1  0.25087000  0.83483000  0.29961000  1.0
  C  C49  1  0.75087000  0.29962000  0.83483000  1.0
  C  C50  1  0.06447000  0.44337000  0.24970000  1.0
  C  C51  1  0.56447000  0.24970000  0.44337000  1.0
  C  C52  1  0.11957000  0.27642000  0.25606000  1.0
  C  C53  1  0.61958000  0.25606000  0.27642000  1.0
  C  C54  1  0.16811000  0.22389000  0.10707000  1.0
  C  C55  1  0.66811000  0.10707000  0.22389000  1.0
  C  C56  1  0.30560000  0.27235000  0.99145000  1.0
  C  C57  1  0.80560000  0.99145000  0.27235000  1.0
  N  N58  1  0.21863000  0.73304000  0.25376000  1.0
  N  N59  1  0.71863000  0.25376000  0.73304000  1.0
  N  N60  1  0.68115000  0.76921000  0.10982000  1.0
  N  N61  1  0.18115000  0.10982000  0.76922000  1.0
  N  N62  1  0.80888000  0.66772000  0.02317000  1.0
  N  N63  1  0.30888000  0.02317000  0.66772000  1.0
  N  N64  1  0.93837000  0.72456000  0.56415000  1.0
  N  N65  1  0.43838000  0.56415000  0.72456000  1.0
  O  O66  1  0.02949000  0.49583000  0.37027000  1.0
  O  O67  1  0.52949000  0.37027000  0.49583000  1.0
  O  O68  1  0.05673000  0.52361000  0.12965000  1.0
  O  O69  1  0.55673000  0.12965000  0.52361000  1.0
  O  O70  1  0.40168000  0.30683000  0.02509000  1.0
  O  O71  1  0.90168000  0.02509000  0.30683000  1.0
  O  O72  1  0.31586000  0.27288000  0.85380000  1.0
  O  O73  1  0.81586000  0.85380000  0.27288000  1.0
