# generated using pymatgen
data_CdH26C42(N2O)4
_symmetry_space_group_name_H-M   'P 1'
_cell_length_a   18.17480000
_cell_length_b   18.23060000
_cell_length_c   20.59330000
_cell_angle_alpha   83.68980000
_cell_angle_beta   85.45190000
_cell_angle_gamma   63.63170000
_symmetry_Int_Tables_number   1
_chemical_formula_structural   CdH26C42(N2O)4
_chemical_formula_sum   'Cd6 H156 C252 N48 O24'
_cell_volume   6072.81804657
_cell_formula_units_Z   6
loop_
 _symmetry_equiv_pos_site_id
 _symmetry_equiv_pos_as_xyz
  1  'x, y, z'
loop_
 _atom_site_type_symbol
 _atom_site_label
 _atom_site_symmetry_multiplicity
 _atom_site_fract_x
 _atom_site_fract_y
 _atom_site_fract_z
 _atom_site_occupancy
  Cd  Cd0  1  0.82723000  0.57513000  0.28381000  1.0
  Cd  Cd1  1  0.17277000  0.42486000  0.71619000  1.0
  Cd  Cd2  1  0.40830000  0.38598000  0.27930000  1.0
  Cd  Cd3  1  0.59170000  0.61403000  0.72070000  1.0
  Cd  Cd4  1  0.78583000  0.02739000  0.73742000  1.0
  Cd  Cd5  1  0.21417000  0.97261000  0.26258000  1.0
  H  H6  1  0.01537000  0.28256000  0.28155000  1.0
  H  H7  1  0.98463000  0.71744000  0.71845000  1.0
  H  H8  1  0.27636000  0.18340000  0.30386000  1.0
  H  H9  1  0.72364000  0.81659000  0.69614000  1.0
  H  H10  1  0.12649000  0.44457000  0.29620000  1.0
  H  H11  1  0.87352000  0.55542000  0.70380000  1.0
  H  H12  1  0.59775000  0.51237000  0.24841000  1.0
  H  H13  1  0.40225000  0.48763000  0.75159000  1.0
  H  H14  1  0.34127000  0.68020000  0.26254000  1.0
  H  H15  1  0.65874000  0.31980000  0.73746000  1.0
  H  H16  1  0.52433000  0.76872000  0.26670000  1.0
  H  H17  1  0.47566000  0.23128000  0.73330000  1.0
  H  H18  1  0.68769000  0.75319000  0.33256000  1.0
  H  H19  1  0.31231000  0.24680000  0.66744000  1.0
  H  H20  1  0.99113000  0.62869000  0.30857000  1.0
  H  H21  1  0.00887000  0.37131000  0.69143000  1.0
  H  H22  1  0.06643000  0.71453000  0.31766000  1.0
  H  H23  1  0.93358000  0.28546000  0.68233000  1.0
  H  H24  1  0.99108000  0.85815000  0.34615000  1.0
  H  H25  1  0.00893000  0.14185000  0.65385000  1.0
  H  H26  1  0.84026000  0.92210000  0.36665000  1.0
  H  H27  1  0.15974000  0.07790000  0.63335000  1.0
  H  H28  1  0.72448000  0.97932000  0.30956000  1.0
  H  H29  1  0.27552000  0.02069000  0.69045000  1.0
  H  H30  1  0.48261000  0.09861000  0.39779000  1.0
  H  H31  1  0.51739000  0.90139000  0.60221000  1.0
  H  H32  1  0.61526000  0.83381000  0.41494000  1.0
  H  H33  1  0.38474000  0.16619000  0.58506000  1.0
  H  H34  1  0.46723000  0.18676000  0.31102000  1.0
  H  H35  1  0.53277000  0.81325000  0.68898000  1.0
  H  H36  1  0.63061000  0.34310000  0.25133000  1.0
  H  H37  1  0.36939000  0.65690000  0.74867000  1.0
  H  H38  1  0.78248000  0.27692000  0.27011000  1.0
  H  H39  1  0.21753000  0.72307000  0.72989000  1.0
  H  H40  1  0.85190000  0.13421000  0.31982000  1.0
  H  H41  1  0.14810000  0.86578000  0.68018000  1.0
  H  H42  1  0.77468000  0.05198000  0.35246000  1.0
  H  H43  1  0.22532000  0.94802000  0.64754000  1.0
  H  H44  1  0.52074000  0.82706000  0.46141000  1.0
  H  H45  1  0.47926000  0.17294000  0.53858000  1.0
  H  H46  1  0.22910000  0.98359000  0.52271000  1.0
  H  H47  1  0.77090000  0.01641000  0.47729000  1.0
  H  H48  1  0.15715000  0.13784000  0.50110000  1.0
  H  H49  1  0.84285000  0.86216000  0.49890000  1.0
  H  H50  1  0.23148000  0.21239000  0.44335000  1.0
  H  H51  1  0.76852000  0.78761000  0.55665000  1.0
  H  H52  1  0.37368000  0.14286000  0.40691000  1.0
  H  H53  1  0.62632000  0.85714000  0.59309000  1.0
  H  H54  1  0.73405000  0.46733000  0.35401000  1.0
  H  H55  1  0.26595000  0.53267000  0.64599000  1.0
  H  H56  1  0.90128000  0.58853000  0.43899000  1.0
  H  H57  1  0.09871000  0.41146000  0.56101000  1.0
  H  H58  1  0.93674000  0.56026000  0.55763000  1.0
  H  H59  1  0.06325000  0.43974000  0.44237000  1.0
  H  H60  1  0.89162000  0.47225000  0.63209000  1.0
  H  H61  1  0.10837000  0.52774000  0.36791000  1.0
  H  H62  1  0.81042000  0.40670000  0.59339000  1.0
  H  H63  1  0.18958000  0.59330000  0.40661000  1.0
  H  H64  1  0.84342000  0.29163000  0.52114000  1.0
  H  H65  1  0.15658000  0.70837000  0.47886000  1.0
  H  H66  1  0.64726000  0.21969000  0.51213000  1.0
  H  H67  1  0.35274000  0.78031000  0.48787000  1.0
  H  H68  1  0.61466000  0.46188000  0.43464000  1.0
  H  H69  1  0.38533000  0.53812000  0.56536000  1.0
  H  H70  1  0.69924000  0.15363000  0.61063000  1.0
  H  H71  1  0.30076000  0.84637000  0.38937000  1.0
  H  H72  1  0.98453000  0.94658000  0.65278000  1.0
  H  H73  1  0.01547000  0.05342000  0.34722000  1.0
  H  H74  1  0.10348000  0.95830000  0.58823000  1.0
  H  H75  1  0.89651000  0.04170000  0.41178000  1.0
  H  H76  1  0.07895000  0.07312000  0.50375000  1.0
  H  H77  1  0.92106000  0.92689000  0.49625000  1.0
  H  H78  1  0.93904000  0.18120000  0.48101000  1.0
  H  H79  1  0.06096000  0.81880000  0.51899000  1.0
  H  H80  1  0.27744000  0.33392000  0.85064000  1.0
  H  H81  1  0.72256000  0.66608000  0.14937000  1.0
  H  H82  1  0.98484000  0.43841000  0.79221000  1.0
  H  H83  1  0.01516000  0.56159000  0.20779000  1.0
  H  H84  1  0.88362000  0.41952000  0.87501000  1.0
  H  H85  1  0.11639000  0.58048000  0.12499000  1.0
  H  H86  1  0.92716000  0.35071000  0.98450000  1.0
  H  H87  1  0.07285000  0.64929000  0.01550000  1.0
  H  H88  1  0.07368000  0.29284000  0.01588000  1.0
  H  H89  1  0.92632000  0.70716000  0.98412000  1.0
  H  H90  1  0.55152000  0.40010000  0.35338000  1.0
  H  H91  1  0.44847000  0.59990000  0.64662000  1.0
  H  H92  1  0.30127000  0.36722000  0.43488000  1.0
  H  H93  1  0.69872000  0.63277000  0.56513000  1.0
  H  H94  1  0.28705000  0.32445000  0.55290000  1.0
  H  H95  1  0.71295000  0.67555000  0.44711000  1.0
  H  H96  1  0.39348000  0.30222000  0.63095000  1.0
  H  H97  1  0.60651000  0.69778000  0.36906000  1.0
  H  H98  1  0.52136000  0.31423000  0.59394000  1.0
  H  H99  1  0.47864000  0.68577000  0.40606000  1.0
  H  H100  1  0.32211000  0.30772000  0.18544000  1.0
  H  H101  1  0.67789000  0.69228000  0.81456000  1.0
  H  H102  1  0.52752000  0.42139000  0.14428000  1.0
  H  H103  1  0.47248000  0.57860000  0.85572000  1.0
  H  H104  1  0.58475000  0.43078000  0.02982000  1.0
  H  H105  1  0.41525000  0.56922000  0.97018000  1.0
  H  H106  1  0.53850000  0.38819000  0.93808000  1.0
  H  H107  1  0.46149000  0.61181000  0.06191000  1.0
  H  H108  1  0.43581000  0.33111000  0.95489000  1.0
  H  H109  1  0.56419000  0.66889000  0.04511000  1.0
  H  H110  1  0.27495000  0.37556000  0.98264000  1.0
  H  H111  1  0.72505000  0.62443000  0.01736000  1.0
  H  H112  1  0.22304000  0.16662000  0.97997000  1.0
  H  H113  1  0.77696000  0.83338000  0.02003000  1.0
  H  H114  1  0.37980000  0.16831000  0.12642000  1.0
  H  H115  1  0.62020000  0.83169000  0.87358000  1.0
  H  H116  1  0.98135000  0.90123000  0.78710000  1.0
  H  H117  1  0.01865000  0.09877000  0.21290000  1.0
  H  H118  1  0.80138000  0.20240000  0.77131000  1.0
  H  H119  1  0.19862000  0.79761000  0.22869000  1.0
  H  H120  1  0.84963000  0.29844000  0.81156000  1.0
  H  H121  1  0.15037000  0.70156000  0.18844000  1.0
  H  H122  1  0.98333000  0.24487000  0.86378000  1.0
  H  H123  1  0.01666000  0.75513000  0.13622000  1.0
  H  H124  1  0.07563000  0.09498000  0.87562000  1.0
  H  H125  1  0.92437000  0.90502000  0.12438000  1.0
  H  H126  1  0.16199000  0.00042000  0.80117000  1.0
  H  H127  1  0.83801000  0.99959000  0.19883000  1.0
  H  H128  1  0.32116000  0.77604000  0.91136000  1.0
  H  H129  1  0.67885000  0.22396000  0.08864000  1.0
  H  H130  1  0.06711000  0.83336000  0.89039000  1.0
  H  H131  1  0.93289000  0.16664000  0.10961000  1.0
  H  H132  1  0.41624000  0.79184000  0.84452000  1.0
  H  H133  1  0.58376000  0.20816000  0.15547000  1.0
  H  H134  1  0.48141000  0.03041000  0.79953000  1.0
  H  H135  1  0.51859000  0.96959000  0.20047000  1.0
  H  H136  1  0.36792000  0.17440000  0.79397000  1.0
  H  H137  1  0.63208000  0.82560000  0.20604000  1.0
  H  H138  1  0.22350000  0.19908000  0.81414000  1.0
  H  H139  1  0.77650000  0.80093000  0.18586000  1.0
  H  H140  1  0.18511000  0.08538000  0.83987000  1.0
  H  H141  1  0.81489000  0.91463000  0.16013000  1.0
  H  H142  1  0.16926000  0.66549000  0.86666000  1.0
  H  H143  1  0.83074000  0.33452000  0.13334000  1.0
  H  H144  1  0.27568000  0.50446000  0.07880000  1.0
  H  H145  1  0.72432000  0.49555000  0.92121000  1.0
  H  H146  1  0.32206000  0.56508000  0.16128000  1.0
  H  H147  1  0.67795000  0.43492000  0.83872000  1.0
  H  H148  1  0.31669000  0.70279000  0.13872000  1.0
  H  H149  1  0.68331000  0.29722000  0.86128000  1.0
  H  H150  1  0.26393000  0.78728000  0.03402000  1.0
  H  H151  1  0.73607000  0.21272000  0.96598000  1.0
  H  H152  1  0.23741000  0.12837000  0.17662000  1.0
  H  H153  1  0.76259000  0.87163000  0.82338000  1.0
  H  H154  1  0.32147000  0.83730000  0.13415000  1.0
  H  H155  1  0.67853000  0.16270000  0.86585000  1.0
  H  H156  1  0.40666000  0.78226000  0.03285000  1.0
  H  H157  1  0.59334000  0.21774000  0.96715000  1.0
  H  H158  1  0.44624000  0.87111000  0.95323000  1.0
  H  H159  1  0.55376000  0.12889000  0.04677000  1.0
  H  H160  1  0.40030000  0.01903000  0.96863000  1.0
  H  H161  1  0.59970000  0.98097000  0.03137000  1.0
  C  C162  1  0.97905000  0.44308000  0.28704000  1.0
  C  C163  1  0.02095000  0.55691000  0.71297000  1.0
  C  C164  1  0.06180000  0.37098000  0.29067000  1.0
  C  C165  1  0.93820000  0.62901000  0.70933000  1.0
  C  C166  1  0.06968000  0.29151000  0.28783000  1.0
  C  C167  1  0.93032000  0.70849000  0.71216000  1.0
  C  C168  1  0.14682000  0.22397000  0.29254000  1.0
  C  C169  1  0.85318000  0.77603000  0.70746000  1.0
  C  C170  1  0.15589000  0.13899000  0.28666000  1.0
  C  C171  1  0.84410000  0.86101000  0.71333000  1.0
  C  C172  1  0.21649000  0.23627000  0.29985000  1.0
  C  C173  1  0.78351000  0.76373000  0.70015000  1.0
  C  C174  1  0.20929000  0.31579000  0.30109000  1.0
  C  C175  1  0.79071000  0.68421000  0.69891000  1.0
  C  C176  1  0.28393000  0.32980000  0.30563000  1.0
  C  C177  1  0.71607000  0.67019000  0.69438000  1.0
  C  C178  1  0.13179000  0.38280000  0.29617000  1.0
  C  C179  1  0.86821000  0.61720000  0.70382000  1.0
  C  C180  1  0.65917000  0.62145000  0.25807000  1.0
  C  C181  1  0.34083000  0.37855000  0.74193000  1.0
  C  C182  1  0.57059000  0.63875000  0.25632000  1.0
  C  C183  1  0.42941000  0.36125000  0.74368000  1.0
  C  C184  1  0.54945000  0.57445000  0.25250000  1.0
  C  C185  1  0.45055000  0.42556000  0.74750000  1.0
  C  C186  1  0.46697000  0.58918000  0.25528000  1.0
  C  C187  1  0.53303000  0.41081000  0.74472000  1.0
  C  C188  1  0.44527000  0.51892000  0.25630000  1.0
  C  C189  1  0.55473000  0.48108000  0.74370000  1.0
  C  C190  1  0.40536000  0.66923000  0.26019000  1.0
  C  C191  1  0.59464000  0.33077000  0.73981000  1.0
  C  C192  1  0.42588000  0.73410000  0.26367000  1.0
  C  C193  1  0.57412000  0.26590000  0.73633000  1.0
  C  C194  1  0.35980000  0.81971000  0.27015000  1.0
  C  C195  1  0.64020000  0.18029000  0.72985000  1.0
  C  C196  1  0.50856000  0.71842000  0.26236000  1.0
  C  C197  1  0.49143000  0.28158000  0.73763000  1.0
  C  C198  1  0.74501000  0.75667000  0.33707000  1.0
  C  C199  1  0.25499000  0.24333000  0.66293000  1.0
  C  C200  1  0.87384000  0.72959000  0.32872000  1.0
  C  C201  1  0.12616000  0.27041000  0.67128000  1.0
  C  C202  1  0.95930000  0.69269000  0.31965000  1.0
  C  C203  1  0.04070000  0.30731000  0.68035000  1.0
  C  C204  1  0.99998000  0.74060000  0.32571000  1.0
  C  C205  1  0.00002000  0.25940000  0.67429000  1.0
  C  C206  1  0.95714000  0.82259000  0.34157000  1.0
  C  C207  1  0.04286000  0.17741000  0.65843000  1.0
  C  C208  1  0.87205000  0.85957000  0.35229000  1.0
  C  C209  1  0.12795000  0.14043000  0.64771000  1.0
  C  C210  1  0.83076000  0.81222000  0.34500000  1.0
  C  C211  1  0.16924000  0.18778000  0.65500000  1.0
  C  C212  1  0.67723000  0.90030000  0.36394000  1.0
  C  C213  1  0.32277000  0.09970000  0.63606000  1.0
  C  C214  1  0.67450000  0.97611000  0.34029000  1.0
  C  C215  1  0.32550000  0.02389000  0.65971000  1.0
  C  C216  1  0.60350000  0.04663000  0.35315000  1.0
  C  C217  1  0.39650000  0.95337000  0.64685000  1.0
  C  C218  1  0.53535000  0.04222000  0.38669000  1.0
  C  C219  1  0.46465000  0.95778000  0.61332000  1.0
  C  C220  1  0.53696000  0.96569000  0.40667000  1.0
  C  C221  1  0.46305000  0.03431000  0.59333000  1.0
  C  C222  1  0.60978000  0.89422000  0.39686000  1.0
  C  C223  1  0.39022000  0.10578000  0.60314000  1.0
  C  C224  1  0.52562000  0.18987000  0.30910000  1.0
  C  C225  1  0.47439000  0.81013000  0.69090000  1.0
  C  C226  1  0.61869000  0.23386000  0.29073000  1.0
  C  C227  1  0.38131000  0.76614000  0.70927000  1.0
  C  C228  1  0.66254000  0.27997000  0.27257000  1.0
  C  C229  1  0.33747000  0.72003000  0.72743000  1.0
  C  C230  1  0.74660000  0.24252000  0.28341000  1.0
  C  C231  1  0.25340000  0.75748000  0.71659000  1.0
  C  C232  1  0.78609000  0.16136000  0.31191000  1.0
  C  C233  1  0.21391000  0.83864000  0.68809000  1.0
  C  C234  1  0.74336000  0.11437000  0.32990000  1.0
  C  C235  1  0.25664000  0.88563000  0.67010000  1.0
  C  C236  1  0.65936000  0.15126000  0.31811000  1.0
  C  C237  1  0.34064000  0.84874000  0.68190000  1.0
  C  C238  1  0.46653000  0.88542000  0.46294000  1.0
  C  C239  1  0.53347000  0.11458000  0.53706000  1.0
  C  C240  1  0.34355000  0.97727000  0.47979000  1.0
  C  C241  1  0.65645000  0.02273000  0.52021000  1.0
  C  C242  1  0.26075000  0.01850000  0.49881000  1.0
  C  C243  1  0.73925000  0.98149000  0.50119000  1.0
  C  C244  1  0.22149000  0.10351000  0.48625000  1.0
  C  C245  1  0.77851000  0.89649000  0.51375000  1.0
  C  C246  1  0.26390000  0.14603000  0.45413000  1.0
  C  C247  1  0.73610000  0.85397000  0.54587000  1.0
  C  C248  1  0.34638000  0.10592000  0.43396000  1.0
  C  C249  1  0.65362000  0.89408000  0.56605000  1.0
  C  C250  1  0.38683000  0.02059000  0.44808000  1.0
  C  C251  1  0.61317000  0.97941000  0.55192000  1.0
  C  C252  1  0.76429000  0.47566000  0.39411000  1.0
  C  C253  1  0.23571000  0.52434000  0.60589000  1.0
  C  C254  1  0.83663000  0.51252000  0.45017000  1.0
  C  C255  1  0.16336000  0.48748000  0.54983000  1.0
  C  C256  1  0.88189000  0.54933000  0.47247000  1.0
  C  C257  1  0.11811000  0.45067000  0.52753000  1.0
  C  C258  1  0.90113000  0.53323000  0.53828000  1.0
  C  C259  1  0.09887000  0.46677000  0.46172000  1.0
  C  C260  1  0.87595000  0.48212000  0.58095000  1.0
  C  C261  1  0.12404000  0.51788000  0.41905000  1.0
  C  C262  1  0.83122000  0.44453000  0.55956000  1.0
  C  C263  1  0.16878000  0.55547000  0.44044000  1.0
  C  C264  1  0.81283000  0.46020000  0.49346000  1.0
  C  C265  1  0.18717000  0.53980000  0.50654000  1.0
  C  C266  1  0.73351000  0.38101000  0.47413000  1.0
  C  C267  1  0.26648000  0.61899000  0.52586000  1.0
  C  C268  1  0.78193000  0.30534000  0.50715000  1.0
  C  C269  1  0.21806000  0.69466000  0.49284000  1.0
  C  C270  1  0.75012000  0.24815000  0.52178000  1.0
  C  C271  1  0.24988000  0.75185000  0.47822000  1.0
  C  C272  1  0.67065000  0.26596000  0.50453000  1.0
  C  C273  1  0.32935000  0.73404000  0.49546000  1.0
  C  C274  1  0.62285000  0.34329000  0.47389000  1.0
  C  C275  1  0.37715000  0.65670000  0.52611000  1.0
  C  C276  1  0.65312000  0.40148000  0.45806000  1.0
  C  C277  1  0.34687000  0.59852000  0.54194000  1.0
  C  C278  1  0.76491000  0.13131000  0.60053000  1.0
  C  C279  1  0.23509000  0.86869000  0.39947000  1.0
  C  C280  1  0.89684000  0.05914000  0.60426000  1.0
  C  C281  1  0.10316000  0.94086000  0.39574000  1.0
  C  C282  1  0.97607000  0.99832000  0.61713000  1.0
  C  C283  1  0.02393000  0.00169000  0.38287000  1.0
  C  C284  1  0.04085000  0.00558000  0.58077000  1.0
  C  C285  1  0.95915000  0.99442000  0.41923000  1.0
  C  C286  1  0.02707000  0.07101000  0.53273000  1.0
  C  C287  1  0.97293000  0.92900000  0.46727000  1.0
  C  C288  1  0.94832000  0.13232000  0.51955000  1.0
  C  C289  1  0.05168000  0.86768000  0.48045000  1.0
  C  C290  1  0.88337000  0.12574000  0.55646000  1.0
  C  C291  1  0.11663000  0.87426000  0.44354000  1.0
  C  C292  1  0.21500000  0.34307000  0.86310000  1.0
  C  C293  1  0.78501000  0.65693000  0.13690000  1.0
  C  C294  1  0.08533000  0.37459000  0.85784000  1.0
  C  C295  1  0.91467000  0.62541000  0.14216000  1.0
  C  C296  1  0.00334000  0.40608000  0.84026000  1.0
  C  C297  1  0.99666000  0.59392000  0.15974000  1.0
  C  C298  1  0.94808000  0.39572000  0.88680000  1.0
  C  C299  1  0.05192000  0.60428000  0.11320000  1.0
  C  C300  1  0.97315000  0.35528000  0.94923000  1.0
  C  C301  1  0.02685000  0.64472000  0.05077000  1.0
  C  C302  1  0.05466000  0.32304000  0.96730000  1.0
  C  C303  1  0.94534000  0.67696000  0.03270000  1.0
  C  C304  1  0.10991000  0.33333333  0.92045000  1.0
  C  C305  1  0.89009000  0.66666667  0.07955000  1.0
  C  C306  1  0.51535000  0.38647000  0.39313000  1.0
  C  C307  1  0.48464000  0.61353000  0.60687000  1.0
  C  C308  1  0.41991000  0.36355000  0.44826000  1.0
  C  C309  1  0.58009000  0.63645000  0.55174000  1.0
  C  C310  1  0.34904000  0.35463000  0.46904000  1.0
  C  C311  1  0.65096000  0.64537000  0.53097000  1.0
  C  C312  1  0.34208000  0.33086000  0.53495000  1.0
  C  C313  1  0.65791000  0.66914000  0.46505000  1.0
  C  C314  1  0.40286000  0.31771000  0.57932000  1.0
  C  C315  1  0.59713000  0.68229000  0.42068000  1.0
  C  C316  1  0.47456000  0.32516000  0.55923000  1.0
  C  C317  1  0.52543000  0.67484000  0.44078000  1.0
  C  C318  1  0.48219000  0.34700000  0.49283000  1.0
  C  C319  1  0.51781000  0.65300000  0.50717000  1.0
  C  C320  1  0.36286000  0.32497000  0.15291000  1.0
  C  C321  1  0.63714000  0.67503000  0.84709000  1.0
  C  C322  1  0.45013000  0.37074000  0.11285000  1.0
  C  C323  1  0.54987000  0.62926000  0.88715000  1.0
  C  C324  1  0.50858000  0.40169000  0.10312000  1.0
  C  C325  1  0.49142000  0.59831000  0.89688000  1.0
  C  C326  1  0.53960000  0.40649000  0.03961000  1.0
  C  C327  1  0.46040000  0.59351000  0.96039000  1.0
  C  C328  1  0.51298000  0.38216000  0.98692000  1.0
  C  C329  1  0.48702000  0.61784000  0.01308000  1.0
  C  C330  1  0.45547000  0.35048000  0.99580000  1.0
  C  C331  1  0.54453000  0.64952000  0.00420000  1.0
  C  C332  1  0.42528000  0.34477000  0.05966000  1.0
  C  C333  1  0.57472000  0.65523000  0.94034000  1.0
  C  C334  1  0.33232000  0.27519000  0.05670000  1.0
  C  C335  1  0.66768000  0.72481000  0.94330000  1.0
  C  C336  1  0.28478000  0.31390000  0.00204000  1.0
  C  C337  1  0.71522000  0.68610000  0.99796000  1.0
  C  C338  1  0.24564000  0.27400000  0.97516000  1.0
  C  C339  1  0.75436000  0.72600000  0.02484000  1.0
  C  C340  1  0.25372000  0.19704000  0.00163000  1.0
  C  C341  1  0.74628000  0.80296000  0.99837000  1.0
  C  C342  1  0.30073000  0.16044000  0.05678000  1.0
  C  C343  1  0.69927000  0.83956000  0.94322000  1.0
  C  C344  1  0.34109000  0.19832000  0.08450000  1.0
  C  C345  1  0.65891000  0.80167000  0.91550000  1.0
  C  C346  1  0.97044000  0.96291000  0.79635000  1.0
  C  C347  1  0.02956000  0.03709000  0.20365000  1.0
  C  C348  1  0.91402000  0.09594000  0.79766000  1.0
  C  C349  1  0.08598000  0.90406000  0.20233000  1.0
  C  C350  1  0.86167000  0.18028000  0.79193000  1.0
  C  C351  1  0.13833000  0.81972000  0.20807000  1.0
  C  C352  1  0.88901000  0.23247000  0.81511000  1.0
  C  C353  1  0.11099000  0.76753000  0.18488000  1.0
  C  C354  1  0.96533000  0.20199000  0.84476000  1.0
  C  C355  1  0.03467000  0.79801000  0.15523000  1.0
  C  C356  1  0.01787000  0.11825000  0.85086000  1.0
  C  C357  1  0.98212000  0.88175000  0.14914000  1.0
  C  C358  1  0.99200000  0.06609000  0.82528000  1.0
  C  C359  1  0.00800000  0.93391000  0.17472000  1.0
  C  C360  1  0.10628000  0.92384000  0.84467000  1.0
  C  C361  1  0.89372000  0.07615000  0.15533000  1.0
  C  C362  1  0.17153000  0.94480000  0.83187000  1.0
  C  C363  1  0.82847000  0.05520000  0.16813000  1.0
  C  C364  1  0.24880000  0.89247000  0.85656000  1.0
  C  C365  1  0.75120000  0.10753000  0.14343000  1.0
  C  C366  1  0.26154000  0.81770000  0.89170000  1.0
  C  C367  1  0.73846000  0.18230000  0.10830000  1.0
  C  C368  1  0.19654000  0.79597000  0.90113000  1.0
  C  C369  1  0.80347000  0.20403000  0.09887000  1.0
  C  C370  1  0.11819000  0.84903000  0.87883000  1.0
  C  C371  1  0.88182000  0.15096000  0.12117000  1.0
  C  C372  1  0.39754000  0.85763000  0.83977000  1.0
  C  C373  1  0.60246000  0.14237000  0.16023000  1.0
  C  C374  1  0.39643000  0.97666000  0.82246000  1.0
  C  C375  1  0.60357000  0.02334000  0.17754000  1.0
  C  C376  1  0.41739000  0.04211000  0.80878000  1.0
  C  C377  1  0.58261000  0.95789000  0.19123000  1.0
  C  C378  1  0.35423000  0.12185000  0.80612000  1.0
  C  C379  1  0.64577000  0.87816000  0.19388000  1.0
  C  C380  1  0.27174000  0.13611000  0.81754000  1.0
  C  C381  1  0.72826000  0.86389000  0.18246000  1.0
  C  C382  1  0.24951000  0.07179000  0.83150000  1.0
  C  C383  1  0.75049000  0.92821000  0.16851000  1.0
  C  C384  1  0.31281000  0.99173000  0.83314000  1.0
  C  C385  1  0.68719000  0.00827000  0.16686000  1.0
  C  C386  1  0.19414000  0.65842000  0.91450000  1.0
  C  C387  1  0.80586000  0.34158000  0.08550000  1.0
  C  C388  1  0.24475000  0.61162000  0.00956000  1.0
  C  C389  1  0.75525000  0.38839000  0.99044000  1.0
  C  C390  1  0.27390000  0.56522000  0.06882000  1.0
  C  C391  1  0.72610000  0.43479000  0.93118000  1.0
  C  C392  1  0.29987000  0.59915000  0.11434000  1.0
  C  C393  1  0.70013000  0.40086000  0.88567000  1.0
  C  C394  1  0.29644000  0.67819000  0.10153000  1.0
  C  C395  1  0.70356000  0.32182000  0.89847000  1.0
  C  C396  1  0.26727000  0.72587000  0.04316000  1.0
  C  C397  1  0.73273000  0.27413000  0.95684000  1.0
  C  C398  1  0.24245000  0.69083000  0.99762000  1.0
  C  C399  1  0.75755000  0.30917000  0.00238000  1.0
  C  C400  1  0.26633000  0.07761000  0.14589000  1.0
  C  C401  1  0.73367000  0.92239000  0.85411000  1.0
  C  C402  1  0.31390000  0.95839000  0.10762000  1.0
  C  C403  1  0.68610000  0.04161000  0.89238000  1.0
  C  C404  1  0.33820000  0.87597000  0.09781000  1.0
  C  C405  1  0.66180000  0.12403000  0.90219000  1.0
  C  C406  1  0.38555000  0.84650000  0.04158000  1.0
  C  C407  1  0.61445000  0.15350000  0.95842000  1.0
  C  C408  1  0.40809000  0.89719000  0.99600000  1.0
  C  C409  1  0.59191000  0.10281000  0.00400000  1.0
  C  C410  1  0.38316000  0.97992000  0.00422000  1.0
  C  C411  1  0.61684000  0.02008000  0.99578000  1.0
  C  C412  1  0.33590000  0.00904000  0.06075000  1.0
  C  C413  1  0.66410000  0.99096000  0.93925000  1.0
  N  N414  1  0.81795000  0.69743000  0.32401000  1.0
  N  N415  1  0.18205000  0.30256000  0.67599000  1.0
  N  N416  1  0.74803000  0.82724000  0.35110000  1.0
  N  N417  1  0.25197000  0.17276000  0.64890000  1.0
  N  N418  1  0.53520000  0.25564000  0.28660000  1.0
  N  N419  1  0.46480000  0.74436000  0.71340000  1.0
  N  N420  1  0.59765000  0.12477000  0.32928000  1.0
  N  N421  1  0.40235000  0.87523000  0.67073000  1.0
  N  N422  1  0.39498000  0.89342000  0.48777000  1.0
  N  N423  1  0.60502000  0.10658000  0.51224000  1.0
  N  N424  1  0.46748000  0.95926000  0.43779000  1.0
  N  N425  1  0.53252000  0.04074000  0.56221000  1.0
  N  N426  1  0.80500000  0.52048000  0.38901000  1.0
  N  N427  1  0.19500000  0.47952000  0.61099000  1.0
  N  N428  1  0.76663000  0.43753000  0.45592000  1.0
  N  N429  1  0.23336000  0.56247000  0.54407000  1.0
  N  N430  1  0.82159000  0.06545000  0.63058000  1.0
  N  N431  1  0.17841000  0.93454000  0.36941000  1.0
  N  N432  1  0.79770000  0.17131000  0.55536000  1.0
  N  N433  1  0.20230000  0.82869000  0.44463000  1.0
  N  N434  1  0.15295000  0.37841000  0.82361000  1.0
  N  N435  1  0.84705000  0.62159000  0.17639000  1.0
  N  N436  1  0.19329000  0.31407000  0.92218000  1.0
  N  N437  1  0.80671000  0.68593000  0.07782000  1.0
  N  N438  1  0.44303000  0.38808000  0.38685000  1.0
  N  N439  1  0.55696000  0.61192000  0.61315000  1.0
  N  N440  1  0.54264000  0.36174000  0.45565000  1.0
  N  N441  1  0.45735000  0.63826000  0.54435000  1.0
  N  N442  1  0.40860000  0.35858000  0.16975000  1.0
  N  N443  1  0.59140000  0.64142000  0.83025000  1.0
  N  N444  1  0.36997000  0.31504000  0.08718000  1.0
  N  N445  1  0.63003000  0.68496000  0.91282000  1.0
  N  N446  1  0.90285000  0.02960000  0.78068000  1.0
  N  N447  1  0.09715000  0.97040000  0.21931000  1.0
  N  N448  1  0.02725000  0.98058000  0.82330000  1.0
  N  N449  1  0.97275000  0.01942000  0.17670000  1.0
  N  N450  1  0.44733000  0.89238000  0.82697000  1.0
  N  N451  1  0.55267000  0.10763000  0.17302000  1.0
  N  N452  1  0.31499000  0.91351000  0.84438000  1.0
  N  N453  1  0.68501000  0.08649000  0.15561000  1.0
  N  N454  1  0.21450000  0.59339000  0.95659000  1.0
  N  N455  1  0.78550000  0.40661000  0.04342000  1.0
  N  N456  1  0.20954000  0.71989000  0.93589000  1.0
  N  N457  1  0.79047000  0.28011000  0.06411000  1.0
  N  N458  1  0.27016000  0.00375000  0.15962000  1.0
  N  N459  1  0.72984000  0.99624000  0.84038000  1.0
  N  N460  1  0.30435000  0.08500000  0.08682000  1.0
  N  N461  1  0.69566000  0.91500000  0.91318000  1.0
  O  O462  1  0.97254000  0.51198000  0.30276000  1.0
  O  O463  1  0.02747000  0.48801000  0.69724000  1.0
  O  O464  1  0.91897000  0.43346000  0.26878000  1.0
  O  O465  1  0.08103000  0.56654000  0.73122000  1.0
  O  O466  1  0.09429000  0.12864000  0.27369000  1.0
  O  O467  1  0.90571000  0.87135000  0.72631000  1.0
  O  O468  1  0.22896000  0.08056000  0.29225000  1.0
  O  O469  1  0.77105000  0.91944000  0.70775000  1.0
  O  O470  1  0.35138000  0.26949000  0.32143000  1.0
  O  O471  1  0.64862000  0.73051000  0.67857000  1.0
  O  O472  1  0.27585000  0.40327000  0.29059000  1.0
  O  O473  1  0.72415000  0.59673000  0.70941000  1.0
  O  O474  1  0.71408000  0.54747000  0.25687000  1.0
  O  O475  1  0.28592000  0.45253000  0.74313000  1.0
  O  O476  1  0.67561000  0.68191000  0.26243000  1.0
  O  O477  1  0.32439000  0.31809000  0.73756000  1.0
  O  O478  1  0.50415000  0.44690000  0.25129000  1.0
  O  O479  1  0.49585000  0.55310000  0.74871000  1.0
  O  O480  1  0.37036000  0.53233000  0.26407000  1.0
  O  O481  1  0.62964000  0.46766000  0.73593000  1.0
  O  O482  1  0.28907000  0.83519000  0.24871000  1.0
  O  O483  1  0.71093000  0.16481000  0.75128000  1.0
  O  O484  1  0.37474000  0.87093000  0.29594000  1.0
  O  O485  1  0.62526000  0.12907000  0.70406000  1.0
