# generated using pymatgen
data_SmH9C10NO7
_symmetry_space_group_name_H-M   'P 1'
_cell_length_a   8.78133000
_cell_length_b   9.16832000
_cell_length_c   15.51000000
_cell_angle_alpha   89.99990000
_cell_angle_beta   89.99990000
_cell_angle_gamma   80.84650000
_symmetry_Int_Tables_number   1
_chemical_formula_structural   SmH9C10NO7
_chemical_formula_sum   'Sm4 H36 C40 N4 O28'
_cell_volume   1232.80931159
_cell_formula_units_Z   4
loop_
 _symmetry_equiv_pos_site_id
 _symmetry_equiv_pos_as_xyz
  1  'x, y, z'
loop_
 _atom_site_type_symbol
 _atom_site_label
 _atom_site_symmetry_multiplicity
 _atom_site_fract_x
 _atom_site_fract_y
 _atom_site_fract_z
 _atom_site_occupancy
  Sm  Sm0  1  0.03036000  0.89599000  0.88533000  1.0
  Sm  Sm1  1  0.46964000  0.10400000  0.38533000  1.0
  Sm  Sm2  1  0.96964000  0.10400000  0.11467000  1.0
  Sm  Sm3  1  0.53036000  0.89600000  0.61467000  1.0
  H  H4  1  0.50965000  0.20145000  0.90082000  1.0
  H  H5  1  0.99035000  0.79855000  0.40082000  1.0
  H  H6  1  0.49035000  0.79855000  0.09918000  1.0
  H  H7  1  0.00965000  0.20145000  0.59918000  1.0
  H  H8  1  0.60299000  0.27466000  0.98998000  1.0
  H  H9  1  0.89702000  0.72534000  0.48998000  1.0
  H  H10  1  0.39702000  0.72534000  0.01002000  1.0
  H  H11  1  0.10299000  0.27466000  0.51002000  1.0
  H  H12  1  0.58857000  0.05265000  0.07619000  1.0
  H  H13  1  0.91143000  0.94735000  0.57619000  1.0
  H  H14  1  0.41143000  0.94735000  0.92381000  1.0
  H  H15  1  0.08857000  0.05265000  0.42381000  1.0
  H  H16  1  0.40318000  0.13619000  0.04268000  1.0
  H  H17  1  0.09682000  0.86381000  0.54268000  1.0
  H  H18  1  0.59682000  0.86381000  0.95732000  1.0
  H  H19  1  0.90319000  0.13619000  0.45732000  1.0
  H  H20  1  0.29227000  0.23115000  0.78230000  1.0
  H  H21  1  0.20773000  0.76885000  0.28231000  1.0
  H  H22  1  0.70773000  0.76885000  0.21769000  1.0
  H  H23  1  0.79227000  0.23115000  0.71769000  1.0
  H  H24  1  0.10441000  0.52455000  0.98661000  1.0
  H  H25  1  0.39559000  0.47545000  0.48662000  1.0
  H  H26  1  0.89559000  0.47545000  0.01339000  1.0
  H  H27  1  0.60441000  0.52455000  0.51339000  1.0
  H  H28  1  0.38392000  0.45104000  0.71161000  1.0
  H  H29  1  0.11608000  0.54897000  0.21161000  1.0
  H  H30  1  0.61608000  0.54897000  0.28839000  1.0
  H  H31  1  0.88392000  0.45103000  0.78839000  1.0
  H  H32  1  0.08326000  0.01475000  0.70650000  1.0
  H  H33  1  0.41674000  0.98525000  0.20650000  1.0
  H  H34  1  0.91674000  0.98525000  0.29350000  1.0
  H  H35  1  0.58326000  0.01475000  0.79350000  1.0
  H  H36  1  0.90936000  0.97768000  0.71600000  1.0
  H  H37  1  0.59064000  0.02232000  0.21600000  1.0
  H  H38  1  0.09064000  0.02232000  0.28400000  1.0
  H  H39  1  0.40936000  0.97768000  0.78400000  1.0
  C  C40  1  0.73763000  0.09167000  0.92658000  1.0
  C  C41  1  0.76237000  0.90833000  0.42658000  1.0
  C  C42  1  0.26237000  0.90833000  0.07342000  1.0
  C  C43  1  0.23763000  0.09167000  0.57342000  1.0
  C  C44  1  0.58516000  0.17293000  0.95670000  1.0
  C  C45  1  0.91484000  0.82707000  0.45670000  1.0
  C  C46  1  0.41484000  0.82707000  0.04330000  1.0
  C  C47  1  0.08516000  0.17293000  0.54330000  1.0
  C  C48  1  0.51273000  0.07342000  0.01978000  1.0
  C  C49  1  0.98727000  0.92658000  0.51978000  1.0
  C  C50  1  0.48727000  0.92658000  0.98022000  1.0
  C  C51  1  0.01273000  0.07342000  0.48022000  1.0
  C  C52  1  0.14456000  0.23133000  0.93712000  1.0
  C  C53  1  0.35544000  0.76867000  0.43712000  1.0
  C  C54  1  0.85544000  0.76867000  0.06288000  1.0
  C  C55  1  0.64456000  0.23133000  0.56288000  1.0
  C  C56  1  0.19487000  0.36066000  0.89114000  1.0
  C  C57  1  0.30512000  0.63934000  0.39114000  1.0
  C  C58  1  0.80512000  0.63934000  0.10886000  1.0
  C  C59  1  0.69488000  0.36066000  0.60886000  1.0
  C  C60  1  0.26977000  0.34070000  0.81125000  1.0
  C  C61  1  0.23023000  0.65930000  0.31125000  1.0
  C  C62  1  0.73023000  0.65930000  0.18875000  1.0
  C  C63  1  0.76977000  0.34070000  0.68875000  1.0
  C  C64  1  0.33368000  0.73530000  0.77293000  1.0
  C  C65  1  0.16632000  0.26470000  0.27293000  1.0
  C  C66  1  0.66633000  0.26470000  0.22707000  1.0
  C  C67  1  0.83368000  0.73530000  0.72707000  1.0
  C  C68  1  0.16441000  0.50370000  0.92534000  1.0
  C  C69  1  0.33558000  0.49630000  0.42534000  1.0
  C  C70  1  0.83559000  0.49630000  0.07466000  1.0
  C  C71  1  0.66442000  0.50370000  0.57466000  1.0
  C  C72  1  0.28388000  0.59943000  0.81090000  1.0
  C  C73  1  0.21612000  0.40058000  0.31090000  1.0
  C  C74  1  0.71612000  0.40057000  0.18910000  1.0
  C  C75  1  0.78388000  0.59942000  0.68910000  1.0
  C  C76  1  0.31936000  0.46120000  0.77185000  1.0
  C  C77  1  0.18064000  0.53880000  0.27185000  1.0
  C  C78  1  0.68064000  0.53880000  0.22815000  1.0
  C  C79  1  0.81936000  0.46120000  0.72815000  1.0
  N  N80  1  0.20261000  0.62174000  0.88496000  1.0
  N  N81  1  0.29739000  0.37825000  0.38497000  1.0
  N  N82  1  0.79739000  0.37825000  0.11504000  1.0
  N  N83  1  0.70261000  0.62174000  0.61503000  1.0
  O  O84  1  0.27680000  0.85794000  0.80843000  1.0
  O  O85  1  0.22321000  0.14206000  0.30843000  1.0
  O  O86  1  0.72320000  0.14207000  0.19157000  1.0
  O  O87  1  0.77680000  0.85793000  0.69157000  1.0
  O  O88  1  0.99174000  0.02213000  0.74517000  1.0
  O  O89  1  0.50826000  0.97787000  0.24517000  1.0
  O  O90  1  0.00826000  0.97787000  0.25483000  1.0
  O  O91  1  0.49174000  0.02213000  0.75483000  1.0
  O  O92  1  0.14868000  0.11517000  0.89243000  1.0
  O  O93  1  0.35132000  0.88483000  0.39244000  1.0
  O  O94  1  0.85132000  0.88483000  0.10756000  1.0
  O  O95  1  0.64868000  0.11517000  0.60756000  1.0
  O  O96  1  0.74742000  0.01236000  0.85897000  1.0
  O  O97  1  0.75258000  0.98764000  0.35897000  1.0
  O  O98  1  0.25258000  0.98764000  0.14103000  1.0
  O  O99  1  0.24742000  0.01236000  0.64103000  1.0
  O  O100  1  0.85889000  0.09456000  0.97263000  1.0
  O  O101  1  0.64111000  0.90544000  0.47263000  1.0
  O  O102  1  0.14111000  0.90544000  0.02737000  1.0
  O  O103  1  0.35889000  0.09456000  0.52737000  1.0
  O  O104  1  0.10291000  0.24848000  0.01566000  1.0
  O  O105  1  0.39709000  0.75152000  0.51566000  1.0
  O  O106  1  0.89709000  0.75152000  0.98433000  1.0
  O  O107  1  0.60291000  0.24848000  0.48434000  1.0
  O  O108  1  0.42841000  0.72075000  0.71113000  1.0
  O  O109  1  0.07159000  0.27925000  0.21113000  1.0
  O  O110  1  0.57159000  0.27925000  0.28888000  1.0
  O  O111  1  0.92841000  0.72074000  0.78887000  1.0
