# generated using pymatgen
data_CuH5C7N2
_symmetry_space_group_name_H-M   'P 1'
_cell_length_a   26.86970000
_cell_length_b   27.31790000
_cell_length_c   28.80570000
_cell_angle_alpha   93.77230000
_cell_angle_beta   90.42960000
_cell_angle_gamma   94.48260000
_symmetry_Int_Tables_number   1
_chemical_formula_structural   CuH5C7N2
_chemical_formula_sum   'Cu12 H60 C84 N24'
_cell_volume   21032.02268921
_cell_formula_units_Z   12
loop_
 _symmetry_equiv_pos_site_id
 _symmetry_equiv_pos_as_xyz
  1  'x, y, z'
loop_
 _atom_site_type_symbol
 _atom_site_label
 _atom_site_symmetry_multiplicity
 _atom_site_fract_x
 _atom_site_fract_y
 _atom_site_fract_z
 _atom_site_occupancy
  Cu  Cu0  1  0.43565000  0.35291000  0.38989000  1.0
  Cu  Cu1  1  0.37112000  0.40904000  0.32044000  1.0
  Cu  Cu2  1  0.33485000  0.39223000  0.42269000  1.0
  Cu  Cu3  1  0.05930000  0.84457000  0.62350000  1.0
  Cu  Cu4  1  0.10758000  0.94492000  0.66938000  1.0
  Cu  Cu5  1  0.15636000  0.89538000  0.57868000  1.0
  Cu  Cu6  1  0.58343000  0.15082000  0.86978000  1.0
  Cu  Cu7  1  0.61562000  0.04798000  0.82785000  1.0
  Cu  Cu8  1  0.67649000  0.10394000  0.91270000  1.0
  Cu  Cu9  1  0.91881000  0.68468000  0.14160000  1.0
  Cu  Cu10  1  0.88202000  0.57947000  0.17246000  1.0
  Cu  Cu11  1  0.85347000  0.61020000  0.07270000  1.0
  H  H12  1  0.53683000  0.35079000  0.33385000  1.0
  H  H13  1  0.43957000  0.40316000  0.23052000  1.0
  H  H14  1  0.30766000  0.32274000  0.50493000  1.0
  H  H15  1  0.45124000  0.27348000  0.46369000  1.0
  H  H16  1  0.28630000  0.47493000  0.28645000  1.0
  H  H17  1  0.25250000  0.46939000  0.43296000  1.0
  H  H18  1  0.97581000  0.81791000  0.69750000  1.0
  H  H19  1  0.03114000  0.96378000  0.75213000  1.0
  H  H20  1  0.17207000  0.81738000  0.49346000  1.0
  H  H21  1  0.03234000  0.75696000  0.54812000  1.0
  H  H22  1  0.18805000  0.03411000  0.69345000  1.0
  H  H23  1  0.25037000  0.97112000  0.56692000  1.0
  H  H24  1  0.50515000  0.17402000  0.79227000  1.0
  H  H25  1  0.53571000  0.02545000  0.74559000  1.0
  H  H26  1  0.70754000  0.18444000  0.99442000  1.0
  H  H27  1  0.57145000  0.23988000  0.94487000  1.0
  H  H28  1  0.68050000  0.95693000  0.80753000  1.0
  H  H29  1  0.76344000  0.03280000  0.92401000  1.0
  H  H30  1  0.00075000  0.71797000  0.22060000  1.0
  H  H31  1  0.95467000  0.57043000  0.25839000  1.0
  H  H32  1  0.84600000  0.67470000  0.98553000  1.0
  H  H33  1  0.91235000  0.78348000  0.08868000  1.0
  H  H34  1  0.80163000  0.48878000  0.18231000  1.0
  H  H35  1  0.77872000  0.51874000  0.03813000  1.0
  H  H36  1  0.92198000  0.78111000  0.86154000  1.0
  H  H37  1  0.82017000  0.85567000  0.95103000  1.0
  H  H38  1  0.86381000  0.91486000  0.82123000  1.0
  H  H39  1  0.62813000  0.41912000  0.19191000  1.0
  H  H40  1  0.68811000  0.35691000  0.06503000  1.0
  H  H41  1  0.53942000  0.30926000  0.10665000  1.0
  H  H42  1  0.06917000  0.69008000  0.37879000  1.0
  H  H43  1  0.19853000  0.63647000  0.44133000  1.0
  H  H44  1  0.12171000  0.55206000  0.32705000  1.0
  H  H45  1  0.37587000  0.07999000  0.67131000  1.0
  H  H46  1  0.33465000  0.14743000  0.54717000  1.0
  H  H47  1  0.46356000  0.20732000  0.62768000  1.0
  H  H48  1  0.94433000  0.92460000  0.79498000  1.0
  H  H49  1  0.94235000  0.81175000  0.78436000  1.0
  H  H50  1  0.58326000  0.37765000  0.24824000  1.0
  H  H51  1  0.50103000  0.35554000  0.17330000  1.0
  H  H52  1  0.04455000  0.69009000  0.30366000  1.0
  H  H53  1  0.04381000  0.57720000  0.29725000  1.0
  H  H54  1  0.45302000  0.06493000  0.70003000  1.0
  H  H55  1  0.48050000  0.17649000  0.70327000  1.0
  H  H56  1  0.87066000  0.82103000  0.00586000  1.0
  H  H57  1  0.88490000  0.74023000  0.92874000  1.0
  H  H58  1  0.33227000  0.23314000  0.54081000  1.0
  H  H59  1  0.44670000  0.23616000  0.54787000  1.0
  H  H60  1  0.68371000  0.27489000  0.03877000  1.0
  H  H61  1  0.57012000  0.28016000  0.03056000  1.0
  H  H62  1  0.06036000  0.71476000  0.45870000  1.0
  H  H63  1  0.17503000  0.72124000  0.46292000  1.0
  H  H64  1  0.77577000  0.92305000  0.82519000  1.0
  H  H65  1  0.79681000  0.94122000  0.93021000  1.0
  H  H66  1  0.19995000  0.52409000  0.31755000  1.0
  H  H67  1  0.22164000  0.55496000  0.42076000  1.0
  H  H68  1  0.28769000  0.07077000  0.67265000  1.0
  H  H69  1  0.29496000  0.06408000  0.56598000  1.0
  H  H70  1  0.72416000  0.43460000  0.06571000  1.0
  H  H71  1  0.71274000  0.44358000  0.17201000  1.0
  C  C72  1  0.50665000  0.36402000  0.31408000  1.0
  C  C73  1  0.50529000  0.37557000  0.26727000  1.0
  C  C74  1  0.45659000  0.38973000  0.26101000  1.0
  C  C75  1  0.34356000  0.31677000  0.48939000  1.0
  C  C76  1  0.37752000  0.28213000  0.49934000  1.0
  C  C77  1  0.41734000  0.29216000  0.46905000  1.0
  C  C78  1  0.28405000  0.46790000  0.32307000  1.0
  C  C79  1  0.25302000  0.48743000  0.35755000  1.0
  C  C80  1  0.26746000  0.46590000  0.39810000  1.0
  C  C81  1  0.99568000  0.85365000  0.70545000  1.0
  C  C82  1  0.98771000  0.88979000  0.74116000  1.0
  C  C83  1  0.02351000  0.92850000  0.73276000  1.0
  C  C84  1  0.13877000  0.80842000  0.51327000  1.0
  C  C85  1  0.10119000  0.76996000  0.50490000  1.0
  C  C86  1  0.06690000  0.77813000  0.54066000  1.0
  C  C87  1  0.19660000  0.01256000  0.66190000  1.0
  C  C88  1  0.23701000  0.01933000  0.63164000  1.0
  C  C89  1  0.22797000  0.98103000  0.59679000  1.0
  C  C90  1  0.51902000  0.13788000  0.78646000  1.0
  C  C91  1  0.50529000  0.10026000  0.75196000  1.0
  C  C92  1  0.53394000  0.06166000  0.76319000  1.0
  C  C93  1  0.67360000  0.19175000  0.97630000  1.0
  C  C94  1  0.64123000  0.22905000  0.98601000  1.0
  C  C95  1  0.60370000  0.21968000  0.95151000  1.0
  C  C96  1  0.69496000  0.98153000  0.83650000  1.0
  C  C97  1  0.73748000  0.97850000  0.86461000  1.0
  C  C98  1  0.73687000  0.01968000  0.89655000  1.0
  C  C99  1  0.98338000  0.68115000  0.22391000  1.0
  C  C100  1  0.99418000  0.64633000  0.25565000  1.0
  C  C101  1  0.96058000  0.60548000  0.24276000  1.0
  C  C102  1  0.86382000  0.69498000  0.01565000  1.0
  C  C103  1  0.87794000  0.74561000  0.02278000  1.0
  C  C104  1  0.89673000  0.75070000  0.06870000  1.0
  C  C105  1  0.80167000  0.50291000  0.14796000  1.0
  C  C106  1  0.77344000  0.48599000  0.10792000  1.0
  C  C107  1  0.79070000  0.51787000  0.07413000  1.0
  C  C108  1  0.89773000  0.84856000  0.83704000  1.0
  C  C109  1  0.89836000  0.81149000  0.86858000  1.0
  C  C110  1  0.87221000  0.81443000  0.91063000  1.0
  C  C111  1  0.84252000  0.85405000  0.91955000  1.0
  C  C112  1  0.83785000  0.88940000  0.88684000  1.0
  C  C113  1  0.86632000  0.88675000  0.84619000  1.0
  C  C114  1  0.57943000  0.36345000  0.15393000  1.0
  C  C115  1  0.62436000  0.39284000  0.16162000  1.0
  C  C116  1  0.66315000  0.39206000  0.12924000  1.0
  C  C117  1  0.65783000  0.35863000  0.08997000  1.0
  C  C118  1  0.61373000  0.32809000  0.08176000  1.0
  C  C119  1  0.57414000  0.33244000  0.11306000  1.0
  C  C120  1  0.09185000  0.62107000  0.34790000  1.0
  C  C121  1  0.09606000  0.66228000  0.38006000  1.0
  C  C122  1  0.13398000  0.66804000  0.41416000  1.0
  C  C123  1  0.16865000  0.63218000  0.41508000  1.0
  C  C124  1  0.16515000  0.59027000  0.38391000  1.0
  C  C125  1  0.12592000  0.58490000  0.35095000  1.0
  C  C126  1  0.42409000  0.14317000  0.65396000  1.0
  C  C127  1  0.38256000  0.10879000  0.64709000  1.0
  C  C128  1  0.34977000  0.11025000  0.60909000  1.0
  C  C129  1  0.35921000  0.14680000  0.57746000  1.0
  C  C130  1  0.39944000  0.18267000  0.58424000  1.0
  C  C131  1  0.43169000  0.18007000  0.62243000  1.0
  C  C132  1  0.95249000  0.88869000  0.77898000  1.0
  C  C133  1  0.93137000  0.84786000  0.79734000  1.0
  C  C134  1  0.54522000  0.37311000  0.23388000  1.0
  C  C135  1  0.53885000  0.36441000  0.18742000  1.0
  C  C136  1  0.03192000  0.65214000  0.29217000  1.0
  C  C137  1  0.05350000  0.61503000  0.31126000  1.0
  C  C138  1  0.47044000  0.10071000  0.71335000  1.0
  C  C139  1  0.45969000  0.14150000  0.69235000  1.0
  C  C140  1  0.87444000  0.78381000  0.99050000  1.0
  C  C141  1  0.87684000  0.77661000  0.94373000  1.0
  C  C142  1  0.37094000  0.24427000  0.53215000  1.0
  C  C143  1  0.40784000  0.22253000  0.55295000  1.0
  C  C144  1  0.64617000  0.26691000  0.02375000  1.0
  C  C145  1  0.60835000  0.29087000  0.04279000  1.0
  C  C146  1  0.09801000  0.72997000  0.46905000  1.0
  C  C147  1  0.13748000  0.70907000  0.44967000  1.0
  C  C148  1  0.77318000  0.94142000  0.85995000  1.0
  C  C149  1  0.80189000  0.92674000  0.89433000  1.0
  C  C150  1  0.21605000  0.52263000  0.35239000  1.0
  C  C151  1  0.20220000  0.55423000  0.38712000  1.0
  C  C152  1  0.27865000  0.05642000  0.63695000  1.0
  C  C153  1  0.30618000  0.07475000  0.60210000  1.0
  C  C154  1  0.73369000  0.44719000  0.10177000  1.0
  C  C155  1  0.70591000  0.42831000  0.13621000  1.0
  N  N156  1  0.43107000  0.38658000  0.30096000  1.0
  N  N157  1  0.46209000  0.37025000  0.33387000  1.0
  N  N158  1  0.40760000  0.32979000  0.44326000  1.0
  N  N159  1  0.36190000  0.34531000  0.45610000  1.0
  N  N160  1  0.30427000  0.43621000  0.38838000  1.0
  N  N161  1  0.31488000  0.43766000  0.34181000  1.0
  N  N162  1  0.05091000  0.91610000  0.69541000  1.0
  N  N163  1  0.03331000  0.86975000  0.67827000  1.0
  N  N164  1  0.08322000  0.81785000  0.56845000  1.0
  N  N165  1  0.12763000  0.83697000  0.55117000  1.0
  N  N166  1  0.18555000  0.95377000  0.60581000  1.0
  N  N167  1  0.16580000  0.97360000  0.64607000  1.0
  N  N168  1  0.56286000  0.07551000  0.80097000  1.0
  N  N169  1  0.55323000  0.12274000  0.81565000  1.0
  N  N170  1  0.61314000  0.17989000  0.92374000  1.0
  N  N171  1  0.65637000  0.16226000  0.93936000  1.0
  N  N172  1  0.69707000  0.04502000  0.88793000  1.0
  N  N173  1  0.67080000  0.02110000  0.85087000  1.0
  N  N174  1  0.93236000  0.61541000  0.20622000  1.0
  N  N175  1  0.94667000  0.66232000  0.19426000  1.0
  N  N176  1  0.89453000  0.70646000  0.08713000  1.0
  N  N177  1  0.87369000  0.67192000  0.05423000  1.0
  N  N178  1  0.82595000  0.55142000  0.09271000  1.0
  N  N179  1  0.83293000  0.54187000  0.13850000  1.0
