# generated using pymatgen
data_Al2H19C24NO11
_symmetry_space_group_name_H-M   'P 1'
_cell_length_a   6.67932000
_cell_length_b   18.15210000
_cell_length_c   20.63780000
_cell_angle_alpha   72.52600000
_cell_angle_beta   89.99880000
_cell_angle_gamma   89.99870000
_symmetry_Int_Tables_number   1
_chemical_formula_structural   Al2H19C24NO11
_chemical_formula_sum   'Al4 H38 C48 N2 O22'
_cell_volume   2386.73452669
_cell_formula_units_Z   2
loop_
 _symmetry_equiv_pos_site_id
 _symmetry_equiv_pos_as_xyz
  1  'x, y, z'
loop_
 _atom_site_type_symbol
 _atom_site_label
 _atom_site_symmetry_multiplicity
 _atom_site_fract_x
 _atom_site_fract_y
 _atom_site_fract_z
 _atom_site_occupancy
  Al  Al0  1  0.13352000  0.49997000  0.50045000  1.0
  Al  Al1  1  0.63352000  0.50003000  0.49956000  1.0
  Al  Al2  1  0.61588000  0.99988000  0.99948000  1.0
  Al  Al3  1  0.11589000  0.00012000  0.00051000  1.0
  H  H4  1  0.70187000  0.12966000  0.29225000  1.0
  H  H5  1  0.20188000  0.87034000  0.70775000  1.0
  H  H6  1  0.18602000  0.21773000  0.21107000  1.0
  H  H7  1  0.68602000  0.78226000  0.78891000  1.0
  H  H8  1  0.08866000  0.13380000  0.27038000  1.0
  H  H9  1  0.58867000  0.86619000  0.72960000  1.0
  H  H10  1  0.04328000  0.19685000  0.35354000  1.0
  H  H11  1  0.54327000  0.80313000  0.64645000  1.0
  H  H12  1  0.19902000  0.27042000  0.30217000  1.0
  H  H13  1  0.69900000  0.72956000  0.69782000  1.0
  H  H14  1  0.69440000  0.30686000  0.14470000  1.0
  H  H15  1  0.19439000  0.69315000  0.85531000  1.0
  H  H16  1  0.95278000  0.30953000  0.12466000  1.0
  H  H17  1  0.45278000  0.69048000  0.87534000  1.0
  H  H18  1  0.76691000  0.39046000  0.20724000  1.0
  H  H19  1  0.26688000  0.60955000  0.79277000  1.0
  H  H20  1  0.54520000  0.19340000  0.23110000  1.0
  H  H21  1  0.04520000  0.80661000  0.76890000  1.0
  H  H22  1  0.55619000  0.28257000  0.29363000  1.0
  H  H23  1  0.05617000  0.71744000  0.70637000  1.0
  H  H24  1  0.52529000  0.14151000  0.45519000  1.0
  H  H25  1  0.38350000  0.17999000  0.37998000  1.0
  H  H26  1  0.58328000  0.27511000  0.46254000  1.0
  H  H27  1  0.43120000  0.31424000  0.39077000  1.0
  H  H28  1  0.13447000  0.23683000  0.45218000  1.0
  H  H29  1  0.23109000  0.29684000  0.49766000  1.0
  H  H30  1  0.28791000  0.19676000  0.52469000  1.0
  H  H31  1  0.02529000  0.85849000  0.54482000  1.0
  H  H32  1  0.88349000  0.82003000  0.62002000  1.0
  H  H33  1  0.08327000  0.72489000  0.53747000  1.0
  H  H34  1  0.93120000  0.68577000  0.60924000  1.0
  H  H35  1  0.63446000  0.76318000  0.54782000  1.0
  H  H36  1  0.73109000  0.70315000  0.50236000  1.0
  H  H37  1  0.78791000  0.80323000  0.47531000  1.0
  H  H38  1  0.38374000  0.40093000  0.50658000  1.0
  H  H39  1  0.88373000  0.59909000  0.49333000  1.0
  H  H40  1  0.36680000  0.09942000  0.99141000  1.0
  H  H41  1  0.86682000  0.90058000  0.00857000  1.0
  C  C42  1  0.38472000  0.57348000  0.58002000  1.0
  C  C43  1  0.88478000  0.42651000  0.41998000  1.0
  C  C44  1  0.38246000  0.60872000  0.39761000  1.0
  C  C45  1  0.88244000  0.39128000  0.60239000  1.0
  C  C46  1  0.88041000  0.32939000  0.66547000  1.0
  C  C47  1  0.38042000  0.67061000  0.33454000  1.0
  C  C48  1  0.87627000  0.27698000  0.71898000  1.0
  C  C49  1  0.37626000  0.72303000  0.28102000  1.0
  C  C50  1  0.87212000  0.21911000  0.77805000  1.0
  C  C51  1  0.37211000  0.78090000  0.22195000  1.0
  C  C52  1  0.86851000  0.16666000  0.83156000  1.0
  C  C53  1  0.36851000  0.83334000  0.16845000  1.0
  C  C54  1  0.68676000  0.18936000  0.25910000  1.0
  C  C55  1  0.18678000  0.81064000  0.74090000  1.0
  C  C56  1  0.06403000  0.19603000  0.24760000  1.0
  C  C57  1  0.56404000  0.80396000  0.75239000  1.0
  C  C58  1  0.06065000  0.23777000  0.30260000  1.0
  C  C59  1  0.56064000  0.76222000  0.69740000  1.0
  C  C60  1  0.88651000  0.38303000  0.37206000  1.0
  C  C61  1  0.38648000  0.61698000  0.62794000  1.0
  C  C62  1  0.86302000  0.20885000  0.20803000  1.0
  C  C63  1  0.36304000  0.79115000  0.79196000  1.0
  C  C64  1  0.68706000  0.24374000  0.30442000  1.0
  C  C65  1  0.18705000  0.75626000  0.69558000  1.0
  C  C66  1  0.88081000  0.29386000  0.29058000  1.0
  C  C67  1  0.38078000  0.70614000  0.70942000  1.0
  C  C68  1  0.88365000  0.34592000  0.21447000  1.0
  C  C69  1  0.38363000  0.65408000  0.78554000  1.0
  C  C70  1  0.84501000  0.29529000  0.16670000  1.0
  C  C71  1  0.34500000  0.70472000  0.83330000  1.0
  C  C72  1  0.88620000  0.34220000  0.33506000  1.0
  C  C73  1  0.38617000  0.65779000  0.66494000  1.0
  C  C74  1  0.85777000  0.16218000  0.16200000  1.0
  C  C75  1  0.35780000  0.83783000  0.83800000  1.0
  C  C76  1  0.86159000  0.12347000  0.12313000  1.0
  C  C77  1  0.36162000  0.87654000  0.87686000  1.0
  C  C78  1  0.36664000  0.89441000  0.10477000  1.0
  C  C79  1  0.86663000  0.10559000  0.89523000  1.0
  C  C80  1  0.36440000  0.92153000  0.92375000  1.0
  C  C81  1  0.86438000  0.07847000  0.07625000  1.0
  C  C82  1  0.50571000  0.19291000  0.41089000  1.0
  C  C83  1  0.45381000  0.26253000  0.43462000  1.0
  C  C84  1  0.26720000  0.24725000  0.47968000  1.0
  C  C85  1  0.00570000  0.80710000  0.58911000  1.0
  C  C86  1  0.95380000  0.73747000  0.56539000  1.0
  C  C87  1  0.76720000  0.75275000  0.52033000  1.0
  C  C88  1  0.07848000  0.38402000  0.19990000  1.0
  C  C89  1  0.57846000  0.61597000  0.80011000  1.0
  N  N90  1  0.23982000  0.40927000  0.18877000  1.0
  N  N91  1  0.73978000  0.59072000  0.81123000  1.0
  O  O92  1  0.55371000  0.58486000  0.42202000  1.0
  O  O93  1  0.05372000  0.41513000  0.57798000  1.0
  O  O94  1  0.21358000  0.55712000  0.56083000  1.0
  O  O95  1  0.71359000  0.44287000  0.43917000  1.0
  O  O96  1  0.21220000  0.58492000  0.42299000  1.0
  O  O97  1  0.71220000  0.41508000  0.57701000  1.0
  O  O98  1  0.05457000  0.44285000  0.44007000  1.0
  O  O99  1  0.55458000  0.55715000  0.55992000  1.0
  O  O100  1  0.38349000  0.45480000  0.50496000  1.0
  O  O101  1  0.88348000  0.54520000  0.49504000  1.0
  O  O102  1  0.19480000  0.93884000  0.94334000  1.0
  O  O103  1  0.69480000  0.06116000  0.05666000  1.0
  O  O104  1  0.53691000  0.91762000  0.07912000  1.0
  O  O105  1  0.03690000  0.08238000  0.92088000  1.0
  O  O106  1  0.53580000  0.93888000  0.94205000  1.0
  O  O107  1  0.03577000  0.06112000  0.05795000  1.0
  O  O108  1  0.69531000  0.08193000  0.91968000  1.0
  O  O109  1  0.19530000  0.91807000  0.08032000  1.0
  O  O110  1  0.36603000  0.04548000  0.99327000  1.0
  O  O111  1  0.86603000  0.95452000  0.00673000  1.0
  O  O112  1  0.69207000  0.20025000  0.37466000  1.0
  O  O113  1  0.19205000  0.79975000  0.62534000  1.0
