# generated using pymatgen
data_CuH13C12(NO2)2
_symmetry_space_group_name_H-M   'P 1'
_cell_length_a   8.53812000
_cell_length_b   13.21870000
_cell_length_c   15.75677247
_cell_angle_alpha   65.19241267
_cell_angle_beta   88.22616070
_cell_angle_gamma   90.00190000
_symmetry_Int_Tables_number   1
_chemical_formula_structural   CuH13C12(NO2)2
_chemical_formula_sum   'Cu4 H52 C48 N8 O16'
_cell_volume   1613.31137901
_cell_formula_units_Z   4
loop_
 _symmetry_equiv_pos_site_id
 _symmetry_equiv_pos_as_xyz
  1  'x, y, z'
loop_
 _atom_site_type_symbol
 _atom_site_label
 _atom_site_symmetry_multiplicity
 _atom_site_fract_x
 _atom_site_fract_y
 _atom_site_fract_z
 _atom_site_occupancy
  Cu  Cu0  1  0.45230000  0.08182000  0.42531000  1.0
  Cu  Cu1  1  0.04771000  0.50711000  0.57471000  1.0
  Cu  Cu2  1  0.54770000  0.91820000  0.57469000  1.0
  Cu  Cu3  1  0.95227000  0.49288000  0.42527000  1.0
  H  H4  1  0.40231000  0.33163000  0.36351000  1.0
  H  H5  1  0.09761000  0.69516000  0.63653000  1.0
  H  H6  1  0.59770000  0.66837000  0.63649000  1.0
  H  H7  1  0.90239000  0.30486000  0.36345000  1.0
  H  H8  1  0.26108000  0.48878000  0.24486000  1.0
  H  H9  1  0.23892000  0.73351000  0.75520000  1.0
  H  H10  1  0.73894000  0.51123000  0.75513000  1.0
  H  H11  1  0.76109000  0.26650000  0.24478000  1.0
  H  H12  1  0.12326000  0.26486000  0.12362000  1.0
  H  H13  1  0.37674000  0.38838000  0.87641000  1.0
  H  H14  1  0.87675000  0.73513000  0.87639000  1.0
  H  H15  1  0.62323000  0.61162000  0.12356000  1.0
  H  H16  1  0.26840000  0.11429000  0.25173000  1.0
  H  H17  1  0.23160000  0.36602000  0.74829000  1.0
  H  H18  1  0.73161000  0.88570000  0.74829000  1.0
  H  H19  1  0.76836000  0.63400000  0.25168000  1.0
  H  H20  1  0.04148000  0.65495000  0.03816000  1.0
  H  H21  1  0.45845000  0.69310000  0.96180000  1.0
  H  H22  1  0.95852000  0.34504000  0.96184000  1.0
  H  H23  1  0.54155000  0.30692000  0.03817000  1.0
  H  H24  1  0.23057000  0.62587000  0.08876000  1.0
  H  H25  1  0.26931000  0.71459000  0.91118000  1.0
  H  H26  1  0.76943000  0.37413000  0.91123000  1.0
  H  H27  1  0.73068000  0.28540000  0.08880000  1.0
  H  H28  1  0.06100000  0.59339000  0.16251000  1.0
  H  H29  1  0.43890000  0.75586000  0.83746000  1.0
  H  H30  1  0.93901000  0.40662000  0.83748000  1.0
  H  H31  1  0.56109000  0.24413000  0.16253000  1.0
  H  H32  1  0.08086000  0.93357000  0.70355000  1.0
  H  H33  1  0.41919000  0.63711000  0.29654000  1.0
  H  H34  1  0.91917000  0.06644000  0.29647000  1.0
  H  H35  1  0.58087000  0.36290000  0.70349000  1.0
  H  H36  1  0.98575000  0.92308000  0.60892000  1.0
  H  H37  1  0.51421000  0.53195000  0.39114000  1.0
  H  H38  1  0.01426000  0.07689000  0.39111000  1.0
  H  H39  1  0.48579000  0.46805000  0.60888000  1.0
  H  H40  1  0.98152000  0.12650000  0.52056000  1.0
  H  H41  1  0.51847000  0.64693000  0.47956000  1.0
  H  H42  1  0.01847000  0.87349000  0.47946000  1.0
  H  H43  1  0.48154000  0.35307000  0.52048000  1.0
  H  H44  1  0.88877000  0.08625000  0.63176000  1.0
  H  H45  1  0.61136000  0.71787000  0.36839000  1.0
  H  H46  1  0.11122000  0.91373000  0.36826000  1.0
  H  H47  1  0.38866000  0.28210000  0.63165000  1.0
  H  H48  1  0.13262000  0.14217000  0.68950000  1.0
  H  H49  1  0.36753000  0.83161000  0.31056000  1.0
  H  H50  1  0.86736000  0.85786000  0.31050000  1.0
  H  H51  1  0.63254000  0.16838000  0.68946000  1.0
  H  H52  1  0.22969000  0.16987000  0.58063000  1.0
  H  H53  1  0.27037000  0.75048000  0.41941000  1.0
  H  H54  1  0.77029000  0.83012000  0.41938000  1.0
  H  H55  1  0.72964000  0.24955000  0.58057000  1.0
  C  C56  1  0.33942000  0.32068000  0.30870000  1.0
  C  C57  1  0.16054000  0.62932000  0.69129000  1.0
  C  C58  1  0.66059000  0.67933000  0.69130000  1.0
  C  C59  1  0.83945000  0.37070000  0.30868000  1.0
  C  C60  1  0.26132000  0.40855000  0.24105000  1.0
  C  C61  1  0.23861000  0.64951000  0.75895000  1.0
  C  C62  1  0.73869000  0.59147000  0.75894000  1.0
  C  C63  1  0.76139000  0.35051000  0.24102000  1.0
  C  C64  1  0.18282000  0.39076000  0.17155000  1.0
  C  C65  1  0.31723000  0.56228000  0.82844000  1.0
  C  C66  1  0.81720000  0.60923000  0.82846000  1.0
  C  C67  1  0.68275000  0.43772000  0.17154000  1.0
  C  C68  1  0.18404000  0.28232000  0.17583000  1.0
  C  C69  1  0.31600000  0.45808000  0.82423000  1.0
  C  C70  1  0.81597000  0.71768000  0.82418000  1.0
  C  C71  1  0.68398000  0.54192000  0.17575000  1.0
  C  C72  1  0.26422000  0.19947000  0.24604000  1.0
  C  C73  1  0.23576000  0.44545000  0.75403000  1.0
  C  C74  1  0.73579000  0.80052000  0.75397000  1.0
  C  C75  1  0.76421000  0.55456000  0.24595000  1.0
  C  C76  1  0.10331000  0.48271000  0.09650000  1.0
  C  C77  1  0.39669000  0.57920000  0.90348000  1.0
  C  C78  1  0.89670000  0.51729000  0.90350000  1.0
  C  C79  1  0.60329000  0.42080000  0.09651000  1.0
  C  C80  1  0.10836000  0.59631000  0.09587000  1.0
  C  C81  1  0.39155000  0.69217000  0.90410000  1.0
  C  C82  1  0.89165000  0.40368000  0.90413000  1.0
  C  C83  1  0.60843000  0.30783000  0.09588000  1.0
  C  C84  1  0.22670000  0.97430000  0.58055000  1.0
  C  C85  1  0.27335000  0.55482000  0.41950000  1.0
  C  C86  1  0.77331000  0.02571000  0.41946000  1.0
  C  C87  1  0.72665000  0.44517000  0.58050000  1.0
  C  C88  1  0.06806000  0.97428000  0.62737000  1.0
  C  C89  1  0.43199000  0.60163000  0.37271000  1.0
  C  C90  1  0.93194000  0.02571000  0.37265000  1.0
  C  C91  1  0.56803000  0.39837000  0.62732000  1.0
  C  C92  1  0.00275000  0.09184000  0.59568000  1.0
  C  C93  1  0.49733000  0.68744000  0.40443000  1.0
  C  C94  1  0.99724000  0.90815000  0.40434000  1.0
  C  C95  1  0.50270000  0.31254000  0.59561000  1.0
  C  C96  1  0.11459000  0.16989000  0.61437000  1.0
  C  C97  1  0.38552000  0.78422000  0.38569000  1.0
  C  C98  1  0.88539000  0.83010000  0.38564000  1.0
  C  C99  1  0.61452000  0.21579000  0.61432000  1.0
  C  C100  1  0.06719000  0.29143000  0.57380000  1.0
  C  C101  1  0.43281000  0.86520000  0.42623000  1.0
  C  C102  1  0.93277000  0.70856000  0.42618000  1.0
  C  C103  1  0.56720000  0.13481000  0.57378000  1.0
  N  N104  1  0.34307000  0.21797000  0.31113000  1.0
  N  N105  1  0.15699000  0.52905000  0.68886000  1.0
  N  N106  1  0.65694000  0.78204000  0.68887000  1.0
  N  N107  1  0.84298000  0.47095000  0.31112000  1.0
  N  N108  1  0.03538000  0.45651000  0.03519000  1.0
  N  N109  1  0.46462000  0.49172000  0.96480000  1.0
  N  N110  1  0.96463000  0.54348000  0.96481000  1.0
  N  N111  1  0.53537000  0.50829000  0.03517000  1.0
  O  O112  1  0.32892000  0.90638000  0.62956000  1.0
  O  O113  1  0.17120000  0.53591000  0.37046000  1.0
  O  O114  1  0.67109000  0.09363000  0.37044000  1.0
  O  O115  1  0.82884000  0.46405000  0.62954000  1.0
  O  O116  1  0.09256000  0.34419000  0.62380000  1.0
  O  O117  1  0.40732000  0.96796000  0.37623000  1.0
  O  O118  1  0.90741000  0.65582000  0.37617000  1.0
  O  O119  1  0.59267000  0.03203000  0.62379000  1.0
  O  O120  1  0.24519000  0.04469000  0.49579000  1.0
  O  O121  1  0.25483000  0.54046000  0.50425000  1.0
  O  O122  1  0.75480000  0.95532000  0.50423000  1.0
  O  O123  1  0.74513000  0.45957000  0.49574000  1.0
  O  O124  1  0.01042000  0.33177000  0.49257000  1.0
  O  O125  1  0.48966000  0.82434000  0.50745000  1.0
  O  O126  1  0.98953000  0.66821000  0.50742000  1.0
  O  O127  1  0.51037000  0.17568000  0.49255000  1.0
