# generated using pymatgen
data_Cd5H16C18N16(Cl3O)2
_symmetry_space_group_name_H-M   'P 1'
_cell_length_a   8.81153000
_cell_length_b   9.06727000
_cell_length_c   10.08590000
_cell_angle_alpha   73.90250000
_cell_angle_beta   83.54350000
_cell_angle_gamma   78.28760000
_symmetry_Int_Tables_number   1
_chemical_formula_structural   Cd5H16C18N16(Cl3O)2
_chemical_formula_sum   'Cd5 H16 C18 N16 Cl6 O2'
_cell_volume   756.76034270
_cell_formula_units_Z   1
loop_
 _symmetry_equiv_pos_site_id
 _symmetry_equiv_pos_as_xyz
  1  'x, y, z'
loop_
 _atom_site_type_symbol
 _atom_site_label
 _atom_site_symmetry_multiplicity
 _atom_site_fract_x
 _atom_site_fract_y
 _atom_site_fract_z
 _atom_site_occupancy
  Cd  Cd0  1  0.18637000  0.93421000  0.37783000  1.0
  Cd  Cd1  1  0.81363000  0.06580000  0.62217000  1.0
  Cd  Cd2  1  0.42154000  0.88347000  0.70757000  1.0
  Cd  Cd3  1  0.57846000  0.11653000  0.29242000  1.0
  Cd  Cd4  1  0.50000000  0.50000000  0.00000000  1.0
  H  H5  1  0.86099000  0.53706000  0.30406000  1.0
  H  H6  1  0.13901000  0.46293000  0.69594000  1.0
  H  H7  1  0.68428000  0.78877000  0.22101000  1.0
  H  H8  1  0.31572000  0.21123000  0.77899000  1.0
  H  H9  1  0.00610000  0.90891000  0.86900000  1.0
  H  H10  1  0.99391000  0.09109000  0.13100000  1.0
  H  H11  1  0.17293000  0.65495000  0.94662000  1.0
  H  H12  1  0.82707000  0.34505000  0.05338000  1.0
  H  H13  1  0.32976000  0.54634000  0.34599000  1.0
  H  H14  1  0.67024000  0.45367000  0.65401000  1.0
  H  H15  1  0.20332000  0.43676000  0.47073000  1.0
  H  H16  1  0.79668000  0.56324000  0.52927000  1.0
  H  H17  1  0.32837000  0.53986000  0.52483000  1.0
  H  H18  1  0.67163000  0.46014000  0.47516000  1.0
  H  H19  1  0.06310000  0.67908000  0.36328000  1.0
  H  H20  1  0.93691000  0.32092000  0.63672000  1.0
  C  C21  1  0.13141000  0.43058000  0.18394000  1.0
  C  C22  1  0.86859000  0.56942000  0.81606000  1.0
  C  C23  1  0.03223000  0.58188000  0.13503000  1.0
  C  C24  1  0.96776000  0.41812000  0.86497000  1.0
  C  C25  1  0.89312000  0.62153000  0.21079000  1.0
  C  C26  1  0.10688000  0.37846000  0.78921000  1.0
  C  C27  1  0.79401000  0.76290000  0.16317000  1.0
  C  C28  1  0.20599000  0.23710000  0.83683000  1.0
  C  C29  1  0.83391000  0.86828000  0.03950000  1.0
  C  C30  1  0.16610000  0.13172000  0.96049000  1.0
  C  C31  1  0.73712000  0.01989000  0.98593000  1.0
  C  C32  1  0.26288000  0.98010000  0.01407000  1.0
  C  C33  1  0.97305000  0.82831000  0.96467000  1.0
  C  C34  1  0.02695000  0.17169000  0.03533000  1.0
  C  C35  1  0.07014000  0.68618000  0.01064000  1.0
  C  C36  1  0.92986000  0.31381000  0.98936000  1.0
  C  C37  1  0.25726000  0.54116000  0.44212000  1.0
  C  C38  1  0.74274000  0.45884000  0.55787000  1.0
  N  N39  1  0.08053000  0.30976000  0.27713000  1.0
  N  N40  1  0.91947000  0.69024000  0.72287000  1.0
  N  N41  1  0.20234000  0.19509000  0.29306000  1.0
  N  N42  1  0.79766000  0.80491000  0.70694000  1.0
  N  N43  1  0.32416000  0.24122000  0.21474000  1.0
  N  N44  1  0.67584000  0.75878000  0.78526000  1.0
  N  N45  1  0.28276000  0.38996000  0.14421000  1.0
  N  N46  1  0.71724000  0.61004000  0.85579000  1.0
  N  N47  1  0.73441000  0.09884000  0.85038000  1.0
  N  N48  1  0.26559000  0.90116000  0.14962000  1.0
  N  N49  1  0.64056000  0.23662000  0.84355000  1.0
  N  N50  1  0.35944000  0.76338000  0.15645000  1.0
  N  N51  1  0.58772000  0.24239000  0.96872000  1.0
  N  N52  1  0.41228000  0.75761000  0.03128000  1.0
  N  N53  1  0.64502000  0.10833000  0.06113000  1.0
  N  N54  1  0.35498000  0.89167000  0.93887000  1.0
  Cl  Cl55  1  0.13159000  0.00276000  0.62378000  1.0
  Cl  Cl56  1  0.86841000  0.99724000  0.37622000  1.0
  Cl  Cl57  1  0.48597000  0.85395000  0.42686000  1.0
  Cl  Cl58  1  0.51403000  0.14605000  0.57314000  1.0
  Cl  Cl59  1  0.37271000  0.60254000  0.76211000  1.0
  Cl  Cl60  1  0.62729000  0.39746000  0.23789000  1.0
  O  O61  1  0.13655000  0.67953000  0.42899000  1.0
  O  O62  1  0.86345000  0.32047000  0.57101000  1.0
