# generated using pymatgen
data_MgH8C6S2(NO4)2
_symmetry_space_group_name_H-M   'P 1'
_cell_length_a   5.02180000
_cell_length_b   7.41639000
_cell_length_c   7.75827000
_cell_angle_alpha   84.37550000
_cell_angle_beta   85.82360000
_cell_angle_gamma   72.44250000
_symmetry_Int_Tables_number   1
_chemical_formula_structural   MgH8C6S2(NO4)2
_chemical_formula_sum   'Mg1 H8 C6 S2 N2 O8'
_cell_volume   273.87404385
_cell_formula_units_Z   1
loop_
 _symmetry_equiv_pos_site_id
 _symmetry_equiv_pos_as_xyz
  1  'x, y, z'
loop_
 _atom_site_type_symbol
 _atom_site_label
 _atom_site_symmetry_multiplicity
 _atom_site_fract_x
 _atom_site_fract_y
 _atom_site_fract_z
 _atom_site_occupancy
  Mg  Mg0  1  0.50000000  0.00000000  0.00000000  1.0
  H  H1  1  0.02280000  0.98683000  0.18220000  1.0
  H  H2  1  0.97720000  0.01317000  0.81780000  1.0
  H  H3  1  0.24841000  0.78546000  0.22409000  1.0
  H  H4  1  0.75159000  0.21454000  0.77591000  1.0
  H  H5  1  0.03270000  0.29933000  0.01805000  1.0
  H  H6  1  0.96729000  0.70067000  0.98195000  1.0
  H  H7  1  0.25683000  0.37133000  0.89962000  1.0
  H  H8  1  0.74316000  0.62867000  0.10039000  1.0
  C  C9  1  0.97861000  0.41637000  0.54150000  1.0
  C  C10  1  0.02139000  0.58363000  0.45850000  1.0
  C  C11  1  0.36520000  0.37699000  0.33034000  1.0
  C  C12  1  0.63479000  0.62301000  0.66966000  1.0
  C  C13  1  0.61352000  0.29304000  0.21462000  1.0
  C  C14  1  0.38648000  0.70696000  0.78539000  1.0
  S  S15  1  0.22592000  0.22199000  0.46467000  1.0
  S  S16  1  0.77408000  0.77801000  0.53533000  1.0
  N  N17  1  0.24003000  0.56088000  0.34083000  1.0
  N  N18  1  0.75997000  0.43912000  0.65917000  1.0
  O  O19  1  0.21250000  0.25441000  0.94836000  1.0
  O  O20  1  0.78750000  0.74559000  0.05165000  1.0
  O  O21  1  0.22688000  0.91919000  0.17930000  1.0
  O  O22  1  0.77312000  0.08081000  0.82070000  1.0
  O  O23  1  0.74856000  0.39955000  0.14060000  1.0
  O  O24  1  0.25145000  0.60045000  0.85940000  1.0
  O  O25  1  0.67286000  0.11455000  0.20130000  1.0
  O  O26  1  0.32714000  0.88545000  0.79870000  1.0
