# generated using pymatgen
data_Cu2H9C11I2N3
_symmetry_space_group_name_H-M   'P 1'
_cell_length_a   9.77518000
_cell_length_b   11.34010000
_cell_length_c   12.26100000
_cell_angle_alpha   90.00000000
_cell_angle_beta   90.00000000
_cell_angle_gamma   93.45740000
_symmetry_Int_Tables_number   1
_chemical_formula_structural   Cu2H9C11I2N3
_chemical_formula_sum   'Cu8 H36 C44 I8 N12'
_cell_volume   1356.67669855
_cell_formula_units_Z   4
loop_
 _symmetry_equiv_pos_site_id
 _symmetry_equiv_pos_as_xyz
  1  'x, y, z'
loop_
 _atom_site_type_symbol
 _atom_site_label
 _atom_site_symmetry_multiplicity
 _atom_site_fract_x
 _atom_site_fract_y
 _atom_site_fract_z
 _atom_site_occupancy
  Cu  Cu0  1  0.87432000  0.55575000  0.69870000  1.0
  Cu  Cu1  1  0.62568000  0.94425000  0.19869000  1.0
  Cu  Cu2  1  0.12568000  0.44425000  0.30131000  1.0
  Cu  Cu3  1  0.37432000  0.05575000  0.80130000  1.0
  Cu  Cu4  1  0.98100000  0.38490000  0.47433000  1.0
  Cu  Cu5  1  0.51900000  0.11510000  0.97433000  1.0
  Cu  Cu6  1  0.01900000  0.61510000  0.52567000  1.0
  Cu  Cu7  1  0.48101000  0.88490000  0.02567000  1.0
  H  H8  1  0.14721000  0.42232000  0.72723000  1.0
  H  H9  1  0.35280000  0.07767000  0.22722000  1.0
  H  H10  1  0.85280000  0.57767000  0.27277000  1.0
  H  H11  1  0.64720000  0.92233000  0.77277000  1.0
  H  H12  1  0.23476000  0.28826000  0.86878000  1.0
  H  H13  1  0.26524000  0.21173000  0.36877000  1.0
  H  H14  1  0.76524000  0.71173000  0.13123000  1.0
  H  H15  1  0.73476000  0.78827000  0.63123000  1.0
  H  H16  1  0.08640000  0.23825000  0.03451000  1.0
  H  H17  1  0.41360000  0.26175000  0.53451000  1.0
  H  H18  1  0.91360000  0.76175000  0.96549000  1.0
  H  H19  1  0.58640000  0.73826000  0.46549000  1.0
  H  H20  1  0.86078000  0.32933000  0.04988000  1.0
  H  H21  1  0.63922000  0.17067000  0.54987000  1.0
  H  H22  1  0.13922000  0.67066000  0.95013000  1.0
  H  H23  1  0.36077000  0.82934000  0.45013000  1.0
  H  H24  1  0.68648000  0.45886000  0.96829000  1.0
  H  H25  1  0.81352000  0.04114000  0.46829000  1.0
  H  H26  1  0.31352000  0.54114000  0.03171000  1.0
  H  H27  1  0.18647000  0.95886000  0.53170000  1.0
  H  H28  1  0.67099000  0.70909000  0.96146000  1.0
  H  H29  1  0.82901000  0.79091000  0.46145000  1.0
  H  H30  1  0.32902000  0.29091000  0.03855000  1.0
  H  H31  1  0.17098000  0.20908000  0.53854000  1.0
  H  H32  1  0.28712000  0.78640000  0.84731000  1.0
  H  H33  1  0.21288000  0.71360000  0.34731000  1.0
  H  H34  1  0.71287000  0.21360000  0.15269000  1.0
  H  H35  1  0.78712000  0.28640000  0.65269000  1.0
  H  H36  1  0.29251000  0.63213000  0.70334000  1.0
  H  H37  1  0.20749000  0.86786000  0.20334000  1.0
  H  H38  1  0.70749000  0.36787000  0.29666000  1.0
  H  H39  1  0.79251000  0.13214000  0.79667000  1.0
  H  H40  1  0.50363000  0.51506000  0.68465000  1.0
  H  H41  1  0.99637000  0.98493000  0.18465000  1.0
  H  H42  1  0.49637000  0.48494000  0.31535000  1.0
  H  H43  1  0.00363000  0.01507000  0.81535000  1.0
  C  C44  1  0.08667000  0.39936000  0.79986000  1.0
  C  C45  1  0.41333000  0.10063000  0.29985000  1.0
  C  C46  1  0.91333000  0.60063000  0.20015000  1.0
  C  C47  1  0.58667000  0.89937000  0.70015000  1.0
  C  C48  1  0.13486000  0.32481000  0.87991000  1.0
  C  C49  1  0.36515000  0.17518000  0.37989000  1.0
  C  C50  1  0.86515000  0.67518000  0.12010000  1.0
  C  C51  1  0.63485000  0.82482000  0.62010000  1.0
  C  C52  1  0.05289000  0.29713000  0.97078000  1.0
  C  C53  1  0.44711000  0.20287000  0.47078000  1.0
  C  C54  1  0.94711000  0.70286000  0.02922000  1.0
  C  C55  1  0.55289000  0.79714000  0.52922000  1.0
  C  C56  1  0.92634000  0.34636000  0.97909000  1.0
  C  C57  1  0.57366000  0.15364000  0.47908000  1.0
  C  C58  1  0.07366000  0.65364000  0.02091000  1.0
  C  C59  1  0.42634000  0.84637000  0.52091000  1.0
  C  C60  1  0.88431000  0.41905000  0.89494000  1.0
  C  C61  1  0.61569000  0.08095000  0.39493000  1.0
  C  C62  1  0.11569000  0.58094000  0.10507000  1.0
  C  C63  1  0.38431000  0.91906000  0.60506000  1.0
  C  C64  1  0.75439000  0.47469000  0.89805000  1.0
  C  C65  1  0.74560000  0.02531000  0.39804000  1.0
  C  C66  1  0.24560000  0.52531000  0.10196000  1.0
  C  C67  1  0.25439000  0.97469000  0.60196000  1.0
  C  C68  1  0.60166000  0.60219000  0.82368000  1.0
  C  C69  1  0.89834000  0.89780000  0.32368000  1.0
  C  C70  1  0.39833000  0.39781000  0.17632000  1.0
  C  C71  1  0.10166000  0.10219000  0.67632000  1.0
  C  C72  1  0.58835000  0.68907000  0.90352000  1.0
  C  C73  1  0.91165000  0.81093000  0.40352000  1.0
  C  C74  1  0.41165000  0.31093000  0.09648000  1.0
  C  C75  1  0.08834000  0.18907000  0.59648000  1.0
  C  C76  1  0.37454000  0.73160000  0.83986000  1.0
  C  C77  1  0.12546000  0.76839000  0.33986000  1.0
  C  C78  1  0.62546000  0.26840000  0.16014000  1.0
  C  C79  1  0.87454000  0.23160000  0.66014000  1.0
  C  C80  1  0.37917000  0.64577000  0.75882000  1.0
  C  C81  1  0.12083000  0.85423000  0.25882000  1.0
  C  C82  1  0.62083000  0.35423000  0.24118000  1.0
  C  C83  1  0.87917000  0.14577000  0.74118000  1.0
  C  C84  1  0.49492000  0.58115000  0.74836000  1.0
  C  C85  1  0.00507000  0.91885000  0.24836000  1.0
  C  C86  1  0.50507000  0.41885000  0.25164000  1.0
  C  C87  1  0.99493000  0.08115000  0.75164000  1.0
  I  I88  1  0.76423000  0.50444000  0.50980000  1.0
  I  I89  1  0.73577000  0.99557000  0.00979000  1.0
  I  I90  1  0.23577000  0.49556000  0.49021000  1.0
  I  I91  1  0.26423000  0.00444000  0.99020000  1.0
  I  I92  1  0.01606000  0.75389000  0.70511000  1.0
  I  I93  1  0.48394000  0.74611000  0.20511000  1.0
  I  I94  1  0.98394000  0.24611000  0.29489000  1.0
  I  I95  1  0.51607000  0.25390000  0.79489000  1.0
  N  N96  1  0.96292000  0.44410000  0.80533000  1.0
  N  N97  1  0.53708000  0.05590000  0.30532000  1.0
  N  N98  1  0.03708000  0.55589000  0.19467000  1.0
  N  N99  1  0.46292000  0.94411000  0.69467000  1.0
  N  N100  1  0.72291000  0.54232000  0.81777000  1.0
  N  N101  1  0.77710000  0.95768000  0.31776000  1.0
  N  N102  1  0.27710000  0.45768000  0.18223000  1.0
  N  N103  1  0.22290000  0.04232000  0.68223000  1.0
  N  N104  1  0.47825000  0.75412000  0.91069000  1.0
  N  N105  1  0.02175000  0.74588000  0.41069000  1.0
  N  N106  1  0.52175000  0.24588000  0.08931000  1.0
  N  N107  1  0.97825000  0.25412000  0.58931000  1.0
