# generated using pymatgen
data_CsH21C18SO10
_symmetry_space_group_name_H-M   'P 1'
_cell_length_a   7.47041000
_cell_length_b   8.29023000
_cell_length_c   16.96546983
_cell_angle_alpha   103.95288286
_cell_angle_beta   94.62218406
_cell_angle_gamma   97.42990000
_symmetry_Int_Tables_number   1
_chemical_formula_structural   CsH21C18SO10
_chemical_formula_sum   'Cs2 H42 C36 S2 O20'
_cell_volume   1004.29028766
_cell_formula_units_Z   2
loop_
 _symmetry_equiv_pos_site_id
 _symmetry_equiv_pos_as_xyz
  1  'x, y, z'
loop_
 _atom_site_type_symbol
 _atom_site_label
 _atom_site_symmetry_multiplicity
 _atom_site_fract_x
 _atom_site_fract_y
 _atom_site_fract_z
 _atom_site_occupancy
  Cs  Cs0  1  0.70258000  0.07945000  0.93054000  1.0
  Cs  Cs1  1  0.29743000  0.92055000  0.06946000  1.0
  H  H2  1  0.33384000  0.64935000  0.72434000  1.0
  H  H3  1  0.66616000  0.35065000  0.27566000  1.0
  H  H4  1  0.43792000  0.83613000  0.70114000  1.0
  H  H5  1  0.56208000  0.16387000  0.29886000  1.0
  H  H6  1  0.38324000  0.84183000  0.80323000  1.0
  H  H7  1  0.61676000  0.15817000  0.19677000  1.0
  H  H8  1  0.51033000  0.64032000  0.61077000  1.0
  H  H9  1  0.48967000  0.35968000  0.38923000  1.0
  H  H10  1  0.66852000  0.45653000  0.51282000  1.0
  H  H11  1  0.33148000  0.54347000  0.48718000  1.0
  H  H12  1  0.04316000  0.41627000  0.71150000  1.0
  H  H13  1  0.95683000  0.58373000  0.28850000  1.0
  H  H14  1  0.80891000  0.05193000  0.30217000  1.0
  H  H15  1  0.19109000  0.94807000  0.69783000  1.0
  H  H16  1  0.00946000  0.88432000  0.21715000  1.0
  H  H17  1  0.99054000  0.11567000  0.78285000  1.0
  H  H18  1  0.42554000  0.01348000  0.42540000  1.0
  H  H19  1  0.57446000  0.98651000  0.57460000  1.0
  H  H20  1  0.22171000  0.36932000  0.62359000  1.0
  H  H21  1  0.77829000  0.63068000  0.37641000  1.0
  H  H22  1  0.45429000  0.72143000  0.34035000  1.0
  H  H23  1  0.54572000  0.27858000  0.65966000  1.0
  H  H24  1  0.58247000  0.91392000  0.33433000  1.0
  H  H25  1  0.41753000  0.08608000  0.66567000  1.0
  H  H26  1  0.48568000  0.59781000  0.19062000  1.0
  H  H27  1  0.51432000  0.40219000  0.80938000  1.0
  H  H28  1  0.70240000  0.66102000  0.24993000  1.0
  H  H29  1  0.29760000  0.33898000  0.75007000  1.0
  H  H30  1  0.62461000  0.78887000  0.18883000  1.0
  H  H31  1  0.37539000  0.21114000  0.81117000  1.0
  H  H32  1  0.09256000  0.39067000  0.90966000  1.0
  H  H33  1  0.90744000  0.60933000  0.09034000  1.0
  H  H34  1  0.13891000  0.36502000  0.99782000  1.0
  H  H35  1  0.86109000  0.63498000  0.00218000  1.0
  H  H36  1  0.65472000  0.37070000  0.10109000  1.0
  H  H37  1  0.34528000  0.62930000  0.89891000  1.0
  H  H38  1  0.44358000  0.36313000  0.08361000  1.0
  H  H39  1  0.55642000  0.63687000  0.91639000  1.0
  H  H40  1  0.22227000  0.14671000  0.91546000  1.0
  H  H41  1  0.77773000  0.85329000  0.08454000  1.0
  H  H42  1  0.17640000  0.95179000  0.88525000  1.0
  H  H43  1  0.82359000  0.04821000  0.11475000  1.0
  C  C44  1  0.42965000  0.76694000  0.74862000  1.0
  C  C45  1  0.57035000  0.23307000  0.25139000  1.0
  C  C46  1  0.68862000  0.63487000  0.71676000  1.0
  C  C47  1  0.31138000  0.36513000  0.28324000  1.0
  C  C48  1  0.62737000  0.59121000  0.63307000  1.0
  C  C49  1  0.37263000  0.40879000  0.36693000  1.0
  C  C50  1  0.71813000  0.48882000  0.57740000  1.0
  C  C51  1  0.28187000  0.51118000  0.42260000  1.0
  C  C52  1  0.87099000  0.42367000  0.60286000  1.0
  C  C53  1  0.12901000  0.57633000  0.39714000  1.0
  C  C54  1  0.93032000  0.46765000  0.68718000  1.0
  C  C55  1  0.06968000  0.53235000  0.31282000  1.0
  C  C56  1  0.84395000  0.57292000  0.74339000  1.0
  C  C57  1  0.15605000  0.42707000  0.25661000  1.0
  C  C58  1  0.96720000  0.31425000  0.54430000  1.0
  C  C59  1  0.03280000  0.68575000  0.45570000  1.0
  C  C60  1  0.88092000  0.21881000  0.46231000  1.0
  C  C61  1  0.11908000  0.78119000  0.53769000  1.0
  C  C62  1  0.99953000  0.12383000  0.41121000  1.0
  C  C63  1  0.00047000  0.87617000  0.58879000  1.0
  C  C64  1  0.94276000  0.04039000  0.32840000  1.0
  C  C65  1  0.05724000  0.95961000  0.67160000  1.0
  C  C66  1  0.05382000  0.94801000  0.28113000  1.0
  C  C67  1  0.94617000  0.05199000  0.71887000  1.0
  C  C68  1  0.22855000  0.93468000  0.31559000  1.0
  C  C69  1  0.77144000  0.06532000  0.68441000  1.0
  C  C70  1  0.29008000  0.01537000  0.39724000  1.0
  C  C71  1  0.70992000  0.98463000  0.60276000  1.0
  C  C72  1  0.17516000  0.11101000  0.44257000  1.0
  C  C73  1  0.82483000  0.88899000  0.55743000  1.0
  C  C74  1  0.14316000  0.29926000  0.56600000  1.0
  C  C75  1  0.85684000  0.70074000  0.43400000  1.0
  C  C76  1  0.49329000  0.79914000  0.29841000  1.0
  C  C77  1  0.50671000  0.20086000  0.70159000  1.0
  C  C78  1  0.58117000  0.70613000  0.22769000  1.0
  C  C79  1  0.41884000  0.29387000  0.77231000  1.0
  S  S80  1  0.92990000  0.62531000  0.84898000  1.0
  S  S81  1  0.07011000  0.37469000  0.15102000  1.0
  O  O82  1  0.09161000  0.30424000  0.94093000  1.0
  O  O83  1  0.90839000  0.69576000  0.05907000  1.0
  O  O84  1  0.54676000  0.30920000  0.06428000  1.0
  O  O85  1  0.45324000  0.69080000  0.93572000  1.0
  O  O86  1  0.28059000  0.04354000  0.90124000  1.0
  O  O87  1  0.71941000  0.95646000  0.09876000  1.0
  O  O88  1  0.60516000  0.73190000  0.77449000  1.0
  O  O89  1  0.39484000  0.26810000  0.22551000  1.0
  O  O90  1  0.71839000  0.21688000  0.43672000  1.0
  O  O91  1  0.28161000  0.78312000  0.56328000  1.0
  O  O92  1  0.24544000  0.19862000  0.52071000  1.0
  O  O93  1  0.75456000  0.80138000  0.47929000  1.0
  O  O94  1  0.32872000  0.84393000  0.26357000  1.0
  O  O95  1  0.67128000  0.15606000  0.73643000  1.0
  O  O96  1  0.09380000  0.54337000  0.85252000  1.0
  O  O97  1  0.90620000  0.45663000  0.14748000  1.0
  O  O98  1  0.78721000  0.55704000  0.89272000  1.0
  O  O99  1  0.21279000  0.44297000  0.10728000  1.0
  O  O100  1  0.97168000  0.80974000  0.87555000  1.0
  O  O101  1  0.02832000  0.19027000  0.12445000  1.0
