# generated using pymatgen
data_NaPH8C12(NO4)2
_symmetry_space_group_name_H-M   'P 1'
_cell_length_a   7.05110000
_cell_length_b   9.75234000
_cell_length_c   11.27130000
_cell_angle_alpha   104.62900000
_cell_angle_beta   107.07700000
_cell_angle_gamma   104.74100000
_symmetry_Int_Tables_number   1
_chemical_formula_structural   NaPH8C12(NO4)2
_chemical_formula_sum   'Na2 P2 H16 C24 N4 O16'
_cell_volume   670.10517905
_cell_formula_units_Z   2
loop_
 _symmetry_equiv_pos_site_id
 _symmetry_equiv_pos_as_xyz
  1  'x, y, z'
loop_
 _atom_site_type_symbol
 _atom_site_label
 _atom_site_symmetry_multiplicity
 _atom_site_fract_x
 _atom_site_fract_y
 _atom_site_fract_z
 _atom_site_occupancy
  Na  Na0  1  0.75673000  0.41031000  0.38923000  1.0
  Na  Na1  1  0.24318000  0.58965000  0.61075000  1.0
  P  P2  1  0.19405000  0.36861000  0.29383000  1.0
  P  P3  1  0.80593000  0.63135000  0.70614000  1.0
  H  H4  1  0.15473000  0.57384000  0.00464000  1.0
  H  H5  1  0.84523000  0.42624000  0.99536000  1.0
  H  H6  1  0.31626000  0.84659000  0.04252000  1.0
  H  H7  1  0.68374000  0.15334000  0.95744000  1.0
  H  H8  1  0.59702000  0.93846000  0.46226000  1.0
  H  H9  1  0.40304000  0.06151000  0.53776000  1.0
  H  H10  1  0.43931000  0.66611000  0.42617000  1.0
  H  H11  1  0.56062000  0.33392000  0.57384000  1.0
  H  H12  1  0.79350000  0.94833000  0.99164000  1.0
  H  H13  1  0.20648000  0.05167000  0.00838000  1.0
  H  H14  1  0.69298000  0.69618000  0.01711000  1.0
  H  H15  1  0.30709000  0.30383000  0.98293000  1.0
  H  H16  1  0.06381000  0.90747000  0.43655000  1.0
  H  H17  1  0.93620000  0.09254000  0.56342000  1.0
  H  H18  1  0.16546000  0.16167000  0.41284000  1.0
  H  H19  1  0.83451000  0.83833000  0.58714000  1.0
  C  C20  1  0.28171000  0.60317000  0.21232000  1.0
  C  C21  1  0.71833000  0.39680000  0.78764000  1.0
  C  C22  1  0.24828000  0.65465000  0.10470000  1.0
  C  C23  1  0.75172000  0.34535000  0.89528000  1.0
  C  C24  1  0.33865000  0.80667000  0.12557000  1.0
  C  C25  1  0.66130000  0.19334000  0.87440000  1.0
  C  C26  1  0.46311000  0.90758000  0.25543000  1.0
  C  C27  1  0.53686000  0.09242000  0.74457000  1.0
  C  C28  1  0.49826000  0.85734000  0.36299000  1.0
  C  C29  1  0.50168000  0.14266000  0.63701000  1.0
  C  C30  1  0.40853000  0.70509000  0.34234000  1.0
  C  C31  1  0.59147000  0.29490000  0.65764000  1.0
  C  C32  1  0.98715000  0.06967000  0.19986000  1.0
  C  C33  1  0.01292000  0.93034000  0.80015000  1.0
  C  C34  1  0.85527000  0.93847000  0.08829000  1.0
  C  C35  1  0.14478000  0.06153000  0.91173000  1.0
  C  C36  1  0.79835000  0.79822000  0.10214000  1.0
  C  C37  1  0.20163000  0.20177000  0.89790000  1.0
  C  C38  1  0.87400000  0.79069000  0.22892000  1.0
  C  C39  1  0.12605000  0.20930000  0.77110000  1.0
  C  C40  1  0.00773000  0.91977000  0.34042000  1.0
  C  C41  1  0.99233000  0.08020000  0.65958000  1.0
  C  C42  1  0.06506000  0.05989000  0.32639000  1.0
  C  C43  1  0.93492000  0.94009000  0.67362000  1.0
  N  N44  1  0.56302000  0.06597000  0.27930000  1.0
  N  N45  1  0.43681000  0.93406000  0.72071000  1.0
  N  N46  1  0.80461000  0.64850000  0.24838000  1.0
  N  N47  1  0.19531000  0.35153000  0.75164000  1.0
  O  O48  1  0.53348000  0.11165000  0.18396000  1.0
  O  O49  1  0.46655000  0.88838000  0.81603000  1.0
  O  O50  1  0.67903000  0.15275000  0.39623000  1.0
  O  O51  1  0.32100000  0.84728000  0.60376000  1.0
  O  O52  1  0.70202000  0.52934000  0.15005000  1.0
  O  O53  1  0.29807000  0.47067000  0.84998000  1.0
  O  O54  1  0.84814000  0.65176000  0.36519000  1.0
  O  O55  1  0.15186000  0.34823000  0.63482000  1.0
  O  O56  1  0.18614000  0.45159000  0.18190000  1.0
  O  O57  1  0.81395000  0.54839000  0.81808000  1.0
  O  O58  1  0.02946000  0.20333000  0.17782000  1.0
  O  O59  1  0.97058000  0.79669000  0.82222000  1.0
  O  O60  1  0.40801000  0.36130000  0.35220000  1.0
  O  O61  1  0.59200000  0.63874000  0.64777000  1.0
  O  O62  1  0.08682000  0.42848000  0.38042000  1.0
  O  O63  1  0.91316000  0.57148000  0.61959000  1.0
