# generated using pymatgen
data_AgH14C14(N3O)3
_symmetry_space_group_name_H-M   'P 1'
_cell_length_a   7.76103000
_cell_length_b   8.68448000
_cell_length_c   13.17300000
_cell_angle_alpha   73.54700000
_cell_angle_beta   77.23000000
_cell_angle_gamma   83.02180000
_symmetry_Int_Tables_number   1
_chemical_formula_structural   AgH14C14(N3O)3
_chemical_formula_sum   'Ag2 H28 C28 N18 O6'
_cell_volume   828.80144437
_cell_formula_units_Z   2
loop_
 _symmetry_equiv_pos_site_id
 _symmetry_equiv_pos_as_xyz
  1  'x, y, z'
loop_
 _atom_site_type_symbol
 _atom_site_label
 _atom_site_symmetry_multiplicity
 _atom_site_fract_x
 _atom_site_fract_y
 _atom_site_fract_z
 _atom_site_occupancy
  Ag  Ag0  1  0.11680000  0.74827000  0.23676000  1.0
  Ag  Ag1  1  0.88320000  0.25174000  0.76325000  1.0
  H  H2  1  0.10553000  0.08085000  0.88760000  1.0
  H  H3  1  0.89447000  0.91916000  0.11240000  1.0
  H  H4  1  0.12112000  0.42220000  0.58118000  1.0
  H  H5  1  0.87888000  0.57780000  0.41882000  1.0
  H  H6  1  0.32393000  0.24901000  0.89413000  1.0
  H  H7  1  0.67607000  0.75099000  0.10587000  1.0
  H  H8  1  0.51249000  0.26487000  0.04470000  1.0
  H  H9  1  0.48752000  0.73513000  0.95530000  1.0
  H  H10  1  0.39272000  0.01494000  0.22204000  1.0
  H  H11  1  0.60729000  0.98506000  0.77796000  1.0
  H  H12  1  0.19705000  0.88882000  0.78212000  1.0
  H  H13  1  0.80295000  0.11118000  0.21788000  1.0
  H  H14  1  0.23781000  0.55373000  0.82857000  1.0
  H  H15  1  0.76218000  0.44627000  0.17143000  1.0
  H  H16  1  0.17383000  0.45959000  0.05084000  1.0
  H  H17  1  0.82617000  0.54041000  0.94916000  1.0
  H  H18  1  0.27109000  0.61142000  0.62893000  1.0
  H  H19  1  0.72890000  0.38857000  0.37108000  1.0
  H  H20  1  0.29430000  0.94356000  0.55964000  1.0
  H  H21  1  0.70570000  0.05643000  0.44036000  1.0
  H  H22  1  0.13865000  0.03201000  0.38126000  1.0
  H  H23  1  0.86135000  0.96799000  0.61874000  1.0
  H  H24  1  0.34027000  0.22836000  0.51936000  1.0
  H  H25  1  0.65972000  0.77164000  0.48064000  1.0
  H  H26  1  0.48810000  0.16863000  0.32305000  1.0
  H  H27  1  0.51191000  0.83137000  0.67695000  1.0
  H  H28  1  0.33794000  0.41412000  0.17753000  1.0
  H  H29  1  0.66207000  0.58588000  0.82247000  1.0
  C  C30  1  0.09671000  0.99646000  0.96818000  1.0
  C  C31  1  0.90329000  0.00354000  0.03182000  1.0
  C  C32  1  0.09908000  0.49834000  0.50238000  1.0
  C  C33  1  0.90092000  0.50166000  0.49762000  1.0
  C  C34  1  0.32331000  0.17458000  0.97563000  1.0
  C  C35  1  0.67669000  0.82542000  0.02437000  1.0
  C  C36  1  0.41405000  0.18123000  0.05345000  1.0
  C  C37  1  0.58595000  0.81877000  0.94655000  1.0
  C  C38  1  0.35307000  0.05518000  0.14418000  1.0
  C  C39  1  0.64694000  0.94482000  0.85582000  1.0
  C  C40  1  0.18623000  0.79593000  0.85790000  1.0
  C  C41  1  0.81378000  0.20408000  0.14210000  1.0
  C  C42  1  0.20772000  0.62970000  0.88376000  1.0
  C  C43  1  0.79228000  0.37030000  0.11624000  1.0
  C  C44  1  0.17487000  0.58061000  0.99787000  1.0
  C  C45  1  0.82513000  0.41939000  0.00213000  1.0
  C  C46  1  0.22868000  0.70137000  0.56165000  1.0
  C  C47  1  0.77132000  0.29863000  0.43835000  1.0
  C  C48  1  0.23955000  0.86641000  0.52459000  1.0
  C  C49  1  0.76044000  0.13359000  0.47541000  1.0
  C  C50  1  0.15911000  0.91272000  0.43343000  1.0
  C  C51  1  0.84089000  0.08727000  0.56657000  1.0
  C  C52  1  0.32198000  0.29342000  0.43862000  1.0
  C  C53  1  0.67802000  0.70658000  0.56138000  1.0
  C  C54  1  0.39421000  0.26608000  0.33890000  1.0
  C  C55  1  0.60579000  0.73392000  0.66110000  1.0
  C  C56  1  0.31647000  0.38960000  0.26461000  1.0
  C  C57  1  0.68353000  0.61040000  0.73539000  1.0
  N  N58  1  0.21574000  0.04977000  0.02039000  1.0
  N  N59  1  0.78426000  0.95024000  0.97961000  1.0
  N  N60  1  0.23174000  0.97631000  0.12419000  1.0
  N  N61  1  0.76826000  0.02369000  0.87581000  1.0
  N  N62  1  0.14499000  0.83704000  0.95356000  1.0
  N  N63  1  0.85501000  0.16296000  0.04644000  1.0
  N  N64  1  0.13491000  0.70641000  0.04038000  1.0
  N  N65  1  0.86509000  0.29359000  0.95962000  1.0
  N  N66  1  0.14547000  0.65783000  0.49404000  1.0
  N  N67  1  0.85453000  0.34217000  0.50595000  1.0
  N  N68  1  0.10080000  0.78613000  0.41516000  1.0
  N  N69  1  0.89920000  0.21387000  0.58484000  1.0
  N  N70  1  0.20872000  0.42644000  0.42098000  1.0
  N  N71  1  0.79128000  0.57356000  0.57902000  1.0
  N  N72  1  0.20265000  0.48617000  0.31462000  1.0
  N  N73  1  0.79735000  0.51384000  0.68538000  1.0
  N  N74  1  0.65197000  0.75384000  0.29352000  1.0
  N  N75  1  0.34803000  0.24616000  0.70648000  1.0
  O  O76  1  0.79407000  0.67325000  0.25997000  1.0
  O  O77  1  0.20594000  0.32677000  0.74002000  1.0
  O  O78  1  0.66554000  0.89017000  0.30812000  1.0
  O  O79  1  0.33445000  0.10983000  0.69188000  1.0
  O  O80  1  0.50485000  0.69661000  0.31009000  1.0
  O  O81  1  0.49516000  0.30339000  0.68992000  1.0
