# generated using pymatgen
data_TiH18C22(NO2)2
_symmetry_space_group_name_H-M   'P 1'
_cell_length_a   8.31220000
_cell_length_b   10.28020000
_cell_length_c   11.02030000
_cell_angle_alpha   90.95200000
_cell_angle_beta   91.72830000
_cell_angle_gamma   91.50940000
_symmetry_Int_Tables_number   1
_chemical_formula_structural   TiH18C22(NO2)2
_chemical_formula_sum   'Ti2 H36 C44 N4 O8'
_cell_volume   940.79869358
_cell_formula_units_Z   2
loop_
 _symmetry_equiv_pos_site_id
 _symmetry_equiv_pos_as_xyz
  1  'x, y, z'
loop_
 _atom_site_type_symbol
 _atom_site_label
 _atom_site_symmetry_multiplicity
 _atom_site_fract_x
 _atom_site_fract_y
 _atom_site_fract_z
 _atom_site_occupancy
  Ti  Ti0  1  0.00000000  0.50000000  0.00000000  1.0
  Ti  Ti1  1  0.00000000  0.00000000  0.50000000  1.0
  H  H2  1  0.21716000  0.39032000  0.28433000  1.0
  H  H3  1  0.78285000  0.60969000  0.71567000  1.0
  H  H4  1  0.25993000  0.41763000  0.50818000  1.0
  H  H5  1  0.74007000  0.58237000  0.49182000  1.0
  H  H6  1  0.19089000  0.62591000  0.61249000  1.0
  H  H7  1  0.80910000  0.37409000  0.38752000  1.0
  H  H8  1  0.02902000  0.77743000  0.26959000  1.0
  H  H9  1  0.97097000  0.22257000  0.73041000  1.0
  H  H10  1  0.20175000  0.52110000  0.77260000  1.0
  H  H11  1  0.79826000  0.47891000  0.22740000  1.0
  H  H12  1  0.46270000  0.44358000  0.68993000  1.0
  H  H13  1  0.53731000  0.55643000  0.31007000  1.0
  H  H14  1  0.63321000  0.30056000  0.81933000  1.0
  H  H15  1  0.36679000  0.69944000  0.18067000  1.0
  H  H16  1  0.54126000  0.24319000  0.02700000  1.0
  H  H17  1  0.45874000  0.75681000  0.97300000  1.0
  H  H18  1  0.27680000  0.32972000  0.09502000  1.0
  H  H19  1  0.72320000  0.67028000  0.90498000  1.0
  H  H20  1  0.27851000  0.18281000  0.59039000  1.0
  H  H21  1  0.72148000  0.81718000  0.40960000  1.0
  H  H22  1  0.55443000  0.26076000  0.52970000  1.0
  H  H23  1  0.44556000  0.73924000  0.47030000  1.0
  H  H24  1  0.66383000  0.17428000  0.33578000  1.0
  H  H25  1  0.33617000  0.82572000  0.66422000  1.0
  H  H26  1  0.49188000  0.01909000  0.20714000  1.0
  H  H27  1  0.50813000  0.98091000  0.79286000  1.0
  H  H28  1  0.21615000  0.95591000  0.27840000  1.0
  H  H29  1  0.78385000  0.04409000  0.72159000  1.0
  H  H30  1  0.17928000  0.80370000  0.08277000  1.0
  H  H31  1  0.82072000  0.19630000  0.91723000  1.0
  H  H32  1  0.27355000  0.03426000  0.05077000  1.0
  H  H33  1  0.72646000  0.96574000  0.94923000  1.0
  H  H34  1  0.22342000  0.13895000  0.85123000  1.0
  H  H35  1  0.77658000  0.86105000  0.14877000  1.0
  H  H36  1  0.99127000  0.78354000  0.71463000  1.0
  H  H37  1  0.00873000  0.21646000  0.28537000  1.0
  C  C38  1  0.12233000  0.58313000  0.26219000  1.0
  C  C39  1  0.87767000  0.41687000  0.73781000  1.0
  C  C40  1  0.18767000  0.48083000  0.33018000  1.0
  C  C41  1  0.81233000  0.51917000  0.66982000  1.0
  C  C42  1  0.21191000  0.49746000  0.45549000  1.0
  C  C43  1  0.78809000  0.50254000  0.54452000  1.0
  C  C44  1  0.17356000  0.61274000  0.51477000  1.0
  C  C45  1  0.82644000  0.38725000  0.48524000  1.0
  C  C46  1  0.10777000  0.71531000  0.44766000  1.0
  C  C47  1  0.89222000  0.28469000  0.55235000  1.0
  C  C48  1  0.08182000  0.69937000  0.32170000  1.0
  C  C49  1  0.91818000  0.30063000  0.67830000  1.0
  C  C50  1  0.28115000  0.45896000  0.82475000  1.0
  C  C51  1  0.71885000  0.54104000  0.17525000  1.0
  C  C52  1  0.42459000  0.41455000  0.77953000  1.0
  C  C53  1  0.57541000  0.58544000  0.22047000  1.0
  C  C54  1  0.51982000  0.33549000  0.85220000  1.0
  C  C55  1  0.48018000  0.66451000  0.14779000  1.0
  C  C56  1  0.46884000  0.30396000  0.96779000  1.0
  C  C57  1  0.53115000  0.69604000  0.03221000  1.0
  C  C58  1  0.32386000  0.35206000  0.00635000  1.0
  C  C59  1  0.67614000  0.64794000  0.99365000  1.0
  C  C60  1  0.33042000  0.15130000  0.50543000  1.0
  C  C61  1  0.66957000  0.84869000  0.49457000  1.0
  C  C62  1  0.48271000  0.19329000  0.47157000  1.0
  C  C63  1  0.51729000  0.80671000  0.52844000  1.0
  C  C64  1  0.54309000  0.14598000  0.36306000  1.0
  C  C65  1  0.45691000  0.85402000  0.63694000  1.0
  C  C66  1  0.44749000  0.05941000  0.29150000  1.0
  C  C67  1  0.55251000  0.94058000  0.70850000  1.0
  C  C68  1  0.29554000  0.02304000  0.33082000  1.0
  C  C69  1  0.70446000  0.97695000  0.66918000  1.0
  C  C70  1  0.08262000  0.77903000  0.90004000  1.0
  C  C71  1  0.91739000  0.22097000  0.09996000  1.0
  C  C72  1  0.16262000  0.85024000  0.99552000  1.0
  C  C73  1  0.83739000  0.14976000  0.00448000  1.0
  C  C74  1  0.21382000  0.97837000  0.97649000  1.0
  C  C75  1  0.78619000  0.02163000  0.02350000  1.0
  C  C76  1  0.18610000  0.03820000  0.86540000  1.0
  C  C77  1  0.81390000  0.96180000  0.13460000  1.0
  C  C78  1  0.10396000  0.96830000  0.77012000  1.0
  C  C79  1  0.89604000  0.03170000  0.22987000  1.0
  C  C80  1  0.05307000  0.83869000  0.78811000  1.0
  C  C81  1  0.94694000  0.16131000  0.21189000  1.0
  N  N82  1  0.23174000  0.42826000  0.93619000  1.0
  N  N83  1  0.76826000  0.57174000  0.06381000  1.0
  N  N84  1  0.23817000  0.06744000  0.43643000  1.0
  N  N85  1  0.76182000  0.93256000  0.56357000  1.0
  O  O86  1  0.10166000  0.57500000  0.14181000  1.0
  O  O87  1  0.89834000  0.42500000  0.85819000  1.0
  O  O88  1  0.07380000  0.82665000  0.50461000  1.0
  O  O89  1  0.92619000  0.17335000  0.49539000  1.0
  O  O90  1  0.03275000  0.65541000  0.91270000  1.0
  O  O91  1  0.96725000  0.34460000  0.08730000  1.0
  O  O92  1  0.07207000  0.02723000  0.66503000  1.0
  O  O93  1  0.92793000  0.97277000  0.33497000  1.0
