# generated using pymatgen
data_CdH20C34(SN5)2
_symmetry_space_group_name_H-M   'P 1'
_cell_length_a   8.54841000
_cell_length_b   13.62020000
_cell_length_c   13.62020000
_cell_angle_alpha   107.95600000
_cell_angle_beta   90.00000000
_cell_angle_gamma   90.00000000
_symmetry_Int_Tables_number   1
_chemical_formula_structural   CdH20C34(SN5)2
_chemical_formula_sum   'Cd2 H40 C68 S4 N20'
_cell_volume   1508.57484834
_cell_formula_units_Z   2
loop_
 _symmetry_equiv_pos_site_id
 _symmetry_equiv_pos_as_xyz
  1  'x, y, z'
loop_
 _atom_site_type_symbol
 _atom_site_label
 _atom_site_symmetry_multiplicity
 _atom_site_fract_x
 _atom_site_fract_y
 _atom_site_fract_z
 _atom_site_occupancy
  Cd  Cd0  1  0.00000000  0.50000000  0.50000000  1.0
  Cd  Cd1  1  0.50000000  0.00000000  0.00000000  1.0
  H  H2  1  0.39384000  0.66522000  0.05474000  1.0
  H  H3  1  0.10616000  0.55474000  0.16522000  1.0
  H  H4  1  0.89384000  0.83478000  0.44526000  1.0
  H  H5  1  0.60616000  0.94526000  0.33478000  1.0
  H  H6  1  0.60616000  0.33478000  0.94526000  1.0
  H  H7  1  0.89384000  0.44526000  0.83478000  1.0
  H  H8  1  0.10616000  0.16522000  0.55474000  1.0
  H  H9  1  0.39384000  0.05474000  0.66522000  1.0
  H  H10  1  0.21967000  0.69877000  0.91709000  1.0
  H  H11  1  0.28033000  0.41709000  0.19877000  1.0
  H  H12  1  0.71967000  0.80123000  0.58291000  1.0
  H  H13  1  0.78033000  0.08291000  0.30123000  1.0
  H  H14  1  0.78033000  0.30123000  0.08291000  1.0
  H  H15  1  0.71967000  0.58291000  0.80123000  1.0
  H  H16  1  0.28033000  0.19877000  0.41709000  1.0
  H  H17  1  0.21967000  0.91709000  0.69877000  1.0
  H  H18  1  0.10235000  0.62840000  0.73904000  1.0
  H  H19  1  0.39765000  0.23904000  0.12840000  1.0
  H  H20  1  0.60235000  0.87160000  0.76096000  1.0
  H  H21  1  0.89765000  0.26096000  0.37160000  1.0
  H  H22  1  0.89765000  0.37160000  0.26096000  1.0
  H  H23  1  0.60235000  0.76096000  0.87160000  1.0
  H  H24  1  0.39765000  0.12840000  0.23904000  1.0
  H  H25  1  0.10235000  0.73904000  0.62840000  1.0
  H  H26  1  0.20140000  0.33079000  0.55544000  1.0
  H  H27  1  0.29860000  0.05544000  0.83079000  1.0
  H  H28  1  0.70140000  0.16921000  0.94456000  1.0
  H  H29  1  0.79860000  0.44456000  0.66921000  1.0
  H  H30  1  0.79860000  0.66921000  0.44456000  1.0
  H  H31  1  0.70140000  0.94456000  0.16921000  1.0
  H  H32  1  0.29860000  0.83079000  0.05544000  1.0
  H  H33  1  0.20140000  0.55544000  0.33079000  1.0
  H  H34  1  0.36718000  0.29427000  0.69221000  1.0
  H  H35  1  0.13282000  0.19221000  0.79427000  1.0
  H  H36  1  0.86718000  0.20573000  0.80780000  1.0
  H  H37  1  0.63282000  0.30780000  0.70573000  1.0
  H  H38  1  0.63282000  0.70573000  0.30780000  1.0
  H  H39  1  0.86718000  0.80779000  0.20574000  1.0
  H  H40  1  0.13282000  0.79427000  0.19221000  1.0
  H  H41  1  0.36718000  0.69220000  0.29427000  1.0
  C  C42  1  0.29625000  0.36745000  0.36745000  1.0
  C  C43  1  0.20375000  0.86746000  0.86746000  1.0
  C  C44  1  0.79625000  0.13254000  0.13255000  1.0
  C  C45  1  0.70375000  0.63255000  0.63255000  1.0
  C  C46  1  0.44829000  0.50988000  0.96016000  1.0
  C  C47  1  0.05171000  0.46016000  0.00988000  1.0
  C  C48  1  0.94829000  0.99012000  0.53984000  1.0
  C  C49  1  0.55171000  0.03984000  0.49012000  1.0
  C  C50  1  0.55171000  0.49012000  0.03984000  1.0
  C  C51  1  0.94829000  0.53984000  0.99012000  1.0
  C  C52  1  0.05171000  0.00988000  0.46016000  1.0
  C  C53  1  0.44829000  0.96016000  0.50988000  1.0
  C  C54  1  0.37327000  0.60745000  0.98042000  1.0
  C  C55  1  0.12673000  0.48042000  0.10745000  1.0
  C  C56  1  0.87327000  0.89255000  0.51958000  1.0
  C  C57  1  0.62673000  0.01958000  0.39255000  1.0
  C  C58  1  0.62673000  0.39255000  0.01958000  1.0
  C  C59  1  0.87327000  0.51958000  0.89255000  1.0
  C  C60  1  0.12673000  0.10745000  0.48042000  1.0
  C  C61  1  0.37327000  0.98042000  0.60745000  1.0
  C  C62  1  0.27944000  0.62535000  0.90592000  1.0
  C  C63  1  0.22056000  0.40591000  0.12535000  1.0
  C  C64  1  0.77944000  0.87465000  0.59408000  1.0
  C  C65  1  0.72056000  0.09408000  0.37465000  1.0
  C  C66  1  0.72056000  0.37465000  0.09408000  1.0
  C  C67  1  0.77944000  0.59409000  0.87465000  1.0
  C  C68  1  0.22056000  0.12535000  0.40592000  1.0
  C  C69  1  0.27944000  0.90592000  0.62535000  1.0
  C  C70  1  0.16538000  0.55621000  0.73013000  1.0
  C  C71  1  0.33462000  0.23013000  0.05621000  1.0
  C  C72  1  0.66538000  0.94379000  0.76987000  1.0
  C  C73  1  0.83462000  0.26987000  0.44379000  1.0
  C  C74  1  0.83462000  0.44379000  0.26987000  1.0
  C  C75  1  0.66538000  0.76987000  0.94379000  1.0
  C  C76  1  0.33462000  0.05621000  0.23013000  1.0
  C  C77  1  0.16538000  0.73013000  0.55620000  1.0
  C  C78  1  0.22099000  0.38883000  0.62980000  1.0
  C  C79  1  0.27901000  0.12980000  0.88883000  1.0
  C  C80  1  0.72099000  0.11117000  0.87020000  1.0
  C  C81  1  0.77901000  0.37020000  0.61117000  1.0
  C  C82  1  0.77901000  0.61117000  0.37020000  1.0
  C  C83  1  0.72099000  0.87020000  0.11117000  1.0
  C  C84  1  0.27901000  0.88883000  0.12980000  1.0
  C  C85  1  0.22099000  0.62980000  0.38883000  1.0
  C  C86  1  0.31289000  0.36946000  0.70454000  1.0
  C  C87  1  0.18711000  0.20454000  0.86946000  1.0
  C  C88  1  0.81289000  0.13054000  0.79546000  1.0
  C  C89  1  0.68711000  0.29546000  0.63054000  1.0
  C  C90  1  0.68711000  0.63054000  0.29546000  1.0
  C  C91  1  0.81289000  0.79546000  0.13054000  1.0
  C  C92  1  0.18711000  0.86946000  0.20454000  1.0
  C  C93  1  0.31289000  0.70454000  0.36946000  1.0
  C  C94  1  0.33728000  0.44938000  0.79849000  1.0
  C  C95  1  0.16272000  0.29849000  0.94938000  1.0
  C  C96  1  0.83728000  0.05062000  0.70151000  1.0
  C  C97  1  0.66272000  0.20151000  0.55062000  1.0
  C  C98  1  0.66272000  0.55062000  0.20151000  1.0
  C  C99  1  0.83728000  0.70151000  0.05062000  1.0
  C  C100  1  0.16272000  0.94938000  0.29849000  1.0
  C  C101  1  0.33728000  0.79849000  0.44938000  1.0
  C  C102  1  0.25947000  0.54545000  0.81162000  1.0
  C  C103  1  0.24053000  0.31162000  0.04545000  1.0
  C  C104  1  0.75947000  0.95455000  0.68838000  1.0
  C  C105  1  0.74053000  0.18838000  0.45455000  1.0
  C  C106  1  0.74053000  0.45455000  0.18838000  1.0
  C  C107  1  0.75947000  0.68838000  0.95455000  1.0
  C  C108  1  0.24053000  0.04545000  0.31162000  1.0
  C  C109  1  0.25947000  0.81162000  0.54545000  1.0
  S  S110  1  0.47843000  0.34078000  0.34078000  1.0
  S  S111  1  0.02157000  0.84078000  0.84078000  1.0
  S  S112  1  0.97843000  0.15922000  0.15922000  1.0
  S  S113  1  0.52157000  0.65922000  0.65922000  1.0
  N  N114  1  0.16034000  0.38465000  0.38465000  1.0
  N  N115  1  0.33966000  0.88465000  0.88465000  1.0
  N  N116  1  0.66035000  0.11535000  0.11535000  1.0
  N  N117  1  0.83966000  0.61535000  0.61535000  1.0
  N  N118  1  0.43172000  0.43314000  0.87233000  1.0
  N  N119  1  0.06828000  0.37233000  0.93314000  1.0
  N  N120  1  0.93172000  0.06686000  0.62767000  1.0
  N  N121  1  0.56828000  0.12767000  0.56687000  1.0
  N  N122  1  0.56828000  0.56687000  0.12767000  1.0
  N  N123  1  0.93172000  0.62767000  0.06687000  1.0
  N  N124  1  0.06828000  0.93313000  0.37233000  1.0
  N  N125  1  0.43172000  0.87233000  0.43313000  1.0
  N  N126  1  0.14837000  0.48098000  0.64205000  1.0
  N  N127  1  0.35163000  0.14205000  0.98098000  1.0
  N  N128  1  0.64837000  0.01902000  0.85795000  1.0
  N  N129  1  0.85163000  0.35795000  0.51902000  1.0
  N  N130  1  0.85163000  0.51902000  0.35795000  1.0
  N  N131  1  0.64837000  0.85795000  0.01902000  1.0
  N  N132  1  0.35163000  0.98098000  0.14205000  1.0
  N  N133  1  0.14837000  0.64205000  0.48098000  1.0
