# generated using pymatgen
data_CoH11C17N3O4
_symmetry_space_group_name_H-M   'P 1'
_cell_length_a   7.65253000
_cell_length_b   9.07545000
_cell_length_c   10.23000000
_cell_angle_alpha   89.74290000
_cell_angle_beta   83.00750000
_cell_angle_gamma   89.42830000
_symmetry_Int_Tables_number   1
_chemical_formula_structural   CoH11C17N3O4
_chemical_formula_sum   'Co2 H22 C34 N6 O8'
_cell_volume   705.15168596
_cell_formula_units_Z   2
loop_
 _symmetry_equiv_pos_site_id
 _symmetry_equiv_pos_as_xyz
  1  'x, y, z'
loop_
 _atom_site_type_symbol
 _atom_site_label
 _atom_site_symmetry_multiplicity
 _atom_site_fract_x
 _atom_site_fract_y
 _atom_site_fract_z
 _atom_site_occupancy
  Co  Co0  1  0.69563000  0.25157000  0.79733000  1.0
  Co  Co1  1  0.20220000  0.74870000  0.30006000  1.0
  H  H2  1  0.95001000  0.90613000  0.50397000  1.0
  H  H3  1  0.44917000  0.08965000  0.00152000  1.0
  H  H4  1  0.47581000  0.77233000  0.46406000  1.0
  H  H5  1  0.96909000  0.23056000  0.96258000  1.0
  H  H6  1  0.53635000  0.92553000  0.65335000  1.0
  H  H7  1  0.03489000  0.07867000  0.15307000  1.0
  H  H8  1  0.66989000  0.41940000  0.05325000  1.0
  H  H9  1  0.16951000  0.57866000  0.55711000  1.0
  H  H10  1  0.73451000  0.67976000  0.10467000  1.0
  H  H11  1  0.22350000  0.31526000  0.60925000  1.0
  H  H12  1  0.79152000  0.86192000  0.91752000  1.0
  H  H13  1  0.27994000  0.13357000  0.42228000  1.0
  H  H14  1  0.77591000  0.77605000  0.68972000  1.0
  H  H15  1  0.27270000  0.22310000  0.19395000  1.0
  H  H16  1  0.75404000  0.67980000  0.49610000  1.0
  H  H17  1  0.25086000  0.32076000  0.00090000  1.0
  H  H18  1  0.74436000  0.54072000  0.29088000  1.0
  H  H19  1  0.24062000  0.46149000  0.79516000  1.0
  H  H20  1  0.70135000  0.26313000  0.30457000  1.0
  H  H21  1  0.20356000  0.74028000  0.80788000  1.0
  H  H22  1  0.67768000  0.14097000  0.52284000  1.0
  H  H23  1  0.18679000  0.86184000  0.02516000  1.0
  C  C24  1  0.95506000  0.09684000  0.70889000  1.0
  C  C25  1  0.46054000  0.90090000  0.20948000  1.0
  C  C26  1  0.10078000  0.99822000  0.64946000  1.0
  C  C27  1  0.60275000  0.00016000  0.14828000  1.0
  C  C28  1  0.07785000  0.91000000  0.54124000  1.0
  C  C29  1  0.57687000  0.08729000  0.03904000  1.0
  C  C30  1  0.37107000  0.83548000  0.51966000  1.0
  C  C31  1  0.86677000  0.16589000  0.01806000  1.0
  C  C32  1  0.40354000  0.92122000  0.62566000  1.0
  C  C33  1  0.90221000  0.08112000  0.12493000  1.0
  C  C34  1  0.26870000  0.00733000  0.69168000  1.0
  C  C35  1  0.77064000  0.99360000  0.19122000  1.0
  C  C36  1  0.30971000  0.10201000  0.80503000  1.0
  C  C37  1  0.81390000  0.89997000  0.30569000  1.0
  C  C38  1  0.69669000  0.50063000  0.97513000  1.0
  C  C39  1  0.19530000  0.49752000  0.47907000  1.0
  C  C40  1  0.73262000  0.64592000  0.00300000  1.0
  C  C41  1  0.22554000  0.35041000  0.50735000  1.0
  C  C42  1  0.76258000  0.74719000  0.89973000  1.0
  C  C43  1  0.25479000  0.24954000  0.40419000  1.0
  C  C44  1  0.75481000  0.69891000  0.77186000  1.0
  C  C45  1  0.25161000  0.29979000  0.27603000  1.0
  C  C46  1  0.72246000  0.55070000  0.74947000  1.0
  C  C47  1  0.22388000  0.44933000  0.25337000  1.0
  C  C48  1  0.71929000  0.48507000  0.62029000  1.0
  C  C49  1  0.22278000  0.51601000  0.12396000  1.0
  C  C50  1  0.73558000  0.56082000  0.50044000  1.0
  C  C51  1  0.23542000  0.44034000  0.00459000  1.0
  C  C52  1  0.73015000  0.48200000  0.38452000  1.0
  C  C53  1  0.22958000  0.52007000  0.88850000  1.0
  C  C54  1  0.70708000  0.32987000  0.39206000  1.0
  C  C55  1  0.21012000  0.67288000  0.89539000  1.0
  C  C56  1  0.69238000  0.25994000  0.51444000  1.0
  C  C57  1  0.19936000  0.74254000  0.01727000  1.0
  N  N58  1  0.21187000  0.83270000  0.47419000  1.0
  N  N59  1  0.70788000  0.16628000  0.97186000  1.0
  N  N60  1  0.69459000  0.45085000  0.85091000  1.0
  N  N61  1  0.19733000  0.54900000  0.35461000  1.0
  N  N62  1  0.70026000  0.33588000  0.62607000  1.0
  N  N63  1  0.20733000  0.66573000  0.12907000  1.0
  O  O64  1  0.79344000  0.05505000  0.72035000  1.0
  O  O65  1  0.29784000  0.94296000  0.22233000  1.0
  O  O66  1  0.99363000  0.22435000  0.74539000  1.0
  O  O67  1  0.50282000  0.77350000  0.24628000  1.0
  O  O68  1  0.42584000  0.19997000  0.77428000  1.0
  O  O69  1  0.93200000  0.80173000  0.27605000  1.0
  O  O70  1  0.23290000  0.07258000  0.91775000  1.0
  O  O71  1  0.73603000  0.93005000  0.41800000  1.0
