# generated using pymatgen
data_CdH6C6I2N2O
_symmetry_space_group_name_H-M   'P 1'
_cell_length_a   7.88175000
_cell_length_b   8.03127000
_cell_length_c   9.08576000
_cell_angle_alpha   105.99400000
_cell_angle_beta   97.63250000
_cell_angle_gamma   102.13700000
_symmetry_Int_Tables_number   1
_chemical_formula_structural   CdH6C6I2N2O
_chemical_formula_sum   'Cd2 H12 C12 I4 N4 O2'
_cell_volume   529.26123656
_cell_formula_units_Z   2
loop_
 _symmetry_equiv_pos_site_id
 _symmetry_equiv_pos_as_xyz
  1  'x, y, z'
loop_
 _atom_site_type_symbol
 _atom_site_label
 _atom_site_symmetry_multiplicity
 _atom_site_fract_x
 _atom_site_fract_y
 _atom_site_fract_z
 _atom_site_occupancy
  Cd  Cd0  1  0.20969000  0.42988000  0.41813000  1.0
  Cd  Cd1  1  0.79031000  0.57012000  0.58186000  1.0
  H  H2  1  0.19779000  0.02091000  0.83531000  1.0
  H  H3  1  0.80220000  0.97909000  0.16468000  1.0
  H  H4  1  0.31721000  0.78661000  0.90478000  1.0
  H  H5  1  0.68279000  0.21339000  0.09521000  1.0
  H  H6  1  0.38901000  0.80598000  0.19033000  1.0
  H  H7  1  0.61099000  0.19402000  0.80967000  1.0
  H  H8  1  0.34008000  0.06658000  0.39077000  1.0
  H  H9  1  0.65992000  0.93342000  0.60923000  1.0
  H  H10  1  0.14389000  0.24927000  0.81455000  1.0
  H  H11  1  0.85611000  0.75073000  0.18545000  1.0
  H  H12  1  0.03335000  0.41516000  0.87712000  1.0
  H  H13  1  0.96665000  0.58484000  0.12288000  1.0
  C  C14  1  0.20393000  0.16851000  0.07676000  1.0
  C  C15  1  0.79607000  0.83149000  0.92324000  1.0
  C  C16  1  0.23111000  0.03034000  0.95812000  1.0
  C  C17  1  0.76889000  0.96966000  0.04188000  1.0
  C  C18  1  0.29812000  0.89700000  0.99704000  1.0
  C  C19  1  0.70187000  0.10299000  0.00296000  1.0
  C  C20  1  0.33729000  0.90703000  0.15360000  1.0
  C  C21  1  0.66271000  0.09298000  0.84640000  1.0
  C  C22  1  0.30943000  0.05115000  0.26619000  1.0
  C  C23  1  0.69057000  0.94885000  0.73381000  1.0
  C  C24  1  0.12233000  0.31182000  0.04591000  1.0
  C  C25  1  0.87768000  0.68818000  0.95410000  1.0
  I  I26  1  0.13173000  0.77176000  0.52564000  1.0
  I  I27  1  0.86827000  0.22824000  0.47436000  1.0
  I  I28  1  0.42939000  0.40212000  0.68346000  1.0
  I  I29  1  0.57061000  0.59788000  0.31654000  1.0
  N  N30  1  0.24333000  0.17767000  0.22823000  1.0
  N  N31  1  0.75667000  0.82232000  0.77177000  1.0
  N  N32  1  0.09388000  0.32053000  0.90118000  1.0
  N  N33  1  0.90612000  0.67947000  0.09882000  1.0
  O  O34  1  0.07673000  0.41677000  0.15607000  1.0
  O  O35  1  0.92328000  0.58323000  0.84393000  1.0
