# generated using pymatgen
data_Zn2H19C11N13O2
_symmetry_space_group_name_H-M   'P 1'
_cell_length_a   10.23940000
_cell_length_b   11.08090000
_cell_length_c   21.45610000
_cell_angle_alpha   89.99990000
_cell_angle_beta   89.99990000
_cell_angle_gamma   88.42710000
_symmetry_Int_Tables_number   1
_chemical_formula_structural   Zn2H19C11N13O2
_chemical_formula_sum   'Zn8 H76 C44 N52 O8'
_cell_volume   2433.52975282
_cell_formula_units_Z   4
loop_
 _symmetry_equiv_pos_site_id
 _symmetry_equiv_pos_as_xyz
  1  'x, y, z'
loop_
 _atom_site_type_symbol
 _atom_site_label
 _atom_site_symmetry_multiplicity
 _atom_site_fract_x
 _atom_site_fract_y
 _atom_site_fract_z
 _atom_site_occupancy
  Zn  Zn0  1  0.51436000  0.32010000  0.58537000  1.0
  Zn  Zn1  1  0.48564000  0.67990000  0.08537000  1.0
  Zn  Zn2  1  0.49529000  0.45897000  0.35045000  1.0
  Zn  Zn3  1  0.50471000  0.54103000  0.85045000  1.0
  Zn  Zn4  1  0.02034000  0.04640000  0.52943000  1.0
  Zn  Zn5  1  0.97966000  0.95360000  0.02943000  1.0
  Zn  Zn6  1  0.00359000  0.18586000  0.29257000  1.0
  Zn  Zn7  1  0.99641000  0.81414000  0.79257000  1.0
  H  H8  1  0.53643000  0.68592000  0.37152000  1.0
  H  H9  1  0.46357000  0.31408000  0.87152000  1.0
  H  H10  1  0.38933000  0.65469000  0.39350000  1.0
  H  H11  1  0.61067000  0.34532000  0.89350000  1.0
  H  H12  1  0.07310000  0.81988000  0.50587000  1.0
  H  H13  1  0.92690000  0.18012000  0.00587000  1.0
  H  H14  1  0.91977000  0.85719000  0.49119000  1.0
  H  H15  1  0.08023000  0.14280000  0.99119000  1.0
  H  H16  1  0.40015000  0.19110000  0.45336000  1.0
  H  H17  1  0.59985000  0.80891000  0.95336000  1.0
  H  H18  1  0.42305000  0.05600000  0.49674000  1.0
  H  H19  1  0.57695000  0.94400000  0.99674000  1.0
  H  H20  1  0.27775000  0.07910000  0.45056000  1.0
  H  H21  1  0.72225000  0.92090000  0.95056000  1.0
  H  H22  1  0.39419000  0.62514000  0.71224000  1.0
  H  H23  1  0.60582000  0.37486000  0.21224000  1.0
  H  H24  1  0.39986000  0.55718000  0.63730000  1.0
  H  H25  1  0.60014000  0.44282000  0.13730000  1.0
  H  H26  1  0.28672000  0.50595000  0.69331000  1.0
  H  H27  1  0.71328000  0.49405000  0.19331000  1.0
  H  H28  1  0.94741000  0.32272000  0.53848000  1.0
  H  H29  1  0.05259000  0.67728000  0.03848000  1.0
  H  H30  1  0.80522000  0.38815000  0.50221000  1.0
  H  H31  1  0.19478000  0.61185000  0.00221000  1.0
  H  H32  1  0.82028000  0.38907000  0.58463000  1.0
  H  H33  1  0.17972000  0.61093000  0.08463000  1.0
  H  H34  1  0.90303000  0.06538000  0.74382000  1.0
  H  H35  1  0.09697000  0.93462000  0.24382000  1.0
  H  H36  1  0.91729000  0.14037000  0.67070000  1.0
  H  H37  1  0.08271000  0.85963000  0.17070000  1.0
  H  H38  1  0.79113000  0.03506000  0.68294000  1.0
  H  H39  1  0.20887000  0.96494000  0.18295000  1.0
  H  H40  1  0.11560000  0.29467000  0.42452000  1.0
  H  H41  1  0.88440000  0.70533000  0.92452000  1.0
  H  H42  1  0.24652000  0.39690000  0.43571000  1.0
  H  H43  1  0.75348000  0.60310000  0.93571000  1.0
  H  H44  1  0.10629000  0.43988000  0.39011000  1.0
  H  H45  1  0.89371000  0.56012000  0.89011000  1.0
  H  H46  1  0.74036000  0.09556000  0.33172000  1.0
  H  H47  1  0.25963000  0.90444000  0.83172000  1.0
  H  H48  1  0.62827000  0.16203000  0.38638000  1.0
  H  H49  1  0.37173000  0.83797000  0.88638000  1.0
  H  H50  1  0.59080000  0.16629000  0.30556000  1.0
  H  H51  1  0.40920000  0.83371000  0.80556000  1.0
  H  H52  1  0.63367000  0.64064000  0.46257000  1.0
  H  H53  1  0.36634000  0.35937000  0.96257000  1.0
  H  H54  1  0.45064000  0.80132000  0.47145000  1.0
  H  H55  1  0.54936000  0.19868000  0.97145000  1.0
  H  H56  1  0.47772000  0.82855000  0.58576000  1.0
  H  H57  1  0.52228000  0.17145000  0.08576000  1.0
  H  H58  1  0.54868000  0.68055000  0.59172000  1.0
  H  H59  1  0.45132000  0.31944000  0.09172000  1.0
  H  H60  1  0.62728000  0.79384000  0.54785000  1.0
  H  H61  1  0.37271000  0.20616000  0.04785000  1.0
  H  H62  1  0.25979000  0.66521000  0.47452000  1.0
  H  H63  1  0.74021000  0.33479000  0.97452000  1.0
  H  H64  1  0.31557000  0.60312000  0.54608000  1.0
  H  H65  1  0.68443000  0.39687000  0.04608000  1.0
  H  H66  1  0.26401000  0.75590000  0.54302000  1.0
  H  H67  1  0.73599000  0.24410000  0.04302000  1.0
  H  H68  1  0.14556000  0.87038000  0.40883000  1.0
  H  H69  1  0.85444000  0.12962000  0.90884000  1.0
  H  H70  1  0.98748000  0.81074000  0.32786000  1.0
  H  H71  1  0.01252000  0.18926000  0.82786000  1.0
  H  H72  1  0.77790000  0.88104000  0.37623000  1.0
  H  H73  1  0.22210000  0.11896000  0.87623000  1.0
  H  H74  1  0.77709000  0.72402000  0.35718000  1.0
  H  H75  1  0.22291000  0.27598000  0.85718000  1.0
  H  H76  1  0.79548000  0.76954000  0.43563000  1.0
  H  H77  1  0.20452000  0.23046000  0.93563000  1.0
  H  H78  1  0.98507000  0.59524000  0.36099000  1.0
  H  H79  1  0.01493000  0.40476000  0.86099000  1.0
  H  H80  1  0.13573000  0.66230000  0.37860000  1.0
  H  H81  1  0.86427000  0.33770000  0.87860000  1.0
  H  H82  1  0.01969000  0.63705000  0.43903000  1.0
  H  H83  1  0.98032000  0.36295000  0.93903000  1.0
  C  C84  1  0.28241000  0.18026000  0.53461000  1.0
  C  C85  1  0.71759000  0.81974000  0.03461000  1.0
  C  C86  1  0.34921000  0.12271000  0.48047000  1.0
  C  C87  1  0.65079000  0.87730000  0.98047000  1.0
  C  C88  1  0.48482000  0.44975000  0.70941000  1.0
  C  C89  1  0.51518000  0.55025000  0.20941000  1.0
  C  C90  1  0.38571000  0.53977000  0.68702000  1.0
  C  C91  1  0.61429000  0.46023000  0.18702000  1.0
  C  C92  1  0.77705000  0.21759000  0.54517000  1.0
  C  C93  1  0.22295000  0.78242000  0.04518000  1.0
  C  C94  1  0.84148000  0.33586000  0.54249000  1.0
  C  C95  1  0.15853000  0.66414000  0.04249000  1.0
  C  C96  1  0.98178000  0.95598000  0.67066000  1.0
  C  C97  1  0.01822000  0.04402000  0.17066000  1.0
  C  C98  1  0.89345000  0.05501000  0.69328000  1.0
  C  C99  1  0.10655000  0.94499000  0.19328000  1.0
  C  C100  1  0.23877000  0.31609000  0.34599000  1.0
  C  C101  1  0.76123000  0.68391000  0.84599000  1.0
  C  C102  1  0.17353000  0.36503000  0.40267000  1.0
  C  C103  1  0.82646000  0.63498000  0.90267000  1.0
  C  C104  1  0.73725000  0.28768000  0.33400000  1.0
  C  C105  1  0.26274000  0.71232000  0.83400000  1.0
  C  C106  1  0.67075000  0.17086000  0.33960000  1.0
  C  C107  1  0.32925000  0.82914000  0.83960000  1.0
  C  C108  1  0.51537000  0.49393000  0.48812000  1.0
  C  C109  1  0.48463000  0.50607000  0.98812000  1.0
  C  C110  1  0.52838000  0.62291000  0.46253000  1.0
  C  C111  1  0.47162000  0.37709000  0.96253000  1.0
  C  C112  1  0.45625000  0.72105000  0.50208000  1.0
  C  C113  1  0.54375000  0.27895000  0.00208000  1.0
  C  C114  1  0.53201000  0.75732000  0.56030000  1.0
  C  C115  1  0.46798000  0.24268000  0.06030000  1.0
  C  C116  1  0.31643000  0.68456000  0.51687000  1.0
  C  C117  1  0.68357000  0.31544000  0.01687000  1.0
  C  C118  1  0.01436000  0.01491000  0.39132000  1.0
  C  C119  1  0.98564000  0.98509000  0.89132000  1.0
  C  C120  1  0.03921000  0.88533000  0.41514000  1.0
  C  C121  1  0.96079000  0.11467000  0.91514000  1.0
  C  C122  1  0.96984000  0.78850000  0.37700000  1.0
  C  C123  1  0.03016000  0.21150000  0.87700000  1.0
  C  C124  1  0.82165000  0.79185000  0.38720000  1.0
  C  C125  1  0.17835000  0.20815000  0.88720000  1.0
  C  C126  1  0.03081000  0.66379000  0.38988000  1.0
  C  C127  1  0.96919000  0.33622000  0.88988000  1.0
  N  N128  1  0.15944000  0.16158000  0.55296000  1.0
  N  N129  1  0.84056000  0.83842000  0.05296000  1.0
  N  N130  1  0.13686000  0.23069000  0.60467000  1.0
  N  N131  1  0.86314000  0.76931000  0.10467000  1.0
  N  N132  1  0.24146000  0.28945000  0.61727000  1.0
  N  N133  1  0.75854000  0.71055000  0.11727000  1.0
  N  N134  1  0.33466000  0.25961000  0.57420000  1.0
  N  N135  1  0.66534000  0.74039000  0.07420000  1.0
  N  N136  1  0.54200000  0.36170000  0.67484000  1.0
  N  N137  1  0.45800000  0.63830000  0.17484000  1.0
  N  N138  1  0.62454000  0.29759000  0.71276000  1.0
  N  N139  1  0.37546000  0.70241000  0.21276000  1.0
  N  N140  1  0.61796000  0.34485000  0.76830000  1.0
  N  N141  1  0.38204000  0.65515000  0.26830000  1.0
  N  N142  1  0.53129000  0.44041000  0.76757000  1.0
  N  N143  1  0.46871000  0.55959000  0.26757000  1.0
  N  N144  1  0.64951000  0.20104000  0.55595000  1.0
  N  N145  1  0.35049000  0.79896000  0.05595000  1.0
  N  N146  1  0.62942000  0.08046000  0.55273000  1.0
  N  N147  1  0.37059000  0.91954000  0.05273000  1.0
  N  N148  1  0.74035000  0.02542000  0.54055000  1.0
  N  N149  1  0.25965000  0.97458000  0.04055000  1.0
  N  N150  1  0.83453000  0.10908000  0.53590000  1.0
  N  N151  1  0.16547000  0.89092000  0.03590000  1.0
  N  N152  1  0.02625000  0.86068000  0.70428000  1.0
  N  N153  1  0.97375000  0.13932000  0.20428000  1.0
  N  N154  1  0.10120000  0.78994000  0.66610000  1.0
  N  N155  1  0.89880000  0.21006000  0.16610000  1.0
  N  N156  1  0.10245000  0.84035000  0.61133000  1.0
  N  N157  1  0.89755000  0.15965000  0.11133000  1.0
  N  N158  1  0.02910000  0.94439000  0.61272000  1.0
  N  N159  1  0.97090000  0.05561000  0.11272000  1.0
  N  N160  1  0.18417000  0.24353000  0.30372000  1.0
  N  N161  1  0.81583000  0.75648000  0.80372000  1.0
  N  N162  1  0.27588000  0.21834000  0.25923000  1.0
  N  N163  1  0.72412000  0.78166000  0.75923000  1.0
  N  N164  1  0.38177000  0.27373000  0.27360000  1.0
  N  N165  1  0.61823000  0.72627000  0.77359000  1.0
  N  N166  1  0.36167000  0.33577000  0.32788000  1.0
  N  N167  1  0.63833000  0.66423000  0.82788000  1.0
  N  N168  1  0.86389000  0.30225000  0.32044000  1.0
  N  N169  1  0.13611000  0.69775000  0.82044000  1.0
  N  N170  1  0.88484000  0.42278000  0.32027000  1.0
  N  N171  1  0.11516000  0.57722000  0.82027000  1.0
  N  N172  1  0.77551000  0.47975000  0.33323000  1.0
  N  N173  1  0.22449000  0.52025000  0.83323000  1.0
  N  N174  1  0.68116000  0.39752000  0.34194000  1.0
  N  N175  1  0.31884000  0.60248000  0.84194000  1.0
  N  N176  1  0.48483000  0.62552000  0.39689000  1.0
  N  N177  1  0.51517000  0.37448000  0.89689000  1.0
  N  N178  1  0.01416000  0.88101000  0.48269000  1.0
  N  N179  1  0.98584000  0.11899000  0.98269000  1.0
  O  O180  1  0.48111000  0.41022000  0.45235000  1.0
  O  O181  1  0.51889000  0.58978000  0.95235000  1.0
  O  O182  1  0.54252000  0.48024000  0.54598000  1.0
  O  O183  1  0.45748000  0.51976000  0.04598000  1.0
  O  O184  1  0.02409000  0.10211000  0.42857000  1.0
  O  O185  1  0.97591000  0.89789000  0.92856000  1.0
  O  O186  1  0.99143000  0.02490000  0.33290000  1.0
  O  O187  1  0.00857000  0.97510000  0.83290000  1.0
