# generated using pymatgen
data_Cu2H9(C8N5)2
_symmetry_space_group_name_H-M   'P 1'
_cell_length_a   27.63360000
_cell_length_b   29.20760000
_cell_length_c   33.47620000
_cell_angle_alpha   89.85530000
_cell_angle_beta   89.17820000
_cell_angle_gamma   86.46370000
_symmetry_Int_Tables_number   1
_chemical_formula_structural   Cu2H9(C8N5)2
_chemical_formula_sum   'Cu12 H54 C96 N60'
_cell_volume   26964.75709170
_cell_formula_units_Z   6
loop_
 _symmetry_equiv_pos_site_id
 _symmetry_equiv_pos_as_xyz
  1  'x, y, z'
loop_
 _atom_site_type_symbol
 _atom_site_label
 _atom_site_symmetry_multiplicity
 _atom_site_fract_x
 _atom_site_fract_y
 _atom_site_fract_z
 _atom_site_occupancy
  Cu  Cu0  1  0.10238000  0.18394000  0.22370000  1.0
  Cu  Cu1  1  0.15825000  0.16139000  0.14373000  1.0
  Cu  Cu2  1  0.19582000  0.11318000  0.22290000  1.0
  Cu  Cu3  1  0.90075000  0.81705000  0.20870000  1.0
  Cu  Cu4  1  0.84695000  0.82796000  0.12714000  1.0
  Cu  Cu5  1  0.79662000  0.86786000  0.20652000  1.0
  Cu  Cu6  1  0.87758000  0.22328000  0.79177000  1.0
  Cu  Cu7  1  0.81348000  0.21337000  0.86969000  1.0
  Cu  Cu8  1  0.82177000  0.13238000  0.80826000  1.0
  Cu  Cu9  1  0.13642000  0.77953000  0.77491000  1.0
  Cu  Cu10  1  0.18502000  0.81634000  0.85246000  1.0
  Cu  Cu11  1  0.18804000  0.87448000  0.77362000  1.0
  H  H12  1  0.04530000  0.28009000  0.19985000  1.0
  H  H13  1  0.11420000  0.23937000  0.08728000  1.0
  H  H14  1  0.18642000  0.06927000  0.30934000  1.0
  H  H15  1  0.05105000  0.15190000  0.30313000  1.0
  H  H16  1  0.22719000  0.11021000  0.07963000  1.0
  H  H17  1  0.29326000  0.05960000  0.18913000  1.0
  H  H18  1  0.97261000  0.72893000  0.18924000  1.0
  H  H19  1  0.90700000  0.75478000  0.07394000  1.0
  H  H20  1  0.79109000  0.91368000  0.29335000  1.0
  H  H21  1  0.93971000  0.85696000  0.28942000  1.0
  H  H22  1  0.77198000  0.86906000  0.06282000  1.0
  H  H23  1  0.69202000  0.89875000  0.17296000  1.0
  H  H24  1  0.93942000  0.30767000  0.81579000  1.0
  H  H25  1  0.85767000  0.28778000  0.92524000  1.0
  H  H26  1  0.85424000  0.07478000  0.73160000  1.0
  H  H27  1  0.91358000  0.20468000  0.70186000  1.0
  H  H28  1  0.71751000  0.18784000  0.91781000  1.0
  H  H29  1  0.74719000  0.06488000  0.84732000  1.0
  H  H30  1  0.10552000  0.68165000  0.80645000  1.0
  H  H31  1  0.15374000  0.74248000  0.91575000  1.0
  H  H32  1  0.13815000  0.92136000  0.69842000  1.0
  H  H33  1  0.07530000  0.78917000  0.69536000  1.0
  H  H34  1  0.25258000  0.87086000  0.90796000  1.0
  H  H35  1  0.27144000  0.94270000  0.79592000  1.0
  H  H36  1  0.46044000  0.97824000  0.92195000  1.0
  H  H37  1  0.46109000  0.01395000  0.04747000  1.0
  H  H38  1  0.52695000  0.04549000  0.93753000  1.0
  H  H39  1  0.52630000  0.94611000  0.03365000  1.0
  H  H40  1  0.32583000  0.99958000  0.98773000  1.0
  H  H41  1  0.66030000  0.00094000  0.99466000  1.0
  H  H42  1  0.99615000  0.47555000  0.94696000  1.0
  H  H43  1  0.04312000  0.46401000  0.06985000  1.0
  H  H44  1  0.00096000  0.53848000  0.06784000  1.0
  H  H45  1  0.06011000  0.52392000  0.94749000  1.0
  H  H46  1  0.99515000  0.34603000  0.00848000  1.0
  H  H47  1  0.04783000  0.65635000  0.00443000  1.0
  H  H48  1  0.91218000  0.95586000  0.47364000  1.0
  H  H49  1  0.03708000  0.03799000  0.48081000  1.0
  H  H50  1  0.00847000  0.92715000  0.52901000  1.0
  H  H51  1  0.93771000  0.06366000  0.53381000  1.0
  H  H52  1  0.98308000  0.00053000  0.36619000  1.0
  H  H53  1  0.97825000  0.99262000  0.64243000  1.0
  H  H54  1  0.06016000  0.31245000  0.05008000  1.0
  H  H55  1  0.97521000  0.68699000  0.04119000  1.0
  H  H56  1  0.92814000  0.33960000  0.96522000  1.0
  H  H57  1  0.10178000  0.67515000  0.95853000  1.0
  H  H58  1  0.01275000  0.07651000  0.35215000  1.0
  H  H59  1  0.05965000  0.95562000  0.65121000  1.0
  H  H60  1  0.95959000  0.92700000  0.34613000  1.0
  H  H61  1  0.91221000  0.03583000  0.66737000  1.0
  H  H62  1  0.30091000  0.05741000  0.03587000  1.0
  H  H63  1  0.69001000  0.02344000  0.92513000  1.0
  H  H64  1  0.30962000  0.93524000  0.94488000  1.0
  H  H65  1  0.69474000  0.93618000  0.02632000  1.0
  C  C66  1  0.06536000  0.26312000  0.17543000  1.0
  C  C67  1  0.07045000  0.27744000  0.13561000  1.0
  C  C68  1  0.10016000  0.24238000  0.11766000  1.0
  C  C69  1  0.15616000  0.09295000  0.30172000  1.0
  C  C70  1  0.11175000  0.10158000  0.32197000  1.0
  C  C71  1  0.08662000  0.13470000  0.29843000  1.0
  C  C72  1  0.23699000  0.10134000  0.11010000  1.0
  C  C73  1  0.27666000  0.07426000  0.12456000  1.0
  C  C74  1  0.27061000  0.07579000  0.16628000  1.0
  C  C75  1  0.95225000  0.74203000  0.16377000  1.0
  C  C76  1  0.95196000  0.72499000  0.12462000  1.0
  C  C77  1  0.91915000  0.75528000  0.10461000  1.0
  C  C78  1  0.82582000  0.89609000  0.28617000  1.0
  C  C79  1  0.86915000  0.89484000  0.30758000  1.0
  C  C80  1  0.90203000  0.86758000  0.28411000  1.0
  C  C81  1  0.75936000  0.87413000  0.09343000  1.0
  C  C82  1  0.71427000  0.89167000  0.10828000  1.0
  C  C83  1  0.71855000  0.88867000  0.14995000  1.0
  C  C84  1  0.91497000  0.29709000  0.83922000  1.0
  C  C85  1  0.91018000  0.31255000  0.87883000  1.0
  C  C86  1  0.87358000  0.28686000  0.89540000  1.0
  C  C87  1  0.86655000  0.10935000  0.73069000  1.0
  C  C88  1  0.89116000  0.13192000  0.70022000  1.0
  C  C89  1  0.89635000  0.17602000  0.71547000  1.0
  C  C90  1  0.73175000  0.16126000  0.89750000  1.0
  C  C91  1  0.71529000  0.11739000  0.89114000  1.0
  C  C92  1  0.74710000  0.09802000  0.86192000  1.0
  C  C93  1  0.11998000  0.70297000  0.82933000  1.0
  C  C94  1  0.12242000  0.69544000  0.87070000  1.0
  C  C95  1  0.14417000  0.73400000  0.88543000  1.0
  C  C96  1  0.12716000  0.88673000  0.70336000  1.0
  C  C97  1  0.09389000  0.86174000  0.68251000  1.0
  C  C98  1  0.09550000  0.81892000  0.70167000  1.0
  C  C99  1  0.25093000  0.88449000  0.87777000  1.0
  C  C100  1  0.27728000  0.91870000  0.85972000  1.0
  C  C101  1  0.26066000  0.92082000  0.82029000  1.0
  C  C102  1  0.44151000  0.98713000  0.94988000  1.0
  C  C103  1  0.46690000  0.99610000  0.98465000  1.0
  C  C104  1  0.44171000  0.00628000  0.02045000  1.0
  C  C105  1  0.39111000  0.00837000  0.02122000  1.0
  C  C106  1  0.36528000  0.99866000  0.98705000  1.0
  C  C107  1  0.39094000  0.98753000  0.95178000  1.0
  C  C108  1  0.52059000  0.99517000  0.98496000  1.0
  C  C109  1  0.54594000  0.02307000  0.95897000  1.0
  C  C110  1  0.59612000  0.02435000  0.96261000  1.0
  C  C111  1  0.62168000  0.99734000  0.99071000  1.0
  C  C112  1  0.59595000  0.96891000  0.01580000  1.0
  C  C113  1  0.54562000  0.96784000  0.01323000  1.0
  C  C114  1  0.00354000  0.45544000  0.97384000  1.0
  C  C115  1  0.02089000  0.47573000  0.00834000  1.0
  C  C116  1  0.02880000  0.44926000  0.04295000  1.0
  C  C117  1  0.01983000  0.40275000  0.04242000  1.0
  C  C118  1  0.00219000  0.38229000  0.00836000  1.0
  C  C119  1  0.99389000  0.40910000  0.97429000  1.0
  C  C120  1  0.03004000  0.52513000  0.00789000  1.0
  C  C121  1  0.01753000  0.55268000  0.04121000  1.0
  C  C122  1  0.02395000  0.59963000  0.03928000  1.0
  C  C123  1  0.04337000  0.61961000  0.00520000  1.0
  C  C124  1  0.05621000  0.59178000  0.97239000  1.0
  C  C125  1  0.04961000  0.54478000  0.97347000  1.0
  C  C126  1  0.94061000  0.97462000  0.45938000  1.0
  C  C127  1  0.97398000  0.99720000  0.48210000  1.0
  C  C128  1  0.01064000  0.02086000  0.46333000  1.0
  C  C129  1  0.01348000  0.02192000  0.42168000  1.0
  C  C130  1  0.98047000  0.99968000  0.39865000  1.0
  C  C131  1  0.94437000  0.97597000  0.41771000  1.0
  C  C132  1  0.97246000  0.99534000  0.52658000  1.0
  C  C133  1  0.99283000  0.95634000  0.54597000  1.0
  C  C134  1  0.99529000  0.95617000  0.58759000  1.0
  C  C135  1  0.97603000  0.99332000  0.61001000  1.0
  C  C136  1  0.95489000  0.03155000  0.59035000  1.0
  C  C137  1  0.95348000  0.03317000  0.54864000  1.0
  C  C138  1  0.05116000  0.31942000  0.11715000  1.0
  C  C139  1  0.04897000  0.33083000  0.07703000  1.0
  C  C140  1  0.97761000  0.68418000  0.10872000  1.0
  C  C141  1  0.98524000  0.67099000  0.06935000  1.0
  C  C142  1  0.93815000  0.34612000  0.89830000  1.0
  C  C143  1  0.94373000  0.35429000  0.93864000  1.0
  C  C144  1  0.10383000  0.65763000  0.89286000  1.0
  C  C145  1  0.09520000  0.65319000  0.93345000  1.0
  C  C146  1  0.09411000  0.07860000  0.35720000  1.0
  C  C147  1  0.04700000  0.06870000  0.36675000  1.0
  C  C148  1  0.06302000  0.87802000  0.65021000  1.0
  C  C149  1  0.04983000  0.92287000  0.63975000  1.0
  C  C150  1  0.87898000  0.91816000  0.34442000  1.0
  C  C151  1  0.92300000  0.93137000  0.35808000  1.0
  C  C152  1  0.90915000  0.11310000  0.66252000  1.0
  C  C153  1  0.91778000  0.06761000  0.65177000  1.0
  C  C154  1  0.31566000  0.05064000  0.10204000  1.0
  C  C155  1  0.32214000  0.04539000  0.06117000  1.0
  C  C156  1  0.67362000  0.09839000  0.91043000  1.0
  C  C157  1  0.66683000  0.05471000  0.92479000  1.0
  C  C158  1  0.31433000  0.94443000  0.87779000  1.0
  C  C159  1  0.32518000  0.94881000  0.91779000  1.0
  C  C160  1  0.67227000  0.91030000  0.08705000  1.0
  C  C161  1  0.66828000  0.93035000  0.04963000  1.0
  N  N162  1  0.11193000  0.20961000  0.14485000  1.0
  N  N163  1  0.09028000  0.22242000  0.18066000  1.0
  N  N164  1  0.11406000  0.14492000  0.26638000  1.0
  N  N165  1  0.15713000  0.11884000  0.26831000  1.0
  N  N166  1  0.23017000  0.10187000  0.17582000  1.0
  N  N167  1  0.20933000  0.11777000  0.14099000  1.0
  N  N168  1  0.90111000  0.78795000  0.13005000  1.0
  N  N169  1  0.92174000  0.77976000  0.16672000  1.0
  N  N170  1  0.87982000  0.85365000  0.25109000  1.0
  N  N171  1  0.83260000  0.87145000  0.25231000  1.0
  N  N172  1  0.76313000  0.87092000  0.15918000  1.0
  N  N173  1  0.78844000  0.86168000  0.12415000  1.0
  N  N174  1  0.85779000  0.25813000  0.86765000  1.0
  N  N175  1  0.88358000  0.26442000  0.83285000  1.0
  N  N176  1  0.87644000  0.17925000  0.75245000  1.0
  N  N177  1  0.85785000  0.13793000  0.76187000  1.0
  N  N178  1  0.78015000  0.12827000  0.85162000  1.0
  N  N179  1  0.77074000  0.16737000  0.87393000  1.0
  N  N180  1  0.15377000  0.76250000  0.85499000  1.0
  N  N181  1  0.13867000  0.74330000  0.82022000  1.0
  N  N182  1  0.12724000  0.81869000  0.73195000  1.0
  N  N183  1  0.14697000  0.86074000  0.73294000  1.0
  N  N184  1  0.22680000  0.89004000  0.81538000  1.0
  N  N185  1  0.22087000  0.86744000  0.85101000  1.0
  N  N186  1  0.02019000  0.39043000  0.11434000  1.0
  N  N187  1  0.03285000  0.35694000  0.13867000  1.0
  N  N188  1  0.02992000  0.37496000  0.07634000  1.0
  N  N189  1  0.01548000  0.61585000  0.11038000  1.0
  N  N190  1  0.99709000  0.64942000  0.13261000  1.0
  N  N191  1  0.00845000  0.62854000  0.07145000  1.0
  N  N192  1  0.98776000  0.40179000  0.90237000  1.0
  N  N193  1  0.96592000  0.37600000  0.87745000  1.0
  N  N194  1  0.97455000  0.38891000  0.94014000  1.0
  N  N195  1  0.07204000  0.59120000  0.90113000  1.0
  N  N196  1  0.08907000  0.61875000  0.87447000  1.0
  N  N197  1  0.07549000  0.61176000  0.93763000  1.0
  N  N198  1  0.09772000  0.04008000  0.41361000  1.0
  N  N199  1  0.12370000  0.06032000  0.38677000  1.0
  N  N200  1  0.05039000  0.04502000  0.40176000  1.0
  N  N201  1  0.01437000  0.87442000  0.59912000  1.0
  N  N202  1  0.04025000  0.84971000  0.62457000  1.0
  N  N203  1  0.01989000  0.91945000  0.60811000  1.0
  N  N204  1  0.86361000  0.95284000  0.40177000  1.0
  N  N205  1  0.84382000  0.93216000  0.37217000  1.0
  N  N206  1  0.91233000  0.95259000  0.39357000  1.0
  N  N207  1  0.93830000  0.11336000  0.60114000  1.0
  N  N208  1  0.92233000  0.13969000  0.63051000  1.0
  N  N209  1  0.93571000  0.06886000  0.61368000  1.0
  N  N210  1  0.38578000  0.01213000  0.09336000  1.0
  N  N211  1  0.35549000  0.02942000  0.12032000  1.0
  N  N212  1  0.36592000  0.02157000  0.05682000  1.0
  N  N213  1  0.59983000  0.10062000  0.93581000  1.0
  N  N214  1  0.63159000  0.12509000  0.91805000  1.0
  N  N215  1  0.62076000  0.05708000  0.94007000  1.0
  N  N216  1  0.37789000  0.98591000  0.87999000  1.0
  N  N217  1  0.34742000  0.96799000  0.85595000  1.0
  N  N218  1  0.36473000  0.97444000  0.91807000  1.0
  N  N219  1  0.59536000  0.93176000  0.08011000  1.0
  N  N220  1  0.62658000  0.91208000  0.10439000  1.0
  N  N221  1  0.62021000  0.94321000  0.04616000  1.0
