# generated using pymatgen
data_NiH16(C3O4)2
_symmetry_space_group_name_H-M   'P 1'
_cell_length_a   4.69043000
_cell_length_b   9.63087000
_cell_length_c   11.69070000
_cell_angle_alpha   89.99990000
_cell_angle_beta   98.67340000
_cell_angle_gamma   90.00000000
_symmetry_Int_Tables_number   1
_chemical_formula_structural   NiH16(C3O4)2
_chemical_formula_sum   'Ni2 H32 C12 O16'
_cell_volume   522.06368974
_cell_formula_units_Z   2
loop_
 _symmetry_equiv_pos_site_id
 _symmetry_equiv_pos_as_xyz
  1  'x, y, z'
loop_
 _atom_site_type_symbol
 _atom_site_label
 _atom_site_symmetry_multiplicity
 _atom_site_fract_x
 _atom_site_fract_y
 _atom_site_fract_z
 _atom_site_occupancy
  Ni  Ni0  1  0.00000000  0.50000000  0.50000000  1.0
  Ni  Ni1  1  0.00000000  0.00000000  0.00000000  1.0
  H  H2  1  0.11621000  0.30467000  0.37618000  1.0
  H  H3  1  0.11621000  0.19533000  0.87618000  1.0
  H  H4  1  0.88379000  0.69534000  0.62382000  1.0
  H  H5  1  0.88379000  0.80467000  0.12382000  1.0
  H  H6  1  0.40606000  0.32414000  0.47468000  1.0
  H  H7  1  0.40606000  0.17587000  0.97468000  1.0
  H  H8  1  0.59394000  0.67586000  0.52532000  1.0
  H  H9  1  0.59394000  0.82414000  0.02532000  1.0
  H  H10  1  0.58374000  0.43266000  0.62358000  1.0
  H  H11  1  0.58374000  0.06734000  0.12358000  1.0
  H  H12  1  0.41626000  0.56734000  0.37641000  1.0
  H  H13  1  0.41626000  0.93266000  0.87641000  1.0
  H  H14  1  0.81317000  0.30761000  0.64426000  1.0
  H  H15  1  0.81318000  0.19240000  0.14426000  1.0
  H  H16  1  0.18682000  0.69240000  0.35574000  1.0
  H  H17  1  0.18682000  0.80760000  0.85574000  1.0
  H  H18  1  0.34045000  0.34439000  0.13674000  1.0
  H  H19  1  0.34045000  0.15561000  0.63674000  1.0
  H  H20  1  0.65955000  0.65561000  0.86326000  1.0
  H  H21  1  0.65955000  0.84439000  0.36326000  1.0
  H  H22  1  0.33781000  0.52088000  0.17865000  1.0
  H  H23  1  0.33781000  0.97912000  0.67865000  1.0
  H  H24  1  0.66220000  0.47912000  0.82135000  1.0
  H  H25  1  0.66219000  0.02088000  0.32135000  1.0
  H  H26  1  0.73648000  0.38852000  0.02295000  1.0
  H  H27  1  0.73648000  0.11148000  0.52295000  1.0
  H  H28  1  0.26352000  0.61148000  0.97705000  1.0
  H  H29  1  0.26351000  0.88852000  0.47705000  1.0
  H  H30  1  0.76988000  0.56167000  0.07207000  1.0
  H  H31  1  0.76988000  0.93833000  0.57207000  1.0
  H  H32  1  0.23012000  0.43833000  0.92793000  1.0
  H  H33  1  0.23012000  0.06167000  0.42793000  1.0
  C  C34  1  0.70349000  0.40598000  0.25954000  1.0
  C  C35  1  0.70349000  0.09402000  0.75954000  1.0
  C  C36  1  0.29652000  0.59402000  0.74046000  1.0
  C  C37  1  0.29651000  0.90597000  0.24046000  1.0
  C  C38  1  0.47731000  0.43665000  0.15633000  1.0
  C  C39  1  0.47731000  0.06335000  0.65633000  1.0
  C  C40  1  0.52269000  0.56335000  0.84367000  1.0
  C  C41  1  0.52269000  0.93665000  0.34367000  1.0
  C  C42  1  0.61392000  0.47696000  0.04992000  1.0
  C  C43  1  0.61392000  0.02304000  0.54992000  1.0
  C  C44  1  0.38608000  0.52304000  0.95008000  1.0
  C  C45  1  0.38608000  0.97696000  0.45009000  1.0
  O  O46  1  0.19408000  0.31624000  0.46077000  1.0
  O  O47  1  0.19408000  0.18375000  0.96077000  1.0
  O  O48  1  0.80592000  0.68375000  0.53923000  1.0
  O  O49  1  0.80591000  0.81624000  0.03923000  1.0
  O  O50  1  0.72733000  0.37827000  0.58589000  1.0
  O  O51  1  0.72733000  0.12173000  0.08589000  1.0
  O  O52  1  0.27267000  0.62173000  0.41410000  1.0
  O  O53  1  0.27267000  0.87827000  0.91410000  1.0
  O  O54  1  0.70059000  0.48200000  0.34996000  1.0
  O  O55  1  0.70059000  0.01800000  0.84996000  1.0
  O  O56  1  0.29941000  0.51799000  0.65005000  1.0
  O  O57  1  0.29941000  0.98200000  0.15004000  1.0
  O  O58  1  0.88811000  0.31049000  0.25343000  1.0
  O  O59  1  0.88812000  0.18951000  0.75343000  1.0
  O  O60  1  0.11189000  0.68951000  0.74657000  1.0
  O  O61  1  0.11188000  0.81049000  0.24657000  1.0
