# generated using pymatgen
data_CuH22C16S2I
_symmetry_space_group_name_H-M   'P 1'
_cell_length_a   13.52110000
_cell_length_b   14.08460000
_cell_length_c   21.94890000
_cell_angle_alpha   108.41700000
_cell_angle_beta   89.99990000
_cell_angle_gamma   89.99990000
_symmetry_Int_Tables_number   1
_chemical_formula_structural   CuH22C16S2I
_chemical_formula_sum   'Cu8 H176 C128 S16 I8'
_cell_volume   3965.84634083
_cell_formula_units_Z   8
loop_
 _symmetry_equiv_pos_site_id
 _symmetry_equiv_pos_as_xyz
  1  'x, y, z'
loop_
 _atom_site_type_symbol
 _atom_site_label
 _atom_site_symmetry_multiplicity
 _atom_site_fract_x
 _atom_site_fract_y
 _atom_site_fract_z
 _atom_site_occupancy
  Cu  Cu0  1  0.90984000  0.88389000  0.67310000  1.0
  Cu  Cu1  1  0.40984000  0.61611000  0.82689000  1.0
  Cu  Cu2  1  0.09016000  0.11612000  0.32689000  1.0
  Cu  Cu3  1  0.59016000  0.38388000  0.17310000  1.0
  Cu  Cu4  1  0.91666000  0.06289000  0.76753000  1.0
  Cu  Cu5  1  0.41666000  0.43711000  0.73247000  1.0
  Cu  Cu6  1  0.08334000  0.93712000  0.23247000  1.0
  Cu  Cu7  1  0.58334000  0.56288000  0.26753000  1.0
  H  H8  1  0.89977000  0.21748000  0.68222000  1.0
  H  H9  1  0.39978000  0.28252000  0.81778000  1.0
  H  H10  1  0.10022000  0.78252000  0.31778000  1.0
  H  H11  1  0.60023000  0.71747000  0.18222000  1.0
  H  H12  1  0.81743000  0.26613000  0.74735000  1.0
  H  H13  1  0.31743000  0.23387000  0.75266000  1.0
  H  H14  1  0.18257000  0.73387000  0.25266000  1.0
  H  H15  1  0.68257000  0.76612000  0.24735000  1.0
  H  H16  1  0.99904000  0.38063000  0.72353000  1.0
  H  H17  1  0.49905000  0.11937000  0.77647000  1.0
  H  H18  1  0.00095000  0.61937000  0.27647000  1.0
  H  H19  1  0.50095000  0.88062000  0.22353000  1.0
  H  H20  1  0.93193000  0.44268000  0.83495000  1.0
  H  H21  1  0.43193000  0.05732000  0.66505000  1.0
  H  H22  1  0.06807000  0.55732000  0.16505000  1.0
  H  H23  1  0.56807000  0.94267000  0.33495000  1.0
  H  H24  1  0.81335000  0.45536000  0.80421000  1.0
  H  H25  1  0.31335000  0.04464000  0.69580000  1.0
  H  H26  1  0.18664000  0.54464000  0.19579000  1.0
  H  H27  1  0.68665000  0.95536000  0.30420000  1.0
  H  H28  1  0.90165000  0.61954000  0.83761000  1.0
  H  H29  1  0.40166000  0.88046000  0.66239000  1.0
  H  H30  1  0.09835000  0.38046000  0.16239000  1.0
  H  H31  1  0.59834000  0.11953000  0.33761000  1.0
  H  H32  1  0.00234000  0.56615000  0.78702000  1.0
  H  H33  1  0.50234000  0.93386000  0.71298000  1.0
  H  H34  1  0.99766000  0.43385000  0.21298000  1.0
  H  H35  1  0.49766000  0.06614000  0.28701000  1.0
  H  H36  1  0.78995000  0.58461000  0.74397000  1.0
  H  H37  1  0.28995000  0.91539000  0.75603000  1.0
  H  H38  1  0.21005000  0.41539000  0.25603000  1.0
  H  H39  1  0.71005000  0.08461000  0.24397000  1.0
  H  H40  1  0.97358000  0.50476000  0.66247000  1.0
  H  H41  1  0.47358000  0.99524000  0.83754000  1.0
  H  H42  1  0.02642000  0.49524000  0.33754000  1.0
  H  H43  1  0.52642000  0.00476000  0.16246000  1.0
  H  H44  1  0.85499000  0.51823000  0.63248000  1.0
  H  H45  1  0.35499000  0.98177000  0.86752000  1.0
  H  H46  1  0.14501000  0.48177000  0.36752000  1.0
  H  H47  1  0.64501000  0.01823000  0.13248000  1.0
  H  H48  1  0.78591000  0.39383000  0.68071000  1.0
  H  H49  1  0.28591000  0.10617000  0.81929000  1.0
  H  H50  1  0.21409000  0.60617000  0.31929000  1.0
  H  H51  1  0.71409000  0.89383000  0.18071000  1.0
  H  H52  1  0.88717000  0.34144000  0.62991000  1.0
  H  H53  1  0.38717000  0.15856000  0.87009000  1.0
  H  H54  1  0.11283000  0.65857000  0.37009000  1.0
  H  H55  1  0.61283000  0.84143000  0.12991000  1.0
  H  H56  1  0.98147000  0.69402000  0.72930000  1.0
  H  H57  1  0.48147000  0.80598000  0.77070000  1.0
  H  H58  1  0.01854000  0.30598000  0.27070000  1.0
  H  H59  1  0.51853000  0.19402000  0.22930000  1.0
  H  H60  1  0.88236000  0.74621000  0.78124000  1.0
  H  H61  1  0.38236000  0.75379000  0.71876000  1.0
  H  H62  1  0.11765000  0.25379000  0.21876000  1.0
  H  H63  1  0.61764000  0.24620000  0.28124000  1.0
  H  H64  1  0.69875000  0.68542000  0.71012000  1.0
  H  H65  1  0.19876000  0.81459000  0.78988000  1.0
  H  H66  1  0.30126000  0.31458000  0.28988000  1.0
  H  H67  1  0.80125000  0.18541000  0.21012000  1.0
  H  H68  1  0.69702000  0.81187000  0.70782000  1.0
  H  H69  1  0.19702000  0.68814000  0.79218000  1.0
  H  H70  1  0.30298000  0.18812000  0.29218000  1.0
  H  H71  1  0.80298000  0.31187000  0.20782000  1.0
  H  H72  1  0.65593000  0.84597000  0.60764000  1.0
  H  H73  1  0.15592000  0.65403000  0.89235000  1.0
  H  H74  1  0.34408000  0.15402000  0.39236000  1.0
  H  H75  1  0.84408000  0.34597000  0.10765000  1.0
  H  H76  1  0.58878000  0.78579000  0.49670000  1.0
  H  H77  1  0.08878000  0.71421000  0.00330000  1.0
  H  H78  1  0.41123000  0.21420000  0.50330000  1.0
  H  H79  1  0.91122000  0.28579000  0.99670000  1.0
  H  H80  1  0.59592000  0.48345000  0.50240000  1.0
  H  H81  1  0.09592000  0.01655000  0.99760000  1.0
  H  H82  1  0.40408000  0.51654000  0.49760000  1.0
  H  H83  1  0.90408000  0.98345000  0.00240000  1.0
  H  H84  1  0.66766000  0.54304000  0.61187000  1.0
  H  H85  1  0.16766000  0.95697000  0.88813000  1.0
  H  H86  1  0.33234000  0.45696000  0.38813000  1.0
  H  H87  1  0.83234000  0.04304000  0.11187000  1.0
  H  H88  1  0.51317000  0.65304000  0.41085000  1.0
  H  H89  1  0.01318000  0.84695000  0.08915000  1.0
  H  H90  1  0.48683000  0.34695000  0.58915000  1.0
  H  H91  1  0.98682000  0.15305000  0.91085000  1.0
  H  H92  1  0.50732000  0.52754000  0.41209000  1.0
  H  H93  1  0.00732000  0.97246000  0.08791000  1.0
  H  H94  1  0.49268000  0.47246000  0.58791000  1.0
  H  H95  1  0.99268000  0.02754000  0.91209000  1.0
  H  H96  1  0.60182000  0.39651000  0.35213000  1.0
  H  H97  1  0.10182000  0.10349000  0.14787000  1.0
  H  H98  1  0.39818000  0.60349000  0.64787000  1.0
  H  H99  1  0.89818000  0.89651000  0.85213000  1.0
  H  H100  1  0.70222000  0.40147000  0.30140000  1.0
  H  H101  1  0.20222000  0.09853000  0.19860000  1.0
  H  H102  1  0.29778000  0.59853000  0.69860000  1.0
  H  H103  1  0.79778000  0.90147000  0.80140000  1.0
  H  H104  1  0.72213000  0.44013000  0.44668000  1.0
  H  H105  1  0.22213000  0.05987000  0.05332000  1.0
  H  H106  1  0.27787000  0.55987000  0.55332000  1.0
  H  H107  1  0.77787000  0.94012000  0.94668000  1.0
  H  H108  1  0.67831000  0.26386000  0.38948000  1.0
  H  H109  1  0.17831000  0.23614000  0.11052000  1.0
  H  H110  1  0.32169000  0.73614000  0.61052000  1.0
  H  H111  1  0.82169000  0.76386000  0.88948000  1.0
  H  H112  1  0.77412000  0.25574000  0.33311000  1.0
  H  H113  1  0.27411000  0.24426000  0.16689000  1.0
  H  H114  1  0.22588000  0.74426000  0.66689000  1.0
  H  H115  1  0.72589000  0.75574000  0.83311000  1.0
  H  H116  1  0.83031000  0.18005000  0.41347000  1.0
  H  H117  1  0.33031000  0.31995000  0.08653000  1.0
  H  H118  1  0.16969000  0.81995000  0.58653000  1.0
  H  H119  1  0.66969000  0.68005000  0.91347000  1.0
  H  H120  1  0.80203000  0.29014000  0.47733000  1.0
  H  H121  1  0.30204000  0.20986000  0.02267000  1.0
  H  H122  1  0.19796000  0.70986000  0.52267000  1.0
  H  H123  1  0.69796000  0.79014000  0.97733000  1.0
  H  H124  1  0.95277000  0.27332000  0.37084000  1.0
  H  H125  1  0.45277000  0.22668000  0.12916000  1.0
  H  H126  1  0.04723000  0.72668000  0.62916000  1.0
  H  H127  1  0.54723000  0.77332000  0.87084000  1.0
  H  H128  1  0.90063000  0.45321000  0.48732000  1.0
  H  H129  1  0.40063000  0.04679000  0.01268000  1.0
  H  H130  1  0.09937000  0.54679000  0.51268000  1.0
  H  H131  1  0.59937000  0.95321000  0.98732000  1.0
  H  H132  1  0.99807000  0.44826000  0.43263000  1.0
  H  H133  1  0.49807000  0.05174000  0.06737000  1.0
  H  H134  1  0.00193000  0.55174000  0.56736000  1.0
  H  H135  1  0.50193000  0.94826000  0.93264000  1.0
  H  H136  1  0.87744000  0.41802000  0.34242000  1.0
  H  H137  1  0.37744000  0.08199000  0.15759000  1.0
  H  H138  1  0.12256000  0.58199000  0.65758000  1.0
  H  H139  1  0.62256000  0.91802000  0.84242000  1.0
  H  H140  1  0.84786000  0.52949000  0.40417000  1.0
  H  H141  1  0.34786000  0.97051000  0.09584000  1.0
  H  H142  1  0.15214000  0.47051000  0.59583000  1.0
  H  H143  1  0.65214000  0.02949000  0.90417000  1.0
  H  H144  1  0.98314000  0.29360000  0.51284000  1.0
  H  H145  1  0.48314000  0.20640000  0.98716000  1.0
  H  H146  1  0.01686000  0.70640000  0.48716000  1.0
  H  H147  1  0.51685000  0.79360000  0.01284000  1.0
  H  H148  1  0.07696000  0.31574000  0.46147000  1.0
  H  H149  1  0.57696000  0.18426000  0.03853000  1.0
  H  H150  1  0.92304000  0.68426000  0.53853000  1.0
  H  H151  1  0.42304000  0.81574000  0.96147000  1.0
  H  H152  1  0.16912000  0.05707000  0.45367000  1.0
  H  H153  1  0.66912000  0.44293000  0.04633000  1.0
  H  H154  1  0.83088000  0.94293000  0.54633000  1.0
  H  H155  1  0.33088000  0.55707000  0.95367000  1.0
  H  H156  1  0.19931000  0.18453000  0.46645000  1.0
  H  H157  1  0.69931000  0.31548000  0.03355000  1.0
  H  H158  1  0.80069000  0.81548000  0.53355000  1.0
  H  H159  1  0.30069000  0.68452000  0.96645000  1.0
  H  H160  1  0.05776000  0.01596000  0.53960000  1.0
  H  H161  1  0.55776000  0.48405000  0.96040000  1.0
  H  H162  1  0.94223000  0.98405000  0.46040000  1.0
  H  H163  1  0.44224000  0.51596000  0.03960000  1.0
  H  H164  1  0.03490000  0.05393000  0.65630000  1.0
  H  H165  1  0.53490000  0.44607000  0.84370000  1.0
  H  H166  1  0.96509000  0.94608000  0.34370000  1.0
  H  H167  1  0.46509000  0.55393000  0.15630000  1.0
  H  H168  1  0.17485000  0.34047000  0.68867000  1.0
  H  H169  1  0.67485000  0.15953000  0.81133000  1.0
  H  H170  1  0.82515000  0.65953000  0.31133000  1.0
  H  H171  1  0.32515000  0.84048000  0.18867000  1.0
  H  H172  1  0.19682000  0.30291000  0.57168000  1.0
  H  H173  1  0.69681000  0.19709000  0.92832000  1.0
  H  H174  1  0.80319000  0.69709000  0.42832000  1.0
  H  H175  1  0.30318000  0.80291000  0.07168000  1.0
  H  H176  1  0.12747000  0.29563000  0.77740000  1.0
  H  H177  1  0.62747000  0.20437000  0.72260000  1.0
  H  H178  1  0.87253000  0.70437000  0.22260000  1.0
  H  H179  1  0.37252000  0.79564000  0.27740000  1.0
  H  H180  1  0.13067000  0.16492000  0.76790000  1.0
  H  H181  1  0.63067000  0.33507000  0.73209000  1.0
  H  H182  1  0.86933000  0.83508000  0.23209000  1.0
  H  H183  1  0.36933000  0.66493000  0.26790000  1.0
  C  C184  1  0.89358000  0.27108000  0.73089000  1.0
  C  C185  1  0.39358000  0.22892000  0.76911000  1.0
  C  C186  1  0.10642000  0.72892000  0.26911000  1.0
  C  C187  1  0.60642000  0.77107000  0.23089000  1.0
  C  C188  1  0.91878000  0.37702000  0.73159000  1.0
  C  C189  1  0.41878000  0.12298000  0.76841000  1.0
  C  C190  1  0.08121000  0.62298000  0.26841000  1.0
  C  C191  1  0.58122000  0.87702000  0.23159000  1.0
  C  C192  1  0.89342000  0.45791000  0.79484000  1.0
  C  C193  1  0.39342000  0.04208000  0.70516000  1.0
  C  C194  1  0.10657000  0.54209000  0.20516000  1.0
  C  C195  1  0.60658000  0.95791000  0.29484000  1.0
  C  C196  1  0.92125000  0.56195000  0.79216000  1.0
  C  C197  1  0.42125000  0.93805000  0.70784000  1.0
  C  C198  1  0.07875000  0.43805000  0.20784000  1.0
  C  C199  1  0.57875000  0.06195000  0.29216000  1.0
  C  C200  1  0.87059000  0.58506000  0.73566000  1.0
  C  C201  1  0.37059000  0.91494000  0.76435000  1.0
  C  C202  1  0.12942000  0.41494000  0.26434000  1.0
  C  C203  1  0.62941000  0.08506000  0.23565000  1.0
  C  C204  1  0.89376000  0.50292000  0.67248000  1.0
  C  C205  1  0.39376000  0.99708000  0.82752000  1.0
  C  C206  1  0.10625000  0.49708000  0.32752000  1.0
  C  C207  1  0.60624000  0.00291000  0.17248000  1.0
  C  C208  1  0.86680000  0.39896000  0.67531000  1.0
  C  C209  1  0.36680000  0.10104000  0.82469000  1.0
  C  C210  1  0.13320000  0.60104000  0.32469000  1.0
  C  C211  1  0.63320000  0.89896000  0.17531000  1.0
  C  C212  1  0.90088000  0.68960000  0.73549000  1.0
  C  C213  1  0.40088000  0.81040000  0.76451000  1.0
  C  C214  1  0.09913000  0.31040000  0.26451000  1.0
  C  C215  1  0.59912000  0.18959000  0.23549000  1.0
  C  C216  1  0.71757000  0.73427000  0.68152000  1.0
  C  C217  1  0.21757000  0.76574000  0.81848000  1.0
  C  C218  1  0.28243000  0.26573000  0.31848000  1.0
  C  C219  1  0.78243000  0.23427000  0.18152000  1.0
  C  C220  1  0.66897000  0.69861000  0.61677000  1.0
  C  C221  1  0.16897000  0.80140000  0.88323000  1.0
  C  C222  1  0.33104000  0.30138000  0.38323000  1.0
  C  C223  1  0.83103000  0.19861000  0.11677000  1.0
  C  C224  1  0.64384000  0.76611000  0.58413000  1.0
  C  C225  1  0.14384000  0.73390000  0.91587000  1.0
  C  C226  1  0.35617000  0.23389000  0.41587000  1.0
  C  C227  1  0.85616000  0.26611000  0.08413000  1.0
  C  C228  1  0.60581000  0.73211000  0.52186000  1.0
  C  C229  1  0.10581000  0.76789000  0.97813000  1.0
  C  C230  1  0.39420000  0.26788000  0.47814000  1.0
  C  C231  1  0.89419000  0.23212000  0.02187000  1.0
  C  C232  1  0.59035000  0.62989000  0.49075000  1.0
  C  C233  1  0.09035000  0.87011000  0.00925000  1.0
  C  C234  1  0.40965000  0.37011000  0.50925000  1.0
  C  C235  1  0.90965000  0.12989000  0.99075000  1.0
  C  C236  1  0.61135000  0.56289000  0.52474000  1.0
  C  C237  1  0.11135000  0.93711000  0.97526000  1.0
  C  C238  1  0.38866000  0.43710000  0.47526000  1.0
  C  C239  1  0.88865000  0.06289000  0.02474000  1.0
  C  C240  1  0.65110000  0.59637000  0.58641000  1.0
  C  C241  1  0.15110000  0.90363000  0.91360000  1.0
  C  C242  1  0.34891000  0.40362000  0.41359000  1.0
  C  C243  1  0.84891000  0.09637000  0.08641000  1.0
  C  C244  1  0.55467000  0.59405000  0.42257000  1.0
  C  C245  1  0.05467000  0.90595000  0.07743000  1.0
  C  C246  1  0.44533000  0.40595000  0.57743000  1.0
  C  C247  1  0.94533000  0.09405000  0.92257000  1.0
  C  C248  1  0.67499000  0.43031000  0.35122000  1.0
  C  C249  1  0.17499000  0.06969000  0.14878000  1.0
  C  C250  1  0.32501000  0.56968000  0.64878000  1.0
  C  C251  1  0.82501000  0.93031000  0.85122000  1.0
  C  C252  1  0.74815000  0.40588000  0.39704000  1.0
  C  C253  1  0.24815000  0.09412000  0.10296000  1.0
  C  C254  1  0.25184000  0.59413000  0.60296000  1.0
  C  C255  1  0.75185000  0.90587000  0.89704000  1.0
  C  C256  1  0.75248000  0.29219000  0.38365000  1.0
  C  C257  1  0.25248000  0.20781000  0.11635000  1.0
  C  C258  1  0.24752000  0.70781000  0.61635000  1.0
  C  C259  1  0.74752000  0.79219000  0.88365000  1.0
  C  C260  1  0.82678000  0.26218000  0.42680000  1.0
  C  C261  1  0.32678000  0.23782000  0.07320000  1.0
  C  C262  1  0.17322000  0.73782000  0.57320000  1.0
  C  C263  1  0.67322000  0.76218000  0.92680000  1.0
  C  C264  1  0.92931000  0.30502000  0.42149000  1.0
  C  C265  1  0.42931000  0.19498000  0.07851000  1.0
  C  C266  1  0.07069000  0.69498000  0.57851000  1.0
  C  C267  1  0.57069000  0.80502000  0.92149000  1.0
  C  C268  1  0.92405000  0.41875000  0.43695000  1.0
  C  C269  1  0.42405000  0.08125000  0.06305000  1.0
  C  C270  1  0.07595000  0.58125000  0.56305000  1.0
  C  C271  1  0.57595000  0.91875000  0.93695000  1.0
  C  C272  1  0.85132000  0.44764000  0.39261000  1.0
  C  C273  1  0.35132000  0.05237000  0.10739000  1.0
  C  C274  1  0.14868000  0.55236000  0.60739000  1.0
  C  C275  1  0.64868000  0.94764000  0.89261000  1.0
  C  C276  1  0.00730000  0.27593000  0.46258000  1.0
  C  C277  1  0.50730000  0.22407000  0.03742000  1.0
  C  C278  1  0.99270000  0.72407000  0.53742000  1.0
  C  C279  1  0.49270000  0.77593000  0.96258000  1.0
  C  C280  1  0.14391000  0.13441000  0.47639000  1.0
  C  C281  1  0.64391000  0.36560000  0.02361000  1.0
  C  C282  1  0.85609000  0.86560000  0.52360000  1.0
  C  C283  1  0.35609000  0.63440000  0.97640000  1.0
  C  C284  1  0.12734000  0.15758000  0.54700000  1.0
  C  C285  1  0.62734000  0.34242000  0.95300000  1.0
  C  C286  1  0.87266000  0.84242000  0.45300000  1.0
  C  C287  1  0.37266000  0.65759000  0.04700000  1.0
  C  C288  1  0.08197000  0.08824000  0.57190000  1.0
  C  C289  1  0.58197000  0.41176000  0.92810000  1.0
  C  C290  1  0.91803000  0.91176000  0.42810000  1.0
  C  C291  1  0.41803000  0.58825000  0.07190000  1.0
  C  C292  1  0.06951000  0.10913000  0.63772000  1.0
  C  C293  1  0.56951000  0.39087000  0.86228000  1.0
  C  C294  1  0.93049000  0.89087000  0.36228000  1.0
  C  C295  1  0.43049000  0.60914000  0.13772000  1.0
  C  C296  1  0.10262000  0.20013000  0.68076000  1.0
  C  C297  1  0.60262000  0.29987000  0.81924000  1.0
  C  C298  1  0.89737000  0.79987000  0.31924000  1.0
  C  C299  1  0.39737000  0.70014000  0.18076000  1.0
  C  C300  1  0.14730000  0.26979000  0.65591000  1.0
  C  C301  1  0.64730000  0.23021000  0.84409000  1.0
  C  C302  1  0.85270000  0.73021000  0.34409000  1.0
  C  C303  1  0.35270000  0.76980000  0.15591000  1.0
  C  C304  1  0.15941000  0.24868000  0.58982000  1.0
  C  C305  1  0.65941000  0.25132000  0.91018000  1.0
  C  C306  1  0.84059000  0.75133000  0.41018000  1.0
  C  C307  1  0.34059000  0.74868000  0.08982000  1.0
  C  C308  1  0.09381000  0.22285000  0.75210000  1.0
  C  C309  1  0.59381000  0.27715000  0.74790000  1.0
  C  C310  1  0.90619000  0.77715000  0.24790000  1.0
  C  C311  1  0.40618000  0.72285000  0.25210000  1.0
  S  S312  1  0.96770000  0.22279000  0.78370000  1.0
  S  S313  1  0.46770000  0.27721000  0.71630000  1.0
  S  S314  1  0.03230000  0.77721000  0.21630000  1.0
  S  S315  1  0.53230000  0.72279000  0.28370000  1.0
  S  S316  1  0.85233000  0.72901000  0.66977000  1.0
  S  S317  1  0.35233000  0.77099000  0.83023000  1.0
  S  S318  1  0.14768000  0.27099000  0.33023000  1.0
  S  S319  1  0.64767000  0.22900000  0.16977000  1.0
  S  S320  1  0.65449000  0.56241000  0.36275000  1.0
  S  S321  1  0.15449000  0.93758000  0.13725000  1.0
  S  S322  1  0.34551000  0.43759000  0.63725000  1.0
  S  S323  1  0.84551000  0.06241000  0.86275000  1.0
  S  S324  1  0.03282000  0.14227000  0.43099000  1.0
  S  S325  1  0.53282000  0.35773000  0.06901000  1.0
  S  S326  1  0.96718000  0.85773000  0.56901000  1.0
  S  S327  1  0.46718000  0.64227000  0.93099000  1.0
  I  I328  1  0.06638000  0.93756000  0.74822000  1.0
  I  I329  1  0.56638000  0.56244000  0.75178000  1.0
  I  I330  1  0.93362000  0.06244000  0.25179000  1.0
  I  I331  1  0.43362000  0.43756000  0.24821000  1.0
  I  I332  1  0.76384000  0.01416000  0.69002000  1.0
  I  I333  1  0.26384000  0.48584000  0.80998000  1.0
  I  I334  1  0.23616000  0.98584000  0.30998000  1.0
  I  I335  1  0.73616000  0.51416000  0.19002000  1.0
