# generated using pymatgen
data_AgH10C10SN2O3
_symmetry_space_group_name_H-M   'P 1'
_cell_length_a   5.24077000
_cell_length_b   10.37950000
_cell_length_c   12.38570000
_cell_angle_alpha   83.25250000
_cell_angle_beta   80.56800000
_cell_angle_gamma   80.54060000
_symmetry_Int_Tables_number   1
_chemical_formula_structural   AgH10C10SN2O3
_chemical_formula_sum   'Ag2 H20 C20 S2 N4 O6'
_cell_volume   652.74832612
_cell_formula_units_Z   2
loop_
 _symmetry_equiv_pos_site_id
 _symmetry_equiv_pos_as_xyz
  1  'x, y, z'
loop_
 _atom_site_type_symbol
 _atom_site_label
 _atom_site_symmetry_multiplicity
 _atom_site_fract_x
 _atom_site_fract_y
 _atom_site_fract_z
 _atom_site_occupancy
  Ag  Ag0  1  0.21584000  0.40919000  0.85176000  1.0
  Ag  Ag1  1  0.78417000  0.59081000  0.14824000  1.0
  H  H2  1  0.66450000  0.51162000  0.40107000  1.0
  H  H3  1  0.33550000  0.48838000  0.59893000  1.0
  H  H4  1  0.83469000  0.34858000  0.55022000  1.0
  H  H5  1  0.16533000  0.65142000  0.44978000  1.0
  H  H6  1  0.24103000  0.19167000  0.50003000  1.0
  H  H7  1  0.75898000  0.80833000  0.49996000  1.0
  H  H8  1  0.44678000  0.19285000  0.30078000  1.0
  H  H9  1  0.55322000  0.80715000  0.69921000  1.0
  H  H10  1  0.33549000  0.45062000  0.10055000  1.0
  H  H11  1  0.66452000  0.54938000  0.89945000  1.0
  H  H12  1  0.43905000  0.27774000  0.11227000  1.0
  H  H13  1  0.56095000  0.72226000  0.88773000  1.0
  H  H14  1  0.86036000  0.15886000  0.01090000  1.0
  H  H15  1  0.13963000  0.84114000  0.98911000  1.0
  H  H16  1  0.92703000  0.14309000  0.14907000  1.0
  H  H17  1  0.07295000  0.85692000  0.85093000  1.0
  H  H18  1  0.31727000  0.01096000  0.19739000  1.0
  H  H19  1  0.68271000  0.98904000  0.80262000  1.0
  H  H20  1  0.25817000  0.12853000  0.85565000  1.0
  H  H21  1  0.74181000  0.87147000  0.14435000  1.0
  C  C22  1  0.83587000  0.43780000  0.38335000  1.0
  C  C23  1  0.16415000  0.56220000  0.61665000  1.0
  C  C24  1  0.93342000  0.34919000  0.46564000  1.0
  C  C25  1  0.06659000  0.65081000  0.53436000  1.0
  C  C26  1  0.15771000  0.26038000  0.43686000  1.0
  C  C27  1  0.84230000  0.73961000  0.56313000  1.0
  C  C28  1  0.27185000  0.26113000  0.32675000  1.0
  C  C29  1  0.72815000  0.73887000  0.67325000  1.0
  C  C30  1  0.15939000  0.35103000  0.24841000  1.0
  C  C31  1  0.84061000  0.64897000  0.75159000  1.0
  C  C32  1  0.27139000  0.35486000  0.12860000  1.0
  C  C33  1  0.72861000  0.64514000  0.87140000  1.0
  C  C34  1  0.00763000  0.16629000  0.06263000  1.0
  C  C35  1  0.99236000  0.83372000  0.93737000  1.0
  C  C36  1  0.26054000  0.08021000  0.03026000  1.0
  C  C37  1  0.73945000  0.91979000  0.96975000  1.0
  C  C38  1  0.39859000  0.00701000  0.11062000  1.0
  C  C39  1  0.60140000  0.99299000  0.88938000  1.0
  C  C40  1  0.36451000  0.07254000  0.91906000  1.0
  C  C41  1  0.63547000  0.92746000  0.08095000  1.0
  S  S42  1  0.02926000  0.34189000  0.04241000  1.0
  S  S43  1  0.97075000  0.65812000  0.95759000  1.0
  N  N44  1  0.94560000  0.43905000  0.27736000  1.0
  N  N45  1  0.05439000  0.56095000  0.72265000  1.0
  N  N46  1  0.74875000  0.28728000  0.76863000  1.0
  N  N47  1  0.25125000  0.71272000  0.23137000  1.0
  O  O48  1  0.68916000  0.32640000  0.86546000  1.0
  O  O49  1  0.31084000  0.67360000  0.13455000  1.0
  O  O50  1  0.57207000  0.30553000  0.70669000  1.0
  O  O51  1  0.42794000  0.69447000  0.29330000  1.0
  O  O52  1  0.97628000  0.23314000  0.73622000  1.0
  O  O53  1  0.02373000  0.76686000  0.26378000  1.0
