# generated using pymatgen
data_CdH8C4(N2Cl)2
_symmetry_space_group_name_H-M   'P 1'
_cell_length_a   9.14034000
_cell_length_b   9.13992000
_cell_length_c   10.56760000
_cell_angle_alpha   89.59680000
_cell_angle_beta   89.59700000
_cell_angle_gamma   91.92690000
_symmetry_Int_Tables_number   1
_chemical_formula_structural   CdH8C4(N2Cl)2
_chemical_formula_sum   'Cd4 H32 C16 N16 Cl8'
_cell_volume   882.29378625
_cell_formula_units_Z   4
loop_
 _symmetry_equiv_pos_site_id
 _symmetry_equiv_pos_as_xyz
  1  'x, y, z'
loop_
 _atom_site_type_symbol
 _atom_site_label
 _atom_site_symmetry_multiplicity
 _atom_site_fract_x
 _atom_site_fract_y
 _atom_site_fract_z
 _atom_site_occupancy
  Cd  Cd0  1  0.30536000  0.69467000  0.25002000  1.0
  Cd  Cd1  1  0.69466000  0.30536000  0.75003000  1.0
  Cd  Cd2  1  0.50000000  0.50000000  0.50001000  1.0
  Cd  Cd3  1  0.49998000  0.49998000  0.00002000  1.0
  H  H4  1  0.96239000  0.59146000  0.22810000  1.0
  H  H5  1  0.40859000  0.03771000  0.27186000  1.0
  H  H6  1  0.03768000  0.40860000  0.77190000  1.0
  H  H7  1  0.59143000  0.96237000  0.72809000  1.0
  H  H8  1  0.82832000  0.47821000  0.30855000  1.0
  H  H9  1  0.52181000  0.17173000  0.19143000  1.0
  H  H10  1  0.17173000  0.52185000  0.69144000  1.0
  H  H11  1  0.47823000  0.82827000  0.80849000  1.0
  H  H12  1  0.92854000  0.40763000  0.18044000  1.0
  H  H13  1  0.59237000  0.07151000  0.31952000  1.0
  H  H14  1  0.07150000  0.59241000  0.81956000  1.0
  H  H15  1  0.40765000  0.92853000  0.68043000  1.0
  H  H16  1  0.83316000  0.26065000  0.42664000  1.0
  H  H17  1  0.73942000  0.16678000  0.07366000  1.0
  H  H18  1  0.16680000  0.73944000  0.57368000  1.0
  H  H19  1  0.26068000  0.83315000  0.92662000  1.0
  H  H20  1  0.93025000  0.16435000  0.52363000  1.0
  H  H21  1  0.83538000  0.06996000  0.97621000  1.0
  H  H22  1  0.06996000  0.83540000  0.47620000  1.0
  H  H23  1  0.16431000  0.93022000  0.02358000  1.0
  H  H24  1  0.31574000  0.21899000  0.62566000  1.0
  H  H25  1  0.78099000  0.68420000  0.87436000  1.0
  H  H26  1  0.68424000  0.78101000  0.37435000  1.0
  H  H27  1  0.21893000  0.31570000  0.12563000  1.0
  H  H28  1  0.23774000  0.08713000  0.52096000  1.0
  H  H29  1  0.91283000  0.76224000  0.97906000  1.0
  H  H30  1  0.76226000  0.91285000  0.47903000  1.0
  H  H31  1  0.08712000  0.23769000  0.02093000  1.0
  H  H32  1  0.12711000  0.15996000  0.64333000  1.0
  H  H33  1  0.84003000  0.87283000  0.85668000  1.0
  H  H34  1  0.87284000  0.84003000  0.35668000  1.0
  H  H35  1  0.15993000  0.12711000  0.14325000  1.0
  C  C36  1  0.05252000  0.43466000  0.34977000  1.0
  C  C37  1  0.56533000  0.94749000  0.15026000  1.0
  C  C38  1  0.94748000  0.56535000  0.65026000  1.0
  C  C39  1  0.43467000  0.05251000  0.84973000  1.0
  C  C40  1  0.17612000  0.30599000  0.48834000  1.0
  C  C41  1  0.69401000  0.82392000  0.01170000  1.0
  C  C42  1  0.82392000  0.69402000  0.51168000  1.0
  C  C43  1  0.30595000  0.17607000  0.98827000  1.0
  C  C44  1  0.93662000  0.48017000  0.26280000  1.0
  C  C45  1  0.51986000  0.06342000  0.23718000  1.0
  C  C46  1  0.06342000  0.51989000  0.73721000  1.0
  C  C47  1  0.48016000  0.93660000  0.76278000  1.0
  C  C48  1  0.21580000  0.18660000  0.57522000  1.0
  C  C49  1  0.81336000  0.78418000  0.92480000  1.0
  C  C50  1  0.78420000  0.81336000  0.42479000  1.0
  C  C51  1  0.18661000  0.21575000  0.07515000  1.0
  N  N52  1  0.18265000  0.50102000  0.36635000  1.0
  N  N53  1  0.49896000  0.81736000  0.13366000  1.0
  N  N54  1  0.81734000  0.49899000  0.63368000  1.0
  N  N55  1  0.50103000  0.18264000  0.86634000  1.0
  N  N56  1  0.04538000  0.31314000  0.42646000  1.0
  N  N57  1  0.68681000  0.95466000  0.07354000  1.0
  N  N58  1  0.95466000  0.68685000  0.57355000  1.0
  N  N59  1  0.31316000  0.04531000  0.92642000  1.0
  N  N60  1  0.25872000  0.42167000  0.45263000  1.0
  N  N61  1  0.57833000  0.74132000  0.04737000  1.0
  N  N62  1  0.74130000  0.57836000  0.54739000  1.0
  N  N63  1  0.42164000  0.25868000  0.95261000  1.0
  N  N64  1  0.93051000  0.20797000  0.43327000  1.0
  N  N65  1  0.79203000  0.06945000  0.06668000  1.0
  N  N66  1  0.06948000  0.79208000  0.56668000  1.0
  N  N67  1  0.20796000  0.93048000  0.93323000  1.0
  Cl  Cl68  1  0.41043000  0.76858000  0.47149000  1.0
  Cl  Cl69  1  0.23142000  0.58958000  0.02855000  1.0
  Cl  Cl70  1  0.58962000  0.23144000  0.52854000  1.0
  Cl  Cl71  1  0.76855000  0.41042000  0.97151000  1.0
  Cl  Cl72  1  0.52716000  0.47286000  0.25001000  1.0
  Cl  Cl73  1  0.47285000  0.52715000  0.75001000  1.0
  Cl  Cl74  1  0.11273000  0.88730000  0.25002000  1.0
  Cl  Cl75  1  0.88731000  0.11274000  0.75004000  1.0
