# generated using pymatgen
data_Zn3H34C36(N2O3)6
_symmetry_space_group_name_H-M   'P 1'
_cell_length_a   10.24470000
_cell_length_b   10.59930000
_cell_length_c   12.76650000
_cell_angle_alpha   105.09000000
_cell_angle_beta   96.02240000
_cell_angle_gamma   99.14660000
_symmetry_Int_Tables_number   1
_chemical_formula_structural   Zn3H34C36(N2O3)6
_chemical_formula_sum   'Zn3 H34 C36 N12 O18'
_cell_volume   1305.79504932
_cell_formula_units_Z   1
loop_
 _symmetry_equiv_pos_site_id
 _symmetry_equiv_pos_as_xyz
  1  'x, y, z'
loop_
 _atom_site_type_symbol
 _atom_site_label
 _atom_site_symmetry_multiplicity
 _atom_site_fract_x
 _atom_site_fract_y
 _atom_site_fract_z
 _atom_site_occupancy
  Zn  Zn0  1  0.39418000  0.11728000  0.35032000  1.0
  Zn  Zn1  1  0.60583000  0.88272000  0.64968000  1.0
  Zn  Zn2  1  0.00000000  0.50000000  0.50000000  1.0
  H  H3  1  0.42353000  0.27552000  0.00147000  1.0
  H  H4  1  0.57646000  0.72447000  0.99853000  1.0
  H  H5  1  0.37862000  0.32973000  0.51654000  1.0
  H  H6  1  0.62138000  0.67027000  0.48346000  1.0
  H  H7  1  0.53373000  0.31581000  0.49876000  1.0
  H  H8  1  0.46627000  0.68419000  0.50125000  1.0
  H  H9  1  0.02180000  0.41661000  0.29618000  1.0
  H  H10  1  0.97820000  0.58339000  0.70381000  1.0
  H  H11  1  0.05451000  0.29384000  0.33966000  1.0
  H  H12  1  0.94549000  0.70616000  0.66035000  1.0
  H  H13  1  0.76085000  0.33545000  0.45748000  1.0
  H  H14  1  0.23915000  0.66456000  0.54252000  1.0
  H  H15  1  0.75423000  0.48800000  0.46847000  1.0
  H  H16  1  0.24577000  0.51200000  0.53154000  1.0
  H  H17  1  0.28992000  0.86216000  0.16848000  1.0
  H  H18  1  0.71008000  0.13784000  0.83152000  1.0
  H  H19  1  0.22443000  0.70658000  0.97771000  1.0
  H  H20  1  0.77557000  0.29341000  0.02229000  1.0
  H  H21  1  0.24094000  0.78892000  0.81489000  1.0
  H  H22  1  0.75907000  0.21107000  0.18511000  1.0
  H  H23  1  0.32427000  0.03025000  0.83470000  1.0
  H  H24  1  0.67573000  0.96974000  0.16530000  1.0
  H  H25  1  0.40225000  0.42310000  0.28183000  1.0
  H  H26  1  0.59774000  0.57690000  0.71817000  1.0
  H  H27  1  0.55991000  0.37751000  0.30147000  1.0
  H  H28  1  0.44009000  0.62249000  0.69853000  1.0
  H  H29  1  0.39016000  0.59919000  0.16691000  1.0
  H  H30  1  0.60984000  0.40081000  0.83309000  1.0
  H  H31  1  0.05966000  0.82054000  0.36972000  1.0
  H  H32  1  0.94033000  0.17946000  0.63028000  1.0
  H  H33  1  0.64152000  0.81885000  0.38631000  1.0
  H  H34  1  0.35848000  0.18115000  0.61369000  1.0
  H  H35  1  0.89324000  0.16498000  0.35362000  1.0
  H  H36  1  0.10676000  0.83503000  0.64639000  1.0
  C  C37  1  0.34530000  0.03200000  0.10619000  1.0
  C  C38  1  0.65469000  0.96800000  0.89381000  1.0
  C  C39  1  0.29802000  0.89733000  0.09595000  1.0
  C  C40  1  0.70198000  0.10268000  0.90405000  1.0
  C  C41  1  0.26108000  0.81241000  0.98984000  1.0
  C  C42  1  0.73892000  0.18758000  0.01017000  1.0
  C  C43  1  0.27068000  0.85920000  0.89643000  1.0
  C  C44  1  0.72932000  0.14079000  0.10358000  1.0
  C  C45  1  0.31717000  0.99311000  0.90609000  1.0
  C  C46  1  0.68283000  0.00688000  0.09391000  1.0
  C  C47  1  0.35389000  0.07815000  0.01245000  1.0
  C  C48  1  0.64610000  0.92184000  0.98755000  1.0
  C  C49  1  0.42589000  0.24583000  0.16308000  1.0
  C  C50  1  0.57411000  0.75417000  0.83692000  1.0
  C  C51  1  0.48061000  0.38275000  0.23877000  1.0
  C  C52  1  0.51939000  0.61725000  0.76122000  1.0
  C  C53  1  0.48583000  0.57329000  0.15119000  1.0
  C  C54  1  0.51417000  0.42671000  0.84881000  1.0
  C  C55  1  0.99136000  0.99893000  0.35672000  1.0
  C  C56  1  0.00865000  0.00107000  0.64328000  1.0
  C  C57  1  0.97434000  0.86961000  0.36742000  1.0
  C  C58  1  0.02565000  0.13039000  0.63259000  1.0
  C  C59  1  0.84914000  0.80393000  0.37919000  1.0
  C  C60  1  0.15086000  0.19607000  0.62081000  1.0
  C  C61  1  0.74000000  0.86781000  0.37810000  1.0
  C  C62  1  0.25999000  0.13220000  0.62189000  1.0
  C  C63  1  0.75702000  0.99836000  0.37018000  1.0
  C  C64  1  0.24298000  0.00164000  0.62982000  1.0
  C  C65  1  0.88245000  0.06358000  0.35962000  1.0
  C  C66  1  0.11755000  0.93643000  0.64038000  1.0
  C  C67  1  0.12719000  0.07026000  0.35027000  1.0
  C  C68  1  0.87281000  0.92974000  0.64973000  1.0
  C  C69  1  0.83829000  0.67151000  0.40243000  1.0
  C  C70  1  0.16170000  0.32849000  0.59756000  1.0
  C  C71  1  0.64211000  0.06929000  0.37291000  1.0
  C  C72  1  0.35789000  0.93071000  0.62709000  1.0
  N  N73  1  0.39145000  0.13975000  0.19895000  1.0
  N  N74  1  0.60854000  0.86025000  0.80105000  1.0
  N  N75  1  0.40439000  0.21384000  0.05185000  1.0
  N  N76  1  0.59561000  0.78615000  0.94815000  1.0
  N  N77  1  0.53615000  0.47604000  0.18165000  1.0
  N  N78  1  0.46385000  0.52396000  0.81834000  1.0
  N  N79  1  0.65707000  0.47253000  0.14763000  1.0
  N  N80  1  0.34293000  0.52747000  0.85237000  1.0
  N  N81  1  0.57238000  0.62957000  0.09882000  1.0
  N  N82  1  0.42762000  0.37043000  0.90118000  1.0
  N  N83  1  0.67739000  0.56445000  0.09795000  1.0
  N  N84  1  0.32261000  0.43555000  0.90205000  1.0
  O  O85  1  0.22345000  0.00610000  0.35648000  1.0
  O  O86  1  0.77655000  0.99390000  0.64351000  1.0
  O  O87  1  0.14668000  0.18793000  0.34198000  1.0
  O  O88  1  0.85332000  0.81207000  0.65802000  1.0
  O  O89  1  0.94629000  0.62852000  0.41257000  1.0
  O  O90  1  0.05371000  0.37147000  0.58742000  1.0
  O  O91  1  0.72378000  0.61013000  0.41311000  1.0
  O  O92  1  0.27622000  0.38987000  0.58689000  1.0
  O  O93  1  0.52469000  0.99943000  0.36533000  1.0
  O  O94  1  0.47531000  0.00058000  0.63468000  1.0
  O  O95  1  0.66159000  0.19241000  0.37956000  1.0
  O  O96  1  0.33841000  0.80759000  0.62043000  1.0
  O  O97  1  0.44152000  0.29866000  0.46243000  1.0
  O  O98  1  0.55848000  0.70133000  0.53758000  1.0
  O  O99  1  0.99350000  0.36117000  0.34263000  1.0
  O  O100  1  0.00650000  0.63884000  0.65737000  1.0
  O  O101  1  0.79256000  0.42766000  0.50699000  1.0
  O  O102  1  0.20745000  0.57235000  0.49301000  1.0
