# generated using pymatgen
data_CuH6C3SIN2
_symmetry_space_group_name_H-M   'P 1'
_cell_length_a   7.84882000
_cell_length_b   11.91990000
_cell_length_c   12.54640000
_cell_angle_alpha   68.23430000
_cell_angle_beta   72.97360000
_cell_angle_gamma   88.50820000
_symmetry_Int_Tables_number   1
_chemical_formula_structural   CuH6C3SIN2
_chemical_formula_sum   'Cu6 H36 C18 S6 I6 N12'
_cell_volume   1037.82929386
_cell_formula_units_Z   6
loop_
 _symmetry_equiv_pos_site_id
 _symmetry_equiv_pos_as_xyz
  1  'x, y, z'
loop_
 _atom_site_type_symbol
 _atom_site_label
 _atom_site_symmetry_multiplicity
 _atom_site_fract_x
 _atom_site_fract_y
 _atom_site_fract_z
 _atom_site_occupancy
  Cu  Cu0  1  0.46049000  0.49190000  0.90794000  1.0
  Cu  Cu1  1  0.53952000  0.50810000  0.09206000  1.0
  Cu  Cu2  1  0.65514000  0.69508000  0.74005000  1.0
  Cu  Cu3  1  0.34485000  0.30491000  0.25995000  1.0
  Cu  Cu4  1  0.43834000  0.11870000  0.05193000  1.0
  Cu  Cu5  1  0.56165000  0.88130000  0.94807000  1.0
  H  H6  1  0.11960000  0.63251000  0.95072000  1.0
  H  H7  1  0.88040000  0.36749000  0.04927000  1.0
  H  H8  1  0.06829000  0.48103000  0.30907000  1.0
  H  H9  1  0.93171000  0.51897000  0.69093000  1.0
  H  H10  1  0.98007000  0.84844000  0.57894000  1.0
  H  H11  1  0.01992000  0.15156000  0.42106000  1.0
  H  H12  1  0.93971000  0.98893000  0.83502000  1.0
  H  H13  1  0.06028000  0.01106000  0.16498000  1.0
  H  H14  1  0.61853000  0.12187000  0.80371000  1.0
  H  H15  1  0.38147000  0.87813000  0.19630000  1.0
  H  H16  1  0.57066000  0.48265000  0.66608000  1.0
  H  H17  1  0.42935000  0.51735000  0.33392000  1.0
  H  H18  1  0.81909000  0.69109000  0.07499000  1.0
  H  H19  1  0.18091000  0.30891000  0.92502000  1.0
  H  H20  1  0.00875000  0.79198000  0.04223000  1.0
  H  H21  1  0.99124000  0.20802000  0.95777000  1.0
  H  H22  1  0.99823000  0.71127000  0.24825000  1.0
  H  H23  1  0.00177000  0.28873000  0.75175000  1.0
  H  H24  1  0.80341000  0.61467000  0.28226000  1.0
  H  H25  1  0.19659000  0.38533000  0.71774000  1.0
  H  H26  1  0.30012000  0.88341000  0.58291000  1.0
  H  H27  1  0.69987000  0.11659000  0.41709000  1.0
  H  H28  1  0.23795000  0.03021000  0.50520000  1.0
  H  H29  1  0.76204000  0.96979000  0.49480000  1.0
  H  H30  1  0.25042000  0.07742000  0.67148000  1.0
  H  H31  1  0.74958000  0.92258000  0.32853000  1.0
  H  H32  1  0.25647000  0.92147000  0.76148000  1.0
  H  H33  1  0.74353000  0.07852000  0.23851000  1.0
  H  H34  1  0.52371000  0.18473000  0.61289000  1.0
  H  H35  1  0.47629000  0.81527000  0.38712000  1.0
  H  H36  1  0.76389000  0.19651000  0.56886000  1.0
  H  H37  1  0.23612000  0.80349000  0.43114000  1.0
  H  H38  1  0.78566000  0.41145000  0.51246000  1.0
  H  H39  1  0.21435000  0.58854000  0.48754000  1.0
  H  H40  1  0.56662000  0.39878000  0.49853000  1.0
  H  H41  1  0.43339000  0.60122000  0.50147000  1.0
  C  C42  1  0.11929000  0.53264000  0.12517000  1.0
  C  C43  1  0.88071000  0.46736000  0.87483000  1.0
  C  C44  1  0.95057000  0.69727000  0.08779000  1.0
  C  C45  1  0.04943000  0.30272000  0.91222000  1.0
  C  C46  1  0.94114000  0.64539000  0.22269000  1.0
  C  C47  1  0.05886000  0.35461000  0.77731000  1.0
  C  C48  1  0.90795000  0.91813000  0.71315000  1.0
  C  C49  1  0.09204000  0.08187000  0.28685000  1.0
  C  C50  1  0.20327000  0.95031000  0.59044000  1.0
  C  C51  1  0.79672000  0.04969000  0.40956000  1.0
  C  C52  1  0.19178000  0.98466000  0.69924000  1.0
  C  C53  1  0.80821000  0.01533000  0.30076000  1.0
  C  C54  1  0.58271000  0.30292000  0.76712000  1.0
  C  C55  1  0.41729000  0.69708000  0.23288000  1.0
  C  C56  1  0.64369000  0.22938000  0.61441000  1.0
  C  C57  1  0.35631000  0.77061000  0.38559000  1.0
  C  C58  1  0.64775000  0.36853000  0.56000000  1.0
  C  C59  1  0.35225000  0.63147000  0.44000000  1.0
  S  S60  1  0.25080000  0.42094000  0.10001000  1.0
  S  S61  1  0.74921000  0.57907000  0.89999000  1.0
  S  S62  1  0.67997000  0.88211000  0.76097000  1.0
  S  S63  1  0.32002000  0.11789000  0.23903000  1.0
  S  S64  1  0.53473000  0.30666000  0.90676000  1.0
  S  S65  1  0.46527000  0.69334000  0.09324000  1.0
  I  I66  1  0.32338000  0.64567000  0.75051000  1.0
  I  I67  1  0.67662000  0.35434000  0.24949000  1.0
  I  I68  1  0.83614000  0.69277000  0.52601000  1.0
  I  I69  1  0.16385000  0.30722000  0.47400000  1.0
  I  I70  1  0.26348000  0.00145000  0.96708000  1.0
  I  I71  1  0.73652000  0.99856000  0.03292000  1.0
  N  N72  1  0.06805000  0.61841000  0.04017000  1.0
  N  N73  1  0.93196000  0.38159000  0.95983000  1.0
  N  N74  1  0.04994000  0.54217000  0.23162000  1.0
  N  N75  1  0.95008000  0.45783000  0.76838000  1.0
  N  N76  1  0.02074000  0.89768000  0.62034000  1.0
  N  N77  1  0.97925000  0.10233000  0.37965000  1.0
  N  N78  1  0.99805000  0.97476000  0.75716000  1.0
  N  N79  1  0.00195000  0.02524000  0.24284000  1.0
  N  N80  1  0.63771000  0.20708000  0.73845000  1.0
  N  N81  1  0.36229000  0.79292000  0.26155000  1.0
  N  N82  1  0.57211000  0.39614000  0.66820000  1.0
  N  N83  1  0.42790000  0.60386000  0.33180000  1.0
