# generated using pymatgen
data_Co3H22(C3O5)4
_symmetry_space_group_name_H-M   'P 1'
_cell_length_a   11.68410000
_cell_length_b   13.79540000
_cell_length_c   16.11480000
_cell_angle_alpha   90.00010000
_cell_angle_beta   90.00020000
_cell_angle_gamma   113.14600000
_symmetry_Int_Tables_number   1
_chemical_formula_structural   Co3H22(C3O5)4
_chemical_formula_sum   'Co12 H88 C48 O80'
_cell_volume   2388.41148246
_cell_formula_units_Z   4
loop_
 _symmetry_equiv_pos_site_id
 _symmetry_equiv_pos_as_xyz
  1  'x, y, z'
loop_
 _atom_site_type_symbol
 _atom_site_label
 _atom_site_symmetry_multiplicity
 _atom_site_fract_x
 _atom_site_fract_y
 _atom_site_fract_z
 _atom_site_occupancy
  Co  Co0  1  0.10024000  0.09807000  0.95590000  1.0
  Co  Co1  1  0.39976000  0.40193000  0.45590000  1.0
  Co  Co2  1  0.89976000  0.90194000  0.04410000  1.0
  Co  Co3  1  0.60024000  0.59806000  0.54410000  1.0
  Co  Co4  1  0.76362000  0.21714000  0.03648000  1.0
  Co  Co5  1  0.73638000  0.28286000  0.53648000  1.0
  Co  Co6  1  0.23639000  0.78287000  0.96352000  1.0
  Co  Co7  1  0.26361000  0.71713000  0.46352000  1.0
  Co  Co8  1  0.04771000  0.12618000  0.62981000  1.0
  Co  Co9  1  0.45229000  0.37382000  0.12981000  1.0
  Co  Co10  1  0.95229000  0.87382000  0.37019000  1.0
  Co  Co11  1  0.54771000  0.62618000  0.87019000  1.0
  H  H12  1  0.64596000  0.09710000  0.78664000  1.0
  H  H13  1  0.85404000  0.40290000  0.28664000  1.0
  H  H14  1  0.35404000  0.90290000  0.21335000  1.0
  H  H15  1  0.14596000  0.59710000  0.71335000  1.0
  H  H16  1  0.83315000  0.13095000  0.71575000  1.0
  H  H17  1  0.66685000  0.36905000  0.21575000  1.0
  H  H18  1  0.16686000  0.86906000  0.28425000  1.0
  H  H19  1  0.33314000  0.63095000  0.78425000  1.0
  H  H20  1  0.66123000  0.97602000  0.69372000  1.0
  H  H21  1  0.83877000  0.52398000  0.19372000  1.0
  H  H22  1  0.33878000  0.02399000  0.30628000  1.0
  H  H23  1  0.16123000  0.47602000  0.80628000  1.0
  H  H24  1  0.60472000  0.80866000  0.75319000  1.0
  H  H25  1  0.89527000  0.69134000  0.25319000  1.0
  H  H26  1  0.39528000  0.19135000  0.24682000  1.0
  H  H27  1  0.10472000  0.30865000  0.74682000  1.0
  H  H28  1  0.52994000  0.92847000  0.80431000  1.0
  H  H29  1  0.97006000  0.57153000  0.30431000  1.0
  H  H30  1  0.47006000  0.07153000  0.19569000  1.0
  H  H31  1  0.02993000  0.42847000  0.69568000  1.0
  H  H32  1  0.59154000  0.03870000  0.92456000  1.0
  H  H33  1  0.90846000  0.46130000  0.42455000  1.0
  H  H34  1  0.40847000  0.96130000  0.07544000  1.0
  H  H35  1  0.09153000  0.53870000  0.57544000  1.0
  H  H36  1  0.21047000  0.26173000  0.04653000  1.0
  H  H37  1  0.28953000  0.23827000  0.54653000  1.0
  H  H38  1  0.78953000  0.73827000  0.95347000  1.0
  H  H39  1  0.71047000  0.76173000  0.45347000  1.0
  H  H40  1  0.20923000  0.29574000  0.94840000  1.0
  H  H41  1  0.29077000  0.20426000  0.44840000  1.0
  H  H42  1  0.79077000  0.70427000  0.05160000  1.0
  H  H43  1  0.70923000  0.79573000  0.55160000  1.0
  H  H44  1  0.14902000  0.11822000  0.80742000  1.0
  H  H45  1  0.35098000  0.38178000  0.30742000  1.0
  H  H46  1  0.85098000  0.88178000  0.19259000  1.0
  H  H47  1  0.64901000  0.61822000  0.69259000  1.0
  H  H48  1  0.26523000  0.20245000  0.85016000  1.0
  H  H49  1  0.23477000  0.29755000  0.35016000  1.0
  H  H50  1  0.73477000  0.79754000  0.14984000  1.0
  H  H51  1  0.76523000  0.70245000  0.64984000  1.0
  H  H52  1  0.96831000  0.90682000  0.88459000  1.0
  H  H53  1  0.53169000  0.59318000  0.38459000  1.0
  H  H54  1  0.03169000  0.09318000  0.11541000  1.0
  H  H55  1  0.46831000  0.40682000  0.61541000  1.0
  H  H56  1  0.09443000  0.91839000  0.94601000  1.0
  H  H57  1  0.40557000  0.58161000  0.44601000  1.0
  H  H58  1  0.90558000  0.08162000  0.05399000  1.0
  H  H59  1  0.59442000  0.41838000  0.55400000  1.0
  H  H60  1  0.75853000  0.10783000  0.16688000  1.0
  H  H61  1  0.74148000  0.39217000  0.66688000  1.0
  H  H62  1  0.24148000  0.89218000  0.83312000  1.0
  H  H63  1  0.25852000  0.60783000  0.33311000  1.0
  H  H64  1  0.73371000  0.19972000  0.21342000  1.0
  H  H65  1  0.76629000  0.30028000  0.71343000  1.0
  H  H66  1  0.26629000  0.80028000  0.78657000  1.0
  H  H67  1  0.23371000  0.69972000  0.28657000  1.0
  H  H68  1  0.78639000  0.40594000  0.01423000  1.0
  H  H69  1  0.71361000  0.09406000  0.51423000  1.0
  H  H70  1  0.21361000  0.59406000  0.98577000  1.0
  H  H71  1  0.28638000  0.90594000  0.48578000  1.0
  H  H72  1  0.67582000  0.34670000  0.07741000  1.0
  H  H73  1  0.82418000  0.15330000  0.57741000  1.0
  H  H74  1  0.32418000  0.65330000  0.92259000  1.0
  H  H75  1  0.17582000  0.84670000  0.42259000  1.0
  H  H76  1  0.03020000  0.27863000  0.02609000  1.0
  H  H77  1  0.46980000  0.22137000  0.52609000  1.0
  H  H78  1  0.96980000  0.72137000  0.97392000  1.0
  H  H79  1  0.53020000  0.77863000  0.47392000  1.0
  H  H80  1  0.96877000  0.28578000  0.11190000  1.0
  H  H81  1  0.53123000  0.21422000  0.61190000  1.0
  H  H82  1  0.03123000  0.71422000  0.88810000  1.0
  H  H83  1  0.46878000  0.78578000  0.38810000  1.0
  H  H84  1  0.10191000  0.97657000  0.69448000  1.0
  H  H85  1  0.39809000  0.52343000  0.19448000  1.0
  H  H86  1  0.89809000  0.02343000  0.30552000  1.0
  H  H87  1  0.60191000  0.47657000  0.80552000  1.0
  H  H88  1  0.22566000  0.05860000  0.65944000  1.0
  H  H89  1  0.27433000  0.44139000  0.15944000  1.0
  H  H90  1  0.77434000  0.94139000  0.34056000  1.0
  H  H91  1  0.72566000  0.55861000  0.84056000  1.0
  H  H92  1  0.00129000  0.14311000  0.47248000  1.0
  H  H93  1  0.49871000  0.35689000  0.97248000  1.0
  H  H94  1  0.99872000  0.85690000  0.52752000  1.0
  H  H95  1  0.50129000  0.64311000  0.02752000  1.0
  H  H96  1  0.08231000  0.07488000  0.46185000  1.0
  H  H97  1  0.41769000  0.42512000  0.96185000  1.0
  H  H98  1  0.91769000  0.92512000  0.53815000  1.0
  H  H99  1  0.58231000  0.57488000  0.03815000  1.0
  C  C100  1  0.93760000  0.09219000  0.80422000  1.0
  C  C101  1  0.56240000  0.40781000  0.30422000  1.0
  C  C102  1  0.06241000  0.90782000  0.19578000  1.0
  C  C103  1  0.43760000  0.59218000  0.69578000  1.0
  C  C104  1  0.79938000  0.92880000  0.65798000  1.0
  C  C105  1  0.70062000  0.57120000  0.15797000  1.0
  C  C106  1  0.20062000  0.07120000  0.34203000  1.0
  C  C107  1  0.29938000  0.42880000  0.84203000  1.0
  C  C108  1  0.76345000  0.83008000  0.82488000  1.0
  C  C109  1  0.73655000  0.66992000  0.32488000  1.0
  C  C110  1  0.23655000  0.16993000  0.17512000  1.0
  C  C111  1  0.26345000  0.33008000  0.67512000  1.0
  C  C112  1  0.49367000  0.82807000  0.90177000  1.0
  C  C113  1  0.00632000  0.67193000  0.40177000  1.0
  C  C114  1  0.50633000  0.17194000  0.09823000  1.0
  C  C115  1  0.99367000  0.32806000  0.59823000  1.0
  C  C116  1  0.74276000  0.00538000  0.96424000  1.0
  C  C117  1  0.75724000  0.49462000  0.46425000  1.0
  C  C118  1  0.25724000  0.99463000  0.03575000  1.0
  C  C119  1  0.24275000  0.50537000  0.53575000  1.0
  C  C120  1  0.78198000  0.21975000  0.84833000  1.0
  C  C121  1  0.71802000  0.28025000  0.34833000  1.0
  C  C122  1  0.21802000  0.78026000  0.15167000  1.0
  C  C123  1  0.28198000  0.71974000  0.65166000  1.0
  C  C124  1  0.72534000  0.10128000  0.82626000  1.0
  C  C125  1  0.77466000  0.39871000  0.32626000  1.0
  C  C126  1  0.27467000  0.89872000  0.17374000  1.0
  C  C127  1  0.22534000  0.60128000  0.67374000  1.0
  C  C128  1  0.81112000  0.07367000  0.76670000  1.0
  C  C129  1  0.68888000  0.42633000  0.26670000  1.0
  C  C130  1  0.18889000  0.92634000  0.23330000  1.0
  C  C131  1  0.31112000  0.57366000  0.73330000  1.0
  C  C132  1  0.73741000  0.96443000  0.72775000  1.0
  C  C133  1  0.76258000  0.53557000  0.22775000  1.0
  C  C134  1  0.26259000  0.03558000  0.27226000  1.0
  C  C135  1  0.23741000  0.46443000  0.77226000  1.0
  C  C136  1  0.67170000  0.87387000  0.78938000  1.0
  C  C137  1  0.82830000  0.62613000  0.28938000  1.0
  C  C138  1  0.32831000  0.12613000  0.21062000  1.0
  C  C139  1  0.17169000  0.37387000  0.71062000  1.0
  C  C140  1  0.59207000  0.91074000  0.84836000  1.0
  C  C141  1  0.90793000  0.58926000  0.34836000  1.0
  C  C142  1  0.40794000  0.08926000  0.15164000  1.0
  C  C143  1  0.09206000  0.41074000  0.65163000  1.0
  C  C144  1  0.66184000  0.01648000  0.89381000  1.0
  C  C145  1  0.83816000  0.48352000  0.39381000  1.0
  C  C146  1  0.33816000  0.98353000  0.10619000  1.0
  C  C147  1  0.16184000  0.51647000  0.60619000  1.0
  O  O148  1  0.88310000  0.99557000  0.61185000  1.0
  O  O149  1  0.61690000  0.50443000  0.11185000  1.0
  O  O150  1  0.11691000  0.00443000  0.38815000  1.0
  O  O151  1  0.38310000  0.49558000  0.88815000  1.0
  O  O152  1  0.75465000  0.83117000  0.64194000  1.0
  O  O153  1  0.74534000  0.66882000  0.14194000  1.0
  O  O154  1  0.24534000  0.16883000  0.35807000  1.0
  O  O155  1  0.25466000  0.33118000  0.85806000  1.0
  O  O156  1  0.87824000  0.88128000  0.81239000  1.0
  O  O157  1  0.62175000  0.61871000  0.31240000  1.0
  O  O158  1  0.12176000  0.11872000  0.18761000  1.0
  O  O159  1  0.37824000  0.38128000  0.68761000  1.0
  O  O160  1  0.72217000  0.73861000  0.86042000  1.0
  O  O161  1  0.77783000  0.76139000  0.36042000  1.0
  O  O162  1  0.27783000  0.26139000  0.13958000  1.0
  O  O163  1  0.22216000  0.23861000  0.63958000  1.0
  O  O164  1  0.46632000  0.72917000  0.89085000  1.0
  O  O165  1  0.03368000  0.77082000  0.39085000  1.0
  O  O166  1  0.53368000  0.27083000  0.10915000  1.0
  O  O167  1  0.96632000  0.22917000  0.60915000  1.0
  O  O168  1  0.43045000  0.86122000  0.94920000  1.0
  O  O169  1  0.06955000  0.63878000  0.44920000  1.0
  O  O170  1  0.56955000  0.13878000  0.05080000  1.0
  O  O171  1  0.93045000  0.36121000  0.55080000  1.0
  O  O172  1  0.76487000  0.92285000  0.96899000  1.0
  O  O173  1  0.73513000  0.57715000  0.46899000  1.0
  O  O174  1  0.23514000  0.07716000  0.03101000  1.0
  O  O175  1  0.26486000  0.42284000  0.53101000  1.0
  O  O176  1  0.78129000  0.07799000  0.02020000  1.0
  O  O177  1  0.71871000  0.42201000  0.52020000  1.0
  O  O178  1  0.21872000  0.92202000  0.97980000  1.0
  O  O179  1  0.28128000  0.57799000  0.47980000  1.0
  O  O180  1  0.76181000  0.25158000  0.91898000  1.0
  O  O181  1  0.73818000  0.24841000  0.41899000  1.0
  O  O182  1  0.23819000  0.74842000  0.08101000  1.0
  O  O183  1  0.26181000  0.75158000  0.58101000  1.0
  O  O184  1  0.83885000  0.28243000  0.79056000  1.0
  O  O185  1  0.66115000  0.21757000  0.29056000  1.0
  O  O186  1  0.16115000  0.71758000  0.20943000  1.0
  O  O187  1  0.33885000  0.78242000  0.70943000  1.0
  O  O188  1  0.95449000  0.10523000  0.88136000  1.0
  O  O189  1  0.54551000  0.39476000  0.38135000  1.0
  O  O190  1  0.04552000  0.89478000  0.11865000  1.0
  O  O191  1  0.45448000  0.60522000  0.61865000  1.0
  O  O192  1  0.02801000  0.10125000  0.75400000  1.0
  O  O193  1  0.47199000  0.39875000  0.25400000  1.0
  O  O194  1  0.97199000  0.89875000  0.24600000  1.0
  O  O195  1  0.52801000  0.60125000  0.74600000  1.0
  O  O196  1  0.15716000  0.25300000  0.99614000  1.0
  O  O197  1  0.34284000  0.24700000  0.49614000  1.0
  O  O198  1  0.84284000  0.74700000  0.00386000  1.0
  O  O199  1  0.65716000  0.75300000  0.50386000  1.0
  O  O200  1  0.21568000  0.12582000  0.85017000  1.0
  O  O201  1  0.28432000  0.37419000  0.35017000  1.0
  O  O202  1  0.78432000  0.87419000  0.14984000  1.0
  O  O203  1  0.71568000  0.62581000  0.64984000  1.0
  O  O204  1  0.01797000  0.93595000  0.93774000  1.0
  O  O205  1  0.48203000  0.56405000  0.43774000  1.0
  O  O206  1  0.98204000  0.06406000  0.06226000  1.0
  O  O207  1  0.51797000  0.43594000  0.56226000  1.0
  O  O208  1  0.78313000  0.18400000  0.16706000  1.0
  O  O209  1  0.71688000  0.31601000  0.66706000  1.0
  O  O210  1  0.21688000  0.81601000  0.83294000  1.0
  O  O211  1  0.28312000  0.68399000  0.33293000  1.0
  O  O212  1  0.76728000  0.36856000  0.06707000  1.0
  O  O213  1  0.73272000  0.13144000  0.56707000  1.0
  O  O214  1  0.23272000  0.63145000  0.93293000  1.0
  O  O215  1  0.26728000  0.86855000  0.43293000  1.0
  O  O216  1  0.96460000  0.29767000  0.05253000  1.0
  O  O217  1  0.53540000  0.20233000  0.55253000  1.0
  O  O218  1  0.03541000  0.70233000  0.94747000  1.0
  O  O219  1  0.46459000  0.79767000  0.44747000  1.0
  O  O220  1  0.14159000  0.01157000  0.64318000  1.0
  O  O221  1  0.35841000  0.48843000  0.14318000  1.0
  O  O222  1  0.85841000  0.98842000  0.35682000  1.0
  O  O223  1  0.64159000  0.51158000  0.85682000  1.0
  O  O224  1  0.06390000  0.12469000  0.50021000  1.0
  O  O225  1  0.43610000  0.37531000  0.00021000  1.0
  O  O226  1  0.93610000  0.87531000  0.49979000  1.0
  O  O227  1  0.56390000  0.62469000  0.99979000  1.0
