# generated using pymatgen
data_NiH10C8S2(N2O3)2
_symmetry_space_group_name_H-M   'P 1'
_cell_length_a   7.18905000
_cell_length_b   12.34860000
_cell_length_c   12.37293805
_cell_angle_alpha   85.32218711
_cell_angle_beta   73.48433963
_cell_angle_gamma   73.65970000
_symmetry_Int_Tables_number   1
_chemical_formula_structural   NiH10C8S2(N2O3)2
_chemical_formula_sum   'Ni2 H20 C16 S4 N8 O12'
_cell_volume   1010.54792304
_cell_formula_units_Z   2
loop_
 _symmetry_equiv_pos_site_id
 _symmetry_equiv_pos_as_xyz
  1  'x, y, z'
loop_
 _atom_site_type_symbol
 _atom_site_label
 _atom_site_symmetry_multiplicity
 _atom_site_fract_x
 _atom_site_fract_y
 _atom_site_fract_z
 _atom_site_occupancy
  Ni  Ni0  1  0.49947000  0.99244000  0.00427000  1.0
  Ni  Ni1  1  0.74855000  0.49804000  0.50860000  1.0
  H  H2  1  0.42184000  0.97498000  0.24959000  1.0
  H  H3  1  0.19324000  0.07161000  0.94860000  1.0
  H  H4  1  0.64383000  0.01552000  0.75753000  1.0
  H  H5  1  0.11159000  0.00212000  0.05396000  1.0
  H  H6  1  0.31914000  0.23957000  0.02446000  1.0
  H  H7  1  0.88186000  0.96048000  0.94443000  1.0
  H  H8  1  0.61037000  0.74862000  0.98415000  1.0
  H  H9  1  0.77348000  0.08740000  0.97092000  1.0
  H  H10  1  0.82519000  0.25248000  0.52551000  1.0
  H  H11  1  0.04673000  0.55319000  0.42381000  1.0
  H  H12  1  0.60636000  0.74397000  0.48573000  1.0
  H  H13  1  0.13272000  0.44020000  0.48187000  1.0
  H  H14  1  0.92939000  0.47611000  0.26057000  1.0
  H  H15  1  0.35544000  0.54226000  0.54041000  1.0
  H  H16  1  0.64278000  0.51718000  0.75180000  1.0
  H  H17  1  0.47177000  0.52407000  0.41337000  1.0
  H  H18  1  0.74579000  0.64097000  0.14920000  1.0
  H  H19  1  0.50900000  0.35211000  0.86041000  1.0
  H  H20  1  0.12450000  0.13860000  0.36227000  1.0
  H  H21  1  0.63015000  0.85217000  0.64932000  1.0
  C  C22  1  0.57445000  0.81515000  0.18852000  1.0
  C  C23  1  0.55756000  0.17772000  0.81801000  1.0
  C  C24  1  0.23904000  0.17724000  0.18597000  1.0
  C  C25  1  0.62791000  0.81033000  0.82318000  1.0
  C  C26  1  0.67546000  0.31338000  0.68548000  1.0
  C  C27  1  0.69436000  0.68336000  0.32370000  1.0
  C  C28  1  0.00940000  0.31480000  0.32320000  1.0
  C  C29  1  0.62904000  0.67815000  0.69049000  1.0
  C  C30  1  0.49998000  0.87572000  0.38309000  1.0
  C  C31  1  0.67763000  0.70573000  0.21410000  1.0
  C  C32  1  0.74674000  0.11878000  0.62490000  1.0
  C  C33  1  0.57463000  0.28752000  0.79530000  1.0
  C  C34  1  0.12325000  0.37305000  0.12700000  1.0
  C  C35  1  0.12388000  0.20345000  0.29722000  1.0
  C  C36  1  0.62627000  0.61721000  0.88366000  1.0
  C  C37  1  0.62864000  0.78719000  0.71424000  1.0
  S  S38  1  0.39280000  0.97335000  0.48206000  1.0
  S  S39  1  0.85078000  0.02004000  0.52697000  1.0
  S  S40  1  0.12324000  0.47156000  0.02839000  1.0
  S  S41  1  0.62414000  0.51832000  0.98252000  1.0
  N  N42  1  0.49441000  0.89498000  0.27281000  1.0
  N  N43  1  0.64609000  0.09806000  0.73366000  1.0
  N  N44  1  0.23233000  0.26224000  0.10607000  1.0
  N  N45  1  0.62266000  0.72570000  0.90300000  1.0
  N  N46  1  0.75285000  0.22920000  0.60553000  1.0
  N  N47  1  0.60296000  0.76745000  0.40346000  1.0
  N  N48  1  0.01437000  0.39428000  0.23779000  1.0
  N  N49  1  0.63184000  0.59815000  0.77494000  1.0
  O  O50  1  0.55028000  0.84394000  0.08995000  1.0
  O  O51  1  0.46127000  0.14571000  0.91587000  1.0
  O  O52  1  0.35170000  0.07728000  0.15413000  1.0
  O  O53  1  0.63523000  0.90683000  0.85343000  1.0
  O  O54  1  0.70033000  0.41203000  0.65643000  1.0
  O  O55  1  0.79308000  0.58611000  0.35554000  1.0
  O  O56  1  0.89986000  0.34747000  0.42359000  1.0
  O  O57  1  0.62417000  0.64848000  0.59358000  1.0
  O  O58  1  0.21484000  0.99592000  0.98189000  1.0
  O  O59  1  0.78631000  0.01185000  0.00378000  1.0
  O  O60  1  0.04371000  0.51654000  0.49757000  1.0
  O  O61  1  0.46931000  0.49162000  0.48822000  1.0
