# generated using pymatgen
data_CdH16C30N4(ClO2)2
_symmetry_space_group_name_H-M   'P 1'
_cell_length_a   9.20238000
_cell_length_b   10.80710000
_cell_length_c   14.76100000
_cell_angle_alpha   87.90660000
_cell_angle_beta   72.61950000
_cell_angle_gamma   70.14670000
_symmetry_Int_Tables_number   1
_chemical_formula_structural   CdH16C30N4(ClO2)2
_chemical_formula_sum   'Cd2 H32 C60 N8 Cl4 O8'
_cell_volume   1314.25392963
_cell_formula_units_Z   2
loop_
 _symmetry_equiv_pos_site_id
 _symmetry_equiv_pos_as_xyz
  1  'x, y, z'
loop_
 _atom_site_type_symbol
 _atom_site_label
 _atom_site_symmetry_multiplicity
 _atom_site_fract_x
 _atom_site_fract_y
 _atom_site_fract_z
 _atom_site_occupancy
  Cd  Cd0  1  0.35784000  0.24002000  0.26341000  1.0
  Cd  Cd1  1  0.64216000  0.75998000  0.73659000  1.0
  H  H2  1  0.60859000  0.24562000  0.39435000  1.0
  H  H3  1  0.39141000  0.75439000  0.60565000  1.0
  H  H4  1  0.82877000  0.08889000  0.45173000  1.0
  H  H5  1  0.17123000  0.91111000  0.54827000  1.0
  H  H6  1  0.97318000  0.28276000  0.15152000  1.0
  H  H7  1  0.02682000  0.71724000  0.84848000  1.0
  H  H8  1  0.75859000  0.18059000  0.21551000  1.0
  H  H9  1  0.24141000  0.81940000  0.78449000  1.0
  H  H10  1  0.08834000  0.07963000  0.27964000  1.0
  H  H11  1  0.91166000  0.92037000  0.72036000  1.0
  H  H12  1  0.86676000  0.84679000  0.44578000  1.0
  H  H13  1  0.13324000  0.15321000  0.55422000  1.0
  H  H14  1  0.01929000  0.46386000  0.22969000  1.0
  H  H15  1  0.98071000  0.53614000  0.77031000  1.0
  H  H16  1  0.89671000  0.50105000  0.07953000  1.0
  H  H17  1  0.10329000  0.49895000  0.92047000  1.0
  H  H18  1  0.08179000  0.84869000  0.28589000  1.0
  H  H19  1  0.91821000  0.15131000  0.71410000  1.0
  H  H20  1  0.91831000  0.68396000  0.16298000  1.0
  H  H21  1  0.08170000  0.31604000  0.83702000  1.0
  H  H22  1  0.68696000  0.68549000  0.03491000  1.0
  H  H23  1  0.31304000  0.31451000  0.96509000  1.0
  H  H24  1  0.11901000  0.79376000  0.08332000  1.0
  H  H25  1  0.88100000  0.20624000  0.91668000  1.0
  H  H26  1  0.31050000  0.66812000  0.32221000  1.0
  H  H27  1  0.68951000  0.33188000  0.67778000  1.0
  H  H28  1  0.57179000  0.60188000  0.36168000  1.0
  H  H29  1  0.42821000  0.39813000  0.63832000  1.0
  H  H30  1  0.77577000  0.66693000  0.40574000  1.0
  H  H31  1  0.22423000  0.33307000  0.59426000  1.0
  H  H32  1  0.40112000  0.79193000  0.03595000  1.0
  H  H33  1  0.59888000  0.20807000  0.96405000  1.0
  C  C34  1  0.63370000  0.90376000  0.92762000  1.0
  C  C35  1  0.36629000  0.09625000  0.07238000  1.0
  C  C36  1  0.03899000  0.39890000  0.42496000  1.0
  C  C37  1  0.96101000  0.60110000  0.57503000  1.0
  C  C38  1  0.54046000  0.03907000  0.07965000  1.0
  C  C39  1  0.45954000  0.96093000  0.92035000  1.0
  C  C40  1  0.88024000  0.44920000  0.48776000  1.0
  C  C41  1  0.11976000  0.55080000  0.51224000  1.0
  C  C42  1  0.66294000  0.95022000  0.00586000  1.0
  C  C43  1  0.33705000  0.04978000  0.99414000  1.0
  C  C44  1  0.83188000  0.54865000  0.56075000  1.0
  C  C45  1  0.16812000  0.45135000  0.43925000  1.0
  C  C46  1  0.62809000  0.14028000  0.39342000  1.0
  C  C47  1  0.37190000  0.85973000  0.60658000  1.0
  C  C48  1  0.36533000  0.51558000  0.15115000  1.0
  C  C49  1  0.63467000  0.48442000  0.84885000  1.0
  C  C50  1  0.75183000  0.05158000  0.42526000  1.0
  C  C51  1  0.24817000  0.94842000  0.57475000  1.0
  C  C52  1  0.54264000  0.97385000  0.36082000  1.0
  C  C53  1  0.45736000  0.02615000  0.63918000  1.0
  C  C54  1  0.84928000  0.33443000  0.15045000  1.0
  C  C55  1  0.15072000  0.66557000  0.84955000  1.0
  C  C56  1  0.72872000  0.27767000  0.18737000  1.0
  C  C57  1  0.27128000  0.72233000  0.81263000  1.0
  C  C58  1  0.53203000  0.45309000  0.15072000  1.0
  C  C59  1  0.46797000  0.54690000  0.84928000  1.0
  C  C60  1  0.66689000  0.87596000  0.38881000  1.0
  C  C61  1  0.33310000  0.12404000  0.61119000  1.0
  C  C62  1  0.42302000  0.93561000  0.33515000  1.0
  C  C63  1  0.57699000  0.06439000  0.66485000  1.0
  C  C64  1  0.18358000  0.99887000  0.29677000  1.0
  C  C65  1  0.81642000  0.00113000  0.70323000  1.0
  C  C66  1  0.77247000  0.91881000  0.42165000  1.0
  C  C67  1  0.22753000  0.08119000  0.57835000  1.0
  C  C68  1  0.43332000  0.80119000  0.33776000  1.0
  C  C69  1  0.56668000  0.19881000  0.66224000  1.0
  C  C70  1  0.32098000  0.63835000  0.10936000  1.0
  C  C71  1  0.67902000  0.36165000  0.89064000  1.0
  C  C72  1  0.10214000  0.51561000  0.19510000  1.0
  C  C73  1  0.89786000  0.48439000  0.80490000  1.0
  C  C74  1  0.80706000  0.45409000  0.11066000  1.0
  C  C75  1  0.19295000  0.54590000  0.88934000  1.0
  C  C76  1  0.18120000  0.86931000  0.29993000  1.0
  C  C77  1  0.81881000  0.13069000  0.70007000  1.0
  C  C78  1  0.64610000  0.51690000  0.10908000  1.0
  C  C79  1  0.35390000  0.48310000  0.89092000  1.0
  C  C80  1  0.04627000  0.63819000  0.15742000  1.0
  C  C81  1  0.95374000  0.36180000  0.84258000  1.0
  C  C82  1  0.59657000  0.63970000  0.06724000  1.0
  C  C83  1  0.40343000  0.36030000  0.93276000  1.0
  C  C84  1  0.15674000  0.69881000  0.11364000  1.0
  C  C85  1  0.84326000  0.30118000  0.88636000  1.0
  C  C86  1  0.30708000  0.77003000  0.31957000  1.0
  C  C87  1  0.69292000  0.22997000  0.68043000  1.0
  C  C88  1  0.56555000  0.70445000  0.36093000  1.0
  C  C89  1  0.43445000  0.29555000  0.63907000  1.0
  C  C90  1  0.67797000  0.74066000  0.38553000  1.0
  C  C91  1  0.32203000  0.25934000  0.61447000  1.0
  C  C92  1  0.43983000  0.69802000  0.06720000  1.0
  C  C93  1  0.56017000  0.30198000  0.93280000  1.0
  N  N94  1  0.52795000  0.10281000  0.36132000  1.0
  N  N95  1  0.47204000  0.89719000  0.63868000  1.0
  N  N96  1  0.30105000  0.03076000  0.31339000  1.0
  N  N97  1  0.69895000  0.96924000  0.68661000  1.0
  N  N98  1  0.57522000  0.33534000  0.18891000  1.0
  N  N99  1  0.42478000  0.66466000  0.81109000  1.0
  N  N100  1  0.25623000  0.45622000  0.19194000  1.0
  N  N101  1  0.74378000  0.54378000  0.80806000  1.0
  Cl  Cl102  1  0.73373000  0.39408000  0.47006000  1.0
  Cl  Cl103  1  0.26627000  0.60592000  0.52994000  1.0
  Cl  Cl104  1  0.85808000  0.89311000  0.01491000  1.0
  Cl  Cl105  1  0.14191000  0.10690000  0.98509000  1.0
  O  O106  1  0.56674000  0.07564000  0.15136000  1.0
  O  O107  1  0.43325000  0.92437000  0.84864000  1.0
  O  O108  1  0.08189000  0.31406000  0.35681000  1.0
  O  O109  1  0.91810000  0.68594000  0.64319000  1.0
  O  O110  1  0.68833000  0.59866000  0.61449000  1.0
  O  O111  1  0.31167000  0.40134000  0.38551000  1.0
  O  O112  1  0.73882000  0.81805000  0.86371000  1.0
  O  O113  1  0.26117000  0.18196000  0.13629000  1.0
