# generated using pymatgen
data_SnH11C5SNO2
_symmetry_space_group_name_H-M   'P 1'
_cell_length_a   9.62030000
_cell_length_b   10.58670000
_cell_length_c   11.00570000
_cell_angle_alpha   90.00030000
_cell_angle_beta   90.00000000
_cell_angle_gamma   89.99990000
_symmetry_Int_Tables_number   1
_chemical_formula_structural   SnH11C5SNO2
_chemical_formula_sum   'Sn4 H44 C20 S4 N4 O8'
_cell_volume   1120.90005930
_cell_formula_units_Z   4
loop_
 _symmetry_equiv_pos_site_id
 _symmetry_equiv_pos_as_xyz
  1  'x, y, z'
loop_
 _atom_site_type_symbol
 _atom_site_label
 _atom_site_symmetry_multiplicity
 _atom_site_fract_x
 _atom_site_fract_y
 _atom_site_fract_z
 _atom_site_occupancy
  Sn  Sn0  1  0.91128000  0.05910000  0.24515000  1.0
  Sn  Sn1  1  0.58873000  0.94090000  0.74515000  1.0
  Sn  Sn2  1  0.08872000  0.55909000  0.25485000  1.0
  Sn  Sn3  1  0.41128000  0.44090000  0.75484000  1.0
  H  H4  1  0.78401000  0.28850000  0.31925000  1.0
  H  H5  1  0.71599000  0.71150000  0.81925000  1.0
  H  H6  1  0.21599000  0.78849000  0.18075000  1.0
  H  H7  1  0.28401000  0.21150000  0.68075000  1.0
  H  H8  1  0.70792000  0.17522000  0.40604000  1.0
  H  H9  1  0.79208000  0.82478000  0.90604000  1.0
  H  H10  1  0.29208000  0.67522000  0.09396000  1.0
  H  H11  1  0.20791000  0.32478000  0.59396000  1.0
  H  H12  1  0.82429000  0.28458000  0.54898000  1.0
  H  H13  1  0.67571000  0.71542000  0.04898000  1.0
  H  H14  1  0.17571000  0.78457000  0.95102000  1.0
  H  H15  1  0.32428000  0.21542000  0.45102000  1.0
  H  H16  1  0.90540000  0.06441000  0.55426000  1.0
  H  H17  1  0.59460000  0.93560000  0.05426000  1.0
  H  H18  1  0.09460000  0.56440000  0.94574000  1.0
  H  H19  1  0.40540000  0.43560000  0.44573000  1.0
  H  H20  1  0.04168000  0.16859000  0.59549000  1.0
  H  H21  1  0.45832000  0.83142000  0.09549000  1.0
  H  H22  1  0.95832000  0.66858000  0.90452000  1.0
  H  H23  1  0.54168000  0.33141000  0.40451000  1.0
  H  H24  1  0.01915000  0.24578000  0.10838000  1.0
  H  H25  1  0.48086000  0.75422000  0.60837000  1.0
  H  H26  1  0.98086000  0.74578000  0.39162000  1.0
  H  H27  1  0.51915000  0.25422000  0.89162000  1.0
  H  H28  1  0.83507000  0.25263000  0.09445000  1.0
  H  H29  1  0.66494000  0.74737000  0.59445000  1.0
  H  H30  1  0.16494000  0.75263000  0.40555000  1.0
  H  H31  1  0.33507000  0.24737000  0.90555000  1.0
  H  H32  1  0.93080000  0.13392000  0.01206000  1.0
  H  H33  1  0.56921000  0.86607000  0.51205000  1.0
  H  H34  1  0.06920000  0.63393000  0.48795000  1.0
  H  H35  1  0.43080000  0.36608000  0.98794000  1.0
  H  H36  1  0.77346000  0.88116000  0.37279000  1.0
  H  H37  1  0.72654000  0.11883000  0.87279000  1.0
  H  H38  1  0.22654000  0.38116000  0.12721000  1.0
  H  H39  1  0.27346000  0.61884000  0.62721000  1.0
  H  H40  1  0.75940000  0.84501000  0.21435000  1.0
  H  H41  1  0.74060000  0.15499000  0.71435000  1.0
  H  H42  1  0.24060000  0.34501000  0.28565000  1.0
  H  H43  1  0.25940000  0.65499000  0.78566000  1.0
  H  H44  1  0.65008000  0.96435000  0.28256000  1.0
  H  H45  1  0.84993000  0.03565000  0.78256000  1.0
  H  H46  1  0.34993000  0.46435000  0.21744000  1.0
  H  H47  1  0.15008000  0.53565000  0.71745000  1.0
  C  C48  1  0.98136000  0.36179000  0.43560000  1.0
  C  C49  1  0.51865000  0.63822000  0.93559000  1.0
  C  C50  1  0.01864000  0.86179000  0.06440000  1.0
  C  C51  1  0.48135000  0.13821000  0.56440000  1.0
  C  C52  1  0.89042000  0.24959000  0.47383000  1.0
  C  C53  1  0.60958000  0.75042000  0.97383000  1.0
  C  C54  1  0.10958000  0.74958000  0.02617000  1.0
  C  C55  1  0.39042000  0.25041000  0.52617000  1.0
  C  C56  1  0.97580000  0.13785000  0.51982000  1.0
  C  C57  1  0.52420000  0.86216000  0.01982000  1.0
  C  C58  1  0.02419000  0.63784000  0.98019000  1.0
  C  C59  1  0.47580000  0.36215000  0.48018000  1.0
  C  C60  1  0.92498000  0.18902000  0.09600000  1.0
  C  C61  1  0.57503000  0.81098000  0.59599000  1.0
  C  C62  1  0.07503000  0.68902000  0.40401000  1.0
  C  C63  1  0.42498000  0.31098000  0.90400000  1.0
  C  C64  1  0.75327000  0.92039000  0.28227000  1.0
  C  C65  1  0.74674000  0.07961000  0.78227000  1.0
  C  C66  1  0.24674000  0.42038000  0.21773000  1.0
  C  C67  1  0.25326000  0.57961000  0.71773000  1.0
  S  S68  1  0.08961000  0.07124000  0.40349000  1.0
  S  S69  1  0.41039000  0.92877000  0.90349000  1.0
  S  S70  1  0.91039000  0.57123000  0.09652000  1.0
  S  S71  1  0.58961000  0.42876000  0.59650000  1.0
  N  N72  1  0.80091000  0.21006000  0.37190000  1.0
  N  N73  1  0.69908000  0.78994000  0.87190000  1.0
  N  N74  1  0.19908000  0.71006000  0.12810000  1.0
  N  N75  1  0.30091000  0.28994000  0.62810000  1.0
  O  O76  1  0.94345000  0.41644000  0.33586000  1.0
  O  O77  1  0.55654000  0.58357000  0.83587000  1.0
  O  O78  1  0.05655000  0.91643000  0.16414000  1.0
  O  O79  1  0.44345000  0.08356000  0.66413000  1.0
  O  O80  1  0.08088000  0.39592000  0.50077000  1.0
  O  O81  1  0.41911000  0.60408000  0.00078000  1.0
  O  O82  1  0.91912000  0.89592000  0.99923000  1.0
  O  O83  1  0.58088000  0.10408000  0.49923000  1.0
