# generated using pymatgen
data_EuH13C25(O5F9)2
_symmetry_space_group_name_H-M   'P 1'
_cell_length_a   9.11785000
_cell_length_b   10.81720000
_cell_length_c   17.55160000
_cell_angle_alpha   90.00000000
_cell_angle_beta   90.00000000
_cell_angle_gamma   105.96000000
_symmetry_Int_Tables_number   1
_chemical_formula_structural   EuH13C25(O5F9)2
_chemical_formula_sum   'Eu2 H26 C50 O20 F36'
_cell_volume   1664.37995883
_cell_formula_units_Z   2
loop_
 _symmetry_equiv_pos_site_id
 _symmetry_equiv_pos_as_xyz
  1  'x, y, z'
loop_
 _atom_site_type_symbol
 _atom_site_label
 _atom_site_symmetry_multiplicity
 _atom_site_fract_x
 _atom_site_fract_y
 _atom_site_fract_z
 _atom_site_occupancy
  Eu  Eu0  1  0.70654000  0.31301000  0.99641000  1.0
  Eu  Eu1  1  0.29346000  0.68699000  0.49641000  1.0
  H  H2  1  0.57408000  0.97442000  0.97544000  1.0
  H  H3  1  0.42592000  0.02558000  0.47544000  1.0
  H  H4  1  0.83370000  0.81217000  0.13288000  1.0
  H  H5  1  0.16630000  0.18783000  0.63288000  1.0
  H  H6  1  0.69748000  0.59228000  0.08755000  1.0
  H  H7  1  0.30252000  0.40772000  0.58755000  1.0
  H  H8  1  0.43915000  0.75492000  0.92946000  1.0
  H  H9  1  0.56085000  0.24508000  0.42946000  1.0
  H  H10  1  0.16984000  0.41009000  0.88568000  1.0
  H  H11  1  0.83016000  0.58991000  0.38568000  1.0
  H  H12  1  0.22713000  0.33287000  0.96679000  1.0
  H  H13  1  0.77288000  0.66713000  0.46679000  1.0
  H  H14  1  0.33834000  0.35290000  0.88100000  1.0
  H  H15  1  0.66166000  0.64709000  0.38100000  1.0
  H  H16  1  0.99750000  0.15473000  0.22793000  1.0
  H  H17  1  0.00250000  0.84527000  0.72793000  1.0
  H  H18  1  0.84643000  0.21783000  0.19411000  1.0
  H  H19  1  0.15357000  0.78217000  0.69411000  1.0
  H  H20  1  0.00941000  0.22933000  0.13513000  1.0
  H  H21  1  0.99059000  0.77067000  0.63513000  1.0
  H  H22  1  0.14045000  0.70683000  0.00286000  1.0
  H  H23  1  0.85955000  0.29317000  0.50286000  1.0
  H  H24  1  0.72108000  0.07555000  0.75894000  1.0
  H  H25  1  0.27891000  0.92445000  0.25894000  1.0
  H  H26  1  0.31453000  0.16705000  0.19698000  1.0
  H  H27  1  0.68547000  0.83295000  0.69698000  1.0
  C  C28  1  0.60239000  0.89050000  0.99858000  1.0
  C  C29  1  0.39761000  0.10950000  0.49858000  1.0
  C  C30  1  0.71259000  0.90620000  0.05623000  1.0
  C  C31  1  0.28741000  0.09380000  0.55623000  1.0
  C  C32  1  0.74882000  0.79906000  0.08782000  1.0
  C  C33  1  0.25118000  0.20094000  0.58782000  1.0
  C  C34  1  0.67336000  0.67660000  0.06224000  1.0
  C  C35  1  0.32664000  0.32340000  0.56224000  1.0
  C  C36  1  0.56122000  0.66087000  0.00552000  1.0
  C  C37  1  0.43878000  0.33913000  0.50552000  1.0
  C  C38  1  0.52596000  0.76812000  0.97356000  1.0
  C  C39  1  0.47404000  0.23188000  0.47356000  1.0
  C  C40  1  0.47991000  0.52934000  0.98087000  1.0
  C  C41  1  0.52009000  0.47066000  0.48087000  1.0
  C  C42  1  0.26647000  0.39460000  0.91719000  1.0
  C  C43  1  0.73353000  0.60540000  0.41719000  1.0
  C  C44  1  0.78375000  0.03775000  0.08445000  1.0
  C  C45  1  0.21625000  0.96225000  0.58446000  1.0
  C  C46  1  0.93429000  0.17100000  0.17812000  1.0
  C  C47  1  0.06571000  0.82900000  0.67812000  1.0
  C  C48  1  0.96083000  0.70737000  0.88049000  1.0
  C  C49  1  0.03917000  0.29263000  0.38049000  1.0
  C  C50  1  0.93941000  0.60191000  0.94207000  1.0
  C  C51  1  0.06059000  0.39809000  0.44207000  1.0
  C  C52  1  0.04720000  0.61948000  0.00093000  1.0
  C  C53  1  0.95280000  0.38052000  0.50093000  1.0
  C  C54  1  0.03757000  0.52398000  0.05614000  1.0
  C  C55  1  0.96243000  0.47602000  0.55614000  1.0
  C  C56  1  0.15855000  0.54792000  0.12034000  1.0
  C  C57  1  0.84145000  0.45208000  0.62034000  1.0
  C  C58  1  0.45329000  0.13125000  0.77157000  1.0
  C  C59  1  0.54671000  0.86875000  0.27157000  1.0
  C  C60  1  0.59228000  0.17636000  0.82505000  1.0
  C  C61  1  0.40772000  0.82364000  0.32505000  1.0
  C  C62  1  0.72123000  0.13480000  0.80878000  1.0
  C  C63  1  0.27877000  0.86520000  0.30878000  1.0
  C  C64  1  0.85390000  0.17475000  0.85297000  1.0
  C  C65  1  0.14610000  0.82525000  0.35298000  1.0
  C  C66  1  0.99421000  0.13502000  0.82380000  1.0
  C  C67  1  0.00579000  0.86498000  0.32380000  1.0
  C  C68  1  0.23331000  0.02492000  0.06969000  1.0
  C  C69  1  0.76669000  0.97508000  0.56969000  1.0
  C  C70  1  0.38228000  0.13329000  0.08278000  1.0
  C  C71  1  0.61772000  0.86671000  0.58278000  1.0
  C  C72  1  0.40163000  0.19696000  0.15341000  1.0
  C  C73  1  0.59837000  0.80304000  0.65341000  1.0
  C  C74  1  0.53247000  0.29726000  0.16941000  1.0
  C  C75  1  0.46753000  0.70274000  0.66941000  1.0
  C  C76  1  0.54915000  0.35913000  0.24947000  1.0
  C  C77  1  0.45085000  0.64087000  0.74947000  1.0
  O  O78  1  0.52350000  0.43296000  0.99539000  1.0
  O  O79  1  0.47650000  0.56704000  0.49539000  1.0
  O  O80  1  0.35227000  0.52218000  0.94255000  1.0
  O  O81  1  0.64773000  0.47782000  0.44255000  1.0
  O  O82  1  0.86332000  0.04310000  0.14812000  1.0
  O  O83  1  0.13668000  0.95690000  0.64812000  1.0
  O  O84  1  0.76807000  0.13536000  0.05225000  1.0
  O  O85  1  0.23193000  0.86464000  0.55225000  1.0
  O  O86  1  0.82145000  0.50890000  0.93298000  1.0
  O  O87  1  0.17855000  0.49110000  0.43298000  1.0
  O  O88  1  0.93972000  0.41573000  0.06029000  1.0
  O  O89  1  0.06028000  0.58427000  0.56029000  1.0
  O  O90  1  0.57317000  0.24586000  0.88003000  1.0
  O  O91  1  0.42683000  0.75414000  0.38003000  1.0
  O  O92  1  0.87523000  0.24369000  0.91224000  1.0
  O  O93  1  0.12477000  0.75631000  0.41224000  1.0
  O  O94  1  0.47049000  0.15536000  0.02612000  1.0
  O  O95  1  0.52951000  0.84464000  0.52612000  1.0
  O  O96  1  0.64536000  0.34428000  0.12646000  1.0
  O  O97  1  0.35464000  0.65572000  0.62646000  1.0
  F  F98  1  0.92802000  0.65310000  0.81051000  1.0
  F  F99  1  0.07198000  0.34690000  0.31051000  1.0
  F  F100  1  0.86396000  0.78179000  0.89316000  1.0
  F  F101  1  0.13604000  0.21821000  0.39316000  1.0
  F  F102  1  0.10500000  0.78743000  0.87803000  1.0
  F  F103  1  0.89500000  0.21257000  0.37803000  1.0
  F  F104  1  0.09019000  0.53689000  0.18972000  1.0
  F  F105  1  0.90981000  0.46311000  0.68972000  1.0
  F  F106  1  0.26175000  0.66565000  0.11701000  1.0
  F  F107  1  0.73825000  0.33435000  0.61701000  1.0
  F  F108  1  0.23881000  0.45782000  0.11697000  1.0
  F  F109  1  0.76119000  0.54218000  0.61697000  1.0
  F  F110  1  0.34155000  0.03818000  0.80652000  1.0
  F  F111  1  0.65845000  0.96182000  0.30652000  1.0
  F  F112  1  0.39457000  0.22993000  0.75378000  1.0
  F  F113  1  0.60543000  0.77007000  0.25378000  1.0
  F  F114  1  0.48717000  0.08010000  0.70477000  1.0
  F  F115  1  0.51283000  0.91990000  0.20477000  1.0
  F  F116  1  0.07371000  0.22476000  0.77286000  1.0
  F  F117  1  0.92629000  0.77524000  0.27286000  1.0
  F  F118  1  0.09011000  0.12622000  0.88088000  1.0
  F  F119  1  0.90989000  0.87378000  0.38088000  1.0
  F  F120  1  0.95385000  0.01957000  0.78706000  1.0
  F  F121  1  0.04615000  0.98043000  0.28706000  1.0
  F  F122  1  0.25680000  0.93248000  0.02290000  1.0
  F  F123  1  0.74320000  0.06752000  0.52290000  1.0
  F  F124  1  0.12661000  0.07442000  0.03584000  1.0
  F  F125  1  0.87339000  0.92558000  0.53584000  1.0
  F  F126  1  0.17031000  0.96624000  0.13538000  1.0
  F  F127  1  0.82969000  0.03376000  0.63538000  1.0
  F  F128  1  0.42275000  0.31734000  0.29387000  1.0
  F  F129  1  0.57725000  0.68266000  0.79387000  1.0
  F  F130  1  0.66775000  0.33152000  0.28725000  1.0
  F  F131  1  0.33225000  0.66848000  0.78725000  1.0
  F  F132  1  0.58129000  0.48928000  0.24445000  1.0
  F  F133  1  0.41871000  0.51072000  0.74445000  1.0
