# generated using pymatgen
data_AgH10C7IN2
_symmetry_space_group_name_H-M   'P 1'
_cell_length_a   9.25562000
_cell_length_b   9.30545000
_cell_length_c   11.66670000
_cell_angle_alpha   67.12780000
_cell_angle_beta   84.80330000
_cell_angle_gamma   79.74770000
_symmetry_Int_Tables_number   1
_chemical_formula_structural   AgH10C7IN2
_chemical_formula_sum   'Ag4 H40 C28 I4 N8'
_cell_volume   910.78497405
_cell_formula_units_Z   4
loop_
 _symmetry_equiv_pos_site_id
 _symmetry_equiv_pos_as_xyz
  1  'x, y, z'
loop_
 _atom_site_type_symbol
 _atom_site_label
 _atom_site_symmetry_multiplicity
 _atom_site_fract_x
 _atom_site_fract_y
 _atom_site_fract_z
 _atom_site_occupancy
  Ag  Ag0  1  0.36427000  0.60501000  0.42475000  1.0
  Ag  Ag1  1  0.63573000  0.39499000  0.57526000  1.0
  Ag  Ag2  1  0.86416000  0.58870000  0.42726000  1.0
  Ag  Ag3  1  0.13584000  0.41130000  0.57274000  1.0
  H  H4  1  0.22599000  0.90581000  0.18105000  1.0
  H  H5  1  0.77402000  0.09419000  0.81895000  1.0
  H  H6  1  0.17293000  0.97795000  0.96192000  1.0
  H  H7  1  0.82708000  0.02205000  0.03808000  1.0
  H  H8  1  0.36378000  0.49682000  0.00822000  1.0
  H  H9  1  0.63622000  0.50318000  0.99178000  1.0
  H  H10  1  0.40927000  0.44996000  0.22367000  1.0
  H  H11  1  0.59073000  0.55004000  0.77633000  1.0
  H  H12  1  0.29218000  0.54320000  0.84842000  1.0
  H  H13  1  0.70782000  0.45680000  0.15159000  1.0
  H  H14  1  0.36966000  0.69026000  0.72015000  1.0
  H  H15  1  0.63034000  0.30974000  0.27985000  1.0
  H  H16  1  0.18283000  0.67220000  0.72061000  1.0
  H  H17  1  0.81717000  0.32780000  0.27939000  1.0
  H  H18  1  0.07246000  0.98573000  0.80183000  1.0
  H  H19  1  0.92754000  0.01427000  0.19817000  1.0
  H  H20  1  0.13442000  0.93221000  0.67330000  1.0
  H  H21  1  0.86558000  0.06779000  0.32671000  1.0
  H  H22  1  0.25039000  0.01691000  0.73392000  1.0
  H  H23  1  0.74961000  0.98309000  0.26608000  1.0
  H  H24  1  0.59966000  0.75746000  0.24167000  1.0
  H  H25  1  0.40033000  0.24254000  0.75833000  1.0
  H  H26  1  0.52981000  0.83574000  0.02727000  1.0
  H  H27  1  0.47019000  0.16426000  0.97273000  1.0
  H  H28  1  0.98584000  0.68118000  0.94593000  1.0
  H  H29  1  0.01416000  0.31882000  0.05407000  1.0
  H  H30  1  0.03355000  0.61061000  0.16546000  1.0
  H  H31  1  0.96645000  0.38940000  0.83454000  1.0
  H  H32  1  0.90531000  0.66700000  0.79404000  1.0
  H  H33  1  0.09469000  0.33301000  0.20596000  1.0
  H  H34  1  0.89443000  0.87577000  0.70986000  1.0
  H  H35  1  0.10557000  0.12423000  0.29014000  1.0
  H  H36  1  0.77601000  0.76843000  0.67498000  1.0
  H  H37  1  0.22399000  0.23157000  0.32502000  1.0
  H  H38  1  0.50287000  0.91964000  0.85297000  1.0
  H  H39  1  0.49713000  0.08036000  0.14703000  1.0
  H  H40  1  0.53482000  0.84371000  0.73269000  1.0
  H  H41  1  0.46518000  0.15629000  0.26731000  1.0
  H  H42  1  0.60389000  0.01665000  0.71551000  1.0
  H  H43  1  0.39611000  0.98335000  0.28449000  1.0
  C  C44  1  0.25604000  0.81844000  0.13868000  1.0
  C  C45  1  0.74397000  0.18156000  0.86132000  1.0
  C  C46  1  0.22511000  0.85846000  0.01510000  1.0
  C  C47  1  0.77489000  0.14154000  0.98491000  1.0
  C  C48  1  0.26086000  0.74364000  0.96045000  1.0
  C  C49  1  0.73915000  0.25636000  0.03955000  1.0
  C  C50  1  0.33010000  0.59301000  0.04031000  1.0
  C  C51  1  0.66991000  0.40699000  0.95969000  1.0
  C  C52  1  0.35683000  0.56594000  0.16214000  1.0
  C  C53  1  0.64318000  0.43406000  0.83786000  1.0
  C  C54  1  0.27106000  0.66428000  0.78060000  1.0
  C  C55  1  0.72894000  0.33571000  0.21941000  1.0
  C  C56  1  0.16877000  0.93604000  0.75929000  1.0
  C  C57  1  0.83122000  0.06396000  0.24072000  1.0
  C  C58  1  0.68280000  0.74281000  0.17287000  1.0
  C  C59  1  0.31719000  0.25719000  0.82712000  1.0
  C  C60  1  0.64390000  0.78687000  0.05087000  1.0
  C  C61  1  0.35610000  0.21313000  0.94913000  1.0
  C  C62  1  0.75101000  0.76606000  0.96104000  1.0
  C  C63  1  0.24899000  0.23394000  0.03896000  1.0
  C  C64  1  0.89486000  0.69928000  0.00707000  1.0
  C  C65  1  0.10514000  0.30072000  0.99293000  1.0
  C  C66  1  0.92251000  0.66002000  0.13125000  1.0
  C  C67  1  0.07748000  0.33998000  0.86875000  1.0
  C  C68  1  0.83045000  0.77764000  0.75100000  1.0
  C  C69  1  0.16955000  0.22236000  0.24900000  1.0
  C  C70  1  0.58297000  0.90061000  0.78364000  1.0
  C  C71  1  0.41703000  0.09939000  0.21636000  1.0
  I  I72  1  0.57747000  0.73519000  0.49911000  1.0
  I  I73  1  0.42252000  0.26482000  0.50089000  1.0
  I  I74  1  0.07353000  0.75016000  0.47485000  1.0
  I  I75  1  0.92647000  0.24984000  0.52516000  1.0
  N  N76  1  0.32175000  0.67483000  0.21387000  1.0
  N  N77  1  0.67825000  0.32518000  0.78613000  1.0
  N  N78  1  0.22773000  0.77629000  0.84089000  1.0
  N  N79  1  0.77227000  0.22371000  0.15911000  1.0
  N  N80  1  0.81978000  0.68000000  0.21573000  1.0
  N  N81  1  0.18022000  0.32000000  0.78427000  1.0
  N  N82  1  0.71909000  0.80426000  0.84006000  1.0
  N  N83  1  0.28091000  0.19574000  0.15994000  1.0
