# generated using pymatgen
data_NiP2H32C30S4(N3O2)2
_symmetry_space_group_name_H-M   'P 1'
_cell_length_a   6.87265000
_cell_length_b   10.58080000
_cell_length_c   12.80320000
_cell_angle_alpha   66.87810000
_cell_angle_beta   86.48360000
_cell_angle_gamma   88.58650000
_symmetry_Int_Tables_number   1
_chemical_formula_structural   NiP2H32C30S4(N3O2)2
_chemical_formula_sum   'Ni1 P2 H32 C30 S4 N6 O4'
_cell_volume   854.62474651
_cell_formula_units_Z   1
loop_
 _symmetry_equiv_pos_site_id
 _symmetry_equiv_pos_as_xyz
  1  'x, y, z'
loop_
 _atom_site_type_symbol
 _atom_site_label
 _atom_site_symmetry_multiplicity
 _atom_site_fract_x
 _atom_site_fract_y
 _atom_site_fract_z
 _atom_site_occupancy
  Ni  Ni0  1  0.50000000  0.00000000  0.00000000  1.0
  P  P1  1  0.46163000  0.10567000  0.18002000  1.0
  P  P2  1  0.53837000  0.89433000  0.81998000  1.0
  H  H3  1  0.60207000  0.36362000  0.04745000  1.0
  H  H4  1  0.39793000  0.63638000  0.95255000  1.0
  H  H5  1  0.79710000  0.29732000  0.14029000  1.0
  H  H6  1  0.20290000  0.70268000  0.85971000  1.0
  H  H7  1  0.71823000  0.54778000  0.10445000  1.0
  H  H8  1  0.28176000  0.45222000  0.89555000  1.0
  H  H9  1  0.68435000  0.43772000  0.25101000  1.0
  H  H10  1  0.31565000  0.56228000  0.74899000  1.0
  H  H11  1  0.47960000  0.49724000  0.16460000  1.0
  H  H12  1  0.52039000  0.50276000  0.83540000  1.0
  H  H13  1  0.05028000  0.02871000  0.24050000  1.0
  H  H14  1  0.94971000  0.97129000  0.75950000  1.0
  H  H15  1  0.87983000  0.87507000  0.41778000  1.0
  H  H16  1  0.12017000  0.12493000  0.58222000  1.0
  H  H17  1  0.42224000  0.78950000  0.58578000  1.0
  H  H18  1  0.57775000  0.21050000  0.41423000  1.0
  H  H19  1  0.59605000  0.94094000  0.40383000  1.0
  H  H20  1  0.40395000  0.05907000  0.59617000  1.0
  H  H21  1  0.81641000  0.65303000  0.71400000  1.0
  H  H22  1  0.18358000  0.34697000  0.28600000  1.0
  H  H23  1  0.80808000  0.67172000  0.56851000  1.0
  H  H24  1  0.19192000  0.32828000  0.43149000  1.0
  H  H25  1  0.77928000  0.81907000  0.60566000  1.0
  H  H26  1  0.22071000  0.18093000  0.39434000  1.0
  H  H27  1  0.57098000  0.76318000  0.21789000  1.0
  H  H28  1  0.42903000  0.23682000  0.78210000  1.0
  H  H29  1  0.01904000  0.57084000  0.36995000  1.0
  H  H30  1  0.98096000  0.42915000  0.63005000  1.0
  H  H31  1  0.86950000  0.72380000  0.18919000  1.0
  H  H32  1  0.13051000  0.27620000  0.81081000  1.0
  H  H33  1  0.07854000  0.89513000  0.03494000  1.0
  H  H34  1  0.92146000  0.10488000  0.96506000  1.0
  C  C35  1  0.64807000  0.33905000  0.13424000  1.0
  C  C36  1  0.35192000  0.66095000  0.86576000  1.0
  C  C37  1  0.63153000  0.46212000  0.16611000  1.0
  C  C38  1  0.36847000  0.53788000  0.83389000  1.0
  C  C39  1  0.33402000  0.99609000  0.31029000  1.0
  C  C40  1  0.66598000  0.00391000  0.68971000  1.0
  C  C41  1  0.13268000  0.97655000  0.31590000  1.0
  C  C42  1  0.86732000  0.02345000  0.68411000  1.0
  C  C43  1  0.03601000  0.88968000  0.41662000  1.0
  C  C44  1  0.96398000  0.11032000  0.58339000  1.0
  C  C45  1  0.14129000  0.82197000  0.51362000  1.0
  C  C46  1  0.85870000  0.17803000  0.48639000  1.0
  C  C47  1  0.34416000  0.84061000  0.50860000  1.0
  C  C48  1  0.65584000  0.15939000  0.49140000  1.0
  C  C49  1  0.43899000  0.92621000  0.40771000  1.0
  C  C50  1  0.56101000  0.07379000  0.59230000  1.0
  C  C51  1  0.85319000  0.71981000  0.62534000  1.0
  C  C52  1  0.14680000  0.28019000  0.37466000  1.0
  C  C53  1  0.41562000  0.75065000  0.21410000  1.0
  C  C54  1  0.58438000  0.24935000  0.78589000  1.0
  C  C55  1  0.30930000  0.65358000  0.30656000  1.0
  C  C56  1  0.69071000  0.34642000  0.69344000  1.0
  C  C57  1  0.10782000  0.64297000  0.29914000  1.0
  C  C58  1  0.89219000  0.35703000  0.70086000  1.0
  C  C59  1  0.02465000  0.72864000  0.19949000  1.0
  C  C60  1  0.97536000  0.27136000  0.80051000  1.0
  C  C61  1  0.14024000  0.82508000  0.11310000  1.0
  C  C62  1  0.85976000  0.17492000  0.88690000  1.0
  C  C63  1  0.41025000  0.57117000  0.40900000  1.0
  C  C64  1  0.58975000  0.42883000  0.59099000  1.0
  S  S65  1  0.29184000  0.16561000  0.04747000  1.0
  S  S66  1  0.70816000  0.83439000  0.95253000  1.0
  S  S67  1  0.70155000  0.01211000  0.14844000  1.0
  S  S68  1  0.29845000  0.98789000  0.85156000  1.0
  N  N69  1  0.33329000  0.83682000  0.12034000  1.0
  N  N70  1  0.66666667  0.16319000  0.87966000  1.0
  N  N71  1  0.60743000  0.57799000  0.40397000  1.0
  N  N72  1  0.39257000  0.42201000  0.59602000  1.0
  N  N73  1  0.30135000  0.49390000  0.50373000  1.0
  N  N74  1  0.69866000  0.50611000  0.49627000  1.0
  O  O75  1  0.51957000  0.23193000  0.21392000  1.0
  O  O76  1  0.48043000  0.76807000  0.78608000  1.0
  O  O77  1  0.06066000  0.73652000  0.61610000  1.0
  O  O78  1  0.93933000  0.26349000  0.38390000  1.0
