# generated using pymatgen
data_Cd3H38C48(N4O7)2
_symmetry_space_group_name_H-M   'P 1'
_cell_length_a   10.78210000
_cell_length_b   10.78330000
_cell_length_c   11.04010000
_cell_angle_alpha   95.95650000
_cell_angle_beta   97.40540000
_cell_angle_gamma   96.55630000
_symmetry_Int_Tables_number   1
_chemical_formula_structural   Cd3H38C48(N4O7)2
_chemical_formula_sum   'Cd3 H38 C48 N8 O14'
_cell_volume   1255.38448070
_cell_formula_units_Z   1
loop_
 _symmetry_equiv_pos_site_id
 _symmetry_equiv_pos_as_xyz
  1  'x, y, z'
loop_
 _atom_site_type_symbol
 _atom_site_label
 _atom_site_symmetry_multiplicity
 _atom_site_fract_x
 _atom_site_fract_y
 _atom_site_fract_z
 _atom_site_occupancy
  Cd  Cd0  1  0.50000000  0.50000000  0.50000000  1.0
  Cd  Cd1  1  0.29283000  0.28367000  0.29789000  1.0
  Cd  Cd2  1  0.70717000  0.71633000  0.70211000  1.0
  H  H3  1  0.66671000  0.66932000  0.24638000  1.0
  H  H4  1  0.33333333  0.33068000  0.75362000  1.0
  H  H5  1  0.63056000  0.75684000  0.04275000  1.0
  H  H6  1  0.36944000  0.24316000  0.95725000  1.0
  H  H7  1  0.50391000  0.08218000  0.22367000  1.0
  H  H8  1  0.49609000  0.91782000  0.77634000  1.0
  H  H9  1  0.55071000  0.00197000  0.42616000  1.0
  H  H10  1  0.44929000  0.99802000  0.57384000  1.0
  H  H11  1  0.32901000  0.77819000  0.39683000  1.0
  H  H12  1  0.67099000  0.22181000  0.60317000  1.0
  H  H13  1  0.21877000  0.96364000  0.45411000  1.0
  H  H14  1  0.78123000  0.03636000  0.54588000  1.0
  H  H15  1  0.87827000  0.71231000  0.46003000  1.0
  H  H16  1  0.12173000  0.28769000  0.53997000  1.0
  H  H17  1  0.98886000  0.52915000  0.39890000  1.0
  H  H18  1  0.01114000  0.47085000  0.60110000  1.0
  H  H19  1  0.78890000  0.36722000  0.31918000  1.0
  H  H20  1  0.21110000  0.63278000  0.68082000  1.0
  H  H21  1  0.97151000  0.42021000  0.20476000  1.0
  H  H22  1  0.02849000  0.57979000  0.79524000  1.0
  H  H23  1  0.70973000  0.46078000  0.88532000  1.0
  H  H24  1  0.29027000  0.53922000  0.11468000  1.0
  H  H25  1  0.52966000  0.40278000  0.99890000  1.0
  H  H26  1  0.47034000  0.59722000  0.00110000  1.0
  H  H27  1  0.21679000  0.98207000  0.16355000  1.0
  H  H28  1  0.78321000  0.01793000  0.83645000  1.0
  H  H29  1  0.92092000  0.09886000  0.18810000  1.0
  H  H30  1  0.07908000  0.90114000  0.81190000  1.0
  H  H31  1  0.86106000  0.95308000  0.23760000  1.0
  H  H32  1  0.13894000  0.04692000  0.76240000  1.0
  H  H33  1  0.83895000  0.97203000  0.07825000  1.0
  H  H34  1  0.16105000  0.02797000  0.92175000  1.0
  H  H35  1  0.11916000  0.79301000  0.12263000  1.0
  H  H36  1  0.88084000  0.20699000  0.87737000  1.0
  H  H37  1  0.96892000  0.78438000  0.02989000  1.0
  H  H38  1  0.03108000  0.21562000  0.97011000  1.0
  H  H39  1  0.97843000  0.76389000  0.18972000  1.0
  H  H40  1  0.02157000  0.23611000  0.81028000  1.0
  C  C41  1  0.63593000  0.78078000  0.46857000  1.0
  C  C42  1  0.36407000  0.21922000  0.53143000  1.0
  C  C43  1  0.60933000  0.82953000  0.34806000  1.0
  C  C44  1  0.39067000  0.17047000  0.65194000  1.0
  C  C45  1  0.63182000  0.75976000  0.24019000  1.0
  C  C46  1  0.36818000  0.24024000  0.75980000  1.0
  C  C47  1  0.61174000  0.80730000  0.12797000  1.0
  C  C48  1  0.38825000  0.19270000  0.87203000  1.0
  C  C49  1  0.56184000  0.92165000  0.12229000  1.0
  C  C50  1  0.43816000  0.07835000  0.87770000  1.0
  C  C51  1  0.53910000  0.99199000  0.22986000  1.0
  C  C52  1  0.46090000  0.00801000  0.77014000  1.0
  C  C53  1  0.56516000  0.94675000  0.34217000  1.0
  C  C54  1  0.43484000  0.05325000  0.65783000  1.0
  C  C55  1  0.23002000  0.53314000  0.35772000  1.0
  C  C56  1  0.76998000  0.46686000  0.64228000  1.0
  C  C57  1  0.16489000  0.64308000  0.39374000  1.0
  C  C58  1  0.83511000  0.35692000  0.60626000  1.0
  C  C59  1  0.23023000  0.76565000  0.41053000  1.0
  C  C60  1  0.76976000  0.23435000  0.58947000  1.0
  C  C61  1  0.16955000  0.86820000  0.44298000  1.0
  C  C62  1  0.83045000  0.13180000  0.55702000  1.0
  C  C63  1  0.04178000  0.84845000  0.46045000  1.0
  C  C64  1  0.95823000  0.15155000  0.53955000  1.0
  C  C65  1  0.97665000  0.72615000  0.44525000  1.0
  C  C66  1  0.02335000  0.27385000  0.55476000  1.0
  C  C67  1  0.03809000  0.62429000  0.41154000  1.0
  C  C68  1  0.96191000  0.37571000  0.58846000  1.0
  C  C69  1  0.54105000  0.35457000  0.23515000  1.0
  C  C70  1  0.45895000  0.64543000  0.76485000  1.0
  C  C71  1  0.64887000  0.38412000  0.16619000  1.0
  C  C72  1  0.35113000  0.61588000  0.83381000  1.0
  C  C73  1  0.77353000  0.38857000  0.22436000  1.0
  C  C74  1  0.22647000  0.61143000  0.77564000  1.0
  C  C75  1  0.87437000  0.41877000  0.16171000  1.0
  C  C76  1  0.12562000  0.58123000  0.83829000  1.0
  C  C77  1  0.85069000  0.44774000  0.03988000  1.0
  C  C78  1  0.14931000  0.55226000  0.96012000  1.0
  C  C79  1  0.72641000  0.44015000  0.98023000  1.0
  C  C80  1  0.27359000  0.55985000  0.01977000  1.0
  C  C81  1  0.62633000  0.40839000  0.04353000  1.0
  C  C82  1  0.37367000  0.59161000  0.95647000  1.0
  C  C83  1  0.13107000  0.02841000  0.16850000  1.0
  C  C84  1  0.86893000  0.97159000  0.83150000  1.0
  C  C85  1  0.90403000  0.99664000  0.16471000  1.0
  C  C86  1  0.09597000  0.00336000  0.83529000  1.0
  C  C87  1  0.02235000  0.81503000  0.12192000  1.0
  C  C88  1  0.97765000  0.18497000  0.87808000  1.0
  N  N89  1  0.54194000  0.96361000  0.00537000  1.0
  N  N90  1  0.45806000  0.03639000  0.99463000  1.0
  N  N91  1  0.96967000  0.94508000  0.49166000  1.0
  N  N92  1  0.03034000  0.05492000  0.50835000  1.0
  N  N93  1  0.94602000  0.48237000  0.96895000  1.0
  N  N94  1  0.05398000  0.51764000  0.03105000  1.0
  N  N95  1  0.02393000  0.94994000  0.15259000  1.0
  N  N96  1  0.97607000  0.05006000  0.84741000  1.0
  O  O97  1  0.65020000  0.66401000  0.46932000  1.0
  O  O98  1  0.34980000  0.33599000  0.53067000  1.0
  O  O99  1  0.64803000  0.85626000  0.56748000  1.0
  O  O100  1  0.35197000  0.14374000  0.43252000  1.0
  O  O101  1  0.34913000  0.55035000  0.35606000  1.0
  O  O102  1  0.65087000  0.44965000  0.64394000  1.0
  O  O103  1  0.16231000  0.42631000  0.32839000  1.0
  O  O104  1  0.83769000  0.57369000  0.67161000  1.0
  O  O105  1  0.56241000  0.36335000  0.35201000  1.0
  O  O106  1  0.43759000  0.63665000  0.64799000  1.0
  O  O107  1  0.43206000  0.32018000  0.17126000  1.0
  O  O108  1  0.56794000  0.67983000  0.82874000  1.0
  O  O109  1  0.13559000  0.14621000  0.18638000  1.0
  O  O110  1  0.86441000  0.85379000  0.81362000  1.0
