# generated using pymatgen
data_CuH9C9N4O3
_symmetry_space_group_name_H-M   'P 1'
_cell_length_a   7.96033000
_cell_length_b   7.97803000
_cell_length_c   8.62645000
_cell_angle_alpha   105.89200000
_cell_angle_beta   102.34800000
_cell_angle_gamma   96.79010000
_symmetry_Int_Tables_number   1
_chemical_formula_structural   CuH9C9N4O3
_chemical_formula_sum   'Cu2 H18 C18 N8 O6'
_cell_volume   505.52394499
_cell_formula_units_Z   2
loop_
 _symmetry_equiv_pos_site_id
 _symmetry_equiv_pos_as_xyz
  1  'x, y, z'
loop_
 _atom_site_type_symbol
 _atom_site_label
 _atom_site_symmetry_multiplicity
 _atom_site_fract_x
 _atom_site_fract_y
 _atom_site_fract_z
 _atom_site_occupancy
  Cu  Cu0  1  0.79584000  0.98189000  0.86243000  1.0
  Cu  Cu1  1  0.20416000  0.01811000  0.13757000  1.0
  H  H2  1  0.40790000  0.79958000  0.59413000  1.0
  H  H3  1  0.59210000  0.20043000  0.40587000  1.0
  H  H4  1  0.13860000  0.56934000  0.46078000  1.0
  H  H5  1  0.86140000  0.43067000  0.53922000  1.0
  H  H6  1  0.10993000  0.28170000  0.52144000  1.0
  H  H7  1  0.89007000  0.71830000  0.47856000  1.0
  H  H8  1  0.35088000  0.21590000  0.71883000  1.0
  H  H9  1  0.64912000  0.78410000  0.28117000  1.0
  H  H10  1  0.61595000  0.26803000  0.95930000  1.0
  H  H11  1  0.38404000  0.73197000  0.04069000  1.0
  H  H12  1  0.82735000  0.40352000  0.05698000  1.0
  H  H13  1  0.17264000  0.59648000  0.94302000  1.0
  H  H14  1  0.94458000  0.26117000  0.82204000  1.0
  H  H15  1  0.05541000  0.73883000  0.17797000  1.0
  H  H16  1  0.56253000  0.05732000  0.65330000  1.0
  H  H17  1  0.43747000  0.94268000  0.34670000  1.0
  H  H18  1  0.75975000  0.02293000  0.57309000  1.0
  H  H19  1  0.24025000  0.97707000  0.42690000  1.0
  C  C20  1  0.53236000  0.63648000  0.73187000  1.0
  C  C21  1  0.46764000  0.36352000  0.26813000  1.0
  C  C22  1  0.39613000  0.67448000  0.62153000  1.0
  C  C23  1  0.60387000  0.32552000  0.37848000  1.0
  C  C24  1  0.24597000  0.54514000  0.54896000  1.0
  C  C25  1  0.75403000  0.45486000  0.45104000  1.0
  C  C26  1  0.22902000  0.38139000  0.58403000  1.0
  C  C27  1  0.77099000  0.61861000  0.41597000  1.0
  C  C28  1  0.36283000  0.34185000  0.69248000  1.0
  C  C29  1  0.63717000  0.65816000  0.30752000  1.0
  C  C30  1  0.51486000  0.47243000  0.76475000  1.0
  C  C31  1  0.48514000  0.52757000  0.23525000  1.0
  C  C32  1  0.73064000  0.33936000  0.93700000  1.0
  C  C33  1  0.26935000  0.66064000  0.06299000  1.0
  C  C34  1  0.80755000  0.21565000  0.81585000  1.0
  C  C35  1  0.19244000  0.78434000  0.18416000  1.0
  C  C36  1  0.70483000  0.07996000  0.67683000  1.0
  C  C37  1  0.29517000  0.92003000  0.32318000  1.0
  N  N38  1  0.69693000  0.73153000  0.82234000  1.0
  N  N39  1  0.30307000  0.26847000  0.17767000  1.0
  N  N40  1  0.77958000  0.63629000  0.90545000  1.0
  N  N41  1  0.22042000  0.36371000  0.09455000  1.0
  N  N42  1  0.67164000  0.48076000  0.87277000  1.0
  N  N43  1  0.32836000  0.51924000  0.12723000  1.0
  N  N44  1  0.81426000  0.02669000  0.20603000  1.0
  N  N45  1  0.18574000  0.97331000  0.79397000  1.0
  O  O46  1  0.65210000  0.98114000  0.14411000  1.0
  O  O47  1  0.34790000  0.01888000  0.85589000  1.0
  O  O48  1  0.91300000  0.06254000  0.11130000  1.0
  O  O49  1  0.08700000  0.93746000  0.88870000  1.0
  O  O50  1  0.88689000  0.04010000  0.35345000  1.0
  O  O51  1  0.11311000  0.95989000  0.64655000  1.0
