# generated using pymatgen
data_Zr3H36C54SO19
_symmetry_space_group_name_H-M   'P 1'
_cell_length_a   19.01050000
_cell_length_b   19.00910806
_cell_length_c   19.00998524
_cell_angle_alpha   119.90352449
_cell_angle_beta   90.09877247
_cell_angle_gamma   119.98226393
_symmetry_Int_Tables_number   1
_chemical_formula_structural   Zr3H36C54SO19
_chemical_formula_sum   'Zr6 H72 C108 S2 O38'
_cell_volume   4861.79325464
_cell_formula_units_Z   2
loop_
 _symmetry_equiv_pos_site_id
 _symmetry_equiv_pos_as_xyz
  1  'x, y, z'
loop_
 _atom_site_type_symbol
 _atom_site_label
 _atom_site_symmetry_multiplicity
 _atom_site_fract_x
 _atom_site_fract_y
 _atom_site_fract_z
 _atom_site_occupancy
  Zr  Zr0  1  0.59374000  0.50082000  0.40747000  1.0
  Zr  Zr1  1  0.40669000  0.49803000  0.59176000  1.0
  Zr  Zr2  1  0.40728000  0.31363000  0.40646000  1.0
  Zr  Zr3  1  0.59280000  0.68516000  0.59248000  1.0
  Zr  Zr4  1  0.59323000  0.49938000  0.59259000  1.0
  Zr  Zr5  1  0.40706000  0.49939000  0.40645000  1.0
  H  H6  1  0.57451000  0.35437000  0.42757000  1.0
  H  H7  1  0.57312000  0.64448000  0.71895000  1.0
  H  H8  1  0.28049000  0.35237000  0.42551000  1.0
  H  H9  1  0.57317000  0.64649000  0.42699000  1.0
  H  H10  1  0.16945000  0.48083000  0.60252000  1.0
  H  H11  1  0.19220000  0.52658000  0.40191000  1.0
  H  H12  1  0.81319000  0.48218000  0.37901000  1.0
  H  H13  1  0.83588000  0.52730000  0.62507000  1.0
  H  H14  1  0.96603000  0.39094000  0.57857000  1.0
  H  H15  1  0.06031000  0.48701000  0.67022000  1.0
  H  H16  1  0.07678000  0.61178000  0.42094000  1.0
  H  H17  1  0.07388000  0.51388000  0.33051000  1.0
  H  H18  1  0.92581000  0.39100000  0.31269000  1.0
  H  H19  1  0.92779000  0.48703000  0.31689000  1.0
  H  H20  1  0.03648000  0.61185000  0.69078000  1.0
  H  H21  1  0.94136000  0.51426000  0.68365000  1.0
  H  H22  1  0.39707000  0.51710000  0.82980000  1.0
  H  H23  1  0.59801000  0.47197000  0.80765000  1.0
  H  H24  1  0.62203000  0.51897000  0.18782000  1.0
  H  H25  1  0.37562000  0.47311000  0.16476000  1.0
  H  H26  1  0.42233000  0.60900000  0.03386000  1.0
  H  H27  1  0.33037000  0.51297000  0.93993000  1.0
  H  H28  1  0.57961000  0.38820000  0.92415000  1.0
  H  H29  1  0.66993000  0.48582000  0.92653000  1.0
  H  H30  1  0.68796000  0.60919000  0.07434000  1.0
  H  H31  1  0.68385000  0.51342000  0.07287000  1.0
  H  H32  1  0.30958000  0.38836000  0.96441000  1.0
  H  H33  1  0.31722000  0.48645000  0.05936000  1.0
  H  H34  1  0.16959000  0.28967000  0.18756000  1.0
  H  H35  1  0.19365000  0.06563000  0.16203000  1.0
  H  H36  1  0.81226000  0.70988000  0.83096000  1.0
  H  H37  1  0.83516000  0.93340000  0.80806000  1.0
  H  H38  1  0.96554000  0.15255000  0.07522000  1.0
  H  H39  1  0.05945000  0.24256000  0.07334000  1.0
  H  H40  1  0.07637000  0.88507000  0.96204000  1.0
  H  H41  1  0.07554000  0.88920000  0.05669000  1.0
  H  H42  1  0.92705000  0.84714000  0.03430000  1.0
  H  H43  1  0.92792000  0.75714000  0.93953000  1.0
  H  H44  1  0.03518000  0.11498000  0.92428000  1.0
  H  H45  1  0.94019000  0.11076000  0.92769000  1.0
  H  H46  1  0.62068000  0.28891000  0.60166000  1.0
  H  H47  1  0.37434000  0.06536000  0.40093000  1.0
  H  H48  1  0.39776000  0.70918000  0.37906000  1.0
  H  H49  1  0.59617000  0.93311000  0.62720000  1.0
  H  H50  1  0.68676000  0.15191000  0.57965000  1.0
  H  H51  1  0.68170000  0.24164000  0.67046000  1.0
  H  H52  1  0.30896000  0.88393000  0.41990000  1.0
  H  H53  1  0.31629000  0.88804000  0.32906000  1.0
  H  H54  1  0.42197000  0.84613000  0.31227000  1.0
  H  H55  1  0.33022000  0.75623000  0.31641000  1.0
  H  H56  1  0.57623000  0.11343000  0.69067000  1.0
  H  H57  1  0.66688000  0.10950000  0.68585000  1.0
  H  H58  1  0.38450000  0.70781000  0.81983000  1.0
  H  H59  1  0.31981000  0.75548000  0.93317000  1.0
  H  H60  1  0.60295000  0.92964000  0.81143000  1.0
  H  H61  1  0.61222000  0.29126000  0.17588000  1.0
  H  H62  1  0.67803000  0.24359000  0.06371000  1.0
  H  H63  1  0.38200000  0.06947000  0.17250000  1.0
  H  H64  1  0.16830000  0.06455000  0.37720000  1.0
  H  H65  1  0.19255000  0.28867000  0.62352000  1.0
  H  H66  1  0.81284000  0.93415000  0.60277000  1.0
  H  H67  1  0.83500000  0.71004000  0.40278000  1.0
  H  H68  1  0.96430000  0.88582000  0.31185000  1.0
  H  H69  1  0.05835000  0.88797000  0.31580000  1.0
  H  H70  1  0.07663000  0.15478000  0.68981000  1.0
  H  H71  1  0.07420000  0.24261000  0.68221000  1.0
  H  H72  1  0.92588000  0.11272000  0.57725000  1.0
  H  H73  1  0.92789000  0.11076000  0.66925000  1.0
  H  H74  1  0.03521000  0.84412000  0.42063000  1.0
  H  H75  1  0.93971000  0.75614000  0.33045000  1.0
  H  H76  1  0.35508000  0.96652000  0.20941000  1.0
  H  H77  1  0.74198000  0.03148000  0.88711000  1.0
  C  C78  1  0.73927000  0.50500000  0.50208000  1.0
  C  C79  1  0.49717000  0.49389000  0.73305000  1.0
  C  C80  1  0.26626000  0.50389000  0.50223000  1.0
  C  C81  1  0.49845000  0.49532000  0.26130000  1.0
  C  C82  1  0.49835000  0.26430000  0.26070000  1.0
  C  C83  1  0.73902000  0.73696000  0.50334000  1.0
  C  C84  1  0.49644000  0.73469000  0.73296000  1.0
  C  C85  1  0.26625000  0.26178000  0.50075000  1.0
  C  C86  1  0.49782000  0.26257000  0.50103000  1.0
  C  C87  1  0.26712000  0.26325000  0.26017000  1.0
  C  C88  1  0.49689000  0.73554000  0.50281000  1.0
  C  C89  1  0.73828000  0.73615000  0.73409000  1.0
  C  C90  1  0.01975000  0.47065000  0.61551000  1.0
  C  C91  1  0.05052000  0.53216000  0.38562000  1.0
  C  C92  1  0.95198000  0.47073000  0.35531000  1.0
  C  C93  1  0.98290000  0.53229000  0.64663000  1.0
  C  C94  1  0.14457000  0.49068000  0.55886000  1.0
  C  C95  1  0.07047000  0.48884000  0.55835000  1.0
  C  C96  1  0.15735000  0.51643000  0.44531000  1.0
  C  C97  1  0.08398000  0.51609000  0.44434000  1.0
  C  C98  1  0.84763000  0.49149000  0.43231000  1.0
  C  C99  1  0.91964000  0.48920000  0.43076000  1.0
  C  C100  1  0.86049000  0.51702000  0.57148000  1.0
  C  C101  1  0.93337000  0.51637000  0.57196000  1.0
  C  C102  1  0.18815000  0.50419000  0.50248000  1.0
  C  C103  1  0.04018000  0.50219000  0.50115000  1.0
  C  C104  1  0.81757000  0.50505000  0.50219000  1.0
  C  C105  1  0.96321000  0.50235000  0.50122000  1.0
  C  C106  1  0.38510000  0.52923000  0.98040000  1.0
  C  C107  1  0.61486000  0.46771000  0.95002000  1.0
  C  C108  1  0.64536000  0.52953000  0.04851000  1.0
  C  C109  1  0.35397000  0.46799000  0.01770000  1.0
  C  C110  1  0.44109000  0.50791000  0.85507000  1.0
  C  C111  1  0.44194000  0.51052000  0.92953000  1.0
  C  C112  1  0.55474000  0.48238000  0.84255000  1.0
  C  C113  1  0.55598000  0.48337000  0.91624000  1.0
  C  C114  1  0.56856000  0.50924000  0.15317000  1.0
  C  C115  1  0.56997000  0.51124000  0.08099000  1.0
  C  C116  1  0.42922000  0.48341000  0.14015000  1.0
  C  C117  1  0.42869000  0.48395000  0.06722000  1.0
  C  C118  1  0.49738000  0.49421000  0.81146000  1.0
  C  C119  1  0.49931000  0.49754000  0.96010000  1.0
  C  C120  1  0.49861000  0.49555000  0.18315000  1.0
  C  C121  1  0.49942000  0.49787000  0.03732000  1.0
  C  C122  1  0.01908000  0.16369000  0.04899000  1.0
  C  C123  1  0.05101000  0.90302000  0.01607000  1.0
  C  C124  1  0.95239000  0.83602000  0.98018000  1.0
  C  C125  1  0.98181000  0.09679000  0.95054000  1.0
  C  C126  1  0.14477000  0.21140000  0.15261000  1.0
  C  C127  1  0.07027000  0.13893000  0.08083000  1.0
  C  C128  1  0.15843000  0.08489000  0.13851000  1.0
  C  C129  1  0.08452000  0.01115000  0.06596000  1.0
  C  C130  1  0.84674000  0.78818000  0.85598000  1.0
  C  C131  1  0.91916000  0.86075000  0.92995000  1.0
  C  C132  1  0.85936000  0.91467000  0.84341000  1.0
  C  C133  1  0.93236000  0.98856000  0.91682000  1.0
  C  C134  1  0.18888000  0.18493000  0.18193000  1.0
  C  C135  1  0.04010000  0.03825000  0.03696000  1.0
  C  C136  1  0.81644000  0.81449000  0.81245000  1.0
  C  C137  1  0.96261000  0.96149000  0.96035000  1.0
  C  C138  1  0.64360000  0.16280000  0.61598000  1.0
  C  C139  1  0.35326000  0.90206000  0.38458000  1.0
  C  C140  1  0.38477000  0.83510000  0.35482000  1.0
  C  C141  1  0.61244000  0.09566000  0.64745000  1.0
  C  C142  1  0.56739000  0.21060000  0.55788000  1.0
  C  C143  1  0.56873000  0.13808000  0.55789000  1.0
  C  C144  1  0.42837000  0.08410000  0.44393000  1.0
  C  C145  1  0.42781000  0.01025000  0.44322000  1.0
  C  C146  1  0.44100000  0.78743000  0.43256000  1.0
  C  C147  1  0.44151000  0.85989000  0.43068000  1.0
  C  C148  1  0.55335000  0.91387000  0.57276000  1.0
  C  C149  1  0.55438000  0.98761000  0.57273000  1.0
  C  C150  1  0.49767000  0.18427000  0.50109000  1.0
  C  C151  1  0.49840000  0.03733000  0.50059000  1.0
  C  C152  1  0.49686000  0.81388000  0.50307000  1.0
  C  C153  1  0.49826000  0.96054000  0.50125000  1.0
  C  C154  1  0.43305000  0.78638000  0.84855000  1.0
  C  C155  1  0.43271000  0.85979000  0.92199000  1.0
  C  C156  1  0.36853000  0.83375000  0.96090000  1.0
  C  C157  1  0.55841000  0.91328000  0.84587000  1.0
  C  C158  1  0.56185000  0.98936000  0.92034000  1.0
  C  C159  1  0.62702000  0.09402000  0.96142000  1.0
  C  C160  1  0.56237000  0.21267000  0.14582000  1.0
  C  C161  1  0.56238000  0.13925000  0.07207000  1.0
  C  C162  1  0.62742000  0.16532000  0.03404000  1.0
  C  C163  1  0.43271000  0.08577000  0.14422000  1.0
  C  C164  1  0.43101000  0.00969000  0.07149000  1.0
  C  C165  1  0.36726000  0.90504000  0.03185000  1.0
  C  C166  1  0.49559000  0.81325000  0.81099000  1.0
  C  C167  1  0.49752000  0.96253000  0.95925000  1.0
  C  C168  1  0.49790000  0.18577000  0.18140000  1.0
  C  C169  1  0.49680000  0.03652000  0.03403000  1.0
  C  C170  1  0.01819000  0.90248000  0.35441000  1.0
  C  C171  1  0.05048000  0.16401000  0.64548000  1.0
  C  C172  1  0.95193000  0.09623000  0.61454000  1.0
  C  C173  1  0.98154000  0.83477000  0.38529000  1.0
  C  C174  1  0.14364000  0.08368000  0.43071000  1.0
  C  C175  1  0.06936000  0.01043000  0.42952000  1.0
  C  C176  1  0.15724000  0.21041000  0.56999000  1.0
  C  C177  1  0.08365000  0.13838000  0.57069000  1.0
  C  C178  1  0.84722000  0.91505000  0.55898000  1.0
  C  C179  1  0.91918000  0.98829000  0.55786000  1.0
  C  C180  1  0.85973000  0.78831000  0.44578000  1.0
  C  C181  1  0.93241000  0.86035000  0.44417000  1.0
  C  C182  1  0.18776000  0.18367000  0.50058000  1.0
  C  C183  1  0.03938000  0.03771000  0.50010000  1.0
  C  C184  1  0.81710000  0.81506000  0.50308000  1.0
  C  C185  1  0.96243000  0.96101000  0.50052000  1.0
  S  S186  1  0.28328000  0.86236000  0.07346000  1.0
  S  S187  1  0.71139000  0.13675000  0.92025000  1.0
  O  O188  1  0.70738000  0.50305000  0.44122000  1.0
  O  O189  1  0.43816000  0.49566000  0.70303000  1.0
  O  O190  1  0.29639000  0.50202000  0.56113000  1.0
  O  O191  1  0.55907000  0.49688000  0.29314000  1.0
  O  O192  1  0.43930000  0.23396000  0.29145000  1.0
  O  O193  1  0.70711000  0.76558000  0.56210000  1.0
  O  O194  1  0.55750000  0.76498000  0.70422000  1.0
  O  O195  1  0.29640000  0.23313000  0.44023000  1.0
  O  O196  1  0.55812000  0.35319000  0.56023000  1.0
  O  O197  1  0.29672000  0.35387000  0.29225000  1.0
  O  O198  1  0.43836000  0.64494000  0.44178000  1.0
  O  O199  1  0.70701000  0.64555000  0.70368000  1.0
  O  O200  1  0.29866000  0.23463000  0.29096000  1.0
  O  O201  1  0.55641000  0.76413000  0.56283000  1.0
  O  O202  1  0.70697000  0.76507000  0.70343000  1.0
  O  O203  1  0.43831000  0.23367000  0.44074000  1.0
  O  O204  1  0.55849000  0.35424000  0.29131000  1.0
  O  O205  1  0.29745000  0.35240000  0.56075000  1.0
  O  O206  1  0.43718000  0.64474000  0.70322000  1.0
  O  O207  1  0.70836000  0.64635000  0.44382000  1.0
  O  O208  1  0.43857000  0.49507000  0.29197000  1.0
  O  O209  1  0.70839000  0.50513000  0.56187000  1.0
  O  O210  1  0.55677000  0.49363000  0.70199000  1.0
  O  O211  1  0.29703000  0.50393000  0.44247000  1.0
  O  O212  1  0.55257000  0.60470000  0.44767000  1.0
  O  O213  1  0.34296000  0.39411000  0.44668000  1.0
  O  O214  1  0.55194000  0.60373000  0.65656000  1.0
  O  O215  1  0.55278000  0.39503000  0.44698000  1.0
  O  O216  1  0.46155000  0.42178000  0.53779000  1.0
  O  O217  1  0.61599000  0.57702000  0.53857000  1.0
  O  O218  1  0.46129000  0.57616000  0.53819000  1.0
  O  O219  1  0.46202000  0.42263000  0.38392000  1.0
  O  O220  1  0.33548000  0.89806000  0.16538000  1.0
  O  O221  1  0.23272000  0.75595000  0.02277000  1.0
  O  O222  1  0.24382000  0.91455000  0.09004000  1.0
  O  O223  1  0.76707000  0.10015000  0.93596000  1.0
  O  O224  1  0.76756000  0.24313000  0.97656000  1.0
  O  O225  1  0.67572000  0.08525000  0.82875000  1.0
