# generated using pymatgen
data_AlH9C11NO5
_symmetry_space_group_name_H-M   'P 1'
_cell_length_a   6.66705000
_cell_length_b   8.78387000
_cell_length_c   17.73294366
_cell_angle_alpha   97.33884793
_cell_angle_beta   100.43196458
_cell_angle_gamma   104.98370000
_symmetry_Int_Tables_number   1
_chemical_formula_structural   AlH9C11NO5
_chemical_formula_sum   'Al2 H18 C22 N2 O10'
_cell_volume   969.79912371
_cell_formula_units_Z   2
loop_
 _symmetry_equiv_pos_site_id
 _symmetry_equiv_pos_as_xyz
  1  'x, y, z'
loop_
 _atom_site_type_symbol
 _atom_site_label
 _atom_site_symmetry_multiplicity
 _atom_site_fract_x
 _atom_site_fract_y
 _atom_site_fract_z
 _atom_site_occupancy
  Al  Al0  1  0.01019000  0.51136000  0.49903000  1.0
  Al  Al1  1  0.51271000  0.51521000  0.50082000  1.0
  H  H2  1  0.17237000  0.32752000  0.43754000  1.0
  H  H3  1  0.84859000  0.61753000  0.59634000  1.0
  H  H4  1  0.01321000  0.40248000  0.71675000  1.0
  H  H5  1  0.06396000  0.37658000  0.85738000  1.0
  H  H6  1  0.69210000  0.53480000  0.73954000  1.0
  H  H7  1  0.35635000  0.57923000  0.27468000  1.0
  H  H8  1  0.91952000  0.43366000  0.26262000  1.0
  H  H9  1  0.82837000  0.40146000  0.11705000  1.0
  H  H10  1  0.80313000  0.54300000  0.94970000  1.0
  H  H11  1  0.91380000  0.58601000  0.87191000  1.0
  H  H12  1  0.22161000  0.57825000  0.06503000  1.0
  H  H13  1  0.15806000  0.62603000  0.15276000  1.0
  H  H14  1  0.81387000  0.02851000  0.41136000  1.0
  H  H15  1  0.62820000  0.84059000  0.41124000  1.0
  H  H16  1  0.84175000  0.92832000  0.49162000  1.0
  H  H17  1  0.17062000  0.09115000  0.50585000  1.0
  H  H18  1  0.38411000  0.17996000  0.58676000  1.0
  H  H19  1  0.19859000  0.99098000  0.58551000  1.0
  C  C20  1  0.65783000  0.22200000  0.48590000  1.0
  C  C21  1  0.68941000  0.51886000  0.36250000  1.0
  C  C22  1  0.35903000  0.80003000  0.51165000  1.0
  C  C23  1  0.32477000  0.49530000  0.63801000  1.0
  C  C24  1  0.35119000  0.47364000  0.72096000  1.0
  C  C25  1  0.17214000  0.42813000  0.75348000  1.0
  C  C26  1  0.20102000  0.41435000  0.83153000  1.0
  C  C27  1  0.40703000  0.45017000  0.87939000  1.0
  C  C28  1  0.58830000  0.49289000  0.84577000  1.0
  C  C29  1  0.55586000  0.50174000  0.76632000  1.0
  C  C30  1  0.44140000  0.45081000  0.96041000  1.0
  C  C31  1  0.49324000  0.46140000  0.03131000  1.0
  C  C32  1  0.54353000  0.47630000  0.11327000  1.0
  C  C33  1  0.40768000  0.52854000  0.15787000  1.0
  C  C34  1  0.45928000  0.54222000  0.23922000  1.0
  C  C35  1  0.64226000  0.50867000  0.27622000  1.0
  C  C36  1  0.77832000  0.45992000  0.23250000  1.0
  C  C37  1  0.72710000  0.44248000  0.15193000  1.0
  C  C38  1  0.59138000  0.04496000  0.48352000  1.0
  C  C39  1  0.42327000  0.97717000  0.51390000  1.0
  C  C40  1  0.72547000  0.95585000  0.44716000  1.0
  C  C41  1  0.28797000  0.06484000  0.55039000  1.0
  N  N42  1  0.78996000  0.52173000  0.89111000  1.0
  N  N43  1  0.22589000  0.55887000  0.12044000  1.0
  O  O44  1  0.85689000  0.28828000  0.49370000  1.0
  O  O45  1  0.54801000  0.54336000  0.39822000  1.0
  O  O46  1  0.50456000  0.73030000  0.52109000  1.0
  O  O47  1  0.14956000  0.51719000  0.60601000  1.0
  O  O48  1  0.16050000  0.73081000  0.50195000  1.0
  O  O49  1  0.48056000  0.49232000  0.60581000  1.0
  O  O50  1  0.51454000  0.29472000  0.47864000  1.0
  O  O51  1  0.86593000  0.49912000  0.39419000  1.0
  O  O52  1  0.21919000  0.43977000  0.46187000  1.0
  O  O53  1  0.80549000  0.58161000  0.54035000  1.0
