# generated using pymatgen
data_MnH11C16(NO)5
_symmetry_space_group_name_H-M   'P 1'
_cell_length_a   9.16421000
_cell_length_b   9.44111000
_cell_length_c   10.29950000
_cell_angle_alpha   85.07540000
_cell_angle_beta   80.85090000
_cell_angle_gamma   76.69420000
_symmetry_Int_Tables_number   1
_chemical_formula_structural   MnH11C16(NO)5
_chemical_formula_sum   'Mn2 H22 C32 N10 O10'
_cell_volume   855.03636427
_cell_formula_units_Z   2
loop_
 _symmetry_equiv_pos_site_id
 _symmetry_equiv_pos_as_xyz
  1  'x, y, z'
loop_
 _atom_site_type_symbol
 _atom_site_label
 _atom_site_symmetry_multiplicity
 _atom_site_fract_x
 _atom_site_fract_y
 _atom_site_fract_z
 _atom_site_occupancy
  Mn  Mn0  1  0.56747000  0.79471000  0.61247000  1.0
  Mn  Mn1  1  0.43251000  0.20528000  0.38755000  1.0
  H  H2  1  0.08506000  0.66395000  0.50513000  1.0
  H  H3  1  0.91491000  0.33606000  0.49481000  1.0
  H  H4  1  0.81429000  0.71505000  0.42984000  1.0
  H  H5  1  0.18571000  0.28494000  0.57019000  1.0
  H  H6  1  0.72811000  0.59077000  0.42655000  1.0
  H  H7  1  0.27188000  0.40923000  0.57346000  1.0
  H  H8  1  0.28695000  0.04615000  0.73766000  1.0
  H  H9  1  0.71304000  0.95383000  0.26234000  1.0
  H  H10  1  0.14491000  0.10893000  0.95934000  1.0
  H  H11  1  0.85509000  0.89106000  0.04066000  1.0
  H  H12  1  0.23119000  0.96347000  0.15867000  1.0
  H  H13  1  0.76883000  0.03655000  0.84133000  1.0
  H  H14  1  0.41828000  0.74941000  0.25121000  1.0
  H  H15  1  0.58174000  0.25061000  0.74880000  1.0
  H  H16  1  0.63851000  0.54417000  0.21298000  1.0
  H  H17  1  0.36151000  0.45586000  0.78705000  1.0
  H  H18  1  0.84978000  0.40212000  0.05462000  1.0
  H  H19  1  0.15023000  0.59790000  0.94541000  1.0
  H  H20  1  0.97591000  0.36684000  0.81965000  1.0
  H  H21  1  0.02409000  0.63314000  0.18037000  1.0
  H  H22  1  0.86735000  0.53406000  0.64154000  1.0
  H  H23  1  0.13265000  0.46590000  0.35847000  1.0
  C  C24  1  0.27503000  0.81196000  0.50297000  1.0
  C  C25  1  0.72495000  0.18805000  0.49702000  1.0
  C  C26  1  0.16797000  0.88428000  0.42218000  1.0
  C  C27  1  0.83202000  0.11573000  0.57780000  1.0
  C  C28  1  0.30361000  0.66735000  0.57327000  1.0
  C  C29  1  0.69637000  0.33265000  0.42671000  1.0
  C  C30  1  0.04062000  0.83839000  0.37938000  1.0
  C  C31  1  0.95938000  0.16163000  0.62055000  1.0
  C  C32  1  0.32324000  0.98373000  0.82524000  1.0
  C  C33  1  0.67676000  0.01627000  0.17476000  1.0
  C  C34  1  0.24357000  0.01864000  0.95076000  1.0
  C  C35  1  0.75644000  0.98136000  0.04925000  1.0
  C  C36  1  0.29086000  0.93713000  0.06042000  1.0
  C  C37  1  0.70915000  0.06288000  0.93959000  1.0
  C  C38  1  0.41844000  0.81926000  0.04419000  1.0
  C  C39  1  0.58158000  0.18076000  0.95582000  1.0
  C  C40  1  0.47543000  0.72771000  0.15144000  1.0
  C  C41  1  0.52459000  0.27232000  0.84857000  1.0
  C  C42  1  0.59892000  0.61489000  0.13044000  1.0
  C  C43  1  0.40110000  0.38513000  0.86957000  1.0
  C  C44  1  0.67655000  0.58606000  0.00023000  1.0
  C  C45  1  0.32346000  0.41395000  0.99979000  1.0
  C  C46  1  0.80632000  0.47256000  0.97325000  1.0
  C  C47  1  0.19368000  0.52744000  0.02677000  1.0
  C  C48  1  0.87610000  0.45322000  0.84474000  1.0
  C  C49  1  0.12388000  0.54676000  0.15527000  1.0
  C  C50  1  0.81497000  0.54671000  0.74359000  1.0
  C  C51  1  0.18503000  0.45326000  0.25642000  1.0
  C  C52  1  0.62300000  0.67438000  0.89139000  1.0
  C  C53  1  0.37701000  0.32562000  0.10863000  1.0
  C  C54  1  0.49157000  0.79174000  0.91380000  1.0
  C  C55  1  0.50845000  0.20827000  0.08622000  1.0
  N  N56  1  0.37140000  0.89972000  0.50623000  1.0
  N  N57  1  0.62857000  0.10028000  0.49378000  1.0
  N  N58  1  0.32490000  0.02039000  0.43159000  1.0
  N  N59  1  0.67509000  0.97961000  0.56841000  1.0
  N  N60  1  0.20340000  0.01375000  0.37899000  1.0
  N  N61  1  0.79660000  0.98626000  0.62099000  1.0
  N  N62  1  0.44331000  0.87331000  0.80716000  1.0
  N  N63  1  0.55670000  0.12668000  0.19284000  1.0
  N  N64  1  0.69179000  0.65324000  0.76535000  1.0
  N  N65  1  0.30821000  0.34675000  0.23466000  1.0
  O  O66  1  0.42503000  0.62672000  0.62250000  1.0
  O  O67  1  0.57493000  0.37327000  0.37749000  1.0
  O  O68  1  0.20299000  0.59045000  0.57945000  1.0
  O  O69  1  0.79699000  0.40955000  0.42049000  1.0
  O  O70  1  0.00718000  0.71549000  0.43982000  1.0
  O  O71  1  0.99281000  0.28452000  0.56011000  1.0
  O  O72  1  0.96905000  0.90496000  0.29347000  1.0
  O  O73  1  0.03101000  0.09504000  0.70647000  1.0
  O  O74  1  0.71087000  0.69731000  0.43965000  1.0
  O  O75  1  0.28914000  0.30268000  0.56038000  1.0
