# generated using pymatgen
data_AgH6C7N4
_symmetry_space_group_name_H-M   'P 1'
_cell_length_a   5.21448000
_cell_length_b   12.32280000
_cell_length_c   13.07910000
_cell_angle_alpha   109.37100000
_cell_angle_beta   89.99990000
_cell_angle_gamma   90.00000000
_symmetry_Int_Tables_number   1
_chemical_formula_structural   AgH6C7N4
_chemical_formula_sum   'Ag4 H24 C28 N16'
_cell_volume   792.84782298
_cell_formula_units_Z   4
loop_
 _symmetry_equiv_pos_site_id
 _symmetry_equiv_pos_as_xyz
  1  'x, y, z'
loop_
 _atom_site_type_symbol
 _atom_site_label
 _atom_site_symmetry_multiplicity
 _atom_site_fract_x
 _atom_site_fract_y
 _atom_site_fract_z
 _atom_site_occupancy
  Ag  Ag0  1  0.97567000  0.55234000  0.88669000  1.0
  Ag  Ag1  1  0.47569000  0.44765000  0.61331000  1.0
  Ag  Ag2  1  0.02432000  0.44765000  0.11331000  1.0
  Ag  Ag3  1  0.52433000  0.55234000  0.38669000  1.0
  H  H4  1  0.42387000  0.34301000  0.77789000  1.0
  H  H5  1  0.92387000  0.65699000  0.72211000  1.0
  H  H6  1  0.57613000  0.65698000  0.22211000  1.0
  H  H7  1  0.07613000  0.34301000  0.27789000  1.0
  H  H8  1  0.75868000  0.24472000  0.90626000  1.0
  H  H9  1  0.25868000  0.75528000  0.59374000  1.0
  H  H10  1  0.24132000  0.75528000  0.09374000  1.0
  H  H11  1  0.74131000  0.24472000  0.40626000  1.0
  H  H12  1  0.08043000  0.98222000  0.79026000  1.0
  H  H13  1  0.58043000  0.01778000  0.70974000  1.0
  H  H14  1  0.91957000  0.01778000  0.20974000  1.0
  H  H15  1  0.41957000  0.98222000  0.29026000  1.0
  H  H16  1  0.90573000  0.05295000  0.90925000  1.0
  H  H17  1  0.40572000  0.94705000  0.59075000  1.0
  H  H18  1  0.09428000  0.94704000  0.09075000  1.0
  H  H19  1  0.59427000  0.05296000  0.40925000  1.0
  H  H20  1  0.34739000  0.20156000  0.04474000  1.0
  H  H21  1  0.84739000  0.79844000  0.45526000  1.0
  H  H22  1  0.65261000  0.79844000  0.95525000  1.0
  H  H23  1  0.15260000  0.20156000  0.54474000  1.0
  H  H24  1  0.31323000  0.84429000  0.84483000  1.0
  H  H25  1  0.81323000  0.15572000  0.65517000  1.0
  H  H26  1  0.68677000  0.15571000  0.15517000  1.0
  H  H27  1  0.18677000  0.84429000  0.34483000  1.0
  C  C28  1  0.35936000  0.57774000  0.89014000  1.0
  C  C29  1  0.85939000  0.42226000  0.60986000  1.0
  C  C30  1  0.64062000  0.42226000  0.10986000  1.0
  C  C31  1  0.14064000  0.57774000  0.39014000  1.0
  C  C32  1  0.28591000  0.29381000  0.80692000  1.0
  C  C33  1  0.78592000  0.70618000  0.69308000  1.0
  C  C34  1  0.71409000  0.70618000  0.19308000  1.0
  C  C35  1  0.21408000  0.29382000  0.30692000  1.0
  C  C36  1  0.94848000  0.24798000  0.87341000  1.0
  C  C37  1  0.44848000  0.75202000  0.62659000  1.0
  C  C38  1  0.05152000  0.75201000  0.12659000  1.0
  C  C39  1  0.55151000  0.24799000  0.37341000  1.0
  C  C40  1  0.09254000  0.05064000  0.86940000  1.0
  C  C41  1  0.59253000  0.94936000  0.63060000  1.0
  C  C42  1  0.90746000  0.94936000  0.13059000  1.0
  C  C43  1  0.40746000  0.05064000  0.36940000  1.0
  C  C44  1  0.30620000  0.02598000  0.93656000  1.0
  C  C45  1  0.80619000  0.97402000  0.56344000  1.0
  C  C46  1  0.69381000  0.97402000  0.06344000  1.0
  C  C47  1  0.19380000  0.02598000  0.43656000  1.0
  C  C48  1  0.41285000  0.11286000  0.02451000  1.0
  C  C49  1  0.91285000  0.88714000  0.47549000  1.0
  C  C50  1  0.58716000  0.88714000  0.97549000  1.0
  C  C51  1  0.08715000  0.11286000  0.52451000  1.0
  C  C52  1  0.39530000  0.91301000  0.91280000  1.0
  C  C53  1  0.89529000  0.08699000  0.58720000  1.0
  C  C54  1  0.60471000  0.08699000  0.08720000  1.0
  C  C55  1  0.10470000  0.91301000  0.41280000  1.0
  N  N56  1  0.58391000  0.57685000  0.89233000  1.0
  N  N57  1  0.08394000  0.42315000  0.60768000  1.0
  N  N58  1  0.41608000  0.42315000  0.10768000  1.0
  N  N59  1  0.91610000  0.57685000  0.39233000  1.0
  N  N60  1  0.04766000  0.33333333  0.84421000  1.0
  N  N61  1  0.54766000  0.66666667  0.65579000  1.0
  N  N62  1  0.95234000  0.66666667  0.15579000  1.0
  N  N63  1  0.45233000  0.33333333  0.34421000  1.0
  N  N64  1  0.33844000  0.18952000  0.81063000  1.0
  N  N65  1  0.83844000  0.81048000  0.68937000  1.0
  N  N66  1  0.66156000  0.81048000  0.18937000  1.0
  N  N67  1  0.16155000  0.18952000  0.31063000  1.0
  N  N68  1  0.11998000  0.16145000  0.85338000  1.0
  N  N69  1  0.61998000  0.83855000  0.64662000  1.0
  N  N70  1  0.88002000  0.83854000  0.14662000  1.0
  N  N71  1  0.38002000  0.16145000  0.35338000  1.0
