# generated using pymatgen
data_CoH4(C2O3)2
_symmetry_space_group_name_H-M   'P 1'
_cell_length_a   4.95374000
_cell_length_b   7.81067000
_cell_length_c   7.81055000
_cell_angle_alpha   71.86710000
_cell_angle_beta   71.55800000
_cell_angle_gamma   71.55820000
_symmetry_Int_Tables_number   1
_chemical_formula_structural   CoH4(C2O3)2
_chemical_formula_sum   'Co2 H8 C8 O12'
_cell_volume   264.37153152
_cell_formula_units_Z   2
loop_
 _symmetry_equiv_pos_site_id
 _symmetry_equiv_pos_as_xyz
  1  'x, y, z'
loop_
 _atom_site_type_symbol
 _atom_site_label
 _atom_site_symmetry_multiplicity
 _atom_site_fract_x
 _atom_site_fract_y
 _atom_site_fract_z
 _atom_site_occupancy
  Co  Co0  1  0.71718000  0.28331000  0.28317000  1.0
  Co  Co1  1  0.28281000  0.71683000  0.71669000  1.0
  H  H2  1  0.75758000  0.46484000  0.77855000  1.0
  H  H3  1  0.00037000  0.77867000  0.46447000  1.0
  H  H4  1  0.24243000  0.22143000  0.53517000  1.0
  H  H5  1  0.99962000  0.53553000  0.22134000  1.0
  H  H6  1  0.60763000  0.21070000  0.93582000  1.0
  H  H7  1  0.24663000  0.93611000  0.21077000  1.0
  H  H8  1  0.39235000  0.06418000  0.78930000  1.0
  H  H9  1  0.75340000  0.78922000  0.06388000  1.0
  C  C10  1  0.17117000  0.36344000  0.92181000  1.0
  C  C11  1  0.54560000  0.92135000  0.36329000  1.0
  C  C12  1  0.82883000  0.07819000  0.63656000  1.0
  C  C13  1  0.45440000  0.63670000  0.07865000  1.0
  C  C14  1  0.49160000  0.29722000  0.82758000  1.0
  C  C15  1  0.38450000  0.82776000  0.29703000  1.0
  C  C16  1  0.50840000  0.17241000  0.70279000  1.0
  C  C17  1  0.61552000  0.70297000  0.17223000  1.0
  O  O18  1  0.05816000  0.24894000  0.05702000  1.0
  O  O19  1  0.64139000  0.05522000  0.24826000  1.0
  O  O20  1  0.94186000  0.94296000  0.75108000  1.0
  O  O21  1  0.35859000  0.75175000  0.94476000  1.0
  O  O22  1  0.03136000  0.52661000  0.85144000  1.0
  O  O23  1  0.58982000  0.85200000  0.52722000  1.0
  O  O24  1  0.96864000  0.14855000  0.47339000  1.0
  O  O25  1  0.41017000  0.47280000  0.14799000  1.0
  O  O26  1  0.61474000  0.45295000  0.72100000  1.0
  O  O27  1  0.21236000  0.72093000  0.45261000  1.0
  O  O28  1  0.38523000  0.27901000  0.54707000  1.0
  O  O29  1  0.78764000  0.54741000  0.27908000  1.0
