# generated using pymatgen
data_Ag2H6C7SO7
_symmetry_space_group_name_H-M   'P 1'
_cell_length_a   7.35333000
_cell_length_b   8.33318000
_cell_length_c   16.27170000
_cell_angle_alpha   90.00050000
_cell_angle_beta   90.00030000
_cell_angle_gamma   87.81580000
_symmetry_Int_Tables_number   1
_chemical_formula_structural   Ag2H6C7SO7
_chemical_formula_sum   'Ag8 H24 C28 S4 O28'
_cell_volume   996.35040768
_cell_formula_units_Z   4
loop_
 _symmetry_equiv_pos_site_id
 _symmetry_equiv_pos_as_xyz
  1  'x, y, z'
loop_
 _atom_site_type_symbol
 _atom_site_label
 _atom_site_symmetry_multiplicity
 _atom_site_fract_x
 _atom_site_fract_y
 _atom_site_fract_z
 _atom_site_occupancy
  Ag  Ag0  1  0.75000000  0.25000000  0.48862000  1.0
  Ag  Ag1  1  0.25000000  0.75000000  0.51138000  1.0
  Ag  Ag2  1  0.75000000  0.75000000  0.48448000  1.0
  Ag  Ag3  1  0.25000000  0.25000000  0.51552000  1.0
  Ag  Ag4  1  0.25001000  0.25000000  0.92562000  1.0
  Ag  Ag5  1  0.74999000  0.75000000  0.07438000  1.0
  Ag  Ag6  1  0.24999000  0.25000000  0.75795000  1.0
  Ag  Ag7  1  0.75000000  0.75000000  0.24205000  1.0
  H  H8  1  0.04797000  0.86061000  0.95968000  1.0
  H  H9  1  0.45203000  0.63939000  0.95967000  1.0
  H  H10  1  0.95204000  0.13940000  0.04032000  1.0
  H  H11  1  0.54796000  0.36061000  0.04033000  1.0
  H  H12  1  0.48035000  0.50246000  0.41388000  1.0
  H  H13  1  0.01965000  0.99755000  0.41388000  1.0
  H  H14  1  0.51966000  0.49754000  0.58612000  1.0
  H  H15  1  0.98034000  0.00245000  0.58612000  1.0
  H  H16  1  0.66588000  0.50581000  0.36891000  1.0
  H  H17  1  0.83411000  0.99419000  0.36891000  1.0
  H  H18  1  0.33412000  0.49419000  0.63109000  1.0
  H  H19  1  0.16588000  0.00581000  0.63109000  1.0
  H  H20  1  0.02641000  0.79279000  0.68987000  1.0
  H  H21  1  0.47359000  0.70721000  0.68987000  1.0
  H  H22  1  0.97359000  0.20721000  0.31013000  1.0
  H  H23  1  0.52641000  0.29279000  0.31013000  1.0
  H  H24  1  0.82972000  0.35724000  0.79336000  1.0
  H  H25  1  0.67028000  0.14276000  0.79336000  1.0
  H  H26  1  0.17028000  0.64276000  0.20664000  1.0
  H  H27  1  0.32972000  0.85724000  0.20664000  1.0
  H  H28  1  0.87137000  0.46751000  0.93470000  1.0
  H  H29  1  0.62863000  0.03249000  0.93470000  1.0
  H  H30  1  0.12863000  0.53249000  0.06530000  1.0
  H  H31  1  0.37137000  0.96751000  0.06530000  1.0
  C  C32  1  0.01820000  0.78492000  0.82192000  1.0
  C  C33  1  0.48180000  0.71508000  0.82191000  1.0
  C  C34  1  0.98181000  0.21508000  0.17808000  1.0
  C  C35  1  0.51819000  0.28492000  0.17809000  1.0
  C  C36  1  0.99259000  0.72177000  0.74336000  1.0
  C  C37  1  0.50742000  0.77823000  0.74335000  1.0
  C  C38  1  0.00742000  0.27823000  0.25664000  1.0
  C  C39  1  0.49258000  0.22177000  0.25665000  1.0
  C  C40  1  0.92656000  0.56950000  0.73331000  1.0
  C  C41  1  0.57343000  0.93050000  0.73331000  1.0
  C  C42  1  0.07344000  0.43049000  0.26669000  1.0
  C  C43  1  0.42656000  0.06950000  0.26669000  1.0
  C  C44  1  0.88249000  0.47658000  0.80198000  1.0
  C  C45  1  0.61751000  0.02342000  0.80198000  1.0
  C  C46  1  0.11751000  0.52342000  0.19802000  1.0
  C  C47  1  0.38249000  0.97658000  0.19802000  1.0
  C  C48  1  0.90542000  0.53760000  0.88062000  1.0
  C  C49  1  0.59458000  0.96240000  0.88062000  1.0
  C  C50  1  0.09459000  0.46240000  0.11938000  1.0
  C  C51  1  0.40542000  0.03759000  0.11938000  1.0
  C  C52  1  0.97440000  0.69125000  0.89102000  1.0
  C  C53  1  0.52560000  0.80875000  0.89102000  1.0
  C  C54  1  0.02561000  0.30874000  0.10898000  1.0
  C  C55  1  0.47440000  0.19125000  0.10898000  1.0
  C  C56  1  0.09112000  0.94789000  0.83070000  1.0
  C  C57  1  0.40888000  0.55211000  0.83070000  1.0
  C  C58  1  0.90889000  0.05211000  0.16930000  1.0
  C  C59  1  0.59112000  0.44789000  0.16930000  1.0
  S  S60  1  0.91894000  0.48962000  0.63250000  1.0
  S  S61  1  0.58106000  0.01039000  0.63250000  1.0
  S  S62  1  0.08106000  0.51039000  0.36750000  1.0
  S  S63  1  0.41894000  0.98961000  0.36750000  1.0
  O  O64  1  0.73425000  0.43344000  0.61784000  1.0
  O  O65  1  0.76575000  0.06656000  0.61784000  1.0
  O  O66  1  0.26576000  0.56656000  0.38216000  1.0
  O  O67  1  0.23424000  0.93344000  0.38216000  1.0
  O  O68  1  0.96704000  0.62204000  0.57737000  1.0
  O  O69  1  0.53296000  0.87796000  0.57737000  1.0
  O  O70  1  0.03296000  0.37796000  0.42263000  1.0
  O  O71  1  0.46704000  0.12204000  0.42263000  1.0
  O  O72  1  0.05667000  0.35593000  0.63296000  1.0
  O  O73  1  0.44334000  0.14407000  0.63296000  1.0
  O  O74  1  0.94334000  0.64408000  0.36704000  1.0
  O  O75  1  0.55666000  0.85593000  0.36704000  1.0
  O  O76  1  0.12688000  0.02284000  0.76511000  1.0
  O  O77  1  0.37311000  0.47716000  0.76511000  1.0
  O  O78  1  0.87312000  0.97716000  0.23489000  1.0
  O  O79  1  0.62689000  0.52284000  0.23489000  1.0
  O  O80  1  0.11328000  0.00238000  0.90416000  1.0
  O  O81  1  0.38672000  0.49763000  0.90416000  1.0
  O  O82  1  0.88672000  0.99763000  0.09584000  1.0
  O  O83  1  0.61328000  0.50237000  0.09584000  1.0
  O  O84  1  0.99787000  0.74878000  0.96816000  1.0
  O  O85  1  0.50213000  0.75122000  0.96815000  1.0
  O  O86  1  0.00214000  0.25122000  0.03184000  1.0
  O  O87  1  0.49787000  0.24878000  0.03185000  1.0
  O  O88  1  0.61322000  0.48746000  0.42315000  1.0
  O  O89  1  0.88678000  0.01254000  0.42315000  1.0
  O  O90  1  0.38678000  0.51254000  0.57685000  1.0
  O  O91  1  0.11322000  0.98746000  0.57685000  1.0
