# generated using pymatgen
data_YbAgH8C14(NO4)2
_symmetry_space_group_name_H-M   'P 1'
_cell_length_a   9.37238000
_cell_length_b   11.97160000
_cell_length_c   16.46510000
_cell_angle_alpha   82.93650000
_cell_angle_beta   89.99680000
_cell_angle_gamma   66.97500000
_symmetry_Int_Tables_number   1
_chemical_formula_structural   YbAgH8C14(NO4)2
_chemical_formula_sum   'Yb4 Ag4 H32 C56 N8 O32'
_cell_volume   1685.00730241
_cell_formula_units_Z   4
loop_
 _symmetry_equiv_pos_site_id
 _symmetry_equiv_pos_as_xyz
  1  'x, y, z'
loop_
 _atom_site_type_symbol
 _atom_site_label
 _atom_site_symmetry_multiplicity
 _atom_site_fract_x
 _atom_site_fract_y
 _atom_site_fract_z
 _atom_site_occupancy
  Yb  Yb0  1  0.80063000  0.99010000  0.43255000  1.0
  Yb  Yb1  1  0.79077000  0.00964000  0.06758000  1.0
  Yb  Yb2  1  0.19936000  0.00991000  0.56745000  1.0
  Yb  Yb3  1  0.20923000  0.99036000  0.93242000  1.0
  Ag  Ag4  1  0.21818000  0.32455000  0.41603000  1.0
  Ag  Ag5  1  0.54226000  0.67534000  0.08399000  1.0
  Ag  Ag6  1  0.78182000  0.67545000  0.58397000  1.0
  Ag  Ag7  1  0.45774000  0.32466000  0.91602000  1.0
  H  H8  1  0.52716000  0.08766000  0.66607000  1.0
  H  H9  1  0.61431000  0.91276000  0.83386000  1.0
  H  H10  1  0.47284000  0.91234000  0.33393000  1.0
  H  H11  1  0.38569000  0.08724000  0.16614000  1.0
  H  H12  1  0.93156000  0.40646000  0.54789000  1.0
  H  H13  1  0.33828000  0.59378000  0.95190000  1.0
  H  H14  1  0.06844000  0.59354000  0.45211000  1.0
  H  H15  1  0.66172000  0.40622000  0.04810000  1.0
  H  H16  1  0.55033000  0.71232000  0.44516000  1.0
  H  H17  1  0.26323000  0.28768000  0.05473000  1.0
  H  H18  1  0.44967000  0.28768000  0.55484000  1.0
  H  H19  1  0.73677000  0.71232000  0.94527000  1.0
  H  H20  1  0.46664000  0.58658000  0.36039000  1.0
  H  H21  1  0.05372000  0.41327000  0.13947000  1.0
  H  H22  1  0.53335000  0.41343000  0.63961000  1.0
  H  H23  1  0.94627000  0.58673000  0.86053000  1.0
  H  H24  1  0.62326000  0.35592000  0.37679000  1.0
  H  H25  1  0.97972000  0.64396000  0.12316000  1.0
  H  H26  1  0.37674000  0.64408000  0.62321000  1.0
  H  H27  1  0.02029000  0.35604000  0.87684000  1.0
  H  H28  1  0.74733000  0.30957000  0.82446000  1.0
  H  H29  1  0.05614000  0.69096000  0.67539000  1.0
  H  H30  1  0.25267000  0.69043000  0.17554000  1.0
  H  H31  1  0.94386000  0.30904000  0.32461000  1.0
  H  H32  1  0.38690000  0.20228000  0.77868000  1.0
  H  H33  1  0.58862000  0.79800000  0.72136000  1.0
  H  H34  1  0.61310000  0.79771000  0.22132000  1.0
  H  H35  1  0.41138000  0.20199000  0.27864000  1.0
  H  H36  1  0.90529000  0.19258000  0.71774000  1.0
  H  H37  1  0.09712000  0.80809000  0.78201000  1.0
  H  H38  1  0.09471000  0.80742000  0.28226000  1.0
  H  H39  1  0.90288000  0.19192000  0.21799000  1.0
  C  C40  1  0.78968000  0.36703000  0.46213000  1.0
  C  C41  1  0.15687000  0.63304000  0.03765000  1.0
  C  C42  1  0.21031000  0.63297000  0.53787000  1.0
  C  C43  1  0.84313000  0.36696000  0.96235000  1.0
  C  C44  1  0.72983000  0.12819000  0.68459000  1.0
  C  C45  1  0.85745000  0.87234000  0.81528000  1.0
  C  C46  1  0.27017000  0.87181000  0.31541000  1.0
  C  C47  1  0.14255000  0.12766000  0.18472000  1.0
  C  C48  1  0.82657000  0.05214000  0.62214000  1.0
  C  C49  1  0.87846000  0.94819000  0.87779000  1.0
  C  C50  1  0.17343000  0.94787000  0.37786000  1.0
  C  C51  1  0.12154000  0.05181000  0.12220000  1.0
  C  C52  1  0.58040000  0.13459000  0.70061000  1.0
  C  C53  1  0.71445000  0.86587000  0.79932000  1.0
  C  C54  1  0.41960000  0.86541000  0.29939000  1.0
  C  C55  1  0.28556000  0.13413000  0.20068000  1.0
  C  C56  1  0.88758000  0.23181000  0.47478000  1.0
  C  C57  1  0.11931000  0.76833000  0.02504000  1.0
  C  C58  1  0.11241000  0.76819000  0.52522000  1.0
  C  C59  1  0.88069000  0.23167000  0.97496000  1.0
  C  C60  1  0.82892000  0.44434000  0.50602000  1.0
  C  C61  1  0.27353000  0.55583000  0.99378000  1.0
  C  C62  1  0.17108000  0.55566000  0.49398000  1.0
  C  C63  1  0.72647000  0.44416000  0.00622000  1.0
  C  C64  1  0.61568000  0.61398000  0.44811000  1.0
  C  C65  1  0.23017000  0.38603000  0.05177000  1.0
  C  C66  1  0.38432000  0.38602000  0.55189000  1.0
  C  C67  1  0.76983000  0.61397000  0.94824000  1.0
  C  C68  1  0.57017000  0.54292000  0.40138000  1.0
  C  C69  1  0.11352000  0.45700000  0.09848000  1.0
  C  C70  1  0.42983000  0.45709000  0.59862000  1.0
  C  C71  1  0.88647000  0.54300000  0.90152000  1.0
  C  C72  1  0.65620000  0.41694000  0.40955000  1.0
  C  C73  1  0.07351000  0.58299000  0.09031000  1.0
  C  C74  1  0.34380000  0.58306000  0.59045000  1.0
  C  C75  1  0.92649000  0.41700000  0.90969000  1.0
  C  C76  1  0.70296000  0.25833000  0.78866000  1.0
  C  C77  1  0.96058000  0.74217000  0.71121000  1.0
  C  C78  1  0.29704000  0.74167000  0.21134000  1.0
  C  C79  1  0.03942000  0.25783000  0.28879000  1.0
  C  C80  1  0.46534000  0.06989000  0.48872000  1.0
  C  C81  1  0.53517000  0.93008000  0.01130000  1.0
  C  C82  1  0.53465000  0.93011000  0.51128000  1.0
  C  C83  1  0.46484000  0.06991000  0.98870000  1.0
  C  C84  1  0.50108000  0.19929000  0.76255000  1.0
  C  C85  1  0.69978000  0.80110000  0.73742000  1.0
  C  C86  1  0.49892000  0.80071000  0.23745000  1.0
  C  C87  1  0.30023000  0.19890000  0.26258000  1.0
  C  C88  1  0.79022000  0.19384000  0.72883000  1.0
  C  C89  1  0.98337000  0.80673000  0.77100000  1.0
  C  C90  1  0.20978000  0.80616000  0.27117000  1.0
  C  C91  1  0.01663000  0.19327000  0.22900000  1.0
  C  C92  1  0.79202000  0.92910000  0.25587000  1.0
  C  C93  1  0.72109000  0.07055000  0.24426000  1.0
  C  C94  1  0.20798000  0.07091000  0.74413000  1.0
  C  C95  1  0.27891000  0.92946000  0.75575000  1.0
  N  N96  1  0.74214000  0.56538000  0.50046000  1.0
  N  N97  1  0.30795000  0.43474000  0.99941000  1.0
  N  N98  1  0.25786000  0.43462000  0.49954000  1.0
  N  N99  1  0.69205000  0.56526000  0.00059000  1.0
  N  N100  1  0.56215000  0.25928000  0.80702000  1.0
  N  N101  1  0.82076000  0.74110000  0.69293000  1.0
  N  N102  1  0.43785000  0.74072000  0.19298000  1.0
  N  N103  1  0.17924000  0.25890000  0.30706000  1.0
  O  O104  1  0.96809000  0.03674000  0.62306000  1.0
  O  O105  1  0.00457000  0.96362000  0.87675000  1.0
  O  O106  1  0.03191000  0.96326000  0.37694000  1.0
  O  O107  1  0.99543000  0.03638000  0.12325000  1.0
  O  O108  1  0.02447000  0.19820000  0.50548000  1.0
  O  O109  1  0.22235000  0.80214000  0.99420000  1.0
  O  O110  1  0.97553000  0.80179000  0.49451000  1.0
  O  O111  1  0.77765000  0.19786000  0.00579000  1.0
  O  O112  1  0.82366000  0.16352000  0.45438000  1.0
  O  O113  1  0.98720000  0.83635000  0.04566000  1.0
  O  O114  1  0.17633000  0.83648000  0.54562000  1.0
  O  O115  1  0.01280000  0.16364000  0.95435000  1.0
  O  O116  1  0.75935000  0.01105000  0.57405000  1.0
  O  O117  1  0.77043000  0.98907000  0.92605000  1.0
  O  O118  1  0.24065000  0.98895000  0.42595000  1.0
  O  O119  1  0.22957000  0.01093000  0.07395000  1.0
  O  O120  1  0.53823000  0.11644000  0.44062000  1.0
  O  O121  1  0.65442000  0.88356000  0.05952000  1.0
  O  O122  1  0.46176000  0.88357000  0.55938000  1.0
  O  O123  1  0.34559000  0.11644000  0.94048000  1.0
  O  O124  1  0.33862000  0.12811000  0.52032000  1.0
  O  O125  1  0.46663000  0.87190000  0.97967000  1.0
  O  O126  1  0.66137000  0.87189000  0.47968000  1.0
  O  O127  1  0.53337000  0.12810000  0.02033000  1.0
  O  O128  1  0.80430000  0.87561000  0.32853000  1.0
  O  O129  1  0.67974000  0.12402000  0.17161000  1.0
  O  O130  1  0.19570000  0.12439000  0.67147000  1.0
  O  O131  1  0.32027000  0.87598000  0.82839000  1.0
  O  O132  1  0.83172000  0.87868000  0.19177000  1.0
  O  O133  1  0.71028000  0.12101000  0.30834000  1.0
  O  O134  1  0.16828000  0.12132000  0.80823000  1.0
  O  O135  1  0.28972000  0.87899000  0.69166000  1.0
