# generated using pymatgen
data_CuH18C16(NO)4
_symmetry_space_group_name_H-M   'P 1'
_cell_length_a   5.83820000
_cell_length_b   8.30462000
_cell_length_c   8.61411000
_cell_angle_alpha   89.78980000
_cell_angle_beta   78.42400000
_cell_angle_gamma   86.00690000
_symmetry_Int_Tables_number   1
_chemical_formula_structural   CuH18C16(NO)4
_chemical_formula_sum   'Cu1 H18 C16 N4 O4'
_cell_volume   408.13566836
_cell_formula_units_Z   1
loop_
 _symmetry_equiv_pos_site_id
 _symmetry_equiv_pos_as_xyz
  1  'x, y, z'
loop_
 _atom_site_type_symbol
 _atom_site_label
 _atom_site_symmetry_multiplicity
 _atom_site_fract_x
 _atom_site_fract_y
 _atom_site_fract_z
 _atom_site_occupancy
  Cu  Cu0  1  0.16063000  0.03815000  0.24346000  1.0
  H  H1  1  0.57754000  0.69433000  0.59797000  1.0
  H  H2  1  0.64633000  0.42354000  0.71323000  1.0
  H  H3  1  0.36869000  0.42411000  0.47161000  1.0
  H  H4  1  0.26670000  0.68697000  0.35508000  1.0
  H  H5  1  0.89980000  0.20900000  0.76071000  1.0
  H  H6  1  0.19119000  0.25977000  0.75670000  1.0
  H  H7  1  0.19692000  0.99586000  0.64962000  1.0
  H  H8  1  0.72393000  0.30391000  0.28874000  1.0
  H  H9  1  0.59866000  0.56336000  0.17244000  1.0
  H  H10  1  0.29682000  0.56752000  0.89055000  1.0
  H  H11  1  0.39324000  0.30494000  0.01637000  1.0
  H  H12  1  0.67576000  0.76233000  0.96741000  1.0
  H  H13  1  0.93162000  0.73430000  0.81712000  1.0
  H  H14  1  0.88834000  0.99833000  0.94611000  1.0
  H  H15  1  0.84722000  0.11957000  0.48906000  1.0
  H  H16  1  0.95769000  0.93171000  0.49285000  1.0
  H  H17  1  0.89350000  0.81882000  0.23903000  1.0
  H  H18  1  0.74021000  0.98667000  0.20871000  1.0
  C  C19  1  0.74901000  0.62810000  0.56765000  1.0
  C  C20  1  0.78936000  0.47858000  0.63484000  1.0
  C  C21  1  0.01356000  0.39920000  0.60261000  1.0
  C  C22  1  0.18899000  0.47656000  0.49948000  1.0
  C  C23  1  0.13260000  0.62434000  0.43547000  1.0
  C  C24  1  0.06226000  0.24201000  0.68226000  1.0
  C  C25  1  0.16272000  0.09762000  0.57260000  1.0
  C  C26  1  0.40537000  0.12552000  0.47460000  1.0
  C  C27  1  0.84670000  0.36619000  0.20029000  1.0
  C  C28  1  0.77824000  0.51141000  0.13542000  1.0
  C  C29  1  0.93832000  0.58840000  0.02110000  1.0
  C  C30  1  0.16548000  0.51311000  0.97936000  1.0
  C  C31  1  0.21931000  0.36772000  0.04935000  1.0
  C  C32  1  0.86739000  0.74274000  0.94588000  1.0
  C  C33  1  0.96566000  0.89424000  0.00237000  1.0
  C  C34  1  0.23442000  0.89722000  0.94384000  1.0
  N  N35  1  0.91755000  0.70099000  0.46816000  1.0
  N  N36  1  0.00447000  0.04882000  0.47101000  1.0
  N  N37  1  0.06354000  0.29365000  0.15783000  1.0
  N  N38  1  0.90147000  0.92366000  0.17461000  1.0
  O  O39  1  0.44655000  0.08638000  0.32567000  1.0
  O  O40  1  0.55282000  0.18146000  0.54311000  1.0
  O  O41  1  0.32635000  0.84250000  0.80942000  1.0
  O  O42  1  0.34919000  0.96188000  0.03867000  1.0
