# generated using pymatgen
data_NiH11C13(NO3)2
_symmetry_space_group_name_H-M   'P 1'
_cell_length_a   8.07714000
_cell_length_b   9.93089000
_cell_length_c   10.80520000
_cell_angle_alpha   113.31600000
_cell_angle_beta   103.44500000
_cell_angle_gamma   98.14410000
_symmetry_Int_Tables_number   1
_chemical_formula_structural   NiH11C13(NO3)2
_chemical_formula_sum   'Ni2 H22 C26 N4 O12'
_cell_volume   747.15872024
_cell_formula_units_Z   2
loop_
 _symmetry_equiv_pos_site_id
 _symmetry_equiv_pos_as_xyz
  1  'x, y, z'
loop_
 _atom_site_type_symbol
 _atom_site_label
 _atom_site_symmetry_multiplicity
 _atom_site_fract_x
 _atom_site_fract_y
 _atom_site_fract_z
 _atom_site_occupancy
  Ni  Ni0  1  0.19620000  0.12762000  0.86331000  1.0
  Ni  Ni1  1  0.80380000  0.87237000  0.13668000  1.0
  H  H2  1  0.64626000  0.95013000  0.42067000  1.0
  H  H3  1  0.35372000  0.04988000  0.57935000  1.0
  H  H4  1  0.40525000  0.75629000  0.41894000  1.0
  H  H5  1  0.59473000  0.24371000  0.58105000  1.0
  H  H6  1  0.45337000  0.69870000  0.62920000  1.0
  H  H7  1  0.54662000  0.30130000  0.37078000  1.0
  H  H8  1  0.53480000  0.08858000  0.97017000  1.0
  H  H9  1  0.46521000  0.91142000  0.02982000  1.0
  H  H10  1  0.84333000  0.19932000  0.99631000  1.0
  H  H11  1  0.15668000  0.80069000  0.00369000  1.0
  H  H12  1  0.03830000  0.34723000  0.92396000  1.0
  H  H13  1  0.96171000  0.65280000  0.07604000  1.0
  H  H14  1  0.95733000  0.45965000  0.84145000  1.0
  H  H15  1  0.04267000  0.54037000  0.15856000  1.0
  H  H16  1  0.65196000  0.49845000  0.83118000  1.0
  H  H17  1  0.34804000  0.50157000  0.16884000  1.0
  H  H18  1  0.34648000  0.37340000  0.80849000  1.0
  H  H19  1  0.65353000  0.62660000  0.19152000  1.0
  H  H20  1  0.10472000  0.75373000  0.73581000  1.0
  H  H21  1  0.89529000  0.24626000  0.26419000  1.0
  H  H22  1  0.15445000  0.79356000  0.62125000  1.0
  H  H23  1  0.84556000  0.20641000  0.37874000  1.0
  C  C24  1  0.94955000  0.11499000  0.62137000  1.0
  C  C25  1  0.05045000  0.88502000  0.37863000  1.0
  C  C26  1  0.81553000  0.99345000  0.62121000  1.0
  C  C27  1  0.18448000  0.00655000  0.37880000  1.0
  C  C28  1  0.65970000  0.91839000  0.50713000  1.0
  C  C29  1  0.34029000  0.08162000  0.49288000  1.0
  C  C30  1  0.52846000  0.81112000  0.50652000  1.0
  C  C31  1  0.47154000  0.18888000  0.49347000  1.0
  C  C32  1  0.55509000  0.77719000  0.62196000  1.0
  C  C33  1  0.44490000  0.22281000  0.37804000  1.0
  C  C34  1  0.71292000  0.84756000  0.73216000  1.0
  C  C35  1  0.28707000  0.15242000  0.26783000  1.0
  C  C36  1  0.56549000  0.17912000  0.94029000  1.0
  C  C37  1  0.43452000  0.82089000  0.05971000  1.0
  C  C38  1  0.73749000  0.24184000  0.95441000  1.0
  C  C39  1  0.26251000  0.75817000  0.04560000  1.0
  C  C40  1  0.77323000  0.35728000  0.91339000  1.0
  C  C41  1  0.22677000  0.64272000  0.08661000  1.0
  C  C42  1  0.95765000  0.42825000  0.92827000  1.0
  C  C43  1  0.04236000  0.57177000  0.07174000  1.0
  C  C44  1  0.63026000  0.40697000  0.86206000  1.0
  C  C45  1  0.36975000  0.59304000  0.13795000  1.0
  C  C46  1  0.46105000  0.34005000  0.85063000  1.0
  C  C47  1  0.53895000  0.65996000  0.14937000  1.0
  C  C48  1  0.76521000  0.80853000  0.85531000  1.0
  C  C49  1  0.23480000  0.19146000  0.14468000  1.0
  N  N50  1  0.42831000  0.22661000  0.88822000  1.0
  N  N51  1  0.57169000  0.77340000  0.11177000  1.0
  N  N52  1  0.83892000  0.95402000  0.73071000  1.0
  N  N53  1  0.16108000  0.04597000  0.26927000  1.0
  O  O54  1  0.11154000  0.15814000  0.70412000  1.0
  O  O55  1  0.88845000  0.84187000  0.29589000  1.0
  O  O56  1  0.89962000  0.16867000  0.53710000  1.0
  O  O57  1  0.10038000  0.83134000  0.46291000  1.0
  O  O58  1  0.97981000  0.01831000  0.84743000  1.0
  O  O59  1  0.02019000  0.98165000  0.15255000  1.0
  O  O60  1  0.20519000  0.78532000  0.70907000  1.0
  O  O61  1  0.79481000  0.21465000  0.29091000  1.0
  O  O62  1  0.71836000  0.88774000  0.96250000  1.0
  O  O63  1  0.28163000  0.11225000  0.03749000  1.0
  O  O64  1  0.84219000  0.70618000  0.84026000  1.0
  O  O65  1  0.15785000  0.29382000  0.15973000  1.0
