# generated using pymatgen
data_GdH4C5O8
_symmetry_space_group_name_H-M   'P 1'
_cell_length_a   9.64167000
_cell_length_b   9.71644000
_cell_length_c   9.79372182
_cell_angle_alpha   90.00000000
_cell_angle_beta   118.68175076
_cell_angle_gamma   90.00000000
_symmetry_Int_Tables_number   1
_chemical_formula_structural   GdH4C5O8
_chemical_formula_sum   'Gd4 H16 C20 O32'
_cell_volume   804.92399097
_cell_formula_units_Z   4
loop_
 _symmetry_equiv_pos_site_id
 _symmetry_equiv_pos_as_xyz
  1  'x, y, z'
loop_
 _atom_site_type_symbol
 _atom_site_label
 _atom_site_symmetry_multiplicity
 _atom_site_fract_x
 _atom_site_fract_y
 _atom_site_fract_z
 _atom_site_occupancy
  Gd  Gd0  1  0.36320000  0.55959000  0.63452000  1.0
  Gd  Gd1  1  0.13680000  0.05959000  0.86548000  1.0
  Gd  Gd2  1  0.63680000  0.44041000  0.36548000  1.0
  Gd  Gd3  1  0.86320000  0.94041000  0.13452000  1.0
  H  H4  1  0.43839000  0.62806000  0.96309000  1.0
  H  H5  1  0.06161000  0.12806000  0.53691000  1.0
  H  H6  1  0.56161000  0.37194000  0.03691000  1.0
  H  H7  1  0.93839000  0.87194000  0.46309000  1.0
  H  H8  1  0.30960000  0.73384000  0.85828000  1.0
  H  H9  1  0.19040000  0.23384000  0.64172000  1.0
  H  H10  1  0.69040000  0.26616000  0.14172000  1.0
  H  H11  1  0.80959000  0.76616000  0.35827000  1.0
  H  H12  1  0.20758000  0.82079000  0.46339000  1.0
  H  H13  1  0.29242000  0.32079000  0.03661000  1.0
  H  H14  1  0.79242000  0.17921000  0.53661000  1.0
  H  H15  1  0.70758000  0.67921000  0.96339000  1.0
  H  H16  1  0.30220000  0.87199000  0.64403000  1.0
  H  H17  1  0.19780000  0.37199000  0.85597000  1.0
  H  H18  1  0.69780000  0.12801000  0.35597000  1.0
  H  H19  1  0.80220000  0.62801000  0.14403000  1.0
  C  C20  1  0.25693000  0.26054000  0.42575000  1.0
  C  C21  1  0.24307000  0.76054000  0.07425000  1.0
  C  C22  1  0.74308000  0.73946000  0.57426000  1.0
  C  C23  1  0.75693000  0.23946000  0.92575000  1.0
  C  C24  1  0.13724000  0.15411000  0.34133000  1.0
  C  C25  1  0.36276000  0.65411000  0.15867000  1.0
  C  C26  1  0.86276000  0.84588000  0.65867000  1.0
  C  C27  1  0.63724000  0.34589000  0.84133000  1.0
  C  C28  1  0.98716000  0.51885000  0.41753000  1.0
  C  C29  1  0.51284000  0.01885000  0.08247000  1.0
  C  C30  1  0.01284000  0.48115000  0.58247000  1.0
  C  C31  1  0.48716000  0.98115000  0.91753000  1.0
  C  C32  1  0.16773000  0.16347000  0.21037000  1.0
  C  C33  1  0.33227000  0.66347000  0.28963000  1.0
  C  C34  1  0.83228000  0.83653000  0.78964000  1.0
  C  C35  1  0.66772000  0.33653000  0.71036000  1.0
  C  C36  1  0.28906000  0.26972000  0.29103000  1.0
  C  C37  1  0.21094000  0.76972000  0.20897000  1.0
  C  C38  1  0.71094000  0.73028000  0.70897000  1.0
  C  C39  1  0.78906000  0.23028000  0.79103000  1.0
  O  O40  1  0.30383000  0.31956000  0.55538000  1.0
  O  O41  1  0.19617000  0.81956000  0.94462000  1.0
  O  O42  1  0.69617000  0.68044000  0.44462000  1.0
  O  O43  1  0.80383000  0.18044000  0.05538000  1.0
  O  O44  1  0.03816000  0.08174000  0.36121000  1.0
  O  O45  1  0.46183000  0.58174000  0.13879000  1.0
  O  O46  1  0.96183000  0.91825000  0.63879000  1.0
  O  O47  1  0.53816000  0.41826000  0.86121000  1.0
  O  O48  1  0.10706000  0.55051000  0.40528000  1.0
  O  O49  1  0.39294000  0.05051000  0.09472000  1.0
  O  O50  1  0.89294000  0.44949000  0.59472000  1.0
  O  O51  1  0.60706000  0.94949000  0.90528000  1.0
  O  O52  1  0.84495000  0.51407000  0.30706000  1.0
  O  O53  1  0.65505000  0.01407000  0.19294000  1.0
  O  O54  1  0.15505000  0.48593000  0.69294000  1.0
  O  O55  1  0.34495000  0.98593000  0.80706000  1.0
  O  O56  1  0.27490000  0.79208000  0.57261000  1.0
  O  O57  1  0.22511000  0.29207000  0.92739000  1.0
  O  O58  1  0.72511000  0.20793000  0.42739000  1.0
  O  O59  1  0.77490000  0.70793000  0.07261000  1.0
  O  O60  1  0.10261000  0.10221000  0.08153000  1.0
  O  O61  1  0.39739000  0.60221000  0.41847000  1.0
  O  O62  1  0.89739000  0.89779000  0.91847000  1.0
  O  O63  1  0.60261000  0.39779000  0.58153000  1.0
  O  O64  1  0.39545000  0.67627000  0.86076000  1.0
  O  O65  1  0.10455000  0.17627000  0.63924000  1.0
  O  O66  1  0.60455000  0.32373000  0.13924000  1.0
  O  O67  1  0.89545000  0.82373000  0.36076000  1.0
  O  O68  1  0.37552000  0.33898000  0.25322000  1.0
  O  O69  1  0.12448000  0.83898000  0.24678000  1.0
  O  O70  1  0.62448000  0.66102000  0.74678000  1.0
  O  O71  1  0.87552000  0.16102000  0.75322000  1.0
