# generated using pymatgen
data_CuH15C18S(N3O2)2
_symmetry_space_group_name_H-M   'P 1'
_cell_length_a   9.37445000
_cell_length_b   10.32260000
_cell_length_c   10.96060000
_cell_angle_alpha   79.07170000
_cell_angle_beta   82.45560000
_cell_angle_gamma   71.43810000
_symmetry_Int_Tables_number   1
_chemical_formula_structural   CuH15C18S(N3O2)2
_chemical_formula_sum   'Cu2 H30 C36 S2 N12 O8'
_cell_volume   984.36277204
_cell_formula_units_Z   2
loop_
 _symmetry_equiv_pos_site_id
 _symmetry_equiv_pos_as_xyz
  1  'x, y, z'
loop_
 _atom_site_type_symbol
 _atom_site_label
 _atom_site_symmetry_multiplicity
 _atom_site_fract_x
 _atom_site_fract_y
 _atom_site_fract_z
 _atom_site_occupancy
  Cu  Cu0  1  0.56960000  0.82724000  0.51297000  1.0
  Cu  Cu1  1  0.43040000  0.17276000  0.48703000  1.0
  H  H2  1  0.41199000  0.85960000  0.78023000  1.0
  H  H3  1  0.58802000  0.14041000  0.21976000  1.0
  H  H4  1  0.27808000  0.73306000  0.48019000  1.0
  H  H5  1  0.72191000  0.26694000  0.51981000  1.0
  H  H6  1  0.06214000  0.72822000  0.68088000  1.0
  H  H7  1  0.93787000  0.27178000  0.31912000  1.0
  H  H8  1  0.34966000  0.75945000  0.98198000  1.0
  H  H9  1  0.65034000  0.24056000  0.01802000  1.0
  H  H10  1  0.91917000  0.86191000  0.82516000  1.0
  H  H11  1  0.08083000  0.13809000  0.17484000  1.0
  H  H12  1  0.68580000  0.75479000  0.79595000  1.0
  H  H13  1  0.31420000  0.24520000  0.20405000  1.0
  H  H14  1  0.80582000  0.52727000  0.49555000  1.0
  H  H15  1  0.19419000  0.47273000  0.50445000  1.0
  H  H16  1  0.00040000  0.39131000  0.68020000  1.0
  H  H17  1  0.99961000  0.60869000  0.31980000  1.0
  H  H18  1  0.15919000  0.46099000  0.80235000  1.0
  H  H19  1  0.84081000  0.53900000  0.19766000  1.0
  H  H20  1  0.72044000  0.59151000  0.99921000  1.0
  H  H21  1  0.27956000  0.40847000  0.00079000  1.0
  H  H22  1  0.70853000  0.80629000  0.22705000  1.0
  H  H23  1  0.29148000  0.19370000  0.77295000  1.0
  H  H24  1  0.86359000  0.89690000  0.53579000  1.0
  H  H25  1  0.13640000  0.10311000  0.46421000  1.0
  H  H26  1  0.07739000  0.90768000  0.33364000  1.0
  H  H27  1  0.92261000  0.09232000  0.66636000  1.0
  H  H28  1  0.21960000  0.78657000  0.18844000  1.0
  H  H29  1  0.78039000  0.21342000  0.81156000  1.0
  H  H30  1  0.78881000  0.88796000  0.03062000  1.0
  H  H31  1  0.21119000  0.11204000  0.96938000  1.0
  C  C32  1  0.35036000  0.81843000  0.72716000  1.0
  C  C33  1  0.64965000  0.18157000  0.27283000  1.0
  C  C34  1  0.27452000  0.75486000  0.57369000  1.0
  C  C35  1  0.72549000  0.24514000  0.42631000  1.0
  C  C36  1  0.16809000  0.75139000  0.67197000  1.0
  C  C37  1  0.83192000  0.24861000  0.32803000  1.0
  C  C38  1  0.14364000  0.80400000  0.89016000  1.0
  C  C39  1  0.85638000  0.19600000  0.10983000  1.0
  C  C40  1  0.22703000  0.78541000  0.99252000  1.0
  C  C41  1  0.77298000  0.21459000  0.00748000  1.0
  C  C42  1  0.98655000  0.83844000  0.90498000  1.0
  C  C43  1  0.01346000  0.16156000  0.09502000  1.0
  C  C44  1  0.74059000  0.67257000  0.74026000  1.0
  C  C45  1  0.25941000  0.32742000  0.25974000  1.0
  C  C46  1  0.80958000  0.55414000  0.58568000  1.0
  C  C47  1  0.19042000  0.44585000  0.41433000  1.0
  C  C48  1  0.90740000  0.48597000  0.67568000  1.0
  C  C49  1  0.09259000  0.51402000  0.32432000  1.0
  C  C50  1  0.93193000  0.52935000  0.88826000  1.0
  C  C51  1  0.06806000  0.47065000  0.11174000  1.0
  C  C52  1  0.08910000  0.47660000  0.88905000  1.0
  C  C53  1  0.91091000  0.52339000  0.11095000  1.0
  C  C54  1  0.84294000  0.55231000  0.99939000  1.0
  C  C55  1  0.15707000  0.44768000  0.00061000  1.0
  C  C56  1  0.78202000  0.82771000  0.28415000  1.0
  C  C57  1  0.21798000  0.17228000  0.71585000  1.0
  C  C58  1  0.86844000  0.87314000  0.44252000  1.0
  C  C59  1  0.13155000  0.12687000  0.55747000  1.0
  C  C60  1  0.97395000  0.87847000  0.34404000  1.0
  C  C61  1  0.02604000  0.12153000  0.65595000  1.0
  C  C62  1  0.99503000  0.83576000  0.12421000  1.0
  C  C63  1  0.00497000  0.16424000  0.87580000  1.0
  C  C64  1  0.15284000  0.80082000  0.10991000  1.0
  C  C65  1  0.84717000  0.19918000  0.89009000  1.0
  C  C66  1  0.91199000  0.85533000  0.02180000  1.0
  C  C67  1  0.08801000  0.14466000  0.97820000  1.0
  S  S68  1  0.38653000  0.96230000  0.27814000  1.0
  S  S69  1  0.61346000  0.03772000  0.72188000  1.0
  N  N70  1  0.38649000  0.79675000  0.60975000  1.0
  N  N71  1  0.61352000  0.20324000  0.39025000  1.0
  N  N72  1  0.21785000  0.79087000  0.76915000  1.0
  N  N73  1  0.78216000  0.20913000  0.23084000  1.0
  N  N74  1  0.70755000  0.67013000  0.62654000  1.0
  N  N75  1  0.29245000  0.32987000  0.37346000  1.0
  N  N76  1  0.86252000  0.56125000  0.77391000  1.0
  N  N77  1  0.13748000  0.43874000  0.22609000  1.0
  N  N78  1  0.75117000  0.84066000  0.40383000  1.0
  N  N79  1  0.24882000  0.15935000  0.59617000  1.0
  N  N80  1  0.91839000  0.84983000  0.24403000  1.0
  N  N81  1  0.08161000  0.15016000  0.75597000  1.0
  O  O82  1  0.44141000  0.04854000  0.16982000  1.0
  O  O83  1  0.55855000  0.95149000  0.83020000  1.0
  O  O84  1  0.21964000  0.01368000  0.29828000  1.0
  O  O85  1  0.78036000  0.98633000  0.70174000  1.0
  O  O86  1  0.44814000  0.98387000  0.39507000  1.0
  O  O87  1  0.55185000  0.01614000  0.60490000  1.0
  O  O88  1  0.44168000  0.81334000  0.27023000  1.0
  O  O89  1  0.55829000  0.18671000  0.72976000  1.0
