# generated using pymatgen
data_ZnH6C7O4
_symmetry_space_group_name_H-M   'P 1'
_cell_length_a   7.35442000
_cell_length_b   7.36312000
_cell_length_c   13.67347707
_cell_angle_alpha   74.42428117
_cell_angle_beta   74.38977572
_cell_angle_gamma   90.01990000
_symmetry_Int_Tables_number   1
_chemical_formula_structural   ZnH6C7O4
_chemical_formula_sum   'Zn4 H24 C28 O16'
_cell_volume   684.83235178
_cell_formula_units_Z   4
loop_
 _symmetry_equiv_pos_site_id
 _symmetry_equiv_pos_as_xyz
  1  'x, y, z'
loop_
 _atom_site_type_symbol
 _atom_site_label
 _atom_site_symmetry_multiplicity
 _atom_site_fract_x
 _atom_site_fract_y
 _atom_site_fract_z
 _atom_site_occupancy
  Zn  Zn0  1  0.71989000  0.96995000  0.06029000  1.0
  Zn  Zn1  1  0.46980000  0.21987000  0.56018000  1.0
  Zn  Zn2  1  0.28010000  0.03005000  0.93971000  1.0
  Zn  Zn3  1  0.53019000  0.78013000  0.43982000  1.0
  H  H4  1  0.85763000  0.98733000  0.70039000  1.0
  H  H5  1  0.81154000  0.35786000  0.20001000  1.0
  H  H6  1  0.48822000  0.44244000  0.20012000  1.0
  H  H7  1  0.94236000  0.31202000  0.69993000  1.0
  H  H8  1  0.14236000  0.01267000  0.29962000  1.0
  H  H9  1  0.18846000  0.64214000  0.79999000  1.0
  H  H10  1  0.51178000  0.55756000  0.79988000  1.0
  H  H11  1  0.05764000  0.68798000  0.30007000  1.0
  H  H12  1  0.97854000  0.91649000  0.79926000  1.0
  H  H13  1  0.78355000  0.47851000  0.29903000  1.0
  H  H14  1  0.41701000  0.22270000  0.29888000  1.0
  H  H15  1  0.72258000  0.28411000  0.79887000  1.0
  H  H16  1  0.02146000  0.08350000  0.20074000  1.0
  H  H17  1  0.21645000  0.52149000  0.70097000  1.0
  H  H18  1  0.58299000  0.77730000  0.70112000  1.0
  H  H19  1  0.27742000  0.71589000  0.20112000  1.0
  H  H20  1  0.68420000  0.45524000  0.94142000  1.0
  H  H21  1  0.10262000  0.18442000  0.44135000  1.0
  H  H22  1  0.95538000  0.37449000  0.44140000  1.0
  H  H23  1  0.87436000  0.60247000  0.94157000  1.0
  H  H24  1  0.31580000  0.54475000  0.05858000  1.0
  H  H25  1  0.89738000  0.81559000  0.55864000  1.0
  H  H26  1  0.04462000  0.62550000  0.55861000  1.0
  H  H27  1  0.12565000  0.39753000  0.05843000  1.0
  C  C28  1  0.60455000  0.83131000  0.88864000  1.0
  C  C29  1  0.77962000  0.10451000  0.38822000  1.0
  C  C30  1  0.33187000  0.50707000  0.38843000  1.0
  C  C31  1  0.00731000  0.27969000  0.88823000  1.0
  C  C32  1  0.39547000  0.16868000  0.11137000  1.0
  C  C33  1  0.22037000  0.89548000  0.61179000  1.0
  C  C34  1  0.66814000  0.49293000  0.61157000  1.0
  C  C35  1  0.99267000  0.72031000  0.11177000  1.0
  C  C36  1  0.73537000  0.72462000  0.82056000  1.0
  C  C37  1  0.95427000  0.23565000  0.32024000  1.0
  C  C38  1  0.22506000  0.44427000  0.32039000  1.0
  C  C39  1  0.94443000  0.45437000  0.82034000  1.0
  C  C40  1  0.26463000  0.27538000  0.17944000  1.0
  C  C41  1  0.04574000  0.76434000  0.67977000  1.0
  C  C42  1  0.77494000  0.55574000  0.67960000  1.0
  C  C43  1  0.05557000  0.54563000  0.17966000  1.0
  C  C44  1  0.90693000  0.86460000  0.74997000  1.0
  C  C45  1  0.88478000  0.40699000  0.24969000  1.0
  C  C46  1  0.36525000  0.34363000  0.24966000  1.0
  C  C47  1  0.84350000  0.38518000  0.74963000  1.0
  C  C48  1  0.09306000  0.13540000  0.25003000  1.0
  C  C49  1  0.11521000  0.59300000  0.75031000  1.0
  C  C50  1  0.63475000  0.65637000  0.75034000  1.0
  C  C51  1  0.15650000  0.61482000  0.25037000  1.0
  C  C52  1  0.80496000  0.55458000  0.89018000  1.0
  C  C53  1  0.05473000  0.30510000  0.39005000  1.0
  C  C54  1  0.19504000  0.44542000  0.10982000  1.0
  C  C55  1  0.94528000  0.69491000  0.60995000  1.0
  O  O56  1  0.62814000  0.82713000  0.97808000  1.0
  O  O57  1  0.69433000  0.12775000  0.47775000  1.0
  O  O58  1  0.32764000  0.39421000  0.47788000  1.0
  O  O59  1  0.89415000  0.19447000  0.97764000  1.0
  O  O60  1  0.37185000  0.17285000  0.02192000  1.0
  O  O61  1  0.30568000  0.87226000  0.52225000  1.0
  O  O62  1  0.67235000  0.60580000  0.52212000  1.0
  O  O63  1  0.10586000  0.80553000  0.02235000  1.0
  O  O64  1  0.47788000  0.91925000  0.85143000  1.0
  O  O65  1  0.72911000  0.97770000  0.35107000  1.0
  O  O66  1  0.41976000  0.67088000  0.35132000  1.0
  O  O67  1  0.17124000  0.22885000  0.85103000  1.0
  O  O68  1  0.52212000  0.08077000  0.14856000  1.0
  O  O69  1  0.27088000  0.02231000  0.64894000  1.0
  O  O70  1  0.58025000  0.32913000  0.64868000  1.0
  O  O71  1  0.82877000  0.77113000  0.14897000  1.0
