# generated using pymatgen
data_CaH18C14(N2O5)2
_symmetry_space_group_name_H-M   'P 1'
_cell_length_a   9.01809000
_cell_length_b   9.01809000
_cell_length_c   11.22070000
_cell_angle_alpha   96.54620000
_cell_angle_beta   96.54630000
_cell_angle_gamma   94.90650000
_symmetry_Int_Tables_number   1
_chemical_formula_structural   CaH18C14(N2O5)2
_chemical_formula_sum   'Ca2 H36 C28 N8 O20'
_cell_volume   896.17486295
_cell_formula_units_Z   2
loop_
 _symmetry_equiv_pos_site_id
 _symmetry_equiv_pos_as_xyz
  1  'x, y, z'
loop_
 _atom_site_type_symbol
 _atom_site_label
 _atom_site_symmetry_multiplicity
 _atom_site_fract_x
 _atom_site_fract_y
 _atom_site_fract_z
 _atom_site_occupancy
  Ca  Ca0  1  0.08195000  0.91805000  0.25000000  1.0
  Ca  Ca1  1  0.91805000  0.08195000  0.75000000  1.0
  H  H2  1  0.70721000  0.82013000  0.31129000  1.0
  H  H3  1  0.17987000  0.29279000  0.18871000  1.0
  H  H4  1  0.29279000  0.17987000  0.68871000  1.0
  H  H5  1  0.82013000  0.70721000  0.81129000  1.0
  H  H6  1  0.55672000  0.17955000  0.08461000  1.0
  H  H7  1  0.82045000  0.44328000  0.41538000  1.0
  H  H8  1  0.44328000  0.82045000  0.91539000  1.0
  H  H9  1  0.17955000  0.55672000  0.58461000  1.0
  H  H10  1  0.13534000  0.03551000  0.50930000  1.0
  H  H11  1  0.96449000  0.86466000  0.99070000  1.0
  H  H12  1  0.86466000  0.96449000  0.49070000  1.0
  H  H13  1  0.03551000  0.13534000  0.00930000  1.0
  H  H14  1  0.16368000  0.86631000  0.51636000  1.0
  H  H15  1  0.13368000  0.83632000  0.98364000  1.0
  H  H16  1  0.83632000  0.13369000  0.48364000  1.0
  H  H17  1  0.86631000  0.16368000  0.01636000  1.0
  H  H18  1  0.48841000  0.60505000  0.36873000  1.0
  H  H19  1  0.39495000  0.51159000  0.13127000  1.0
  H  H20  1  0.51159000  0.39495000  0.63127000  1.0
  H  H21  1  0.60505000  0.48841000  0.86873000  1.0
  H  H22  1  0.32159000  0.68515000  0.39859000  1.0
  H  H23  1  0.31485000  0.67841000  0.10141000  1.0
  H  H24  1  0.67841000  0.31485000  0.60141000  1.0
  H  H25  1  0.68514000  0.32159000  0.89859000  1.0
  H  H26  1  0.63610000  0.78782000  0.53776000  1.0
  H  H27  1  0.21218000  0.36390000  0.96224000  1.0
  H  H28  1  0.36391000  0.21218000  0.46224000  1.0
  H  H29  1  0.78782000  0.63610000  0.03776000  1.0
  H  H30  1  0.48903000  0.67773000  0.58983000  1.0
  H  H31  1  0.32227000  0.51097000  0.91017000  1.0
  H  H32  1  0.51097000  0.32227000  0.41017000  1.0
  H  H33  1  0.67773000  0.48903000  0.08983000  1.0
  H  H34  1  0.46699000  0.86638000  0.56557000  1.0
  H  H35  1  0.13362000  0.53301000  0.93443000  1.0
  H  H36  1  0.53301000  0.13362000  0.43443000  1.0
  H  H37  1  0.86638000  0.46699000  0.06557000  1.0
  C  C38  1  0.72187000  0.02823000  0.14918000  1.0
  C  C39  1  0.97177000  0.27813000  0.35082000  1.0
  C  C40  1  0.27813000  0.97177000  0.85082000  1.0
  C  C41  1  0.02823000  0.72187000  0.64918000  1.0
  C  C42  1  0.59378000  0.96868000  0.20656000  1.0
  C  C43  1  0.03132000  0.40623000  0.29344000  1.0
  C  C44  1  0.40622000  0.03132000  0.79344000  1.0
  C  C45  1  0.96868000  0.59378000  0.70656000  1.0
  C  C46  1  0.44309000  0.99517000  0.19752000  1.0
  C  C47  1  0.00483000  0.55691000  0.30248000  1.0
  C  C48  1  0.55691000  0.00483000  0.80248000  1.0
  C  C49  1  0.99517000  0.44309000  0.69752000  1.0
  C  C50  1  0.36441000  0.10739000  0.13807000  1.0
  C  C51  1  0.89261000  0.63559000  0.36193000  1.0
  C  C52  1  0.63559000  0.89261000  0.86193000  1.0
  C  C53  1  0.10739000  0.36441000  0.63807000  1.0
  C  C54  1  0.46904000  0.82230000  0.31622000  1.0
  C  C55  1  0.17770000  0.53096000  0.18378000  1.0
  C  C56  1  0.53096000  0.17770000  0.68378000  1.0
  C  C57  1  0.82230000  0.46904000  0.81622000  1.0
  C  C58  1  0.44308000  0.70979000  0.40125000  1.0
  C  C59  1  0.29021000  0.55692000  0.09875000  1.0
  C  C60  1  0.55692000  0.29021000  0.59875000  1.0
  C  C61  1  0.70979000  0.44308000  0.90125000  1.0
  C  C62  1  0.51396000  0.76411000  0.53144000  1.0
  C  C63  1  0.23589000  0.48604000  0.96857000  1.0
  C  C64  1  0.48604000  0.23589000  0.46857000  1.0
  C  C65  1  0.76411000  0.51396000  0.03143000  1.0
  N  N66  1  0.60615000  0.85958000  0.28152000  1.0
  N  N67  1  0.14042000  0.39385000  0.21848000  1.0
  N  N68  1  0.39385000  0.14042000  0.71848000  1.0
  N  N69  1  0.85958000  0.60615000  0.78152000  1.0
  N  N70  1  0.36720000  0.90240000  0.26461000  1.0
  N  N71  1  0.09759000  0.63280000  0.23539000  1.0
  N  N72  1  0.63280000  0.09760000  0.73539000  1.0
  N  N73  1  0.90240000  0.36720000  0.76461000  1.0
  O  O74  1  0.84131000  0.96697000  0.15963000  1.0
  O  O75  1  0.03303000  0.15869000  0.34037000  1.0
  O  O76  1  0.15869000  0.03303000  0.84038000  1.0
  O  O77  1  0.96697000  0.84131000  0.65962000  1.0
  O  O78  1  0.70180000  0.14015000  0.08833000  1.0
  O  O79  1  0.85986000  0.29820000  0.41167000  1.0
  O  O80  1  0.29820000  0.85985000  0.91168000  1.0
  O  O81  1  0.14015000  0.70180000  0.58832000  1.0
  O  O82  1  0.43983000  0.20282000  0.08218000  1.0
  O  O83  1  0.79718000  0.56017000  0.41782000  1.0
  O  O84  1  0.56017000  0.79718000  0.91782000  1.0
  O  O85  1  0.20282000  0.43983000  0.58218000  1.0
  O  O86  1  0.22695000  0.11393000  0.14531000  1.0
  O  O87  1  0.88607000  0.77305000  0.35469000  1.0
  O  O88  1  0.77305000  0.88607000  0.85469000  1.0
  O  O89  1  0.11393000  0.22695000  0.64531000  1.0
  O  O90  1  0.17597000  0.95019000  0.46721000  1.0
  O  O91  1  0.04981000  0.82403000  0.03279000  1.0
  O  O92  1  0.82403000  0.04981000  0.53279000  1.0
  O  O93  1  0.95019000  0.17597000  0.96721000  1.0
