# generated using pymatgen
data_AgH4C5SNO3
_symmetry_space_group_name_H-M   'P 1'
_cell_length_a   6.68857000
_cell_length_b   6.98106000
_cell_length_c   7.73730000
_cell_angle_alpha   74.04500000
_cell_angle_beta   67.77490000
_cell_angle_gamma   84.82610000
_symmetry_Int_Tables_number   1
_chemical_formula_structural   AgH4C5SNO3
_chemical_formula_sum   'Ag2 H8 C10 S2 N2 O6'
_cell_volume   321.51690586
_cell_formula_units_Z   2
loop_
 _symmetry_equiv_pos_site_id
 _symmetry_equiv_pos_as_xyz
  1  'x, y, z'
loop_
 _atom_site_type_symbol
 _atom_site_label
 _atom_site_symmetry_multiplicity
 _atom_site_fract_x
 _atom_site_fract_y
 _atom_site_fract_z
 _atom_site_occupancy
  Ag  Ag0  1  0.50994000  0.62448000  0.17696000  1.0
  Ag  Ag1  1  0.49006000  0.37551000  0.82304000  1.0
  H  H2  1  0.09381000  0.95769000  0.63322000  1.0
  H  H3  1  0.90620000  0.04231000  0.36678000  1.0
  H  H4  1  0.88589000  0.09641000  0.91585000  1.0
  H  H5  1  0.11412000  0.90359000  0.08415000  1.0
  H  H6  1  0.95764000  0.45032000  0.89308000  1.0
  H  H7  1  0.04236000  0.54968000  0.10692000  1.0
  H  H8  1  0.22763000  0.65486000  0.58467000  1.0
  H  H9  1  0.77237000  0.34515000  0.41533000  1.0
  C  C10  1  0.26203000  0.23555000  0.46259000  1.0
  C  C11  1  0.73797000  0.76444000  0.53742000  1.0
  C  C12  1  0.11663000  0.11143000  0.62759000  1.0
  C  C13  1  0.88337000  0.88858000  0.37241000  1.0
  C  C14  1  0.00382000  0.18818000  0.78554000  1.0
  C  C15  1  0.99618000  0.81182000  0.21446000  1.0
  C  C16  1  0.04454000  0.38469000  0.77348000  1.0
  C  C17  1  0.95547000  0.61532000  0.22652000  1.0
  C  C18  1  0.19252000  0.49982000  0.60221000  1.0
  C  C19  1  0.80748000  0.50018000  0.39779000  1.0
  S  S20  1  0.41288000  0.14134000  0.25621000  1.0
  S  S21  1  0.58711000  0.85866000  0.74380000  1.0
  N  N22  1  0.29775000  0.42722000  0.44718000  1.0
  N  N23  1  0.70224000  0.57278000  0.55283000  1.0
  O  O24  1  0.63055000  0.22808000  0.17549000  1.0
  O  O25  1  0.36945000  0.77190000  0.82450000  1.0
  O  O26  1  0.39926000  0.92482000  0.33126000  1.0
  O  O27  1  0.60073000  0.07518000  0.66874000  1.0
  O  O28  1  0.29284000  0.21507000  0.12242000  1.0
  O  O29  1  0.70715000  0.78493000  0.87758000  1.0
