# generated using pymatgen
data_CuH9C9IN3
_symmetry_space_group_name_H-M   'P 1'
_cell_length_a   10.10490000
_cell_length_b   10.46970000
_cell_length_c   11.70850000
_cell_angle_alpha   77.26590000
_cell_angle_beta   73.56060000
_cell_angle_gamma   89.12830000
_symmetry_Int_Tables_number   1
_chemical_formula_structural   CuH9C9IN3
_chemical_formula_sum   'Cu4 H36 C36 I4 N12'
_cell_volume   1157.36918587
_cell_formula_units_Z   4
loop_
 _symmetry_equiv_pos_site_id
 _symmetry_equiv_pos_as_xyz
  1  'x, y, z'
loop_
 _atom_site_type_symbol
 _atom_site_label
 _atom_site_symmetry_multiplicity
 _atom_site_fract_x
 _atom_site_fract_y
 _atom_site_fract_z
 _atom_site_occupancy
  Cu  Cu0  1  0.19455000  0.65352000  0.63912000  1.0
  Cu  Cu1  1  0.80545000  0.34648000  0.36089000  1.0
  Cu  Cu2  1  0.34040000  0.81093000  0.43202000  1.0
  Cu  Cu3  1  0.65960000  0.18907000  0.56798000  1.0
  H  H4  1  0.92463000  0.24532000  0.13034000  1.0
  H  H5  1  0.07536000  0.75468000  0.86967000  1.0
  H  H6  1  0.04734000  0.52454000  0.28738000  1.0
  H  H7  1  0.95266000  0.47546000  0.71262000  1.0
  H  H8  1  0.12330000  0.32531000  0.93847000  1.0
  H  H9  1  0.87669000  0.67469000  0.06153000  1.0
  H  H10  1  0.82879000  0.95777000  0.53635000  1.0
  H  H11  1  0.17121000  0.04224000  0.46365000  1.0
  H  H12  1  0.49919000  0.03408000  0.81461000  1.0
  H  H13  1  0.50080000  0.96591000  0.18539000  1.0
  H  H14  1  0.82888000  0.72842000  0.65846000  1.0
  H  H15  1  0.17114000  0.27159000  0.34154000  1.0
  H  H16  1  0.63976000  0.49407000  0.20773000  1.0
  H  H17  1  0.36023000  0.50593000  0.79227000  1.0
  H  H18  1  0.74324000  0.54768000  0.51332000  1.0
  H  H19  1  0.25676000  0.45232000  0.48668000  1.0
  H  H20  1  0.56788000  0.72295000  0.53754000  1.0
  H  H21  1  0.43211000  0.27705000  0.46246000  1.0
  H  H22  1  0.21383000  0.70974000  0.13366000  1.0
  H  H23  1  0.78618000  0.29025000  0.86634000  1.0
  H  H24  1  0.43550000  0.60448000  0.94233000  1.0
  H  H25  1  0.56450000  0.39552000  0.05766000  1.0
  H  H26  1  0.31738000  0.72142000  0.90745000  1.0
  H  H27  1  0.68262000  0.27857000  0.09255000  1.0
  H  H28  1  0.41368000  0.87695000  0.99877000  1.0
  H  H29  1  0.58632000  0.12304000  0.00123000  1.0
  H  H30  1  0.28378000  0.54267000  0.28516000  1.0
  H  H31  1  0.71622000  0.45733000  0.71484000  1.0
  H  H32  1  0.41494000  0.49407000  0.16837000  1.0
  H  H33  1  0.58506000  0.50592000  0.83163000  1.0
  H  H34  1  0.38478000  0.76519000  0.22919000  1.0
  H  H35  1  0.61522000  0.23481000  0.77080000  1.0
  H  H36  1  0.61824000  0.82465000  0.07507000  1.0
  H  H37  1  0.38176000  0.17534000  0.92492000  1.0
  H  H38  1  0.62018000  0.66803000  0.04136000  1.0
  H  H39  1  0.37982000  0.33196000  0.95864000  1.0
  C  C40  1  0.99706000  0.32582000  0.12110000  1.0
  C  C41  1  0.00294000  0.67418000  0.87890000  1.0
  C  C42  1  0.06441000  0.48028000  0.20833000  1.0
  C  C43  1  0.93559000  0.51972000  0.79167000  1.0
  C  C44  1  0.10620000  0.37044000  0.01691000  1.0
  C  C45  1  0.89380000  0.62956000  0.98310000  1.0
  C  C46  1  0.17543000  0.52354000  0.10331000  1.0
  C  C47  1  0.82456000  0.47646000  0.89669000  1.0
  C  C48  1  0.75580000  0.92343000  0.62656000  1.0
  C  C49  1  0.24421000  0.07657000  0.37345000  1.0
  C  C50  1  0.57470000  0.96577000  0.78075000  1.0
  C  C51  1  0.42530000  0.03423000  0.21924000  1.0
  C  C52  1  0.75446000  0.79647000  0.69527000  1.0
  C  C53  1  0.24554000  0.20354000  0.30473000  1.0
  C  C54  1  0.57544000  0.83894000  0.85039000  1.0
  C  C55  1  0.42455000  0.16106000  0.14961000  1.0
  C  C56  1  0.62275000  0.54525000  0.28203000  1.0
  C  C57  1  0.37725000  0.45475000  0.71797000  1.0
  C  C58  1  0.67979000  0.57496000  0.45106000  1.0
  C  C59  1  0.32021000  0.42504000  0.54894000  1.0
  C  C60  1  0.58512000  0.67158000  0.46334000  1.0
  C  C61  1  0.41488000  0.32842000  0.53666000  1.0
  C  C62  1  0.52929000  0.64471000  0.29158000  1.0
  C  C63  1  0.47071000  0.35528000  0.70841000  1.0
  C  C64  1  0.27566000  0.62990000  0.10108000  1.0
  C  C65  1  0.72434000  0.37009000  0.89892000  1.0
  C  C66  1  0.37426000  0.68417000  0.97431000  1.0
  C  C67  1  0.62574000  0.31583000  0.02568000  1.0
  C  C68  1  0.47420000  0.79279000  0.97545000  1.0
  C  C69  1  0.52580000  0.20721000  0.02455000  1.0
  C  C70  1  0.35644000  0.57796000  0.19389000  1.0
  C  C71  1  0.64356000  0.42204000  0.80610000  1.0
  C  C72  1  0.45203000  0.68787000  0.19834000  1.0
  C  C73  1  0.54796000  0.31213000  0.80166000  1.0
  C  C74  1  0.55161000  0.74426000  0.07119000  1.0
  C  C75  1  0.44839000  0.25573000  0.92881000  1.0
  I  I76  1  0.09429000  0.70476000  0.44533000  1.0
  I  I77  1  0.90571000  0.29524000  0.55467000  1.0
  I  I78  1  0.32345000  0.86298000  0.65142000  1.0
  I  I79  1  0.67655000  0.13702000  0.34859000  1.0
  N  N80  1  0.97490000  0.38246000  0.21734000  1.0
  N  N81  1  0.02510000  0.61754000  0.78266000  1.0
  N  N82  1  0.19489000  0.46937000  0.00642000  1.0
  N  N83  1  0.80510000  0.53063000  0.99358000  1.0
  N  N84  1  0.66468000  0.00888000  0.66959000  1.0
  N  N85  1  0.33533000  0.99112000  0.33041000  1.0
  N  N86  1  0.66582000  0.75352000  0.80667000  1.0
  N  N87  1  0.33418000  0.24648000  0.19333000  1.0
  N  N88  1  0.69579000  0.50667000  0.36286000  1.0
  N  N89  1  0.30421000  0.49333000  0.63714000  1.0
  N  N90  1  0.50529000  0.70467000  0.38692000  1.0
  N  N91  1  0.49471000  0.29533000  0.61308000  1.0
