# generated using pymatgen
data_Zn4H12C30N2O17
_symmetry_space_group_name_H-M   'P 1'
_cell_length_a   20.87570000
_cell_length_b   20.87560000
_cell_length_c   20.94899282
_cell_angle_alpha   112.37478105
_cell_angle_beta   112.37514612
_cell_angle_gamma   103.55000000
_symmetry_Int_Tables_number   1
_chemical_formula_structural   Zn4H12C30N2O17
_chemical_formula_sum   'Zn8 H24 C60 N4 O34'
_cell_volume   6996.91897104
_cell_formula_units_Z   2
loop_
 _symmetry_equiv_pos_site_id
 _symmetry_equiv_pos_as_xyz
  1  'x, y, z'
loop_
 _atom_site_type_symbol
 _atom_site_label
 _atom_site_symmetry_multiplicity
 _atom_site_fract_x
 _atom_site_fract_y
 _atom_site_fract_z
 _atom_site_occupancy
  Zn  Zn0  1  0.29473000  0.72617000  0.93045000  1.0
  Zn  Zn1  1  0.70527000  0.27383000  0.06956000  1.0
  Zn  Zn2  1  0.27383000  0.70527000  0.06956000  1.0
  Zn  Zn3  1  0.72617000  0.29474000  0.93045000  1.0
  Zn  Zn4  1  0.13817000  0.70547000  0.92947000  1.0
  Zn  Zn5  1  0.86183000  0.29453000  0.07053000  1.0
  Zn  Zn6  1  0.29452000  0.86183000  0.07052000  1.0
  Zn  Zn7  1  0.70547000  0.13817000  0.92947000  1.0
  H  H8  1  0.61621000  0.08511000  0.13475000  1.0
  H  H9  1  0.38378000  0.91488000  0.86524000  1.0
  H  H10  1  0.91481000  0.38384000  0.86521000  1.0
  H  H11  1  0.08519000  0.61616000  0.13479000  1.0
  H  H12  1  0.50340000  0.80769000  0.88743000  1.0
  H  H13  1  0.42981000  0.81017000  0.81110000  1.0
  H  H14  1  0.50733000  0.79734000  0.80127000  1.0
  H  H15  1  0.52913000  0.93381000  0.84359000  1.0
  H  H16  1  0.60146000  0.93182000  0.92048000  1.0
  H  H17  1  0.57019000  0.18983000  0.18890000  1.0
  H  H18  1  0.49660000  0.19231000  0.11257000  1.0
  H  H19  1  0.49266000  0.20265000  0.19872000  1.0
  H  H20  1  0.39854000  0.06818000  0.07952000  1.0
  H  H21  1  0.47086000  0.06618000  0.15640000  1.0
  H  H22  1  0.19228000  0.49650000  0.11240000  1.0
  H  H23  1  0.18985000  0.57007000  0.18879000  1.0
  H  H24  1  0.20268000  0.49252000  0.19855000  1.0
  H  H25  1  0.06623000  0.47073000  0.15630000  1.0
  H  H26  1  0.06818000  0.39844000  0.07936000  1.0
  H  H27  1  0.81015000  0.42993000  0.81121000  1.0
  H  H28  1  0.80772000  0.50350000  0.88760000  1.0
  H  H29  1  0.79732000  0.50748000  0.80145000  1.0
  H  H30  1  0.93182000  0.60156000  0.92064000  1.0
  H  H31  1  0.93377000  0.52927000  0.84370000  1.0
  C  C32  1  0.11012000  0.61109000  0.99957000  1.0
  C  C33  1  0.88988000  0.38891000  0.00043000  1.0
  C  C34  1  0.38892000  0.88988000  0.00044000  1.0
  C  C35  1  0.61108000  0.11012000  0.99956000  1.0
  C  C36  1  0.14069000  0.64054000  0.77983000  1.0
  C  C37  1  0.85932000  0.35947000  0.22017000  1.0
  C  C38  1  0.35946000  0.85932000  0.22017000  1.0
  C  C39  1  0.64054000  0.14068000  0.77983000  1.0
  C  C40  1  0.14092000  0.85907000  0.00000000  1.0
  C  C41  1  0.85908000  0.14092000  0.00000000  1.0
  C  C42  1  0.35916000  0.64084000  0.00000000  1.0
  C  C43  1  0.64084000  0.35915000  0.00000000  1.0
  C  C44  1  0.40296000  0.59704000  0.00000000  1.0
  C  C45  1  0.59705000  0.40296000  0.00001000  1.0
  C  C46  1  0.44035000  0.55967000  0.00001000  1.0
  C  C47  1  0.55966000  0.44035000  0.00001000  1.0
  C  C48  1  0.48120000  0.51881000  0.00001000  1.0
  C  C49  1  0.51881000  0.48120000  0.00001000  1.0
  C  C50  1  0.53013000  0.95789000  0.02410000  1.0
  C  C51  1  0.46988000  0.04211000  0.97590000  1.0
  C  C52  1  0.04206000  0.46985000  0.97582000  1.0
  C  C53  1  0.95794000  0.53015000  0.02418000  1.0
  C  C54  1  0.56376000  0.04767000  0.07465000  1.0
  C  C55  1  0.43623000  0.95232000  0.92534000  1.0
  C  C56  1  0.95229000  0.43627000  0.92533000  1.0
  C  C57  1  0.04771000  0.56373000  0.07467000  1.0
  C  C58  1  0.55332000  0.05106000  0.99808000  1.0
  C  C59  1  0.44667000  0.94893000  0.00191000  1.0
  C  C60  1  0.94893000  0.44666000  0.00190000  1.0
  C  C61  1  0.05107000  0.55335000  0.99810000  1.0
  C  C62  1  0.51960000  0.96038000  0.94640000  1.0
  C  C63  1  0.48039000  0.03961000  0.05359000  1.0
  C  C64  1  0.03962000  0.48033000  0.05353000  1.0
  C  C65  1  0.96038000  0.51967000  0.94647000  1.0
  C  C66  1  0.40369000  0.90282000  0.30727000  1.0
  C  C67  1  0.59632000  0.09719000  0.69274000  1.0
  C  C68  1  0.09719000  0.59631000  0.69273000  1.0
  C  C69  1  0.90281000  0.40369000  0.30726000  1.0
  C  C70  1  0.44089000  0.94028000  0.38152000  1.0
  C  C71  1  0.55911000  0.05974000  0.61848000  1.0
  C  C72  1  0.05974000  0.55910000  0.61848000  1.0
  C  C73  1  0.94026000  0.44090000  0.38152000  1.0
  C  C74  1  0.48143000  0.98117000  0.46266000  1.0
  C  C75  1  0.51858000  0.01884000  0.53734000  1.0
  C  C76  1  0.01884000  0.51858000  0.53734000  1.0
  C  C77  1  0.98116000  0.48143000  0.46265000  1.0
  C  C78  1  0.09707000  0.90292000  0.00000000  1.0
  C  C79  1  0.90293000  0.09707000  0.00000000  1.0
  C  C80  1  0.05968000  0.94033000  0.00000000  1.0
  C  C81  1  0.94032000  0.05968000  0.00000000  1.0
  C  C82  1  0.01880000  0.98119000  0.00000000  1.0
  C  C83  1  0.98119000  0.01880000  0.00000000  1.0
  C  C84  1  0.53914000  0.91525000  0.88775000  1.0
  C  C85  1  0.49222000  0.82786000  0.84470000  1.0
  C  C86  1  0.46086000  0.08475000  0.11225000  1.0
  C  C87  1  0.50778000  0.17214000  0.15530000  1.0
  C  C88  1  0.08476000  0.46075000  0.11212000  1.0
  C  C89  1  0.17216000  0.50767000  0.15516000  1.0
  C  C90  1  0.91524000  0.53925000  0.88788000  1.0
  C  C91  1  0.82784000  0.49233000  0.84484000  1.0
  N  N92  1  0.56830000  0.91646000  0.05455000  1.0
  N  N93  1  0.43170000  0.08353000  0.94544000  1.0
  N  N94  1  0.08342000  0.43166000  0.94527000  1.0
  N  N95  1  0.91658000  0.56834000  0.05473000  1.0
  O  O96  1  0.25065000  0.74935000  0.00000000  1.0
  O  O97  1  0.74935000  0.25065000  0.00000000  1.0
  O  O98  1  0.17958000  0.64067000  0.05737000  1.0
  O  O99  1  0.82042000  0.35933000  0.94263000  1.0
  O  O100  1  0.35933000  0.82042000  0.94263000  1.0
  O  O101  1  0.64067000  0.17958000  0.05737000  1.0
  O  O102  1  0.10158000  0.65321000  0.81345000  1.0
  O  O103  1  0.89843000  0.34679000  0.18655000  1.0
  O  O104  1  0.34678000  0.89843000  0.18655000  1.0
  O  O105  1  0.65321000  0.10157000  0.81345000  1.0
  O  O106  1  0.10198000  0.78591000  0.95245000  1.0
  O  O107  1  0.89802000  0.21409000  0.04755000  1.0
  O  O108  1  0.21408000  0.89802000  0.04755000  1.0
  O  O109  1  0.78592000  0.10198000  0.95245000  1.0
  O  O110  1  0.33363000  0.64938000  0.04772000  1.0
  O  O111  1  0.66637000  0.35062000  0.95228000  1.0
  O  O112  1  0.35062000  0.66636000  0.95227000  1.0
  O  O113  1  0.64938000  0.33364000  0.04773000  1.0
  O  O114  1  0.21342000  0.66257000  0.81419000  1.0
  O  O115  1  0.78658000  0.33743000  0.18581000  1.0
  O  O116  1  0.33743000  0.78658000  0.18581000  1.0
  O  O117  1  0.66257000  0.21342000  0.81419000  1.0
  O  O118  1  0.08547000  0.62583000  0.94370000  1.0
  O  O119  1  0.91454000  0.37417000  0.05630000  1.0
  O  O120  1  0.37417000  0.91453000  0.05630000  1.0
  O  O121  1  0.62583000  0.08547000  0.94370000  1.0
  O  O122  1  0.63299000  0.92968000  0.06279000  1.0
  O  O123  1  0.53488000  0.87310000  0.07064000  1.0
  O  O124  1  0.36700000  0.07031000  0.93720000  1.0
  O  O125  1  0.46512000  0.12689000  0.92935000  1.0
  O  O126  1  0.07012000  0.36691000  0.93693000  1.0
  O  O127  1  0.12681000  0.46510000  0.92923000  1.0
  O  O128  1  0.92988000  0.63309000  0.06307000  1.0
  O  O129  1  0.87319000  0.53490000  0.07077000  1.0
