# generated using pymatgen
data_Zr6H26C50NO32F5
_symmetry_space_group_name_H-M   'P 1'
_cell_length_a   14.77530000
_cell_length_b   14.78630078
_cell_length_c   14.79360000
_cell_angle_alpha   90.02862736
_cell_angle_beta   119.92370000
_cell_angle_gamma   119.88091702
_symmetry_Int_Tables_number   1
_chemical_formula_structural   Zr6H26C50NO32F5
_chemical_formula_sum   'Zr6 H26 C50 N1 O32 F5'
_cell_volume   2291.52623487
_cell_formula_units_Z   1
loop_
 _symmetry_equiv_pos_site_id
 _symmetry_equiv_pos_as_xyz
  1  'x, y, z'
loop_
 _atom_site_type_symbol
 _atom_site_label
 _atom_site_symmetry_multiplicity
 _atom_site_fract_x
 _atom_site_fract_y
 _atom_site_fract_z
 _atom_site_occupancy
  Zr  Zr0  1  0.49609000  0.61761000  0.11715000  1.0
  Zr  Zr1  1  0.50387000  0.38257000  0.88325000  1.0
  Zr  Zr2  1  0.73799000  0.62119000  0.12075000  1.0
  Zr  Zr3  1  0.26009000  0.37826000  0.87826000  1.0
  Zr  Zr4  1  0.49845000  0.37947000  0.11869000  1.0
  Zr  Zr5  1  0.49809000  0.61816000  0.87876000  1.0
  H  H6  1  0.68452000  0.59414000  0.28139000  1.0
  H  H7  1  0.31401000  0.21770000  0.90560000  1.0
  H  H8  1  0.68980000  0.59575000  0.90794000  1.0
  H  H9  1  0.30789000  0.59114000  0.90246000  1.0
  H  H10  1  0.48381000  0.63640000  0.40985000  1.0
  H  H11  1  0.48778000  0.34732000  0.40544000  1.0
  H  H12  1  0.48678000  0.63262000  0.58140000  1.0
  H  H13  1  0.51558000  0.92461000  0.15211000  1.0
  H  H14  1  0.51129000  0.91813000  0.85896000  1.0
  H  H15  1  0.51982000  0.09691000  0.15016000  1.0
  H  H16  1  0.22503000  0.08787000  0.14988000  1.0
  H  H17  1  0.94023000  0.09336000  0.85865000  1.0
  H  H18  1  0.05013000  0.91908000  0.14613000  1.0
  H  H19  1  0.22529000  0.63330000  0.57094000  1.0
  H  H20  1  0.94020000  0.34652000  0.58032000  1.0
  H  H21  1  0.05070000  0.63017000  0.40245000  1.0
  H  H22  1  0.04882000  0.91282000  0.40368000  1.0
  H  H23  1  0.70738000  0.97229000  0.37788000  1.0
  H  H24  1  0.70763000  0.88632000  0.46260000  1.0
  H  H25  1  0.88676000  0.05528000  0.63253000  1.0
  H  H26  1  0.88714000  0.14113000  0.54789000  1.0
  H  H27  1  0.93320000  0.34606000  0.86224000  1.0
  H  H28  1  0.23461000  0.63805000  0.15062000  1.0
  H  H29  1  0.77178000  0.35448000  0.87109000  1.0
  H  H30  1  0.32426000  0.15490000  0.64410000  1.0
  H  H31  1  0.26686000  0.05030000  0.53409000  1.0
  C  C32  1  0.48714000  0.49408000  0.29706000  1.0
  C  C33  1  0.51238000  0.20235000  0.00421000  1.0
  C  C34  1  0.49393000  0.49336000  0.69312000  1.0
  C  C35  1  0.50448000  0.80573000  0.00211000  1.0
  C  C36  1  0.79787000  0.80673000  0.29808000  1.0
  C  C37  1  0.19230000  0.49189000  0.00075000  1.0
  C  C38  1  0.19969000  0.19915000  0.69311000  1.0
  C  C39  1  0.80972000  0.50197000  0.01126000  1.0
  C  C40  1  0.79977000  0.49377000  0.29980000  1.0
  C  C41  1  0.79916000  0.80882000  0.00176000  1.0
  C  C42  1  0.19527000  0.49319000  0.68904000  1.0
  C  C43  1  0.19537000  0.19882000  0.00286000  1.0
  C  C44  1  0.48877000  0.48925000  0.58958000  1.0
  C  C45  1  0.48548000  0.49222000  0.39737000  1.0
  C  C46  1  0.48830000  0.40916000  0.53757000  1.0
  C  C47  1  0.48484000  0.57281000  0.44655000  1.0
  C  C48  1  0.48684000  0.40984000  0.44310000  1.0
  C  C49  1  0.48643000  0.57064000  0.54112000  1.0
  C  C50  1  0.51617000  0.10325000  0.00408000  1.0
  C  C51  1  0.51186000  0.91044000  0.00524000  1.0
  C  C52  1  0.51508000  0.05146000  0.92333000  1.0
  C  C53  1  0.51550000  0.96123000  0.08825000  1.0
  C  C54  1  0.51292000  0.95656000  0.92303000  1.0
  C  C55  1  0.51769000  0.05617000  0.08703000  1.0
  C  C56  1  0.89852000  0.91144000  0.00167000  1.0
  C  C57  1  0.09334000  0.10043000  0.00444000  1.0
  C  C58  1  0.87033000  0.96298000  0.92167000  1.0
  C  C59  1  0.12482000  0.05191000  0.08622000  1.0
  C  C60  1  0.96532000  0.05589000  0.92217000  1.0
  C  C61  1  0.02828000  0.95893000  0.08415000  1.0
  C  C62  1  0.89895000  0.48855000  0.39732000  1.0
  C  C63  1  0.09347000  0.49059000  0.58608000  1.0
  C  C64  1  0.87055000  0.40851000  0.44877000  1.0
  C  C65  1  0.12509000  0.57043000  0.53566000  1.0
  C  C66  1  0.96540000  0.40882000  0.54168000  1.0
  C  C67  1  0.02870000  0.56874000  0.44281000  1.0
  C  C68  1  0.89859000  0.90770000  0.39746000  1.0
  C  C69  1  0.10128000  0.10104000  0.59331000  1.0
  C  C70  1  0.87246000  0.96024000  0.45037000  1.0
  C  C71  1  0.12927000  0.04755000  0.53982000  1.0
  C  C72  1  0.97138000  0.05318000  0.54442000  1.0
  C  C73  1  0.02700000  0.95313000  0.44362000  1.0
  C  C74  1  0.76881000  0.95889000  0.44974000  1.0
  C  C75  1  0.88140000  0.06496000  0.55667000  1.0
  C  C76  1  0.91109000  0.49989000  0.01388000  1.0
  C  C77  1  0.09343000  0.49174000  0.00543000  1.0
  C  C78  1  0.04278000  0.57859000  0.09251000  1.0
  C  C79  1  0.96288000  0.41101000  0.92668000  1.0
  C  C80  1  0.13333000  0.57545000  0.08914000  1.0
  C  C81  1  0.87382000  0.41571000  0.93155000  1.0
  N  N82  1  0.25096000  0.08318000  0.57976000  1.0
  O  O83  1  0.48899000  0.57211000  0.25932000  1.0
  O  O84  1  0.51211000  0.24355000  0.92841000  1.0
  O  O85  1  0.50030000  0.42082000  0.73731000  1.0
  O  O86  1  0.49981000  0.76458000  0.07678000  1.0
  O  O87  1  0.83487000  0.76590000  0.25892000  1.0
  O  O88  1  0.15408000  0.41665000  0.92207000  1.0
  O  O89  1  0.16206000  0.23799000  0.73371000  1.0
  O  O90  1  0.84420000  0.57939000  0.08522000  1.0
  O  O91  1  0.68302000  0.41914000  0.25992000  1.0
  O  O92  1  0.68246000  0.76549000  0.92375000  1.0
  O  O93  1  0.31099000  0.57167000  0.72938000  1.0
  O  O94  1  0.31099000  0.23583000  0.07834000  1.0
  O  O95  1  0.83883000  0.77076000  0.07916000  1.0
  O  O96  1  0.15825000  0.41776000  0.72987000  1.0
  O  O97  1  0.15853000  0.23714000  0.92482000  1.0
  O  O98  1  0.83940000  0.57386000  0.26458000  1.0
  O  O99  1  0.68154000  0.76630000  0.25950000  1.0
  O  O100  1  0.69454000  0.42593000  0.93268000  1.0
  O  O101  1  0.31816000  0.24073000  0.73578000  1.0
  O  O102  1  0.30847000  0.56970000  0.07587000  1.0
  O  O103  1  0.50102000  0.76449000  0.92367000  1.0
  O  O104  1  0.48872000  0.41817000  0.25814000  1.0
  O  O105  1  0.50723000  0.23763000  0.07922000  1.0
  O  O106  1  0.49373000  0.57088000  0.73104000  1.0
  O  O107  1  0.36179000  0.56473000  0.92953000  1.0
  O  O108  1  0.63583000  0.56900000  0.93423000  1.0
  O  O109  1  0.36686000  0.29779000  0.93328000  1.0
  O  O110  1  0.63115000  0.56677000  0.20129000  1.0
  O  O111  1  0.60010000  0.45197000  0.05141000  1.0
  O  O112  1  0.39835000  0.44863000  0.04765000  1.0
  O  O113  1  0.40152000  0.45001000  0.85115000  1.0
  O  O114  1  0.59589000  0.64793000  0.04800000  1.0
  F  F115  1  0.48986000  0.32715000  0.57806000  1.0
  F  F116  1  0.51493000  0.09167000  0.84086000  1.0
  F  F117  1  0.74802000  0.92352000  0.83936000  1.0
  F  F118  1  0.74823000  0.32738000  0.41034000  1.0
  F  F119  1  0.08735000  0.66218000  0.17527000  1.0
