# generated using pymatgen
data_AlH5C15N2O5
_symmetry_space_group_name_H-M   'P 1'
_cell_length_a   6.71342000
_cell_length_b   19.67590000
_cell_length_c   20.76280000
_cell_angle_alpha   101.78700000
_cell_angle_beta   93.07160000
_cell_angle_gamma   92.84610000
_symmetry_Int_Tables_number   1
_chemical_formula_structural   AlH5C15N2O5
_chemical_formula_sum   'Al4 H20 C60 N8 O20'
_cell_volume   2675.76675962
_cell_formula_units_Z   4
loop_
 _symmetry_equiv_pos_site_id
 _symmetry_equiv_pos_as_xyz
  1  'x, y, z'
loop_
 _atom_site_type_symbol
 _atom_site_label
 _atom_site_symmetry_multiplicity
 _atom_site_fract_x
 _atom_site_fract_y
 _atom_site_fract_z
 _atom_site_occupancy
  Al  Al0  1  0.75646000  0.24986000  0.75026000  1.0
  Al  Al1  1  0.24355000  0.75012000  0.24973000  1.0
  Al  Al2  1  0.25650000  0.25052000  0.75012000  1.0
  Al  Al3  1  0.74350000  0.74947000  0.24987000  1.0
  H  H4  1  0.22351000  0.56361000  0.11573000  1.0
  H  H5  1  0.77650000  0.43637000  0.88426000  1.0
  H  H6  1  0.26785000  0.93748000  0.38567000  1.0
  H  H7  1  0.73219000  0.06251000  0.61432000  1.0
  H  H8  1  0.05773000  0.56498000  0.61390000  1.0
  H  H9  1  0.94214000  0.43506000  0.38613000  1.0
  H  H10  1  0.51560000  0.93566000  0.88642000  1.0
  H  H11  1  0.48447000  0.06434000  0.11358000  1.0
  H  H12  1  0.66331000  0.63475000  0.05483000  1.0
  H  H13  1  0.33671000  0.36524000  0.94516000  1.0
  H  H14  1  0.82689000  0.86284000  0.44298000  1.0
  H  H15  1  0.17313000  0.13715000  0.55701000  1.0
  H  H16  1  0.67346000  0.43557000  0.48588000  1.0
  H  H17  1  0.32643000  0.56448000  0.51416000  1.0
  H  H18  1  0.19611000  0.06420000  0.01022000  1.0
  H  H19  1  0.80396000  0.93580000  0.98978000  1.0
  H  H20  1  0.51845000  0.33832000  0.74447000  1.0
  H  H21  1  0.48156000  0.66167000  0.25552000  1.0
  H  H22  1  0.99759000  0.16236000  0.75679000  1.0
  H  H23  1  0.00242000  0.83763000  0.24319000  1.0
  C  C24  1  0.51420000  0.17552000  0.82850000  1.0
  C  C25  1  0.48579000  0.82446000  0.17149000  1.0
  C  C26  1  0.99703000  0.32483000  0.67191000  1.0
  C  C27  1  0.00297000  0.67518000  0.32809000  1.0
  C  C28  1  0.47081000  0.15953000  0.65276000  1.0
  C  C29  1  0.52921000  0.84046000  0.34723000  1.0
  C  C30  1  0.04167000  0.34100000  0.84766000  1.0
  C  C31  1  0.95834000  0.65900000  0.15234000  1.0
  C  C32  1  0.94591000  0.60382000  0.09078000  1.0
  C  C33  1  0.05410000  0.39617000  0.90921000  1.0
  C  C34  1  0.54463000  0.89555000  0.40880000  1.0
  C  C35  1  0.45539000  0.10443000  0.59119000  1.0
  C  C36  1  0.23301000  0.45333000  0.01187000  1.0
  C  C37  1  0.76699000  0.54666000  0.98812000  1.0
  C  C38  1  0.26885000  0.04807000  0.48966000  1.0
  C  C39  1  0.73115000  0.95192000  0.51033000  1.0
  C  C40  1  0.22008000  0.40177000  0.95505000  1.0
  C  C41  1  0.77993000  0.59822000  0.04494000  1.0
  C  C42  1  0.28723000  0.09977000  0.54634000  1.0
  C  C43  1  0.71279000  0.90022000  0.45365000  1.0
  C  C44  1  0.90426000  0.44230000  0.92008000  1.0
  C  C45  1  0.09574000  0.55769000  0.07991000  1.0
  C  C46  1  0.60246000  0.05739000  0.57933000  1.0
  C  C47  1  0.39755000  0.94260000  0.42066000  1.0
  C  C48  1  0.91691000  0.49687000  0.97628000  1.0
  C  C49  1  0.08308000  0.50312000  0.02371000  1.0
  C  C50  1  0.58437000  0.00272000  0.52316000  1.0
  C  C51  1  0.41565000  0.99727000  0.47683000  1.0
  C  C52  1  0.03344000  0.53622000  0.56300000  1.0
  C  C53  1  0.96644000  0.46382000  0.43704000  1.0
  C  C54  1  0.50972000  0.96415000  0.93720000  1.0
  C  C55  1  0.49037000  0.03585000  0.06280000  1.0
  C  C56  1  0.85474000  0.54621000  0.51448000  1.0
  C  C57  1  0.14514000  0.45383000  0.48555000  1.0
  C  C58  1  0.33711000  0.95374000  0.98313000  1.0
  C  C59  1  0.66295000  0.04626000  0.01688000  1.0
  C  C60  1  0.00320000  0.63013000  0.37480000  1.0
  C  C61  1  0.99678000  0.36989000  0.62522000  1.0
  C  C62  1  0.49052000  0.86934000  0.12467000  1.0
  C  C63  1  0.50950000  0.13066000  0.87532000  1.0
  C  C64  1  0.18206000  0.53526000  0.50792000  1.0
  C  C65  1  0.81782000  0.46478000  0.49212000  1.0
  C  C66  1  0.66967000  0.96489000  0.99440000  1.0
  C  C67  1  0.33040000  0.03511000  0.00560000  1.0
  C  C68  1  0.00729000  0.54528000  0.45757000  1.0
  C  C69  1  0.99261000  0.45476000  0.54247000  1.0
  C  C70  1  0.50137000  0.95439000  0.04219000  1.0
  C  C71  1  0.49868000  0.04561000  0.95781000  1.0
  C  C72  1  0.00818000  0.59110000  0.41332000  1.0
  C  C73  1  0.99176000  0.40893000  0.58671000  1.0
  C  C74  1  0.49826000  0.90842000  0.08626000  1.0
  C  C75  1  0.50179000  0.09158000  0.91373000  1.0
  C  C76  1  0.39931000  0.45797000  0.05863000  1.0
  C  C77  1  0.60069000  0.54202000  0.94136000  1.0
  C  C78  1  0.09977000  0.04430000  0.44419000  1.0
  C  C79  1  0.90024000  0.95569000  0.55580000  1.0
  C  C80  1  0.70901000  0.59605000  0.52911000  1.0
  C  C81  1  0.29090000  0.40400000  0.47092000  1.0
  C  C82  1  0.17152000  0.90427000  0.96635000  1.0
  C  C83  1  0.82855000  0.09573000  0.03364000  1.0
  N  N84  1  0.53609000  0.46263000  0.09691000  1.0
  N  N85  1  0.46392000  0.53737000  0.90309000  1.0
  N  N86  1  0.96037000  0.04039000  0.40709000  1.0
  N  N87  1  0.03964000  0.95959000  0.59290000  1.0
  N  N88  1  0.59015000  0.63756000  0.54076000  1.0
  N  N89  1  0.40975000  0.36248000  0.45927000  1.0
  N  N90  1  0.03572000  0.86323000  0.95341000  1.0
  N  N91  1  0.96435000  0.13677000  0.04659000  1.0
  O  O92  1  0.30913000  0.18682000  0.67038000  1.0
  O  O93  1  0.69087000  0.81316000  0.32961000  1.0
  O  O94  1  0.87008000  0.32626000  0.81731000  1.0
  O  O95  1  0.12992000  0.67373000  0.18268000  1.0
  O  O96  1  0.68539000  0.19937000  0.81698000  1.0
  O  O97  1  0.31461000  0.80062000  0.18300000  1.0
  O  O98  1  0.16654000  0.31448000  0.69760000  1.0
  O  O99  1  0.83346000  0.68551000  0.30240000  1.0
  O  O100  1  0.64267000  0.17358000  0.68309000  1.0
  O  O101  1  0.35734000  0.82641000  0.31690000  1.0
  O  O102  1  0.20430000  0.31437000  0.83011000  1.0
  O  O103  1  0.79572000  0.68562000  0.16988000  1.0
  O  O104  1  0.82691000  0.30032000  0.68366000  1.0
  O  O105  1  0.17310000  0.69968000  0.31634000  1.0
  O  O106  1  0.34573000  0.18631000  0.80241000  1.0
  O  O107  1  0.65428000  0.81367000  0.19758000  1.0
  O  O108  1  0.51369000  0.29253000  0.75504000  1.0
  O  O109  1  0.48631000  0.70746000  0.24494000  1.0
  O  O110  1  0.99991000  0.20784000  0.74553000  1.0
  O  O111  1  0.00009000  0.79215000  0.25446000  1.0
