# generated using pymatgen
data_UH5C8NO8
_symmetry_space_group_name_H-M   'P 1'
_cell_length_a   7.94307000
_cell_length_b   7.94305000
_cell_length_c   8.93809000
_cell_angle_alpha   101.72700000
_cell_angle_beta   101.72800000
_cell_angle_gamma   96.86120000
_symmetry_Int_Tables_number   1
_chemical_formula_structural   UH5C8NO8
_chemical_formula_sum   'U2 H10 C16 N2 O16'
_cell_volume   532.96919436
_cell_formula_units_Z   2
loop_
 _symmetry_equiv_pos_site_id
 _symmetry_equiv_pos_as_xyz
  1  'x, y, z'
loop_
 _atom_site_type_symbol
 _atom_site_label
 _atom_site_symmetry_multiplicity
 _atom_site_fract_x
 _atom_site_fract_y
 _atom_site_fract_z
 _atom_site_occupancy
  U  U0  1  0.62538000  0.37461000  0.25001000  1.0
  U  U1  1  0.37461000  0.62538000  0.75000000  1.0
  H  H2  1  0.94034000  0.05966000  0.25000000  1.0
  H  H3  1  0.05966000  0.94034000  0.75000000  1.0
  H  H4  1  0.02839000  0.54352000  0.14774000  1.0
  H  H5  1  0.45647000  0.97161000  0.35226000  1.0
  H  H6  1  0.97162000  0.45648000  0.85226000  1.0
  H  H7  1  0.54353000  0.02839000  0.64774000  1.0
  H  H8  1  0.82388000  0.76446000  0.14698000  1.0
  H  H9  1  0.23554000  0.17612000  0.35302000  1.0
  H  H10  1  0.17612000  0.23554000  0.85302000  1.0
  H  H11  1  0.76446000  0.82388000  0.64698000  1.0
  C  C12  1  0.41430000  0.02952000  0.96923000  1.0
  C  C13  1  0.97048000  0.58569000  0.53077000  1.0
  C  C14  1  0.58569000  0.97047000  0.03077000  1.0
  C  C15  1  0.02953000  0.41431000  0.46923000  1.0
  C  C16  1  0.38356000  0.61644000  0.25000000  1.0
  C  C17  1  0.61644000  0.38356000  0.75000000  1.0
  C  C18  1  0.25742000  0.74259000  0.25000000  1.0
  C  C19  1  0.74259000  0.25742000  0.75000000  1.0
  C  C20  1  0.07857000  0.68203000  0.19233000  1.0
  C  C21  1  0.31797000  0.92143000  0.30767000  1.0
  C  C22  1  0.92143000  0.31797000  0.80767000  1.0
  C  C23  1  0.68204000  0.07857000  0.69233000  1.0
  C  C24  1  0.96430000  0.80066000  0.19243000  1.0
  C  C25  1  0.19934000  0.03570000  0.30757000  1.0
  C  C26  1  0.03570000  0.19934000  0.80757000  1.0
  C  C27  1  0.80066000  0.96430000  0.69243000  1.0
  N  N28  1  0.02776000  0.97224000  0.25000000  1.0
  N  N29  1  0.97224000  0.02776000  0.75000000  1.0
  O  O30  1  0.39185000  0.17625000  0.04083000  1.0
  O  O31  1  0.82375000  0.60816000  0.45917000  1.0
  O  O32  1  0.60815000  0.82375000  0.95917000  1.0
  O  O33  1  0.17624000  0.39185000  0.54083000  1.0
  O  O34  1  0.30949000  0.92501000  0.85189000  1.0
  O  O35  1  0.07498000  0.69051000  0.64811000  1.0
  O  O36  1  0.69051000  0.07499000  0.14811000  1.0
  O  O37  1  0.92502000  0.30949000  0.35188000  1.0
  O  O38  1  0.32620000  0.45417000  0.22468000  1.0
  O  O39  1  0.54583000  0.67380000  0.27532000  1.0
  O  O40  1  0.67380000  0.54583000  0.77532000  1.0
  O  O41  1  0.45417000  0.32620000  0.72468000  1.0
  O  O42  1  0.70655000  0.43698000  0.09096000  1.0
  O  O43  1  0.56302000  0.29345000  0.40903000  1.0
  O  O44  1  0.29344000  0.56302000  0.90904000  1.0
  O  O45  1  0.43697000  0.70655000  0.59097000  1.0
