# generated using pymatgen
data_NiH6C6(NO3)2
_symmetry_space_group_name_H-M   'P 1'
_cell_length_a   7.14457000
_cell_length_b   7.14804000
_cell_length_c   9.23737595
_cell_angle_alpha   77.70142385
_cell_angle_beta   77.72794764
_cell_angle_gamma   64.42300000
_symmetry_Int_Tables_number   1
_chemical_formula_structural   NiH6C6(NO3)2
_chemical_formula_sum   'Ni2 H12 C12 N4 O12'
_cell_volume   411.84503644
_cell_formula_units_Z   2
loop_
 _symmetry_equiv_pos_site_id
 _symmetry_equiv_pos_as_xyz
  1  'x, y, z'
loop_
 _atom_site_type_symbol
 _atom_site_label
 _atom_site_symmetry_multiplicity
 _atom_site_fract_x
 _atom_site_fract_y
 _atom_site_fract_z
 _atom_site_occupancy
  Ni  Ni0  1  0.50000000  0.00000000  0.50000000  1.0
  Ni  Ni1  1  0.00000000  0.50000000  1.00000000  1.0
  H  H2  1  0.99807000  0.44174000  0.71776000  1.0
  H  H3  1  0.55849000  0.00184000  0.78223000  1.0
  H  H4  1  0.00192000  0.55826000  0.28224000  1.0
  H  H5  1  0.44151000  0.99815000  0.21777000  1.0
  H  H6  1  0.83707000  0.36336000  0.83592000  1.0
  H  H7  1  0.63668000  0.16292000  0.66401000  1.0
  H  H8  1  0.16293000  0.63664000  0.16408000  1.0
  H  H9  1  0.36332000  0.83708000  0.33599000  1.0
  H  H10  1  0.13406000  0.05106000  0.14556000  1.0
  H  H11  1  0.94881000  0.86585000  0.35399000  1.0
  H  H12  1  0.86594000  0.94894000  0.85444000  1.0
  H  H13  1  0.05120000  0.13415000  0.64601000  1.0
  C  C14  1  0.56733000  0.33805000  0.31176000  1.0
  C  C15  1  0.66211000  0.43288000  0.18840000  1.0
  C  C16  1  0.43267000  0.66196000  0.68824000  1.0
  C  C17  1  0.33789000  0.56713000  0.81160000  1.0
  C  C18  1  0.87084000  0.02823000  0.30629000  1.0
  C  C19  1  0.97184000  0.12916000  0.19350000  1.0
  C  C20  1  0.12917000  0.97178000  0.69370000  1.0
  C  C21  1  0.02817000  0.87084000  0.80650000  1.0
  C  C22  1  0.36185000  0.44137000  0.41045000  1.0
  C  C23  1  0.55861000  0.63834000  0.08969000  1.0
  C  C24  1  0.63816000  0.55862000  0.58955000  1.0
  C  C25  1  0.44139000  0.36167000  0.91031000  1.0
  N  N26  1  0.67276000  0.13367000  0.36240000  1.0
  N  N27  1  0.86639000  0.32736000  0.13755000  1.0
  N  N28  1  0.32724000  0.86632000  0.63760000  1.0
  N  N29  1  0.13361000  0.67265000  0.86245000  1.0
  O  O30  1  0.28867000  0.31476000  0.49553000  1.0
  O  O31  1  0.68517000  0.71145000  0.00444000  1.0
  O  O32  1  0.71134000  0.68523000  0.50446000  1.0
  O  O33  1  0.31483000  0.28855000  0.99556000  1.0
  O  O34  1  0.28354000  0.63630000  0.41031000  1.0
  O  O35  1  0.36356000  0.71662000  0.08991000  1.0
  O  O36  1  0.71645000  0.36371000  0.58970000  1.0
  O  O37  1  0.63643000  0.28338000  0.91009000  1.0
  O  O38  1  0.97242000  0.37983000  0.82093000  1.0
  O  O39  1  0.62030000  0.02757000  0.67905000  1.0
  O  O40  1  0.02758000  0.62017000  0.17907000  1.0
  O  O41  1  0.37970000  0.97243000  0.32095000  1.0
