# generated using pymatgen
data_AlH11C15NO5
_symmetry_space_group_name_H-M   'P 1'
_cell_length_a   6.93414000
_cell_length_b   17.20120000
_cell_length_c   19.20830000
_cell_angle_alpha   71.11220000
_cell_angle_beta   89.99970000
_cell_angle_gamma   89.99970000
_symmetry_Int_Tables_number   1
_chemical_formula_structural   AlH11C15NO5
_chemical_formula_sum   'Al4 H44 C60 N4 O20'
_cell_volume   2167.71534998
_cell_formula_units_Z   4
loop_
 _symmetry_equiv_pos_site_id
 _symmetry_equiv_pos_as_xyz
  1  'x, y, z'
loop_
 _atom_site_type_symbol
 _atom_site_label
 _atom_site_symmetry_multiplicity
 _atom_site_fract_x
 _atom_site_fract_y
 _atom_site_fract_z
 _atom_site_occupancy
  Al  Al0  1  0.08379000  0.49817000  0.50082000  1.0
  Al  Al1  1  0.58379000  0.50182000  0.49918000  1.0
  Al  Al2  1  0.63199000  0.99979000  0.99780000  1.0
  Al  Al3  1  0.13200000  0.00022000  0.00220000  1.0
  H  H4  1  0.54419000  0.69183000  0.29722000  1.0
  H  H5  1  0.04419000  0.30816000  0.70277000  1.0
  H  H6  1  0.32329000  0.76871000  0.18055000  1.0
  H  H7  1  0.82330000  0.23130000  0.81945000  1.0
  H  H8  1  0.12190000  0.57956000  0.67720000  1.0
  H  H9  1  0.62190000  0.42043000  0.32282000  1.0
  H  H10  1  0.43757000  0.87255000  0.72994000  1.0
  H  H11  1  0.93757000  0.12745000  0.27007000  1.0
  H  H12  1  0.61197000  0.91422000  0.82502000  1.0
  H  H13  1  0.11197000  0.08578000  0.17498000  1.0
  H  H14  1  0.20888000  0.85533000  0.93483000  1.0
  H  H15  1  0.13816000  0.72310000  0.02557000  1.0
  H  H16  1  0.38567000  0.72947000  0.99793000  1.0
  H  H17  1  0.21685000  0.67490000  0.96158000  1.0
  H  H18  1  0.70884000  0.14469000  0.06515000  1.0
  H  H19  1  0.63812000  0.27694000  0.97442000  1.0
  H  H20  1  0.88564000  0.27057000  0.00207000  1.0
  H  H21  1  0.71680000  0.32512000  0.03842000  1.0
  H  H22  1  0.31583000  0.70862000  0.85191000  1.0
  H  H23  1  0.81581000  0.29138000  0.14809000  1.0
  H  H24  1  0.29819000  0.62344000  0.77136000  1.0
  H  H25  1  0.79818000  0.37656000  0.22864000  1.0
  H  H26  1  0.56944000  0.80769000  0.17894000  1.0
  H  H27  1  0.06944000  0.19231000  0.82107000  1.0
  H  H28  1  0.31263000  0.84188000  0.22908000  1.0
  H  H29  1  0.81263000  0.15813000  0.77093000  1.0
  H  H30  1  0.32478000  0.66852000  0.40653000  1.0
  H  H31  1  0.28583000  0.78937000  0.43960000  1.0
  H  H32  1  0.05867000  0.76746000  0.40601000  1.0
  H  H33  1  0.21363000  0.84422000  0.34852000  1.0
  H  H34  1  0.82475000  0.33148000  0.59347000  1.0
  H  H35  1  0.78587000  0.21062000  0.56042000  1.0
  H  H36  1  0.55868000  0.23252000  0.59400000  1.0
  H  H37  1  0.71368000  0.15577000  0.65150000  1.0
  H  H38  1  0.29718000  0.65302000  0.29674000  1.0
  H  H39  1  0.79718000  0.34698000  0.70327000  1.0
  H  H40  1  0.56277000  0.68067000  0.60201000  1.0
  H  H41  1  0.06275000  0.31933000  0.39799000  1.0
  H  H42  1  0.41924000  0.78708000  0.64828000  1.0
  H  H43  1  0.91924000  0.21291000  0.35172000  1.0
  H  H44  1  0.33042000  0.58455000  0.52748000  1.0
  H  H45  1  0.83043000  0.41545000  0.47252000  1.0
  H  H46  1  0.38407000  0.89632000  0.04787000  1.0
  H  H47  1  0.88407000  0.10368000  0.95213000  1.0
  C  C48  1  0.33581000  0.42302000  0.41637000  1.0
  C  C49  1  0.83582000  0.57696000  0.58364000  1.0
  C  C50  1  0.33627000  0.38758000  0.61275000  1.0
  C  C51  1  0.83628000  0.61242000  0.38724000  1.0
  C  C52  1  0.02087000  0.71499000  0.28683000  1.0
  C  C53  1  0.52087000  0.28501000  0.71318000  1.0
  C  C54  1  0.84654000  0.68030000  0.31615000  1.0
  C  C55  1  0.34655000  0.31970000  0.68385000  1.0
  C  C56  1  0.68293000  0.71517000  0.27475000  1.0
  C  C57  1  0.18294000  0.28482000  0.72524000  1.0
  C  C58  1  0.69726000  0.78029000  0.20920000  1.0
  C  C59  1  0.19726000  0.21971000  0.79079000  1.0
  C  C60  1  0.87473000  0.81530000  0.18004000  1.0
  C  C61  1  0.37473000  0.18470000  0.81997000  1.0
  C  C62  1  0.03563000  0.78045000  0.22143000  1.0
  C  C63  1  0.53563000  0.21955000  0.77857000  1.0
  C  C64  1  0.25124000  0.78466000  0.22501000  1.0
  C  C65  1  0.75126000  0.21534000  0.77499000  1.0
  C  C66  1  0.23635000  0.71054000  0.30071000  1.0
  C  C67  1  0.73637000  0.28947000  0.69930000  1.0
  C  C68  1  0.00281000  0.61978000  0.68019000  1.0
  C  C69  1  0.50280000  0.38021000  0.31982000  1.0
  C  C70  1  0.84092000  0.62517000  0.63539000  1.0
  C  C71  1  0.34091000  0.37482000  0.36462000  1.0
  C  C72  1  0.68691000  0.67691000  0.63782000  1.0
  C  C73  1  0.18689000  0.32308000  0.36219000  1.0
  C  C74  1  0.69379000  0.72584000  0.68371000  1.0
  C  C75  1  0.19378000  0.27416000  0.31629000  1.0
  C  C76  1  0.85709000  0.71921000  0.73106000  1.0
  C  C77  1  0.35706000  0.28079000  0.26894000  1.0
  C  C78  1  0.01213000  0.66503000  0.72921000  1.0
  C  C79  1  0.51211000  0.33497000  0.27079000  1.0
  C  C80  1  0.54318000  0.78275000  0.68431000  1.0
  C  C81  1  0.04317000  0.21724000  0.31569000  1.0
  C  C82  1  0.55337000  0.82981000  0.72935000  1.0
  C  C83  1  0.05337000  0.17018000  0.27065000  1.0
  C  C84  1  0.71399000  0.82397000  0.77762000  1.0
  C  C85  1  0.21398000  0.17603000  0.22238000  1.0
  C  C86  1  0.86658000  0.76748000  0.77886000  1.0
  C  C87  1  0.36656000  0.23252000  0.22114000  1.0
  C  C88  1  0.02958000  0.76132000  0.82573000  1.0
  C  C89  1  0.52957000  0.23869000  0.17427000  1.0
  C  C90  1  0.18469000  0.70836000  0.82088000  1.0
  C  C91  1  0.68467000  0.29164000  0.17912000  1.0
  C  C92  1  0.17592000  0.66173000  0.77532000  1.0
  C  C93  1  0.67591000  0.33827000  0.22468000  1.0
  C  C94  1  0.72834000  0.87212000  0.82362000  1.0
  C  C95  1  0.22832000  0.12788000  0.17637000  1.0
  C  C96  1  0.88768000  0.86758000  0.86957000  1.0
  C  C97  1  0.38766000  0.13242000  0.13043000  1.0
  C  C98  1  0.04100000  0.81124000  0.87234000  1.0
  C  C99  1  0.54097000  0.18877000  0.12766000  1.0
  C  C100  1  0.38117000  0.11424000  0.88907000  1.0
  C  C101  1  0.88117000  0.88575000  0.11093000  1.0
  C  C102  1  0.38360000  0.07993000  0.08235000  1.0
  C  C103  1  0.88362000  0.92007000  0.91764000  1.0
  C  C104  1  0.23657000  0.72919000  0.97874000  1.0
  C  C105  1  0.73653000  0.27083000  0.02126000  1.0
  C  C106  1  0.21136000  0.78344000  0.39113000  1.0
  C  C107  1  0.71139000  0.21656000  0.60888000  1.0
  N  N108  1  0.20038000  0.80495000  0.91781000  1.0
  N  N109  1  0.70034000  0.19506000  0.08218000  1.0
  N  N110  1  0.31388000  0.72390000  0.36566000  1.0
  N  N111  1  0.81387000  0.27610000  0.63434000  1.0
  O  O112  1  0.49908000  0.41484000  0.58362000  1.0
  O  O113  1  0.99907000  0.58515000  0.41638000  1.0
  O  O114  1  0.17119000  0.43851000  0.43875000  1.0
  O  O115  1  0.67121000  0.56148000  0.56125000  1.0
  O  O116  1  0.16984000  0.41218000  0.58644000  1.0
  O  O117  1  0.66984000  0.58782000  0.41355000  1.0
  O  O118  1  0.99825000  0.55493000  0.56494000  1.0
  O  O119  1  0.49823000  0.44507000  0.43507000  1.0
  O  O120  1  0.33264000  0.55206000  0.49440000  1.0
  O  O121  1  0.83264000  0.44793000  0.50560000  1.0
  O  O122  1  0.21814000  0.05857000  0.06583000  1.0
  O  O123  1  0.71815000  0.94141000  0.93417000  1.0
  O  O124  1  0.54755000  0.08674000  0.91375000  1.0
  O  O125  1  0.04754000  0.91325000  0.08624000  1.0
  O  O126  1  0.54615000  0.06035000  0.06063000  1.0
  O  O127  1  0.04617000  0.93966000  0.93935000  1.0
  O  O128  1  0.71951000  0.91344000  0.08130000  1.0
  O  O129  1  0.21953000  0.08657000  0.91870000  1.0
  O  O130  1  0.38151000  0.94855000  0.00827000  1.0
  O  O131  1  0.88150000  0.05145000  0.99172000  1.0
