# generated using pymatgen
data_Ag6H82C77(NO)12
_symmetry_space_group_name_H-M   'P 1'
_cell_length_a   12.07390000
_cell_length_b   15.42860000
_cell_length_c   24.96440000
_cell_angle_alpha   90.00000000
_cell_angle_beta   90.00040000
_cell_angle_gamma   101.56400000
_symmetry_Int_Tables_number   1
_chemical_formula_structural   Ag6H82C77(NO)12
_chemical_formula_sum   'Ag12 H164 C154 N24 O24'
_cell_volume   4556.05495916
_cell_formula_units_Z   2
loop_
 _symmetry_equiv_pos_site_id
 _symmetry_equiv_pos_as_xyz
  1  'x, y, z'
loop_
 _atom_site_type_symbol
 _atom_site_label
 _atom_site_symmetry_multiplicity
 _atom_site_fract_x
 _atom_site_fract_y
 _atom_site_fract_z
 _atom_site_occupancy
  Ag  Ag0  1  0.73259000  0.76904000  0.11899000  1.0
  Ag  Ag1  1  0.26741000  0.23096000  0.61899000  1.0
  Ag  Ag2  1  0.32894000  0.79372000  0.58768000  1.0
  Ag  Ag3  1  0.67106000  0.20628000  0.08768000  1.0
  Ag  Ag4  1  0.44095000  0.40995000  0.03870000  1.0
  Ag  Ag5  1  0.55905000  0.59005000  0.53870000  1.0
  Ag  Ag6  1  0.24036000  0.64544000  0.08450000  1.0
  Ag  Ag7  1  0.75964000  0.35455000  0.58450000  1.0
  Ag  Ag8  1  0.40755000  0.94487000  0.65787000  1.0
  Ag  Ag9  1  0.59245000  0.05513000  0.15787000  1.0
  Ag  Ag10  1  0.04139000  0.63405000  0.16160000  1.0
  Ag  Ag11  1  0.95861000  0.36595000  0.66161000  1.0
  H  H12  1  0.33178000  0.63138000  0.49023000  1.0
  H  H13  1  0.66822000  0.36863000  0.99023000  1.0
  H  H14  1  0.24300000  0.70575000  0.50714000  1.0
  H  H15  1  0.75700000  0.29425000  0.00714000  1.0
  H  H16  1  0.64386000  0.25624000  0.32776000  1.0
  H  H17  1  0.35615000  0.74377000  0.82776000  1.0
  H  H18  1  0.63957000  0.93548000  0.35934000  1.0
  H  H19  1  0.36043000  0.06453000  0.85934000  1.0
  H  H20  1  0.54095000  0.00614000  0.35389000  1.0
  H  H21  1  0.45904000  0.99386000  0.85389000  1.0
  H  H22  1  0.84258000  0.15037000  0.49435000  1.0
  H  H23  1  0.15742000  0.84963000  0.99434000  1.0
  H  H24  1  0.75816000  0.23134000  0.49153000  1.0
  H  H25  1  0.24184000  0.76866000  0.99153000  1.0
  H  H26  1  0.53525000  0.60618000  0.33296000  1.0
  H  H27  1  0.46475000  0.39381000  0.83296000  1.0
  H  H28  1  0.74121000  0.58333000  0.29407000  1.0
  H  H29  1  0.25879000  0.41667000  0.79407000  1.0
  H  H30  1  0.05082000  0.66415000  0.82726000  1.0
  H  H31  1  0.94918000  0.33585000  0.32726000  1.0
  H  H32  1  0.13260000  0.58400000  0.81382000  1.0
  H  H33  1  0.86740000  0.41600000  0.31382000  1.0
  H  H34  1  0.21841000  0.81721000  0.14469000  1.0
  H  H35  1  0.78159000  0.18279000  0.64469000  1.0
  H  H36  1  0.16077000  0.38160000  0.05799000  1.0
  H  H37  1  0.83923000  0.61840000  0.55799000  1.0
  H  H38  1  0.11767000  0.26895000  0.07622000  1.0
  H  H39  1  0.88232000  0.73105000  0.57622000  1.0
  H  H40  1  0.32579000  0.61908000  0.31809000  1.0
  H  H41  1  0.67421000  0.38092000  0.81809000  1.0
  H  H42  1  0.78445000  0.02537000  0.22835000  1.0
  H  H43  1  0.21555000  0.97463000  0.72835000  1.0
  H  H44  1  0.74683000  0.91756000  0.02554000  1.0
  H  H45  1  0.25317000  0.08244000  0.52554000  1.0
  H  H46  1  0.88150000  0.99038000  0.03167000  1.0
  H  H47  1  0.11850000  0.00962000  0.53167000  1.0
  H  H48  1  0.30424000  0.62513000  0.64794000  1.0
  H  H49  1  0.69576000  0.37487000  0.14794000  1.0
  H  H50  1  0.63399000  0.44167000  0.31391000  1.0
  H  H51  1  0.36601000  0.55834000  0.81391000  1.0
  H  H52  1  0.64207000  0.37244000  0.25833000  1.0
  H  H53  1  0.35793000  0.62756000  0.75832000  1.0
  H  H54  1  0.93525000  0.64687000  0.94016000  1.0
  H  H55  1  0.06475000  0.35312000  0.44016000  1.0
  H  H56  1  0.56771000  0.74911000  0.21878000  1.0
  H  H57  1  0.43230000  0.25089000  0.71878000  1.0
  H  H58  1  0.52926000  0.44500000  0.16849000  1.0
  H  H59  1  0.47074000  0.55500000  0.66849000  1.0
  H  H60  1  0.95463000  0.93195000  0.12855000  1.0
  H  H61  1  0.04537000  0.06805000  0.62855000  1.0
  H  H62  1  0.04136000  0.92297000  0.07102000  1.0
  H  H63  1  0.95865000  0.07703000  0.57102000  1.0
  H  H64  1  0.58190000  0.57861000  0.11306000  1.0
  H  H65  1  0.41810000  0.42139000  0.61306000  1.0
  H  H66  1  0.23795000  0.59027000  0.22666000  1.0
  H  H67  1  0.76206000  0.40973000  0.72666000  1.0
  H  H68  1  0.29144000  0.48142000  0.52896000  1.0
  H  H69  1  0.70856000  0.51858000  0.02896000  1.0
  H  H70  1  0.23646000  0.77247000  0.41716000  1.0
  H  H71  1  0.76353000  0.22753000  0.91716000  1.0
  H  H72  1  0.34342000  0.71348000  0.40005000  1.0
  H  H73  1  0.65658000  0.28653000  0.90005000  1.0
  H  H74  1  0.79868000  0.26139000  0.39507000  1.0
  H  H75  1  0.20133000  0.73861000  0.89507000  1.0
  H  H76  1  0.88754000  0.18310000  0.39321000  1.0
  H  H77  1  0.11246000  0.81690000  0.89321000  1.0
  H  H78  1  0.55738000  0.19929000  0.52364000  1.0
  H  H79  1  0.44262000  0.80071000  0.02364000  1.0
  H  H80  1  0.34848000  0.37106000  0.16686000  1.0
  H  H81  1  0.65152000  0.62893000  0.66687000  1.0
  H  H82  1  0.19867000  0.34850000  0.16093000  1.0
  H  H83  1  0.80132000  0.65149000  0.66094000  1.0
  H  H84  1  0.17045000  0.53239000  0.71248000  1.0
  H  H85  1  0.82955000  0.46761000  0.21247000  1.0
  H  H86  1  0.03948000  0.64397000  0.53785000  1.0
  H  H87  1  0.96052000  0.35603000  0.03785000  1.0
  H  H88  1  0.40843000  0.50529000  0.27276000  1.0
  H  H89  1  0.59157000  0.49471000  0.77276000  1.0
  H  H90  1  0.31097000  0.41456000  0.29959000  1.0
  H  H91  1  0.68903000  0.58544000  0.79959000  1.0
  H  H92  1  0.38733000  0.99913000  0.42185000  1.0
  H  H93  1  0.61267000  0.00088000  0.92185000  1.0
  H  H94  1  0.40975000  0.41003000  0.48559000  1.0
  H  H95  1  0.59026000  0.58997000  0.98559000  1.0
  H  H96  1  0.30948000  0.94006000  0.51084000  1.0
  H  H97  1  0.69052000  0.05994000  0.01084000  1.0
  H  H98  1  0.59519000  0.64858000  0.42732000  1.0
  H  H99  1  0.40481000  0.35142000  0.92732000  1.0
  H  H100  1  0.34262000  0.36015000  0.39743000  1.0
  H  H101  1  0.65739000  0.63985000  0.89743000  1.0
  H  H102  1  0.94571000  0.77154000  0.02524000  1.0
  H  H103  1  0.05429000  0.22846000  0.52524000  1.0
  H  H104  1  0.92132000  0.85866000  0.98376000  1.0
  H  H105  1  0.07868000  0.14134000  0.48376000  1.0
  H  H106  1  0.15608000  0.46424000  0.90478000  1.0
  H  H107  1  0.84392000  0.53576000  0.40478000  1.0
  H  H108  1  0.61723000  0.81653000  0.43184000  1.0
  H  H109  1  0.38277000  0.18347000  0.93184000  1.0
  H  H110  1  0.52656000  0.76300000  0.51642000  1.0
  H  H111  1  0.47344000  0.23700000  0.01642000  1.0
  H  H112  1  0.57099000  0.20337000  0.23601000  1.0
  H  H113  1  0.42902000  0.79663000  0.73601000  1.0
  H  H114  1  0.97544000  0.50615000  0.75146000  1.0
  H  H115  1  0.02456000  0.49385000  0.25145000  1.0
  H  H116  1  0.90473000  0.59471000  0.76124000  1.0
  H  H117  1  0.09527000  0.40529000  0.26125000  1.0
  H  H118  1  0.89461000  0.54511000  0.86297000  1.0
  H  H119  1  0.10539000  0.45489000  0.36297000  1.0
  H  H120  1  0.97753000  0.46483000  0.84941000  1.0
  H  H121  1  0.02247000  0.53517000  0.34941000  1.0
  H  H122  1  0.11339000  0.81932000  0.64526000  1.0
  H  H123  1  0.88661000  0.18067000  0.14526000  1.0
  H  H124  1  0.42858000  0.11378000  0.59132000  1.0
  H  H125  1  0.57142000  0.88622000  0.09132000  1.0
  H  H126  1  0.43910000  0.35897000  0.23874000  1.0
  H  H127  1  0.56090000  0.64103000  0.73874000  1.0
  H  H128  1  0.46091000  0.32523000  0.30452000  1.0
  H  H129  1  0.53909000  0.67477000  0.80452000  1.0
  H  H130  1  0.79428000  0.71022000  0.23028000  1.0
  H  H131  1  0.20573000  0.28978000  0.73028000  1.0
  H  H132  1  0.93992000  0.53798000  0.60716000  1.0
  H  H133  1  0.06008000  0.46203000  0.10716000  1.0
  H  H134  1  0.97430000  0.73710000  0.71196000  1.0
  H  H135  1  0.02570000  0.26289000  0.21196000  1.0
  H  H136  1  0.44887000  0.65302000  0.15041000  1.0
  H  H137  1  0.55113000  0.34698000  0.65041000  1.0
  H  H138  1  0.20353000  0.56969000  0.41643000  1.0
  H  H139  1  0.79647000  0.43031000  0.91643000  1.0
  H  H140  1  0.10219000  0.63192000  0.43673000  1.0
  H  H141  1  0.89781000  0.36808000  0.93673000  1.0
  H  H142  1  0.32430000  0.91879000  0.21440000  1.0
  H  H143  1  0.67570000  0.08121000  0.71440000  1.0
  H  H144  1  0.86815000  0.07142000  0.31881000  1.0
  H  H145  1  0.13185000  0.92858000  0.81881000  1.0
  H  H146  1  0.72426000  0.06374000  0.42200000  1.0
  H  H147  1  0.27574000  0.93626000  0.92200000  1.0
  H  H148  1  0.63437000  0.14087000  0.42161000  1.0
  H  H149  1  0.36563000  0.85913000  0.92161000  1.0
  H  H150  1  0.77040000  0.00662000  0.54040000  1.0
  H  H151  1  0.22961000  0.99338000  0.04039000  1.0
  H  H152  1  0.00641000  0.74763000  0.25846000  1.0
  H  H153  1  0.99359000  0.25236000  0.75846000  1.0
  H  H154  1  0.31654000  0.20465000  0.06693000  1.0
  H  H155  1  0.68346000  0.79535000  0.56693000  1.0
  H  H156  1  0.26478000  0.20627000  0.13401000  1.0
  H  H157  1  0.73521000  0.79373000  0.63401000  1.0
  H  H158  1  0.07671000  0.77608000  0.35308000  1.0
  H  H159  1  0.92329000  0.22392000  0.85308000  1.0
  H  H160  1  0.63002000  0.92775000  0.60731000  1.0
  H  H161  1  0.36998000  0.07225000  0.10730000  1.0
  H  H162  1  0.25754000  0.51153000  0.98999000  1.0
  H  H163  1  0.74246000  0.48847000  0.48999000  1.0
  H  H164  1  0.39159000  0.87579000  0.32464000  1.0
  H  H165  1  0.60841000  0.12421000  0.82464000  1.0
  H  H166  1  0.49095000  0.80665000  0.32941000  1.0
  H  H167  1  0.50905000  0.19335000  0.82941000  1.0
  H  H168  1  0.04516000  0.68362000  0.02479000  1.0
  H  H169  1  0.95484000  0.31638000  0.52479000  1.0
  H  H170  1  0.17527000  0.37762000  0.59314000  1.0
  H  H171  1  0.82473000  0.62238000  0.09314000  1.0
  H  H172  1  0.51443000  0.96962000  0.25624000  1.0
  H  H173  1  0.48557000  0.03038000  0.75624000  1.0
  H  H174  1  0.61225000  0.89849000  0.25971000  1.0
  H  H175  1  0.38775000  0.10151000  0.75971000  1.0
  C  C176  1  0.24315000  0.63896000  0.49138000  1.0
  C  C177  1  0.75685000  0.36104000  0.99138000  1.0
  C  C178  1  0.67741000  0.20470000  0.30711000  1.0
  C  C179  1  0.32260000  0.79530000  0.80710000  1.0
  C  C180  1  0.62794000  0.50300000  0.23769000  1.0
  C  C181  1  0.37207000  0.49700000  0.73769000  1.0
  C  C182  1  0.19757000  0.29264000  0.99795000  1.0
  C  C183  1  0.80240000  0.70736000  0.49796000  1.0
  C  C184  1  0.54933000  0.93784000  0.36267000  1.0
  C  C185  1  0.45067000  0.06216000  0.86267000  1.0
  C  C186  1  0.75654000  0.16040000  0.48621000  1.0
  C  C187  1  0.24346000  0.83960000  0.98621000  1.0
  C  C188  1  0.50493000  0.56106000  0.36587000  1.0
  C  C189  1  0.49508000  0.43893000  0.86587000  1.0
  C  C190  1  0.70380000  0.57951000  0.25412000  1.0
  C  C191  1  0.29620000  0.42049000  0.75412000  1.0
  C  C192  1  0.04492000  0.59426000  0.81626000  1.0
  C  C193  1  0.95508000  0.40575000  0.31626000  1.0
  C  C194  1  0.29559000  0.80476000  0.16305000  1.0
  C  C195  1  0.70441000  0.19524000  0.66305000  1.0
  C  C196  1  0.18751000  0.31761000  0.05784000  1.0
  C  C197  1  0.81248000  0.68239000  0.55785000  1.0
  C  C198  1  0.17669000  0.57298000  0.52910000  1.0
  C  C199  1  0.82331000  0.42702000  0.02910000  1.0
  C  C200  1  0.25406000  0.64821000  0.30668000  1.0
  C  C201  1  0.74594000  0.35179000  0.80668000  1.0
  C  C202  1  0.75633000  0.07626000  0.25225000  1.0
  C  C203  1  0.24367000  0.92374000  0.75225000  1.0
  C  C204  1  0.45518000  0.84194000  0.22268000  1.0
  C  C205  1  0.54481000  0.15806000  0.72268000  1.0
  C  C206  1  0.81946000  0.93891000  0.05259000  1.0
  C  C207  1  0.18055000  0.06109000  0.55259000  1.0
  C  C208  1  0.22924000  0.64627000  0.66327000  1.0
  C  C209  1  0.77076000  0.35373000  0.16327000  1.0
  C  C210  1  0.59861000  0.42364000  0.27385000  1.0
  C  C211  1  0.40140000  0.57636000  0.77385000  1.0
  C  C212  1  0.00681000  0.61521000  0.94887000  1.0
  C  C213  1  0.99319000  0.38479000  0.44887000  1.0
  C  C214  1  0.48974000  0.76600000  0.20415000  1.0
  C  C215  1  0.51027000  0.23400000  0.70416000  1.0
  C  C216  1  0.58486000  0.50290000  0.18554000  1.0
  C  C217  1  0.41514000  0.49710000  0.68554000  1.0
  C  C218  1  0.97173000  0.88767000  0.09655000  1.0
  C  C219  1  0.02827000  0.11233000  0.59655000  1.0
  C  C220  1  0.61607000  0.57744000  0.15345000  1.0
  C  C221  1  0.38393000  0.42256000  0.65345000  1.0
  C  C222  1  0.20698000  0.63226000  0.25602000  1.0
  C  C223  1  0.79302000  0.36774000  0.75602000  1.0
  C  C224  1  0.21335000  0.49642000  0.54481000  1.0
  C  C225  1  0.78665000  0.50358000  0.04481000  1.0
  C  C226  1  0.25157000  0.71040000  0.39975000  1.0
  C  C227  1  0.74843000  0.28960000  0.89974000  1.0
  C  C228  1  0.79984000  0.19133000  0.38749000  1.0
  C  C229  1  0.20016000  0.80867000  0.88749000  1.0
  C  C230  1  0.57718000  0.13888000  0.54046000  1.0
  C  C231  1  0.42282000  0.86112000  0.04046000  1.0
  C  C232  1  0.27827000  0.37694000  0.13984000  1.0
  C  C233  1  0.72173000  0.62306000  0.63985000  1.0
  C  C234  1  0.20815000  0.69980000  0.34344000  1.0
  C  C235  1  0.79185000  0.30020000  0.84343000  1.0
  C  C236  1  0.15567000  0.59652000  0.69945000  1.0
  C  C237  1  0.84433000  0.40348000  0.19945000  1.0
  C  C238  1  0.07415000  0.58689000  0.55026000  1.0
  C  C239  1  0.92585000  0.41311000  0.05027000  1.0
  C  C240  1  0.40047000  0.44812000  0.29991000  1.0
  C  C241  1  0.59953000  0.55188000  0.79991000  1.0
  C  C242  1  0.42092000  0.94684000  0.44169000  1.0
  C  C243  1  0.57907000  0.05316000  0.94168000  1.0
  C  C244  1  0.43627000  0.45349000  0.45134000  1.0
  C  C245  1  0.56374000  0.54651000  0.95134000  1.0
  C  C246  1  0.37679000  0.91473000  0.49085000  1.0
  C  C247  1  0.62321000  0.08527000  0.99085000  1.0
  C  C248  1  0.76116000  0.16698000  0.33141000  1.0
  C  C249  1  0.23884000  0.83302000  0.83141000  1.0
  C  C250  1  0.43431000  0.47880000  0.35588000  1.0
  C  C251  1  0.56569000  0.52120000  0.85588000  1.0
  C  C252  1  0.53779000  0.58599000  0.41799000  1.0
  C  C253  1  0.46221000  0.41401000  0.91799000  1.0
  C  C254  1  0.40005000  0.42454000  0.40026000  1.0
  C  C255  1  0.59995000  0.57546000  0.90026000  1.0
  C  C256  1  0.88394000  0.81276000  0.01601000  1.0
  C  C257  1  0.11606000  0.18724000  0.51602000  1.0
  C  C258  1  0.13017000  0.51550000  0.92907000  1.0
  C  C259  1  0.86984000  0.48450000  0.42907000  1.0
  C  C260  1  0.54755000  0.84582000  0.44620000  1.0
  C  C261  1  0.45244000  0.15418000  0.94620000  1.0
  C  C262  1  0.06225000  0.62809000  0.71871000  1.0
  C  C263  1  0.93775000  0.37191000  0.21871000  1.0
  C  C264  1  0.49816000  0.81593000  0.49479000  1.0
  C  C265  1  0.50184000  0.18407000  0.99479000  1.0
  C  C266  1  0.77788000  0.75001000  0.99329000  1.0
  C  C267  1  0.22213000  0.24998000  0.49329000  1.0
  C  C268  1  0.63593000  0.17596000  0.25682000  1.0
  C  C269  1  0.36407000  0.82404000  0.75681000  1.0
  C  C270  1  0.98858000  0.57710000  0.76099000  1.0
  C  C271  1  0.01142000  0.42290000  0.26099000  1.0
  C  C272  1  0.98190000  0.53453000  0.86034000  1.0
  C  C273  1  0.01810000  0.46547000  0.36034000  1.0
  C  C274  1  0.12204000  0.75553000  0.66183000  1.0
  C  C275  1  0.87796000  0.24447000  0.16183000  1.0
  C  C276  1  0.77530000  0.98010000  0.10217000  1.0
  C  C277  1  0.22471000  0.01990000  0.60217000  1.0
  C  C278  1  0.50429000  0.09160000  0.57798000  1.0
  C  C279  1  0.49570000  0.90841000  0.07798000  1.0
  C  C280  1  0.47191000  0.38358000  0.27817000  1.0
  C  C281  1  0.52809000  0.61642000  0.77817000  1.0
  C  C282  1  0.73295000  0.65089000  0.21932000  1.0
  C  C283  1  0.26705000  0.34910000  0.71932000  1.0
  C  C284  1  0.03939000  0.55418000  0.91362000  1.0
  C  C285  1  0.96061000  0.44582000  0.41362000  1.0
  C  C286  1  0.01718000  0.52794000  0.58771000  1.0
  C  C287  1  0.98282000  0.47206000  0.08771000  1.0
  C  C288  1  0.04610000  0.70942000  0.69881000  1.0
  C  C289  1  0.95390000  0.29057000  0.19881000  1.0
  C  C290  1  0.42554000  0.71295000  0.16586000  1.0
  C  C291  1  0.57446000  0.28705000  0.66586000  1.0
  C  C292  1  0.19347000  0.63254000  0.43479000  1.0
  C  C293  1  0.80653000  0.36746000  0.93479000  1.0
  C  C294  1  0.35488000  0.86011000  0.20172000  1.0
  C  C295  1  0.64512000  0.13989000  0.70172000  1.0
  C  C296  1  0.00418000  0.80587000  0.12210000  1.0
  C  C297  1  0.99582000  0.19413000  0.62210000  1.0
  C  C298  1  0.80178000  0.10223000  0.30229000  1.0
  C  C299  1  0.19822000  0.89777000  0.80229000  1.0
  C  C300  1  0.72245000  0.13408000  0.42842000  1.0
  C  C301  1  0.27756000  0.86592000  0.92842000  1.0
  C  C302  1  0.69492000  0.03229000  0.55007000  1.0
  C  C303  1  0.30508000  0.96772000  0.05007000  1.0
  C  C304  1  0.07520000  0.71882000  0.27430000  1.0
  C  C305  1  0.92480000  0.28117000  0.77430000  1.0
  C  C306  1  0.32261000  0.24411000  0.10397000  1.0
  C  C307  1  0.67738000  0.75589000  0.60397000  1.0
  C  C308  1  0.11653000  0.73577000  0.32611000  1.0
  C  C309  1  0.88347000  0.26423000  0.82611000  1.0
  C  C310  1  0.61816000  0.98801000  0.58717000  1.0
  C  C311  1  0.38184000  0.01199000  0.08717000  1.0
  C  C312  1  0.44488000  0.25580000  0.12497000  1.0
  C  C313  1  0.55512000  0.74420000  0.62497000  1.0
  C  C314  1  0.67585000  0.10998000  0.52605000  1.0
  C  C315  1  0.32414000  0.89002000  0.02605000  1.0
  C  C316  1  0.18657000  0.54045000  0.97699000  1.0
  C  C317  1  0.81343000  0.45955000  0.47698000  1.0
  C  C318  1  0.28327000  0.47609000  0.13092000  1.0
  C  C319  1  0.71673000  0.52391000  0.63092000  1.0
  C  C320  1  0.48234000  0.87511000  0.32095000  1.0
  C  C321  1  0.51766000  0.12489000  0.82095000  1.0
  C  C322  1  0.06677000  0.63632000  0.99615000  1.0
  C  C323  1  0.93323000  0.36368000  0.49615000  1.0
  C  C324  1  0.14948000  0.43863000  0.58105000  1.0
  C  C325  1  0.85052000  0.56137000  0.08105000  1.0
  C  C326  1  0.52218000  0.90082000  0.26383000  1.0
  C  C327  1  0.47782000  0.09918000  0.76383000  1.0
  C  C328  1  0.50737000  0.91154000  0.41796000  1.0
  C  C329  1  0.49263000  0.08846000  0.91795000  1.0
  N  N330  1  0.86687000  0.86123000  0.06495000  1.0
  N  N331  1  0.13314000  0.13877000  0.56496000  1.0
  N  N332  1  0.29093000  0.32813000  0.09066000  1.0
  N  N333  1  0.70907000  0.67187000  0.59067000  1.0
  N  N334  1  0.67361000  0.11156000  0.23018000  1.0
  N  N335  1  0.32639000  0.88844000  0.73018000  1.0
  N  N336  1  0.41366000  0.84924000  0.51683000  1.0
  N  N337  1  0.58634000  0.15076000  0.01683000  1.0
  N  N338  1  0.15634000  0.60091000  0.01004000  1.0
  N  N339  1  0.84366000  0.39909000  0.51003000  1.0
  N  N340  1  0.68836000  0.65110000  0.16976000  1.0
  N  N341  1  0.31164000  0.34889000  0.66976000  1.0
  N  N342  1  0.11820000  0.66666667  0.23995000  1.0
  N  N343  1  0.88181000  0.33327000  0.73995000  1.0
  N  N344  1  0.50360000  0.53323000  0.46064000  1.0
  N  N345  1  0.49641000  0.46677000  0.96064000  1.0
  N  N346  1  0.05405000  0.45478000  0.60324000  1.0
  N  N347  1  0.94595000  0.54522000  0.10324000  1.0
  N  N348  1  0.21283000  0.72482000  0.64480000  1.0
  N  N349  1  0.78717000  0.27518000  0.14479000  1.0
  N  N350  1  0.52413000  0.01720000  0.60114000  1.0
  N  N351  1  0.47587000  0.98281000  0.10114000  1.0
  N  N352  1  0.33048000  0.73228000  0.14518000  1.0
  N  N353  1  0.66953000  0.26771000  0.64518000  1.0
  O  O354  1  0.73166000  0.92900000  0.14003000  1.0
  O  O355  1  0.26834000  0.07100000  0.64003000  1.0
  O  O356  1  0.46523000  0.19717000  0.15681000  1.0
  O  O357  1  0.53476000  0.80283000  0.65681000  1.0
  O  O358  1  0.07353000  0.76945000  0.09606000  1.0
  O  O359  1  0.92647000  0.23055000  0.59606000  1.0
  O  O360  1  0.79063000  0.72261000  0.94650000  1.0
  O  O361  1  0.20937000  0.27739000  0.44650000  1.0
  O  O362  1  0.51795000  0.32162000  0.10741000  1.0
  O  O363  1  0.48205000  0.67839000  0.60741000  1.0
  O  O364  1  0.11005000  0.29331000  0.97074000  1.0
  O  O365  1  0.88993000  0.70669000  0.47074000  1.0
  O  O366  1  0.95773000  0.77887000  0.16621000  1.0
  O  O367  1  0.04227000  0.22114000  0.66621000  1.0
  O  O368  1  0.29136000  0.27530000  0.98227000  1.0
  O  O369  1  0.70863000  0.72470000  0.48228000  1.0
  O  O370  1  0.78101000  0.06302000  0.10033000  1.0
  O  O371  1  0.21899000  0.93697000  0.60032000  1.0
  O  O372  1  0.69050000  0.72905000  0.02294000  1.0
  O  O373  1  0.30951000  0.27094000  0.52295000  1.0
  O  O374  1  0.21663000  0.51091000  0.15917000  1.0
  O  O375  1  0.78336000  0.48908000  0.65917000  1.0
  O  O376  1  0.35379000  0.51645000  0.09685000  1.0
  O  O377  1  0.64621000  0.48356000  0.59685000  1.0
