# generated using pymatgen
data_CuH6C4SN3ClO3
_symmetry_space_group_name_H-M   'P 1'
_cell_length_a   5.84657000
_cell_length_b   7.29581000
_cell_length_c   9.75515510
_cell_angle_alpha   86.40360960
_cell_angle_beta   72.70453110
_cell_angle_gamma   89.64560000
_symmetry_Int_Tables_number   1
_chemical_formula_structural   CuH6C4SN3ClO3
_chemical_formula_sum   'Cu2 H12 C8 S2 N6 Cl2 O6'
_cell_volume   396.47961691
_cell_formula_units_Z   2
loop_
 _symmetry_equiv_pos_site_id
 _symmetry_equiv_pos_as_xyz
  1  'x, y, z'
loop_
 _atom_site_type_symbol
 _atom_site_label
 _atom_site_symmetry_multiplicity
 _atom_site_fract_x
 _atom_site_fract_y
 _atom_site_fract_z
 _atom_site_occupancy
  Cu  Cu0  1  1.00000000  0.00001000  0.50000000  1.0
  Cu  Cu1  1  0.00001000  0.50000000  0.50000000  1.0
  H  H2  1  0.26061000  0.01756000  0.74773000  1.0
  H  H3  1  0.73940000  0.98244000  0.25227000  1.0
  H  H4  1  0.25983000  0.43753000  0.74533000  1.0
  H  H5  1  0.74017000  0.56247000  0.25467000  1.0
  H  H6  1  0.57674000  0.75280000  0.86555000  1.0
  H  H7  1  0.42325000  0.24720000  0.13445000  1.0
  H  H8  1  0.38590000  0.55882000  0.93748000  1.0
  H  H9  1  0.61410000  0.44118000  0.06252000  1.0
  H  H10  1  0.05981000  0.77769000  0.06868000  1.0
  H  H11  1  0.94017000  0.22229000  0.93133000  1.0
  H  H12  1  0.26916000  0.96426000  0.00171000  1.0
  H  H13  1  0.73082000  0.03574000  0.99829000  1.0
  C  C14  1  0.23386000  0.87939000  0.71957000  1.0
  C  C15  1  0.76614000  0.12062000  0.28043000  1.0
  C  C16  1  0.23378000  0.58092000  0.71738000  1.0
  C  C17  1  0.76622000  0.41908000  0.28262000  1.0
  C  C18  1  0.38975000  0.70583000  0.90649000  1.0
  C  C19  1  0.61025000  0.29418000  0.09351000  1.0
  C  C20  1  0.25080000  0.81613000  0.03125000  1.0
  C  C21  1  0.74918000  0.18387000  0.96876000  1.0
  S  S22  1  0.36401000  0.77699000  0.18366000  1.0
  S  S23  1  0.63598000  0.22301000  0.81634000  1.0
  N  N24  1  0.14929000  0.83465000  0.61445000  1.0
  N  N25  1  0.85072000  0.16535000  0.38554000  1.0
  N  N26  1  0.15011000  0.64670000  0.61271000  1.0
  N  N27  1  0.84988000  0.35330000  0.38730000  1.0
  N  N28  1  0.28581000  0.72282000  0.78687000  1.0
  N  N29  1  0.71421000  0.27718000  0.21312000  1.0
  Cl  Cl30  1  0.75522000  0.75136000  0.48581000  1.0
  Cl  Cl31  1  0.24477000  0.24865000  0.51419000  1.0
  O  O32  1  0.28366000  0.93557000  0.27068000  1.0
  O  O33  1  0.71634000  0.06442000  0.72932000  1.0
  O  O34  1  0.62838000  0.77229000  0.12356000  1.0
  O  O35  1  0.37162000  0.22770000  0.87644000  1.0
  O  O36  1  0.26367000  0.59941000  0.25466000  1.0
  O  O37  1  0.73633000  0.40058000  0.74534000  1.0
