# generated using pymatgen
data_ZnH7C12N5O4
_symmetry_space_group_name_H-M   'P 1'
_cell_length_a   10.66520000
_cell_length_b   16.21180000
_cell_length_c   19.40370000
_cell_angle_alpha   89.99990000
_cell_angle_beta   101.55600000
_cell_angle_gamma   90.00000000
_symmetry_Int_Tables_number   1
_chemical_formula_structural   ZnH7C12N5O4
_chemical_formula_sum   'Zn8 H56 C96 N40 O32'
_cell_volume   3286.93354354
_cell_formula_units_Z   8
loop_
 _symmetry_equiv_pos_site_id
 _symmetry_equiv_pos_as_xyz
  1  'x, y, z'
loop_
 _atom_site_type_symbol
 _atom_site_label
 _atom_site_symmetry_multiplicity
 _atom_site_fract_x
 _atom_site_fract_y
 _atom_site_fract_z
 _atom_site_occupancy
  Zn  Zn0  1  0.04822000  0.34269000  0.00997000  1.0
  Zn  Zn1  1  0.01067000  0.34599000  0.49807000  1.0
  Zn  Zn2  1  0.45178000  0.84269000  0.99003000  1.0
  Zn  Zn3  1  0.48933000  0.84599000  0.50194000  1.0
  Zn  Zn4  1  0.95179000  0.65731000  0.99003000  1.0
  Zn  Zn5  1  0.98933000  0.65401000  0.50194000  1.0
  Zn  Zn6  1  0.54822000  0.15731000  0.00997000  1.0
  Zn  Zn7  1  0.51066000  0.15401000  0.49806000  1.0
  H  H8  1  0.26870000  0.10409000  0.98965000  1.0
  H  H9  1  0.12284000  0.15251000  0.00099000  1.0
  H  H10  1  0.18387000  0.21436000  0.14098000  1.0
  H  H11  1  0.17110000  0.14372000  0.25221000  1.0
  H  H12  1  0.27056000  0.91530000  0.15895000  1.0
  H  H13  1  0.28062000  0.99333000  0.05207000  1.0
  H  H14  1  0.25885000  0.07892000  0.35398000  1.0
  H  H15  1  0.91276000  0.63586000  0.72181000  1.0
  H  H16  1  0.98335000  0.33726000  0.76834000  1.0
  H  H17  1  0.22704000  0.00119000  0.45758000  1.0
  H  H18  1  0.11339000  0.78940000  0.33865000  1.0
  H  H19  1  0.14689000  0.85894000  0.22892000  1.0
  H  H20  1  0.03652000  0.83724000  0.45381000  1.0
  H  H21  1  0.15935000  0.89803000  0.50698000  1.0
  H  H22  1  0.23130000  0.60409000  0.01035000  1.0
  H  H23  1  0.37716000  0.65251000  0.99901000  1.0
  H  H24  1  0.31613000  0.71436000  0.85902000  1.0
  H  H25  1  0.32890000  0.64372000  0.74778000  1.0
  H  H26  1  0.22944000  0.41530000  0.84105000  1.0
  H  H27  1  0.21938000  0.49333000  0.94793000  1.0
  H  H28  1  0.24115000  0.57892000  0.64602000  1.0
  H  H29  1  0.58723000  0.13586000  0.27819000  1.0
  H  H30  1  0.51665000  0.83726000  0.23166000  1.0
  H  H31  1  0.27296000  0.50119000  0.54242000  1.0
  H  H32  1  0.38660000  0.28940000  0.66135000  1.0
  H  H33  1  0.35310000  0.35894000  0.77108000  1.0
  H  H34  1  0.46348000  0.33724000  0.54619000  1.0
  H  H35  1  0.34065000  0.39803000  0.49302000  1.0
  H  H36  1  0.73130000  0.89591000  0.01034000  1.0
  H  H37  1  0.87716000  0.84749000  0.99901000  1.0
  H  H38  1  0.81613000  0.78564000  0.85902000  1.0
  H  H39  1  0.82890000  0.85628000  0.74778000  1.0
  H  H40  1  0.72944000  0.08470000  0.84105000  1.0
  H  H41  1  0.71938000  0.00667000  0.94793000  1.0
  H  H42  1  0.74115000  0.92108000  0.64602000  1.0
  H  H43  1  0.08724000  0.36414000  0.27819000  1.0
  H  H44  1  0.01665000  0.66274000  0.23166000  1.0
  H  H45  1  0.77296000  0.99881000  0.54242000  1.0
  H  H46  1  0.88661000  0.21060000  0.66135000  1.0
  H  H47  1  0.85310000  0.14106000  0.77108000  1.0
  H  H48  1  0.96348000  0.16276000  0.54619000  1.0
  H  H49  1  0.84065000  0.10197000  0.49302000  1.0
  H  H50  1  0.76870000  0.39591000  0.98966000  1.0
  H  H51  1  0.62284000  0.34749000  0.00099000  1.0
  H  H52  1  0.68387000  0.28564000  0.14098000  1.0
  H  H53  1  0.67110000  0.35628000  0.25222000  1.0
  H  H54  1  0.77056000  0.58470000  0.15895000  1.0
  H  H55  1  0.78061000  0.50667000  0.05207000  1.0
  H  H56  1  0.75885000  0.42108000  0.35398000  1.0
  H  H57  1  0.41276000  0.86414000  0.72181000  1.0
  H  H58  1  0.48335000  0.16274000  0.76834000  1.0
  H  H59  1  0.72704000  0.49881000  0.45758000  1.0
  H  H60  1  0.61339000  0.71060000  0.33865000  1.0
  H  H61  1  0.64690000  0.64106000  0.22892000  1.0
  H  H62  1  0.53652000  0.66275000  0.45381000  1.0
  H  H63  1  0.65935000  0.60197000  0.50698000  1.0
  C  C64  1  0.28936000  0.22765000  0.02380000  1.0
  C  C65  1  0.22575000  0.14586000  0.02318000  1.0
  C  C66  1  0.20392000  0.14831000  0.14796000  1.0
  C  C67  1  0.19667000  0.10763000  0.20978000  1.0
  C  C68  1  0.21661000  0.02186000  0.21604000  1.0
  C  C69  1  0.24804000  0.98076000  0.15813000  1.0
  C  C70  1  0.25617000  0.02373000  0.09755000  1.0
  C  C71  1  0.20263000  0.97682000  0.28051000  1.0
  C  C72  1  0.22339000  0.01606000  0.34612000  1.0
  C  C73  1  0.92794000  0.53987000  0.79864000  1.0
  C  C74  1  0.92679000  0.56987000  0.73108000  1.0
  C  C75  1  0.94431000  0.51755000  0.67675000  1.0
  C  C76  1  0.96769000  0.43322000  0.69120000  1.0
  C  C77  1  0.96555000  0.40287000  0.75837000  1.0
  C  C78  1  0.94394000  0.45476000  0.81216000  1.0
  C  C79  1  0.92143000  0.60116000  0.85564000  1.0
  C  C80  1  0.93026000  0.55451000  0.60458000  1.0
  C  C81  1  0.99916000  0.37600000  0.63652000  1.0
  C  C82  1  0.20718000  0.97324000  0.40550000  1.0
  C  C83  1  0.14837000  0.85293000  0.33827000  1.0
  C  C84  1  0.16610000  0.89316000  0.27817000  1.0
  C  C85  1  0.13873000  0.85256000  0.46427000  1.0
  C  C86  1  0.21473000  0.77652000  0.48714000  1.0
  C  C87  1  0.93699000  0.41696000  0.88214000  1.0
  C  C88  1  0.21064000  0.72765000  0.97620000  1.0
  C  C89  1  0.27425000  0.64586000  0.97683000  1.0
  C  C90  1  0.29608000  0.64831000  0.85204000  1.0
  C  C91  1  0.30333000  0.60763000  0.79022000  1.0
  C  C92  1  0.28339000  0.52186000  0.78396000  1.0
  C  C93  1  0.25196000  0.48076000  0.84187000  1.0
  C  C94  1  0.24383000  0.52373000  0.90245000  1.0
  C  C95  1  0.29736000  0.47682000  0.71949000  1.0
  C  C96  1  0.27661000  0.51606000  0.65388000  1.0
  C  C97  1  0.57206000  0.03986000  0.20136000  1.0
  C  C98  1  0.57321000  0.06987000  0.26892000  1.0
  C  C99  1  0.55569000  0.01755000  0.32325000  1.0
  C  C100  1  0.53231000  0.93322000  0.30880000  1.0
  C  C101  1  0.53445000  0.90286000  0.24163000  1.0
  C  C102  1  0.55606000  0.95476000  0.18784000  1.0
  C  C103  1  0.57857000  0.10116000  0.14436000  1.0
  C  C104  1  0.56974000  0.05451000  0.39542000  1.0
  C  C105  1  0.50084000  0.87600000  0.36348000  1.0
  C  C106  1  0.29282000  0.47324000  0.59450000  1.0
  C  C107  1  0.35162000  0.35292000  0.66173000  1.0
  C  C108  1  0.33389000  0.39316000  0.72183000  1.0
  C  C109  1  0.36127000  0.35256000  0.53573000  1.0
  C  C110  1  0.28526000  0.27652000  0.51285000  1.0
  C  C111  1  0.56301000  0.91696000  0.11786000  1.0
  C  C112  1  0.71064000  0.77235000  0.97620000  1.0
  C  C113  1  0.77425000  0.85414000  0.97682000  1.0
  C  C114  1  0.79608000  0.85169000  0.85204000  1.0
  C  C115  1  0.80332000  0.89237000  0.79022000  1.0
  C  C116  1  0.78339000  0.97814000  0.78396000  1.0
  C  C117  1  0.75196000  0.01924000  0.84187000  1.0
  C  C118  1  0.74383000  0.97627000  0.90245000  1.0
  C  C119  1  0.79736000  0.02318000  0.71949000  1.0
  C  C120  1  0.77660000  0.98394000  0.65388000  1.0
  C  C121  1  0.07206000  0.46014000  0.20136000  1.0
  C  C122  1  0.07321000  0.43013000  0.26892000  1.0
  C  C123  1  0.05569000  0.48245000  0.32325000  1.0
  C  C124  1  0.03231000  0.56678000  0.30880000  1.0
  C  C125  1  0.03445000  0.59714000  0.24163000  1.0
  C  C126  1  0.05606000  0.54524000  0.18784000  1.0
  C  C127  1  0.07857000  0.39884000  0.14436000  1.0
  C  C128  1  0.06974000  0.44549000  0.39542000  1.0
  C  C129  1  0.00084000  0.62400000  0.36348000  1.0
  C  C130  1  0.79282000  0.02675000  0.59450000  1.0
  C  C131  1  0.85162000  0.14707000  0.66173000  1.0
  C  C132  1  0.83389000  0.10684000  0.72182000  1.0
  C  C133  1  0.86127000  0.14744000  0.53573000  1.0
  C  C134  1  0.78526000  0.22348000  0.51285000  1.0
  C  C135  1  0.06301000  0.58304000  0.11786000  1.0
  C  C136  1  0.78936000  0.27235000  0.02380000  1.0
  C  C137  1  0.72576000  0.35414000  0.02318000  1.0
  C  C138  1  0.70392000  0.35169000  0.14796000  1.0
  C  C139  1  0.69668000  0.39237000  0.20978000  1.0
  C  C140  1  0.71661000  0.47814000  0.21604000  1.0
  C  C141  1  0.74804000  0.51924000  0.15813000  1.0
  C  C142  1  0.75617000  0.47627000  0.09755000  1.0
  C  C143  1  0.70264000  0.52318000  0.28051000  1.0
  C  C144  1  0.72339000  0.48394000  0.34612000  1.0
  C  C145  1  0.42794000  0.96014000  0.79864000  1.0
  C  C146  1  0.42679000  0.93013000  0.73108000  1.0
  C  C147  1  0.44431000  0.98245000  0.67675000  1.0
  C  C148  1  0.46769000  0.06678000  0.69120000  1.0
  C  C149  1  0.46555000  0.09714000  0.75837000  1.0
  C  C150  1  0.44394000  0.04524000  0.81216000  1.0
  C  C151  1  0.42143000  0.89885000  0.85564000  1.0
  C  C152  1  0.43026000  0.94549000  0.60458000  1.0
  C  C153  1  0.49916000  0.12400000  0.63652000  1.0
  C  C154  1  0.70718000  0.52676000  0.40550000  1.0
  C  C155  1  0.64838000  0.64707000  0.33827000  1.0
  C  C156  1  0.66611000  0.60684000  0.27818000  1.0
  C  C157  1  0.63873000  0.64744000  0.46427000  1.0
  C  C158  1  0.71474000  0.72348000  0.48714000  1.0
  C  C159  1  0.43699000  0.08304000  0.88214000  1.0
  N  N160  1  0.41171000  0.24042000  0.01873000  1.0
  N  N161  1  0.42722000  0.32274000  0.01434000  1.0
  N  N162  1  0.31861000  0.35935000  0.01601000  1.0
  N  N163  1  0.23076000  0.30107000  0.02173000  1.0
  N  N164  1  0.34234000  0.76804000  0.49794000  1.0
  N  N165  1  0.36999000  0.69099000  0.52369000  1.0
  N  N166  1  0.26361000  0.65444000  0.52915000  1.0
  N  N167  1  0.16463000  0.70641000  0.50656000  1.0
  N  N168  1  0.23285000  0.10579000  0.09291000  1.0
  N  N169  1  0.16805000  0.89367000  0.40072000  1.0
  N  N170  1  0.08829000  0.74042000  0.98127000  1.0
  N  N171  1  0.07279000  0.82274000  0.98566000  1.0
  N  N172  1  0.18140000  0.85935000  0.98399000  1.0
  N  N173  1  0.26925000  0.80108000  0.97827000  1.0
  N  N174  1  0.15766000  0.26805000  0.50205000  1.0
  N  N175  1  0.13001000  0.19100000  0.47631000  1.0
  N  N176  1  0.23639000  0.15444000  0.47085000  1.0
  N  N177  1  0.33537000  0.20641000  0.49344000  1.0
  N  N178  1  0.26715000  0.60579000  0.90709000  1.0
  N  N179  1  0.33195000  0.39367000  0.59928000  1.0
  N  N180  1  0.58829000  0.75958000  0.98127000  1.0
  N  N181  1  0.57279000  0.67726000  0.98566000  1.0
  N  N182  1  0.68140000  0.64065000  0.98399000  1.0
  N  N183  1  0.76925000  0.69893000  0.97827000  1.0
  N  N184  1  0.65766000  0.23195000  0.50205000  1.0
  N  N185  1  0.63001000  0.30900000  0.47631000  1.0
  N  N186  1  0.73639000  0.34556000  0.47085000  1.0
  N  N187  1  0.83537000  0.29359000  0.49344000  1.0
  N  N188  1  0.76715000  0.89421000  0.90709000  1.0
  N  N189  1  0.83195000  0.10633000  0.59928000  1.0
  N  N190  1  0.91171000  0.25958000  0.01873000  1.0
  N  N191  1  0.92722000  0.17726000  0.01434000  1.0
  N  N192  1  0.81860000  0.14065000  0.01601000  1.0
  N  N193  1  0.73075000  0.19893000  0.02173000  1.0
  N  N194  1  0.84234000  0.73195000  0.49795000  1.0
  N  N195  1  0.86999000  0.80900000  0.52369000  1.0
  N  N196  1  0.76361000  0.84556000  0.52915000  1.0
  N  N197  1  0.66463000  0.79359000  0.50656000  1.0
  N  N198  1  0.73286000  0.39421000  0.09291000  1.0
  N  N199  1  0.66805000  0.60633000  0.40073000  1.0
  O  O200  1  0.04516000  0.38659000  0.91564000  1.0
  O  O201  1  0.83258000  0.41270000  0.90116000  1.0
  O  O202  1  0.99745000  0.29932000  0.64448000  1.0
  O  O203  1  0.02931000  0.41308000  0.58279000  1.0
  O  O204  1  0.82873000  0.54335000  0.56067000  1.0
  O  O205  1  0.02284000  0.60235000  0.59544000  1.0
  O  O206  1  0.87823000  0.67213000  0.84070000  1.0
  O  O207  1  0.96880000  0.57507000  0.91893000  1.0
  O  O208  1  0.45484000  0.88659000  0.08436000  1.0
  O  O209  1  0.66742000  0.91270000  0.09884000  1.0
  O  O210  1  0.50255000  0.79932000  0.35552000  1.0
  O  O211  1  0.47069000  0.91308000  0.41721000  1.0
  O  O212  1  0.67127000  0.04335000  0.43933000  1.0
  O  O213  1  0.47716000  0.10235000  0.40456000  1.0
  O  O214  1  0.62177000  0.17213000  0.15930000  1.0
  O  O215  1  0.53120000  0.07506000  0.08106000  1.0
  O  O216  1  0.95484000  0.61341000  0.08437000  1.0
  O  O217  1  0.16742000  0.58731000  0.09884000  1.0
  O  O218  1  0.00255000  0.70068000  0.35552000  1.0
  O  O219  1  0.97068000  0.58692000  0.41721000  1.0
  O  O220  1  0.17127000  0.45665000  0.43933000  1.0
  O  O221  1  0.97716000  0.39765000  0.40456000  1.0
  O  O222  1  0.12178000  0.32787000  0.15931000  1.0
  O  O223  1  0.03120000  0.42494000  0.08107000  1.0
  O  O224  1  0.54516000  0.11341000  0.91563000  1.0
  O  O225  1  0.33258000  0.08730000  0.90116000  1.0
  O  O226  1  0.49745000  0.20068000  0.64448000  1.0
  O  O227  1  0.52931000  0.08692000  0.58279000  1.0
  O  O228  1  0.32873000  0.95665000  0.56067000  1.0
  O  O229  1  0.52284000  0.89765000  0.59544000  1.0
  O  O230  1  0.37823000  0.82787000  0.84070000  1.0
  O  O231  1  0.46880000  0.92493000  0.91893000  1.0
