# generated using pymatgen
data_Tm2H21C27NO14
_symmetry_space_group_name_H-M   'P 1'
_cell_length_a   10.82230000
_cell_length_b   18.63180000
_cell_length_c   19.45220000
_cell_angle_alpha   97.95370000
_cell_angle_beta   94.56270000
_cell_angle_gamma   106.14800000
_symmetry_Int_Tables_number   1
_chemical_formula_structural   Tm2H21C27NO14
_chemical_formula_sum   'Tm8 H84 C108 N4 O56'
_cell_volume   3702.49524642
_cell_formula_units_Z   4
loop_
 _symmetry_equiv_pos_site_id
 _symmetry_equiv_pos_as_xyz
  1  'x, y, z'
loop_
 _atom_site_type_symbol
 _atom_site_label
 _atom_site_symmetry_multiplicity
 _atom_site_fract_x
 _atom_site_fract_y
 _atom_site_fract_z
 _atom_site_occupancy
  Tm  Tm0  1  0.82412000  0.10790000  0.20686000  1.0
  Tm  Tm1  1  0.17588000  0.89210000  0.79313000  1.0
  Tm  Tm2  1  0.82565000  0.39965000  0.20426000  1.0
  Tm  Tm3  1  0.17435000  0.60035000  0.79574000  1.0
  Tm  Tm4  1  0.76189000  0.60894000  0.26665000  1.0
  Tm  Tm5  1  0.23811000  0.39106000  0.73336000  1.0
  Tm  Tm6  1  0.76072000  0.89755000  0.26904000  1.0
  Tm  Tm7  1  0.23928000  0.10246000  0.73096000  1.0
  H  H8  1  0.03855000  0.10804000  0.08659000  1.0
  H  H9  1  0.96145000  0.89197000  0.91341000  1.0
  H  H10  1  0.94458000  0.37652000  0.92988000  1.0
  H  H11  1  0.05541000  0.62348000  0.07011000  1.0
  H  H12  1  0.08168000  0.34255000  0.91856000  1.0
  H  H13  1  0.91831000  0.65745000  0.08144000  1.0
  H  H14  1  0.10321000  0.44164000  0.93975000  1.0
  H  H15  1  0.89679000  0.55837000  0.06025000  1.0
  H  H16  1  0.86823000  0.37550000  0.02848000  1.0
  H  H17  1  0.13176000  0.62451000  0.97152000  1.0
  H  H18  1  0.48407000  0.10432000  0.21962000  1.0
  H  H19  1  0.51594000  0.89568000  0.78038000  1.0
  H  H20  1  0.26067000  0.11951000  0.20306000  1.0
  H  H21  1  0.73933000  0.88050000  0.79694000  1.0
  H  H22  1  0.22529000  0.34285000  0.02831000  1.0
  H  H23  1  0.77470000  0.65715000  0.97169000  1.0
  H  H24  1  0.17965000  0.37590000  0.11081000  1.0
  H  H25  1  0.82032000  0.62409000  0.88919000  1.0
  H  H26  1  0.25573000  0.44189000  0.05690000  1.0
  H  H27  1  0.74426000  0.55810000  0.94310000  1.0
  H  H28  1  0.10105000  0.90193000  0.26247000  1.0
  H  H29  1  0.89895000  0.09807000  0.73752000  1.0
  H  H30  1  0.32402000  0.88596000  0.27717000  1.0
  H  H31  1  0.67597000  0.11404000  0.72282000  1.0
  H  H32  1  0.96379000  0.21934000  0.42129000  1.0
  H  H33  1  0.03620000  0.78068000  0.57872000  1.0
  H  H34  1  0.05652000  0.27901000  0.54626000  1.0
  H  H35  1  0.94349000  0.72100000  0.45375000  1.0
  H  H36  1  0.96677000  0.05845000  0.60545000  1.0
  H  H37  1  0.03324000  0.94155000  0.39455000  1.0
  H  H38  1  0.86975000  0.99969000  0.48303000  1.0
  H  H39  1  0.13025000  0.00032000  0.51697000  1.0
  H  H40  1  0.58727000  0.27992000  0.03637000  1.0
  H  H41  1  0.41273000  0.72008000  0.96363000  1.0
  H  H42  1  0.43298000  0.21634000  0.92612000  1.0
  H  H43  1  0.56704000  0.78366000  0.07389000  1.0
  H  H44  1  0.36349000  0.00274000  0.99814000  1.0
  H  H45  1  0.63652000  0.99726000  0.00186000  1.0
  H  H46  1  0.52231000  0.06495000  0.10540000  1.0
  H  H47  1  0.47768000  0.93505000  0.89460000  1.0
  H  H48  1  0.14124000  0.43787000  0.30274000  1.0
  H  H49  1  0.85876000  0.56213000  0.69726000  1.0
  H  H50  1  0.37958000  0.49892000  0.30647000  1.0
  H  H51  1  0.62042000  0.50108000  0.69353000  1.0
  H  H52  1  0.42510000  0.28775000  0.20968000  1.0
  H  H53  1  0.57490000  0.71225000  0.79032000  1.0
  H  H54  1  0.18519000  0.22508000  0.20989000  1.0
  H  H55  1  0.81482000  0.77492000  0.79011000  1.0
  H  H56  1  0.15451000  0.73284000  0.22758000  1.0
  H  H57  1  0.84549000  0.26715000  0.77243000  1.0
  H  H58  1  0.39682000  0.78806000  0.23007000  1.0
  H  H59  1  0.60318000  0.21194000  0.76993000  1.0
  H  H60  1  0.43559000  0.56305000  0.19433000  1.0
  H  H61  1  0.56441000  0.43694000  0.80567000  1.0
  H  H62  1  0.19479000  0.50850000  0.19047000  1.0
  H  H63  1  0.80522000  0.49149000  0.80953000  1.0
  H  H64  1  0.58325000  0.59989000  0.10524000  1.0
  H  H65  1  0.41673000  0.40012000  0.89477000  1.0
  H  H66  1  0.58085000  0.38676000  0.98721000  1.0
  H  H67  1  0.41913000  0.61324000  0.01280000  1.0
  H  H68  1  0.92785000  0.61259000  0.48361000  1.0
  H  H69  1  0.07217000  0.38741000  0.51638000  1.0
  H  H70  1  0.96547000  0.39562000  0.39877000  1.0
  H  H71  1  0.03455000  0.60438000  0.60123000  1.0
  H  H72  1  0.59308000  0.58274000  0.36460000  1.0
  H  H73  1  0.40692000  0.41726000  0.63541000  1.0
  H  H74  1  0.68780000  0.66168000  0.40236000  1.0
  H  H75  1  0.31220000  0.33832000  0.59764000  1.0
  H  H76  1  0.70725000  0.91650000  0.40145000  1.0
  H  H77  1  0.29275000  0.08351000  0.59856000  1.0
  H  H78  1  0.58448000  0.85121000  0.36672000  1.0
  H  H79  1  0.41552000  0.14879000  0.63328000  1.0
  H  H80  1  0.10470000  0.14944000  0.92931000  1.0
  H  H81  1  0.89531000  0.85056000  0.07069000  1.0
  H  H82  1  0.00441000  0.05382000  0.91555000  1.0
  H  H83  1  0.99560000  0.94618000  0.08445000  1.0
  H  H84  1  0.12108000  0.08983000  0.99160000  1.0
  H  H85  1  0.87892000  0.91017000  0.00840000  1.0
  H  H86  1  0.80430000  0.10251000  0.91218000  1.0
  H  H87  1  0.19570000  0.89748000  0.08781000  1.0
  H  H88  1  0.89811000  0.19963000  0.93279000  1.0
  H  H89  1  0.10189000  0.80036000  0.06720000  1.0
  H  H90  1  0.78665000  0.16017000  0.99075000  1.0
  H  H91  1  0.21334000  0.83982000  0.00925000  1.0
  C  C92  1  0.95947000  0.12736000  0.06338000  1.0
  C  C93  1  0.04053000  0.87264000  0.93662000  1.0
  C  C94  1  0.54935000  0.98315000  0.25518000  1.0
  C  C95  1  0.45065000  0.01685000  0.74482000  1.0
  C  C96  1  0.04680000  0.38561000  0.94888000  1.0
  C  C97  1  0.95320000  0.61439000  0.05111000  1.0
  C  C98  1  0.41685000  0.99380000  0.24845000  1.0
  C  C99  1  0.58314000  0.00620000  0.75155000  1.0
  C  C100  1  0.95921000  0.37717000  0.05955000  1.0
  C  C101  1  0.04078000  0.62283000  0.94044000  1.0
  C  C102  1  0.39936000  0.06006000  0.22812000  1.0
  C  C103  1  0.60064000  0.93993000  0.77188000  1.0
  C  C104  1  0.27546000  0.06839000  0.21897000  1.0
  C  C105  1  0.72454000  0.93161000  0.78103000  1.0
  C  C106  1  0.16764000  0.01126000  0.23092000  1.0
  C  C107  1  0.83236000  0.98873000  0.76908000  1.0
  C  C108  1  0.18766000  0.38570000  0.05694000  1.0
  C  C109  1  0.81233000  0.61430000  0.94307000  1.0
  C  C110  1  0.03458000  0.02090000  0.22286000  1.0
  C  C111  1  0.96542000  0.97910000  0.77714000  1.0
  C  C112  1  0.18534000  0.94542000  0.25231000  1.0
  C  C113  1  0.81466000  0.05458000  0.74769000  1.0
  C  C114  1  0.30902000  0.93679000  0.26072000  1.0
  C  C115  1  0.69097000  0.06321000  0.73928000  1.0
  C  C116  1  0.86414000  0.06899000  0.37028000  1.0
  C  C117  1  0.13586000  0.93103000  0.62973000  1.0
  C  C118  1  0.91208000  0.10592000  0.44472000  1.0
  C  C119  1  0.08791000  0.89409000  0.55528000  1.0
  C  C120  1  0.96404000  0.18495000  0.46233000  1.0
  C  C121  1  0.03594000  0.81505000  0.53768000  1.0
  C  C122  1  0.01650000  0.21773000  0.53097000  1.0
  C  C123  1  0.98349000  0.78227000  0.46904000  1.0
  C  C124  1  0.02010000  0.17211000  0.58237000  1.0
  C  C125  1  0.97990000  0.82790000  0.41763000  1.0
  C  C126  1  0.08906000  0.20680000  0.65432000  1.0
  C  C127  1  0.91094000  0.79321000  0.34569000  1.0
  C  C128  1  0.96434000  0.09349000  0.56522000  1.0
  C  C129  1  0.03565000  0.90652000  0.43478000  1.0
  C  C130  1  0.91009000  0.06090000  0.49697000  1.0
  C  C131  1  0.08989000  0.93911000  0.50303000  1.0
  C  C132  1  0.65998000  0.21333000  0.14048000  1.0
  C  C133  1  0.34001000  0.78667000  0.85953000  1.0
  C  C134  1  0.56358000  0.17596000  0.07680000  1.0
  C  C135  1  0.43642000  0.82403000  0.92321000  1.0
  C  C136  1  0.53773000  0.21919000  0.02679000  1.0
  C  C137  1  0.46227000  0.78081000  0.97321000  1.0
  C  C138  1  0.45205000  0.18433000  0.96655000  1.0
  C  C139  1  0.54796000  0.81567000  0.03346000  1.0
  C  C140  1  0.38941000  0.10602000  0.95627000  1.0
  C  C141  1  0.61059000  0.89398000  0.04373000  1.0
  C  C142  1  0.30305000  0.06755000  0.88953000  1.0
  C  C143  1  0.69697000  0.93244000  0.11047000  1.0
  C  C144  1  0.41266000  0.06337000  0.00714000  1.0
  C  C145  1  0.58734000  0.93662000  0.99287000  1.0
  C  C146  1  0.50039000  0.09796000  0.06663000  1.0
  C  C147  1  0.49961000  0.90203000  0.93337000  1.0
  C  C148  1  0.00704000  0.29230000  0.25153000  1.0
  C  C149  1  0.99296000  0.70770000  0.74847000  1.0
  C  C150  1  0.15032000  0.32817000  0.25564000  1.0
  C  C151  1  0.84969000  0.67183000  0.74436000  1.0
  C  C152  1  0.20441000  0.40517000  0.28348000  1.0
  C  C153  1  0.79560000  0.59483000  0.71653000  1.0
  C  C154  1  0.33679000  0.43893000  0.28554000  1.0
  C  C155  1  0.66322000  0.56107000  0.71446000  1.0
  C  C156  1  0.41596000  0.39673000  0.25828000  1.0
  C  C157  1  0.58404000  0.60326000  0.74172000  1.0
  C  C158  1  0.55651000  0.43471000  0.25593000  1.0
  C  C159  1  0.44349000  0.56528000  0.74407000  1.0
  C  C160  1  0.36181000  0.31944000  0.23074000  1.0
  C  C161  1  0.63820000  0.68055000  0.76927000  1.0
  C  C162  1  0.22984000  0.28517000  0.23021000  1.0
  C  C163  1  0.77017000  0.71483000  0.76979000  1.0
  C  C164  1  0.02051000  0.58488000  0.21456000  1.0
  C  C165  1  0.97950000  0.41511000  0.78544000  1.0
  C  C166  1  0.16180000  0.61767000  0.20944000  1.0
  C  C167  1  0.83820000  0.38233000  0.79056000  1.0
  C  C168  1  0.21742000  0.69659000  0.21947000  1.0
  C  C169  1  0.78258000  0.30341000  0.78053000  1.0
  C  C170  1  0.35064000  0.72699000  0.22117000  1.0
  C  C171  1  0.64936000  0.27301000  0.77883000  1.0
  C  C172  1  0.42955000  0.67874000  0.21328000  1.0
  C  C173  1  0.57046000  0.32126000  0.78672000  1.0
  C  C174  1  0.57381000  0.71207000  0.22214000  1.0
  C  C175  1  0.42620000  0.28794000  0.77787000  1.0
  C  C176  1  0.37341000  0.59993000  0.20059000  1.0
  C  C177  1  0.62660000  0.40007000  0.79941000  1.0
  C  C178  1  0.24000000  0.56956000  0.19842000  1.0
  C  C179  1  0.75999000  0.43044000  0.80158000  1.0
  C  C180  1  0.68691000  0.48473000  0.10832000  1.0
  C  C181  1  0.31309000  0.51528000  0.89168000  1.0
  C  C182  1  0.59153000  0.49257000  0.05163000  1.0
  C  C183  1  0.40847000  0.50743000  0.94837000  1.0
  C  C184  1  0.54624000  0.55660000  0.05882000  1.0
  C  C185  1  0.45375000  0.44339000  0.94118000  1.0
  C  C186  1  0.54481000  0.43611000  0.99240000  1.0
  C  C187  1  0.45518000  0.56389000  0.00761000  1.0
  C  C188  1  0.87972000  0.50999000  0.36480000  1.0
  C  C189  1  0.12028000  0.49001000  0.63519000  1.0
  C  C190  1  0.94087000  0.50463000  0.43488000  1.0
  C  C191  1  0.05916000  0.49536000  0.56510000  1.0
  C  C192  1  0.95994000  0.56357000  0.49159000  1.0
  C  C193  1  0.04009000  0.43643000  0.50840000  1.0
  C  C194  1  0.98126000  0.44080000  0.44353000  1.0
  C  C195  1  0.01875000  0.55919000  0.55646000  1.0
  C  C196  1  0.05155000  0.10388000  0.95559000  1.0
  C  C197  1  0.94845000  0.89612000  0.04442000  1.0
  C  C198  1  0.85510000  0.14868000  0.95530000  1.0
  C  C199  1  0.14489000  0.85131000  0.04470000  1.0
  N  N200  1  0.95591000  0.12728000  0.99437000  1.0
  N  N201  1  0.04409000  0.87271000  0.00563000  1.0
  N  N202  1  0.05986000  0.38083000  0.02301000  1.0
  N  N203  1  0.94013000  0.61917000  0.97699000  1.0
  O  O204  1  0.64392000  0.03416000  0.24024000  1.0
  O  O205  1  0.35608000  0.96583000  0.75976000  1.0
  O  O206  1  0.56159000  0.92234000  0.27405000  1.0
  O  O207  1  0.43840000  0.07765000  0.72595000  1.0
  O  O208  1  0.01876000  0.07808000  0.19836000  1.0
  O  O209  1  0.98125000  0.92192000  0.80165000  1.0
  O  O210  1  0.94224000  0.97127000  0.24144000  1.0
  O  O211  1  0.05776000  0.02873000  0.75856000  1.0
  O  O212  1  0.87803000  0.11012000  0.32320000  1.0
  O  O213  1  0.12196000  0.88989000  0.67680000  1.0
  O  O214  1  0.81430000  0.99677000  0.35913000  1.0
  O  O215  1  0.18572000  0.00324000  0.64087000  1.0
  O  O216  1  0.13255000  0.27809000  0.66863000  1.0
  O  O217  1  0.86746000  0.72192000  0.33137000  1.0
  O  O218  1  0.10133000  0.16196000  0.69683000  1.0
  O  O219  1  0.89867000  0.83804000  0.30318000  1.0
  O  O220  1  0.68514000  0.17080000  0.18237000  1.0
  O  O221  1  0.31486000  0.82921000  0.81764000  1.0
  O  O222  1  0.70864000  0.28428000  0.14880000  1.0
  O  O223  1  0.29136000  0.71573000  0.85120000  1.0
  O  O224  1  0.28870000  0.10981000  0.84508000  1.0
  O  O225  1  0.71129000  0.89018000  0.15492000  1.0
  O  O226  1  0.25146000  0.99633000  0.88110000  1.0
  O  O227  1  0.74856000  0.00366000  0.11890000  1.0
  O  O228  1  0.96641000  0.22081000  0.24195000  1.0
  O  O229  1  0.03359000  0.77918000  0.75804000  1.0
  O  O230  1  0.93564000  0.33608000  0.25871000  1.0
  O  O231  1  0.06436000  0.66392000  0.74128000  1.0
  O  O232  1  0.60080000  0.50507000  0.28274000  1.0
  O  O233  1  0.39921000  0.49492000  0.71726000  1.0
  O  O234  1  0.62175000  0.39551000  0.22616000  1.0
  O  O235  1  0.37825000  0.60449000  0.77383000  1.0
  O  O236  1  0.97540000  0.51338000  0.20851000  1.0
  O  O237  1  0.02460000  0.48661000  0.79149000  1.0
  O  O238  1  0.95490000  0.63163000  0.22611000  1.0
  O  O239  1  0.04511000  0.36837000  0.77389000  1.0
  O  O240  1  0.61943000  0.78291000  0.23969000  1.0
  O  O241  1  0.38057000  0.21710000  0.76032000  1.0
  O  O242  1  0.64291000  0.66705000  0.21171000  1.0
  O  O243  1  0.35709000  0.33295000  0.78830000  1.0
  O  O244  1  0.73483000  0.42949000  0.10015000  1.0
  O  O245  1  0.26516000  0.57051000  0.89985000  1.0
  O  O246  1  0.71480000  0.53450000  0.16345000  1.0
  O  O247  1  0.28520000  0.46551000  0.83655000  1.0
  O  O248  1  0.85108000  0.45197000  0.31745000  1.0
  O  O249  1  0.14890000  0.54802000  0.68255000  1.0
  O  O250  1  0.86099000  0.57315000  0.35669000  1.0
  O  O251  1  0.13901000  0.42685000  0.64330000  1.0
  O  O252  1  0.88085000  0.14676000  0.10019000  1.0
  O  O253  1  0.11914000  0.85323000  0.89980000  1.0
  O  O254  1  0.63159000  0.63559000  0.35940000  1.0
  O  O255  1  0.36840000  0.36440000  0.64060000  1.0
  O  O256  1  0.67793000  0.86303000  0.37888000  1.0
  O  O257  1  0.32207000  0.13697000  0.62112000  1.0
  O  O258  1  0.96508000  0.37643000  0.12391000  1.0
  O  O259  1  0.03490000  0.62356000  0.87608000  1.0
