# generated using pymatgen
data_CdP2H56C36(N4O5)2
_symmetry_space_group_name_H-M   'P 1'
_cell_length_a   8.60699000
_cell_length_b   8.85407000
_cell_length_c   14.28730000
_cell_angle_alpha   91.43390000
_cell_angle_beta   92.71210000
_cell_angle_gamma   103.13200000
_symmetry_Int_Tables_number   1
_chemical_formula_structural   CdP2H56C36(N4O5)2
_chemical_formula_sum   'Cd1 P2 H56 C36 N8 O10'
_cell_volume   1058.41389633
_cell_formula_units_Z   1
loop_
 _symmetry_equiv_pos_site_id
 _symmetry_equiv_pos_as_xyz
  1  'x, y, z'
loop_
 _atom_site_type_symbol
 _atom_site_label
 _atom_site_symmetry_multiplicity
 _atom_site_fract_x
 _atom_site_fract_y
 _atom_site_fract_z
 _atom_site_occupancy
  Cd  Cd0  1  0.00000000  0.50000000  0.00000000  1.0
  P  P1  1  0.86060000  0.38100000  0.20791000  1.0
  P  P2  1  0.13940000  0.61900000  0.79209000  1.0
  H  H3  1  0.07830000  0.07114000  0.23283000  1.0
  H  H4  1  0.92170000  0.92886000  0.76717000  1.0
  H  H5  1  0.25611000  0.17254000  0.29573000  1.0
  H  H6  1  0.74389000  0.82747000  0.70427000  1.0
  H  H7  1  0.17050000  0.26435000  0.20320000  1.0
  H  H8  1  0.82950000  0.73565000  0.79680000  1.0
  H  H9  1  0.92043000  0.17791000  0.45765000  1.0
  H  H10  1  0.07957000  0.82209000  0.54235000  1.0
  H  H11  1  0.10344000  0.11727000  0.44801000  1.0
  H  H12  1  0.89656000  0.88273000  0.55199000  1.0
  H  H13  1  0.92993000  0.02254000  0.37890000  1.0
  H  H14  1  0.07007000  0.97746000  0.62110000  1.0
  H  H15  1  0.16648000  0.48843000  0.31534000  1.0
  H  H16  1  0.83352000  0.51157000  0.68466000  1.0
  H  H17  1  0.24034000  0.39826000  0.41247000  1.0
  H  H18  1  0.75966000  0.60174000  0.58753000  1.0
  H  H19  1  0.05586000  0.45685000  0.41839000  1.0
  H  H20  1  0.94414000  0.54315000  0.58161000  1.0
  H  H21  1  0.58319000  0.31975000  0.33146000  1.0
  H  H22  1  0.41681000  0.68025000  0.66854000  1.0
  H  H23  1  0.53343000  0.45544000  0.41209000  1.0
  H  H24  1  0.46658000  0.54456000  0.58792000  1.0
  H  H25  1  0.72309000  0.40656000  0.42418000  1.0
  H  H26  1  0.27691000  0.59344000  0.57582000  1.0
  H  H27  1  0.62498000  0.67535000  0.18920000  1.0
  H  H28  1  0.37502000  0.32465000  0.81080000  1.0
  H  H29  1  0.47057000  0.60603000  0.26659000  1.0
  H  H30  1  0.52943000  0.39397000  0.73341000  1.0
  H  H31  1  0.53640000  0.47287000  0.19068000  1.0
  H  H32  1  0.46360000  0.52713000  0.80932000  1.0
  H  H33  1  0.85587000  0.69957000  0.41862000  1.0
  H  H34  1  0.14413000  0.30043000  0.58138000  1.0
  H  H35  1  0.66436000  0.74412000  0.40475000  1.0
  H  H36  1  0.33564000  0.25588000  0.59525000  1.0
  H  H37  1  0.80938000  0.80485000  0.32044000  1.0
  H  H38  1  0.19062000  0.19515000  0.67956000  1.0
  H  H39  1  0.99218000  0.15737000  0.88963000  1.0
  H  H40  1  0.00782000  0.84263000  0.11037000  1.0
  H  H41  1  0.15893000  0.95552000  0.88962000  1.0
  H  H42  1  0.84107000  0.04448000  0.11038000  1.0
  H  H43  1  0.49775000  0.26139000  0.08260000  1.0
  H  H44  1  0.50225000  0.73861000  0.91740000  1.0
  H  H45  1  0.32316000  0.45354000  0.06831000  1.0
  H  H46  1  0.67684000  0.54646000  0.93169000  1.0
  H  H47  1  0.27398000  0.76039000  0.08486000  1.0
  H  H48  1  0.72602000  0.23961000  0.91514000  1.0
  H  H49  1  0.27699000  0.72173000  0.97347000  1.0
  H  H50  1  0.72301000  0.27827000  0.02653000  1.0
  H  H51  1  0.46309000  0.97082000  0.82589000  1.0
  H  H52  1  0.53691000  0.02918000  0.17411000  1.0
  H  H53  1  0.37746000  0.91794000  0.65849000  1.0
  H  H54  1  0.62254000  0.08206000  0.34151000  1.0
  H  H55  1  0.81413000  0.23713000  0.59066000  1.0
  H  H56  1  0.18587000  0.76287000  0.40934000  1.0
  H  H57  1  0.87647000  0.29095000  0.76331000  1.0
  H  H58  1  0.12354000  0.70904000  0.23669000  1.0
  C  C59  1  0.04361000  0.24913000  0.33134000  1.0
  C  C60  1  0.95639000  0.75086000  0.66866000  1.0
  C  C61  1  0.14346000  0.18567000  0.26117000  1.0
  C  C62  1  0.85654000  0.81432000  0.73883000  1.0
  C  C63  1  0.99671000  0.13510000  0.40882000  1.0
  C  C64  1  0.00329000  0.86490000  0.59118000  1.0
  C  C65  1  0.13180000  0.40834000  0.37187000  1.0
  C  C66  1  0.86820000  0.59166000  0.62813000  1.0
  C  C67  1  0.69897000  0.56000000  0.31027000  1.0
  C  C68  1  0.30103000  0.44000000  0.68974000  1.0
  C  C69  1  0.63106000  0.42706000  0.37337000  1.0
  C  C70  1  0.36894000  0.57294000  0.62663000  1.0
  C  C71  1  0.57500000  0.57957000  0.23419000  1.0
  C  C72  1  0.42500000  0.42043000  0.76581000  1.0
  C  C73  1  0.76091000  0.71129000  0.36728000  1.0
  C  C74  1  0.23909000  0.28871000  0.63272000  1.0
  C  C75  1  0.10660000  0.17680000  0.92952000  1.0
  C  C76  1  0.89340000  0.82321000  0.07048000  1.0
  C  C77  1  0.19698000  0.06477000  0.93020000  1.0
  C  C78  1  0.80302000  0.93523000  0.06979000  1.0
  C  C79  1  0.34132000  0.09587000  0.98465000  1.0
  C  C80  1  0.65868000  0.90414000  0.01535000  1.0
  C  C81  1  0.38885000  0.23605000  0.03713000  1.0
  C  C82  1  0.61115000  0.76395000  0.96287000  1.0
  C  C83  1  0.29164000  0.34108000  0.03081000  1.0
  C  C84  1  0.70836000  0.65892000  0.96919000  1.0
  C  C85  1  0.53787000  0.03139000  0.77256000  1.0
  C  C86  1  0.46213000  0.96860000  0.22744000  1.0
  C  C87  1  0.49036000  0.99871000  0.67849000  1.0
  C  C88  1  0.50964000  0.00129000  0.32151000  1.0
  C  C89  1  0.59192000  0.07254000  0.61105000  1.0
  C  C90  1  0.40808000  0.92746000  0.38895000  1.0
  C  C91  1  0.73379000  0.17775000  0.64154000  1.0
  C  C92  1  0.26622000  0.82225000  0.35846000  1.0
  C  C93  1  0.76895000  0.20596000  0.73755000  1.0
  C  C94  1  0.23105000  0.79404000  0.26245000  1.0
  N  N95  1  0.15322000  0.31260000  0.97831000  1.0
  N  N96  1  0.84678000  0.68740000  0.02169000  1.0
  N  N97  1  0.42822000  0.97800000  0.98443000  1.0
  N  N98  1  0.57178000  0.02200000  0.01557000  1.0
  N  N99  1  0.67348000  0.13369000  0.80248000  1.0
  N  N100  1  0.32652000  0.86631000  0.19752000  1.0
  N  N101  1  0.56336000  0.04968000  0.51242000  1.0
  N  N102  1  0.43664000  0.95032000  0.48758000  1.0
  O  O103  1  0.01068000  0.43828000  0.15555000  1.0
  O  O104  1  0.98932000  0.56172000  0.84445000  1.0
  O  O105  1  0.70835000  0.30208000  0.15430000  1.0
  O  O106  1  0.29165000  0.69792000  0.84570000  1.0
  O  O107  1  0.84263000  0.53390000  0.26697000  1.0
  O  O108  1  0.15737000  0.46610000  0.73303000  1.0
  O  O109  1  0.89000000  0.25725000  0.28458000  1.0
  O  O110  1  0.11000000  0.74275000  0.71542000  1.0
  O  O111  1  0.24079000  0.67850000  0.03407000  1.0
  O  O112  1  0.75921000  0.32150000  0.96593000  1.0
