# generated using pymatgen
data_Cd3H50C54(N3O4)4
_symmetry_space_group_name_H-M   'P 1'
_cell_length_a   8.48187000
_cell_length_b   10.52070000
_cell_length_c   16.33950000
_cell_angle_alpha   97.04990000
_cell_angle_beta   101.78900000
_cell_angle_gamma   101.06600000
_symmetry_Int_Tables_number   1
_chemical_formula_structural   Cd3H50C54(N3O4)4
_chemical_formula_sum   'Cd3 H50 C54 N12 O16'
_cell_volume   1380.71911991
_cell_formula_units_Z   1
loop_
 _symmetry_equiv_pos_site_id
 _symmetry_equiv_pos_as_xyz
  1  'x, y, z'
loop_
 _atom_site_type_symbol
 _atom_site_label
 _atom_site_symmetry_multiplicity
 _atom_site_fract_x
 _atom_site_fract_y
 _atom_site_fract_z
 _atom_site_occupancy
  Cd  Cd0  1  0.50000000  0.50000000  0.50000000  1.0
  Cd  Cd1  1  0.43541000  0.35950000  0.11412000  1.0
  Cd  Cd2  1  0.56458000  0.64051000  0.88589000  1.0
  H  H3  1  0.50461000  0.39091000  0.77079000  1.0
  H  H4  1  0.49540000  0.60910000  0.22921000  1.0
  H  H5  1  0.54314000  0.02128000  0.64035000  1.0
  H  H6  1  0.45686000  0.97872000  0.35965000  1.0
  H  H7  1  0.54408000  0.06910000  0.90603000  1.0
  H  H8  1  0.45592000  0.93090000  0.09397000  1.0
  H  H9  1  0.75895000  0.36889000  0.29047000  1.0
  H  H10  1  0.24104000  0.63111000  0.70953000  1.0
  H  H11  1  0.06643000  0.53932000  0.31392000  1.0
  H  H12  1  0.93357000  0.46068000  0.68608000  1.0
  H  H13  1  0.74698000  0.58352000  0.08829000  1.0
  H  H14  1  0.25302000  0.41646000  0.91171000  1.0
  H  H15  1  0.08224000  0.69142000  0.12369000  1.0
  H  H16  1  0.91776000  0.30857000  0.87631000  1.0
  H  H17  1  0.18090000  0.70880000  0.23229000  1.0
  H  H18  1  0.81909000  0.29119000  0.76771000  1.0
  H  H19  1  0.91217000  0.83885000  0.07425000  1.0
  H  H20  1  0.08782000  0.16114000  0.92575000  1.0
  H  H21  1  0.82010000  0.13614000  0.25195000  1.0
  H  H22  1  0.17991000  0.86387000  0.74804000  1.0
  H  H23  1  0.07342000  0.84472000  0.34238000  1.0
  H  H24  1  0.92658000  0.15528000  0.65762000  1.0
  H  H25  1  0.81912000  0.04318000  0.40314000  1.0
  H  H26  1  0.18089000  0.95682000  0.59686000  1.0
  H  H27  1  0.99885000  0.98342000  0.43792000  1.0
  H  H28  1  0.00115000  0.01658000  0.56208000  1.0
  H  H29  1  0.87190000  0.25520000  0.49568000  1.0
  H  H30  1  0.12811000  0.74480000  0.50432000  1.0
  H  H31  1  0.13187000  0.47835000  0.53900000  1.0
  H  H32  1  0.86814000  0.52165000  0.46100000  1.0
  H  H33  1  0.25609000  0.18855000  0.37689000  1.0
  H  H34  1  0.74391000  0.81145000  0.62311000  1.0
  H  H35  1  0.73912000  0.98541000  0.02465000  1.0
  H  H36  1  0.26089000  0.01459000  0.97535000  1.0
  H  H37  1  0.68449000  0.10042000  0.09703000  1.0
  H  H38  1  0.31550000  0.89958000  0.90296000  1.0
  H  H39  1  0.76834000  0.30842000  0.04199000  1.0
  H  H40  1  0.23166000  0.69158000  0.95801000  1.0
  H  H41  1  0.08140000  0.45888000  0.04196000  1.0
  H  H42  1  0.91859000  0.54112000  0.95804000  1.0
  H  H43  1  0.13288000  0.08889000  0.10010000  1.0
  H  H44  1  0.86712000  0.91112000  0.89989000  1.0
  H  H45  1  0.41298000  0.72771000  0.51885000  1.0
  H  H46  1  0.58703000  0.27229000  0.48115000  1.0
  H  H47  1  0.44722000  0.72030000  0.61750000  1.0
  H  H48  1  0.55279000  0.27970000  0.38250000  1.0
  H  H49  1  0.39609000  0.47717000  0.29290000  1.0
  H  H50  1  0.60391000  0.52283000  0.70710000  1.0
  H  H51  1  0.37349000  0.32171000  0.26769000  1.0
  H  H52  1  0.62651000  0.67829000  0.73232000  1.0
  C  C53  1  0.53359000  0.32479000  0.92996000  1.0
  C  C54  1  0.46641000  0.67521000  0.07004000  1.0
  C  C55  1  0.52448000  0.23941000  0.84726000  1.0
  C  C56  1  0.47552000  0.76060000  0.15274000  1.0
  C  C57  1  0.51435000  0.28953000  0.77143000  1.0
  C  C58  1  0.48565000  0.71047000  0.22857000  1.0
  C  C59  1  0.52176000  0.21169000  0.69693000  1.0
  C  C60  1  0.47824000  0.78832000  0.30307000  1.0
  C  C61  1  0.53484000  0.08093000  0.69809000  1.0
  C  C62  1  0.46517000  0.91908000  0.30191000  1.0
  C  C63  1  0.54116000  0.02896000  0.77322000  1.0
  C  C64  1  0.45884000  0.97105000  0.22679000  1.0
  C  C65  1  0.53682000  0.10902000  0.84737000  1.0
  C  C66  1  0.46318000  0.89099000  0.15263000  1.0
  C  C67  1  0.53267000  0.27065000  0.61796000  1.0
  C  C68  1  0.46733000  0.72936000  0.38204000  1.0
  C  C69  1  0.55320000  0.88861000  0.77648000  1.0
  C  C70  1  0.44680000  0.11139000  0.22353000  1.0
  C  C71  1  0.80217000  0.43864000  0.25187000  1.0
  C  C72  1  0.19782000  0.56136000  0.74813000  1.0
  C  C73  1  0.95348000  0.52368000  0.26515000  1.0
  C  C74  1  0.04651000  0.47631000  0.73485000  1.0
  C  C75  1  0.78956000  0.54857000  0.14684000  1.0
  C  C76  1  0.21044000  0.45143000  0.85316000  1.0
  C  C77  1  0.06357000  0.70600000  0.18841000  1.0
  C  C78  1  0.93642000  0.29399000  0.81159000  1.0
  C  C79  1  0.00286000  0.82999000  0.20620000  1.0
  C  C80  1  0.99713000  0.17000000  0.79380000  1.0
  C  C81  1  0.92522000  0.88428000  0.13962000  1.0
  C  C82  1  0.07476000  0.11571000  0.86038000  1.0
  C  C83  1  0.86070000  0.99516000  0.15559000  1.0
  C  C84  1  0.13929000  0.00484000  0.84441000  1.0
  C  C85  1  0.87188000  0.05047000  0.23923000  1.0
  C  C86  1  0.12813000  0.94953000  0.76077000  1.0
  C  C87  1  0.94622000  0.99541000  0.30652000  1.0
  C  C88  1  0.05378000  0.00459000  0.69348000  1.0
  C  C89  1  0.01376000  0.88675000  0.28970000  1.0
  C  C90  1  0.98624000  0.11324000  0.71030000  1.0
  C  C91  1  0.94641000  0.04712000  0.39653000  1.0
  C  C92  1  0.05359000  0.95289000  0.60346000  1.0
  C  C93  1  0.99146000  0.27486000  0.48006000  1.0
  C  C94  1  0.00855000  0.72513000  0.51994000  1.0
  C  C95  1  0.11853000  0.38452000  0.49957000  1.0
  C  C96  1  0.88148000  0.61547000  0.50043000  1.0
  C  C97  1  0.18986000  0.23855000  0.41618000  1.0
  C  C98  1  0.81014000  0.76145000  0.58382000  1.0
  C  C99  1  0.78686000  0.05796000  0.08333000  1.0
  C  C100  1  0.21314000  0.94204000  0.91667000  1.0
  C  C101  1  0.88948000  0.28619000  0.05151000  1.0
  C  C102  1  0.11052000  0.71381000  0.94848000  1.0
  C  C103  1  0.04292000  0.35841000  0.05114000  1.0
  C  C104  1  0.95708000  0.64159000  0.94886000  1.0
  C  C105  1  0.07730000  0.16861000  0.08163000  1.0
  C  C106  1  0.92270000  0.83138000  0.91837000  1.0
  N  N107  1  0.70167000  0.45534000  0.17785000  1.0
  N  N108  1  0.29833000  0.54465000  0.82215000  1.0
  N  N109  1  0.94294000  0.59215000  0.19799000  1.0
  N  N110  1  0.05706000  0.40784000  0.80201000  1.0
  N  N111  1  0.24078000  0.36077000  0.45930000  1.0
  N  N112  1  0.75923000  0.63923000  0.54070000  1.0
  N  N113  1  0.03827000  0.18338000  0.42708000  1.0
  N  N114  1  0.96174000  0.81662000  0.57292000  1.0
  N  N115  1  0.15798000  0.28352000  0.06935000  1.0
  N  N116  1  0.84202000  0.71648000  0.93065000  1.0
  N  N117  1  0.91363000  0.16631000  0.07096000  1.0
  N  N118  1  0.08636000  0.83369000  0.92904000  1.0
  O  O119  1  0.47655000  0.26621000  0.98524000  1.0
  O  O120  1  0.52345000  0.73379000  0.01476000  1.0
  O  O121  1  0.60463000  0.44551000  0.94114000  1.0
  O  O122  1  0.39537000  0.55450000  0.05886000  1.0
  O  O123  1  0.53470000  0.39385000  0.62219000  1.0
  O  O124  1  0.46531000  0.60616000  0.37782000  1.0
  O  O125  1  0.54540000  0.19618000  0.55378000  1.0
  O  O126  1  0.45461000  0.80383000  0.44622000  1.0
  O  O127  1  0.57227000  0.82033000  0.71045000  1.0
  O  O128  1  0.42774000  0.17968000  0.28956000  1.0
  O  O129  1  0.54436000  0.84803000  0.84605000  1.0
  O  O130  1  0.45564000  0.15197000  0.15395000  1.0
  O  O131  1  0.34698000  0.40160000  0.24589000  1.0
  O  O132  1  0.65302000  0.59840000  0.75411000  1.0
  O  O133  1  0.38559000  0.66856000  0.56154000  1.0
  O  O134  1  0.61442000  0.33145000  0.43846000  1.0
