# generated using pymatgen
data_CuH8C12(NO2)2
_symmetry_space_group_name_H-M   'P 1'
_cell_length_a   4.95556000
_cell_length_b   10.96400000
_cell_length_c   12.75370245
_cell_angle_alpha   88.59535018
_cell_angle_beta   78.78556123
_cell_angle_gamma   82.79170000
_symmetry_Int_Tables_number   1
_chemical_formula_structural   CuH8C12(NO2)2
_chemical_formula_sum   'Cu2 H16 C24 N4 O8'
_cell_volume   674.34081296
_cell_formula_units_Z   2
loop_
 _symmetry_equiv_pos_site_id
 _symmetry_equiv_pos_as_xyz
  1  'x, y, z'
loop_
 _atom_site_type_symbol
 _atom_site_label
 _atom_site_symmetry_multiplicity
 _atom_site_fract_x
 _atom_site_fract_y
 _atom_site_fract_z
 _atom_site_occupancy
  Cu  Cu0  1  0.82566000  0.78259000  0.22775000  1.0
  Cu  Cu1  1  0.05322000  0.28252000  0.77223000  1.0
  H  H2  1  0.21565000  0.51601000  0.67427000  1.0
  H  H3  1  0.88976000  0.01623000  0.32565000  1.0
  H  H4  1  0.14461000  0.63862000  0.50972000  1.0
  H  H5  1  0.65405000  0.13871000  0.49023000  1.0
  H  H6  1  0.61996000  0.37599000  0.44693000  1.0
  H  H7  1  0.06690000  0.87591000  0.55303000  1.0
  H  H8  1  0.70319000  0.26563000  0.61592000  1.0
  H  H9  1  0.31917000  0.76575000  0.38398000  1.0
  H  H10  1  0.53308000  0.09849000  0.78877000  1.0
  H  H11  1  0.32213000  0.59844000  0.21121000  1.0
  H  H12  1  0.68466000  0.95453000  0.92606000  1.0
  H  H13  1  0.61070000  0.45439000  0.07392000  1.0
  H  H14  1  0.91997000  0.08007000  0.14021000  1.0
  H  H15  1  0.06009000  0.58000000  0.85991000  1.0
  H  H16  1  0.80368000  0.22623000  0.99582000  1.0
  H  H17  1  0.79969000  0.72624000  0.00425000  1.0
  C  C18  1  0.08278000  0.48998000  0.62194000  1.0
  C  C19  1  0.70452000  0.99017000  0.37797000  1.0
  C  C20  1  0.04352000  0.55655000  0.53069000  1.0
  C  C21  1  0.57396000  0.05665000  0.46924000  1.0
  C  C22  1  0.87614000  0.51574000  0.46574000  1.0
  C  C23  1  0.34173000  0.01571000  0.53427000  1.0
  C  C24  1  0.75413000  0.40870000  0.49560000  1.0
  C  C25  1  0.24967000  0.90870000  0.50437000  1.0
  C  C26  1  0.80092000  0.34723000  0.58814000  1.0
  C  C27  1  0.38907000  0.84732000  0.41179000  1.0
  C  C28  1  0.81660000  0.58571000  0.36756000  1.0
  C  C29  1  0.18410000  0.08559000  0.63249000  1.0
  C  C30  1  0.40244000  0.09230000  0.86749000  1.0
  C  C31  1  0.27004000  0.59224000  0.13255000  1.0
  C  C32  1  0.48544000  0.01175000  0.94449000  1.0
  C  C33  1  0.42993000  0.51165000  0.05554000  1.0
  C  C34  1  0.31326000  0.00602000  0.04483000  1.0
  C  C35  1  0.35803000  0.50595000  0.95523000  1.0
  C  C36  1  0.06221000  0.08335000  0.06396000  1.0
  C  C37  1  0.12609000  0.58327000  0.93615000  1.0
  C  C38  1  0.99446000  0.16292000  0.98408000  1.0
  C  C39  1  0.97861000  0.66287000  0.01599000  1.0
  C  C40  1  0.39123000  0.92051000  0.13176000  1.0
  C  C41  1  0.52274000  0.42050000  0.86824000  1.0
  N  N42  1  0.96321000  0.38748000  0.64989000  1.0
  N  N43  1  0.61308000  0.88764000  0.35000000  1.0
  N  N44  1  0.16025000  0.16704000  0.88715000  1.0
  N  N45  1  0.04760000  0.66702000  0.11289000  1.0
  O  O46  1  0.95797000  0.67746000  0.34227000  1.0
  O  O47  1  0.30015000  0.17732000  0.65776000  1.0
  O  O48  1  0.63843000  0.55435000  0.32013000  1.0
  O  O49  1  0.95854000  0.05415000  0.67996000  1.0
  O  O50  1  0.65142000  0.87995000  0.11852000  1.0
  O  O51  1  0.76978000  0.37993000  0.88139000  1.0
  O  O52  1  0.20573000  0.89661000  0.20838000  1.0
  O  O53  1  0.41371000  0.39670000  0.79165000  1.0
