# generated using pymatgen
data_ZnH13C19S2N7O2
_symmetry_space_group_name_H-M   'P 1'
_cell_length_a   6.10819000
_cell_length_b   11.46860000
_cell_length_c   14.87090000
_cell_angle_alpha   89.99970000
_cell_angle_beta   89.99990000
_cell_angle_gamma   89.99990000
_symmetry_Int_Tables_number   1
_chemical_formula_structural   ZnH13C19S2N7O2
_chemical_formula_sum   'Zn2 H26 C38 S4 N14 O4'
_cell_volume   1041.74205422
_cell_formula_units_Z   2
loop_
 _symmetry_equiv_pos_site_id
 _symmetry_equiv_pos_as_xyz
  1  'x, y, z'
loop_
 _atom_site_type_symbol
 _atom_site_label
 _atom_site_symmetry_multiplicity
 _atom_site_fract_x
 _atom_site_fract_y
 _atom_site_fract_z
 _atom_site_occupancy
  Zn  Zn0  1  0.16825000  0.50000000  0.50000000  1.0
  Zn  Zn1  1  0.83175000  0.00000000  0.00000000  1.0
  H  H2  1  0.41212000  0.71562000  0.54583000  1.0
  H  H3  1  0.41212000  0.28438000  0.45417000  1.0
  H  H4  1  0.58788000  0.78438000  0.04583000  1.0
  H  H5  1  0.58788000  0.21562000  0.95417000  1.0
  H  H6  1  0.73087000  0.82665000  0.48192000  1.0
  H  H7  1  0.73087000  0.17335000  0.51808000  1.0
  H  H8  1  0.26913000  0.67335000  0.98192000  1.0
  H  H9  1  0.26913000  0.32665000  0.01808000  1.0
  H  H10  1  0.87876000  0.76879000  0.33166000  1.0
  H  H11  1  0.87877000  0.23121000  0.66834000  1.0
  H  H12  1  0.12123000  0.73121000  0.83166000  1.0
  H  H13  1  0.12123000  0.26879000  0.16834000  1.0
  H  H14  1  0.38550000  0.49903000  0.32180000  1.0
  H  H15  1  0.38550000  0.50097000  0.67820000  1.0
  H  H16  1  0.61450000  0.00097000  0.82180000  1.0
  H  H17  1  0.61450000  0.99903000  0.17820000  1.0
  H  H18  1  0.07803000  0.52561000  0.13669000  1.0
  H  H19  1  0.07803000  0.47439000  0.86331000  1.0
  H  H20  1  0.92197000  0.97439000  0.63669000  1.0
  H  H21  1  0.92197000  0.02561000  0.36331000  1.0
  H  H22  1  0.87004000  0.64061000  0.21317000  1.0
  H  H23  1  0.87004000  0.35939000  0.78683000  1.0
  H  H24  1  0.12996000  0.85939000  0.71317000  1.0
  H  H25  1  0.12996000  0.14061000  0.28683000  1.0
  H  H26  1  0.45254000  0.50000000  0.00000000  1.0
  H  H27  1  0.54746000  0.00000000  0.50000000  1.0
  C  C28  1  0.48186000  0.69383000  0.48044000  1.0
  C  C29  1  0.48186000  0.30617000  0.51956000  1.0
  C  C30  1  0.51814000  0.80617000  0.98044000  1.0
  C  C31  1  0.51814000  0.19383000  0.01956000  1.0
  C  C32  1  0.65927000  0.75414000  0.44503000  1.0
  C  C33  1  0.65927000  0.24587000  0.55497000  1.0
  C  C34  1  0.34073000  0.74586000  0.94503000  1.0
  C  C35  1  0.34073000  0.25414000  0.05497000  1.0
  C  C36  1  0.74081000  0.72225000  0.36152000  1.0
  C  C37  1  0.74081000  0.27775000  0.63848000  1.0
  C  C38  1  0.25919000  0.77775000  0.86152000  1.0
  C  C39  1  0.25919000  0.22225000  0.13848000  1.0
  C  C40  1  0.64292000  0.62989000  0.31439000  1.0
  C  C41  1  0.64292000  0.37011000  0.68561000  1.0
  C  C42  1  0.35708000  0.87011000  0.81439000  1.0
  C  C43  1  0.35708000  0.12989000  0.18561000  1.0
  C  C44  1  0.46613000  0.57176000  0.35474000  1.0
  C  C45  1  0.46613000  0.42823000  0.64526000  1.0
  C  C46  1  0.53387000  0.92824000  0.85474000  1.0
  C  C47  1  0.53387000  0.07176000  0.14526000  1.0
  C  C48  1  0.62229000  0.53406000  0.16536000  1.0
  C  C49  1  0.62229000  0.46594000  0.83464000  1.0
  C  C50  1  0.37771000  0.96594000  0.66536000  1.0
  C  C51  1  0.37771000  0.03406000  0.33464000  1.0
  C  C52  1  0.74767000  0.51849000  0.07981000  1.0
  C  C53  1  0.74766000  0.48152000  0.92019000  1.0
  C  C54  1  0.25233000  0.98151000  0.57981000  1.0
  C  C55  1  0.25233000  0.01849000  0.42019000  1.0
  C  C56  1  0.97690000  0.51610000  0.07655000  1.0
  C  C57  1  0.97690000  0.48390000  0.92345000  1.0
  C  C58  1  0.02310000  0.98390000  0.57655000  1.0
  C  C59  1  0.02310000  0.01610000  0.42345000  1.0
  C  C60  1  0.92050000  0.65052000  0.63975000  1.0
  C  C61  1  0.92052000  0.34947000  0.36025000  1.0
  C  C62  1  0.07950000  0.84948000  0.13975000  1.0
  C  C63  1  0.07948000  0.15053000  0.86025000  1.0
  C  C64  1  0.63171000  0.50000000  1.00000000  1.0
  C  C65  1  0.36828000  0.00000000  0.50000000  1.0
  S  S66  1  0.78854000  0.73481000  0.70722000  1.0
  S  S67  1  0.78855000  0.26519000  0.29278000  1.0
  S  S68  1  0.21146000  0.76519000  0.20722000  1.0
  S  S69  1  0.21146000  0.23482000  0.79278000  1.0
  N  N70  1  0.01665000  0.58849000  0.58958000  1.0
  N  N71  1  0.01667000  0.41150000  0.41041000  1.0
  N  N72  1  0.98335000  0.91151000  0.08958000  1.0
  N  N73  1  0.98334000  0.08850000  0.91041000  1.0
  N  N74  1  0.38955000  0.60440000  0.43579000  1.0
  N  N75  1  0.38955000  0.39560000  0.56421000  1.0
  N  N76  1  0.61045000  0.89560000  0.93579000  1.0
  N  N77  1  0.61045000  0.10440000  0.06421000  1.0
  N  N78  1  0.72606000  0.59992000  0.23004000  1.0
  N  N79  1  0.72606000  0.40008000  0.76996000  1.0
  N  N80  1  0.27394000  0.90008000  0.73004000  1.0
  N  N81  1  0.27394000  0.09992000  0.26996000  1.0
  N  N82  1  0.08847000  0.50000000  0.00000000  1.0
  N  N83  1  0.91152000  0.00000000  0.50000000  1.0
  O  O84  1  0.43823000  0.49118000  0.17530000  1.0
  O  O85  1  0.43822000  0.50882000  0.82470000  1.0
  O  O86  1  0.56177000  0.00882000  0.67530000  1.0
  O  O87  1  0.56178000  0.99118000  0.32470000  1.0
