# generated using pymatgen
data_ZnH14C13N(O2F)4
_symmetry_space_group_name_H-M   'P 1'
_cell_length_a   9.78398000
_cell_length_b   15.20280000
_cell_length_c   15.40990000
_cell_angle_alpha   89.93460000
_cell_angle_beta   89.63510000
_cell_angle_gamma   90.71090000
_symmetry_Int_Tables_number   1
_chemical_formula_structural   ZnH14C13N(O2F)4
_chemical_formula_sum   'Zn4 H56 C52 N4 O32 F16'
_cell_volume   2291.90386866
_cell_formula_units_Z   4
loop_
 _symmetry_equiv_pos_site_id
 _symmetry_equiv_pos_as_xyz
  1  'x, y, z'
loop_
 _atom_site_type_symbol
 _atom_site_label
 _atom_site_symmetry_multiplicity
 _atom_site_fract_x
 _atom_site_fract_y
 _atom_site_fract_z
 _atom_site_occupancy
  Zn  Zn0  1  0.36358000  0.00106000  0.50533000  1.0
  Zn  Zn1  1  0.65556000  0.99433000  0.50274000  1.0
  Zn  Zn2  1  0.34133000  0.48875000  0.00043000  1.0
  Zn  Zn3  1  0.63680000  0.50874000  0.00272000  1.0
  H  H4  1  0.27271000  0.81464000  0.69396000  1.0
  H  H5  1  0.42734000  0.70542000  0.61910000  1.0
  H  H6  1  0.41454000  0.69865000  0.38901000  1.0
  H  H7  1  0.27327000  0.80620000  0.31254000  1.0
  H  H8  1  0.58013000  0.19118000  0.10930000  1.0
  H  H9  1  0.73287000  0.30512000  0.18370000  1.0
  H  H10  1  0.74204000  0.30975000  0.80490000  1.0
  H  H11  1  0.58847000  0.20629000  0.88051000  1.0
  H  H12  1  0.34402000  0.87862000  0.77960000  1.0
  H  H13  1  0.60776000  0.72506000  0.61630000  1.0
  H  H14  1  0.59401000  0.71623000  0.39986000  1.0
  H  H15  1  0.34869000  0.86784000  0.22589000  1.0
  H  H16  1  0.39993000  0.20777000  0.10478000  1.0
  H  H17  1  0.65751000  0.36890000  0.26739000  1.0
  H  H18  1  0.67452000  0.37714000  0.72120000  1.0
  H  H19  1  0.41076000  0.22926000  0.89232000  1.0
  H  H20  1  0.32623000  0.22754000  0.35632000  1.0
  H  H21  1  0.46680000  0.29401000  0.38748000  1.0
  H  H22  1  0.47115000  0.30395000  0.60212000  1.0
  H  H23  1  0.32617000  0.24348000  0.63897000  1.0
  H  H24  1  0.53200000  0.80589000  0.89912000  1.0
  H  H25  1  0.67392000  0.74242000  0.86774000  1.0
  H  H26  1  0.67892000  0.72636000  0.14306000  1.0
  H  H27  1  0.53829000  0.78958000  0.10902000  1.0
  H  H28  1  0.60256000  0.90246000  0.78730000  1.0
  H  H29  1  0.70674000  0.82256000  0.73819000  1.0
  H  H30  1  0.70901000  0.80894000  0.26991000  1.0
  H  H31  1  0.60790000  0.88887000  0.21821000  1.0
  H  H32  1  0.29647000  0.30574000  0.22606000  1.0
  H  H33  1  0.39963000  0.38778000  0.27420000  1.0
  H  H34  1  0.41758000  0.40399000  0.71335000  1.0
  H  H35  1  0.30722000  0.32811000  0.76647000  1.0
  H  H36  1  0.87573000  0.09093000  0.59018000  1.0
  H  H37  1  0.11253000  0.10999000  0.55616000  1.0
  H  H38  1  0.13717000  0.02469000  0.63197000  1.0
  H  H39  1  0.89974000  0.98479000  0.63357000  1.0
  H  H40  1  0.90444000  0.62944000  0.03798000  1.0
  H  H41  1  0.13554000  0.60401000  0.08185000  1.0
  H  H42  1  0.09259000  0.50474000  0.13542000  1.0
  H  H43  1  0.86426000  0.56135000  0.12817000  1.0
  H  H44  1  0.28925000  0.11105000  0.17906000  1.0
  H  H45  1  0.80326000  0.27925000  0.36598000  1.0
  H  H46  1  0.78760000  0.30522000  0.62471000  1.0
  H  H47  1  0.28602000  0.14494000  0.82637000  1.0
  H  H48  1  0.19751000  0.78672000  0.87637000  1.0
  H  H49  1  0.71551000  0.62814000  0.68884000  1.0
  H  H50  1  0.70984000  0.62251000  0.33379000  1.0
  H  H51  1  0.22442000  0.79676000  0.13466000  1.0
  H  H52  1  0.77775000  0.04204000  0.34439000  1.0
  H  H53  1  0.22642000  0.95566000  0.35233000  1.0
  H  H54  1  0.07621000  0.81068000  0.41855000  1.0
  H  H55  1  0.79043000  0.85674000  0.41101000  1.0
  H  H56  1  0.77390000  0.44657000  0.85797000  1.0
  H  H57  1  0.22530000  0.53868000  0.84360000  1.0
  H  H58  1  0.99717000  0.32314000  0.92137000  1.0
  H  H59  1  0.73761000  0.34285000  0.02244000  1.0
  C  C60  1  0.50523000  0.87770000  0.37964000  1.0
  C  C61  1  0.50333000  0.88306000  0.62368000  1.0
  C  C62  1  0.51101000  0.38744000  0.87495000  1.0
  C  C63  1  0.49985000  0.36987000  0.11240000  1.0
  C  C64  1  0.92852000  0.02882000  0.58008000  1.0
  C  C65  1  0.08457000  0.04198000  0.57211000  1.0
  C  C66  1  0.92011000  0.56450000  0.06657000  1.0
  C  C67  1  0.07324000  0.54416000  0.07744000  1.0
  C  C68  1  0.52478000  0.11294000  0.38019000  1.0
  C  C69  1  0.51317000  0.12025000  0.61697000  1.0
  C  C70  1  0.47562000  0.62320000  0.88892000  1.0
  C  C71  1  0.48334000  0.60711000  0.12580000  1.0
  C  C72  1  0.46923000  0.14308000  0.22184000  1.0
  C  C73  1  0.66216000  0.22875000  0.29338000  1.0
  C  C74  1  0.66390000  0.23649000  0.69613000  1.0
  C  C75  1  0.46434000  0.15975000  0.77424000  1.0
  C  C76  1  0.33956000  0.73823000  0.80390000  1.0
  C  C77  1  0.53472000  0.65705000  0.73155000  1.0
  C  C78  1  0.53524000  0.64726000  0.28269000  1.0
  C  C79  1  0.34214000  0.72643000  0.20571000  1.0
  C  C80  1  0.35422000  0.81745000  0.74227000  1.0
  C  C81  1  0.51620000  0.72436000  0.65831000  1.0
  C  C82  1  0.50892000  0.71568000  0.35353000  1.0
  C  C83  1  0.35679000  0.80747000  0.26483000  1.0
  C  C84  1  0.48982000  0.20964000  0.14748000  1.0
  C  C85  1  0.64880000  0.30710000  0.23081000  1.0
  C  C86  1  0.65848000  0.31594000  0.75822000  1.0
  C  C87  1  0.49631000  0.22652000  0.84575000  1.0
  C  C88  1  0.42154000  0.25766000  0.33307000  1.0
  C  C89  1  0.42487000  0.27112000  0.65875000  1.0
  C  C90  1  0.57910000  0.77106000  0.84444000  1.0
  C  C91  1  0.58345000  0.75608000  0.16484000  1.0
  C  C92  1  0.52176000  0.18325000  0.30862000  1.0
  C  C93  1  0.51917000  0.19431000  0.68483000  1.0
  C  C94  1  0.47996000  0.69510000  0.81889000  1.0
  C  C95  1  0.48299000  0.68138000  0.19333000  1.0
  C  C96  1  0.49512000  0.81681000  0.69783000  1.0
  C  C97  1  0.49525000  0.80692000  0.31038000  1.0
  C  C98  1  0.50918000  0.30305000  0.18582000  1.0
  C  C99  1  0.51971000  0.31800000  0.80423000  1.0
  C  C100  1  0.60534000  0.83333000  0.76687000  1.0
  C  C101  1  0.60860000  0.82031000  0.24088000  1.0
  C  C102  1  0.39721000  0.31836000  0.25470000  1.0
  C  C103  1  0.40810000  0.33546000  0.73559000  1.0
  C  C104  1  0.93263000  0.03681000  0.41872000  1.0
  C  C105  1  0.09243000  0.02288000  0.41447000  1.0
  C  C106  1  0.08408000  0.89345000  0.51025000  1.0
  C  C107  1  0.92301000  0.89441000  0.49676000  1.0
  C  C108  1  0.90991000  0.51940000  0.91378000  1.0
  C  C109  1  0.06933000  0.53499000  0.91729000  1.0
  C  C110  1  0.06107000  0.40080000  0.00893000  1.0
  C  C111  1  0.90460000  0.40859000  0.03214000  1.0
  N  N112  1  0.87446000  0.98696000  0.49844000  1.0
  N  N113  1  0.14081000  0.98608000  0.49981000  1.0
  N  N114  1  0.85677000  0.49882000  0.00511000  1.0
  N  N115  1  0.12261000  0.49115000  0.00070000  1.0
  O  O116  1  0.40255000  0.92620000  0.39257000  1.0
  O  O117  1  0.61767000  0.88350000  0.42161000  1.0
  O  O118  1  0.61827000  0.91975000  0.60945000  1.0
  O  O119  1  0.39552000  0.89431000  0.57933000  1.0
  O  O120  1  0.40068000  0.38984000  0.91758000  1.0
  O  O121  1  0.61454000  0.43859000  0.88742000  1.0
  O  O122  1  0.60470000  0.38321000  0.06278000  1.0
  O  O123  1  0.38826000  0.40865000  0.10347000  1.0
  O  O124  1  0.42017000  0.10638000  0.42770000  1.0
  O  O125  1  0.63005000  0.06446000  0.38802000  1.0
  O  O126  1  0.62289000  0.09991000  0.57850000  1.0
  O  O127  1  0.39567000  0.08583000  0.60484000  1.0
  O  O128  1  0.37253000  0.57110000  0.89332000  1.0
  O  O129  1  0.57806000  0.61904000  0.93825000  1.0
  O  O130  1  0.59864000  0.57063000  0.11389000  1.0
  O  O131  1  0.37407000  0.58891000  0.08640000  1.0
  O  O132  1  0.33393000  0.11706000  0.23509000  1.0
  O  O133  1  0.71414000  0.25104000  0.37428000  1.0
  O  O134  1  0.71893000  0.25924000  0.61559000  1.0
  O  O135  1  0.32430000  0.14238000  0.76791000  1.0
  O  O136  1  0.28573000  0.75911000  0.88511000  1.0
  O  O137  1  0.66965000  0.63314000  0.74486000  1.0
  O  O138  1  0.67404000  0.62775000  0.27515000  1.0
  O  O139  1  0.28611000  0.74772000  0.12570000  1.0
  O  O140  1  0.87287000  0.01666000  0.34362000  1.0
  O  O141  1  0.12913000  0.97257000  0.34611000  1.0
  O  O142  1  0.14640000  0.83394000  0.45800000  1.0
  O  O143  1  0.89084000  0.85053000  0.42268000  1.0
  O  O144  1  0.87594000  0.45763000  0.85517000  1.0
  O  O145  1  0.13156000  0.51086000  0.84390000  1.0
  O  O146  1  0.08378000  0.35231000  0.93639000  1.0
  O  O147  1  0.83416000  0.34031000  0.99738000  1.0
  F  F148  1  0.54390000  0.06577000  0.20031000  1.0
  F  F149  1  0.75453000  0.16896000  0.25278000  1.0
  F  F150  1  0.75228000  0.17338000  0.73532000  1.0
  F  F151  1  0.52900000  0.07890000  0.79511000  1.0
  F  F152  1  0.24822000  0.67735000  0.76299000  1.0
  F  F153  1  0.46067000  0.57890000  0.70863000  1.0
  F  F154  1  0.46481000  0.56791000  0.30545000  1.0
  F  F155  1  0.24983000  0.66636000  0.24860000  1.0
  F  F156  1  0.91030000  0.12468000  0.44134000  1.0
  F  F157  1  0.15265000  0.10638000  0.40882000  1.0
  F  F158  1  0.10863000  0.87195000  0.59608000  1.0
  F  F159  1  0.86265000  0.85147000  0.56771000  1.0
  F  F160  1  0.85024000  0.59985000  0.89375000  1.0
  F  F161  1  0.09181000  0.62474000  0.93331000  1.0
  F  F162  1  0.12492000  0.36135000  0.07948000  1.0
  F  F163  1  0.88972000  0.40732000  0.12269000  1.0
