# generated using pymatgen
data_ZnH12(C7N4)3
_symmetry_space_group_name_H-M   'P 1'
_cell_length_a   8.55775000
_cell_length_b   8.80273000
_cell_length_c   14.85990000
_cell_angle_alpha   90.00020000
_cell_angle_beta   90.00000000
_cell_angle_gamma   113.33500000
_symmetry_Int_Tables_number   1
_chemical_formula_structural   ZnH12(C7N4)3
_chemical_formula_sum   'Zn2 H24 C42 N24'
_cell_volume   1027.85610635
_cell_formula_units_Z   2
loop_
 _symmetry_equiv_pos_site_id
 _symmetry_equiv_pos_as_xyz
  1  'x, y, z'
loop_
 _atom_site_type_symbol
 _atom_site_label
 _atom_site_symmetry_multiplicity
 _atom_site_fract_x
 _atom_site_fract_y
 _atom_site_fract_z
 _atom_site_occupancy
  Zn  Zn0  1  0.67635000  0.53813000  0.93790000  1.0
  Zn  Zn1  1  0.32365000  0.46187000  0.43790000  1.0
  H  H2  1  0.39406000  0.95985000  0.15236000  1.0
  H  H3  1  0.60594000  0.04015000  0.65236000  1.0
  H  H4  1  0.70839000  0.04877000  0.13067000  1.0
  H  H5  1  0.29160000  0.95122000  0.63066000  1.0
  H  H6  1  0.81283000  0.87270000  0.03746000  1.0
  H  H7  1  0.18716000  0.12730000  0.53746000  1.0
  H  H8  1  0.32248000  0.53837000  0.98251000  1.0
  H  H9  1  0.67752000  0.46163000  0.48251000  1.0
  H  H10  1  0.66251000  0.30874000  0.18267000  1.0
  H  H11  1  0.33749000  0.69126000  0.68268000  1.0
  H  H12  1  0.44341000  0.25803000  0.30248000  1.0
  H  H13  1  0.55659000  0.74197000  0.80248000  1.0
  H  H14  1  0.59037000  0.76001000  0.34818000  1.0
  H  H15  1  0.40964000  0.23999000  0.84818000  1.0
  H  H16  1  0.81135000  0.83319000  0.22902000  1.0
  H  H17  1  0.18866000  0.16680000  0.72902000  1.0
  H  H18  1  0.10206000  0.95125000  0.25000000  1.0
  H  H19  1  0.89795000  0.04875000  0.75000000  1.0
  H  H20  1  0.19435000  0.99034000  0.41078000  1.0
  H  H21  1  0.80565000  0.00966000  0.91078000  1.0
  H  H22  1  0.27385000  0.77377000  0.48504000  1.0
  H  H23  1  0.72616000  0.22623000  0.98504000  1.0
  H  H24  1  0.16320000  0.48663000  0.25386000  1.0
  H  H25  1  0.83680000  0.51337000  0.75387000  1.0
  C  C26  1  0.44289000  0.88680000  0.11064000  1.0
  C  C27  1  0.55711000  0.11320000  0.61064000  1.0
  C  C28  1  0.61751000  0.93687000  0.09905000  1.0
  C  C29  1  0.38249000  0.06313000  0.59905000  1.0
  C  C30  1  0.67675000  0.83925000  0.04719000  1.0
  C  C31  1  0.32324000  0.16075000  0.54719000  1.0
  C  C32  1  0.40420000  0.65209000  0.01630000  1.0
  C  C33  1  0.59580000  0.34791000  0.51630000  1.0
  C  C34  1  0.33304000  0.74210000  0.06760000  1.0
  C  C35  1  0.66696000  0.25790000  0.56760000  1.0
  C  C36  1  0.14801000  0.68193000  0.07393000  1.0
  C  C37  1  0.85199000  0.31807000  0.57393000  1.0
  C  C38  1  0.89015000  0.61053000  0.12842000  1.0
  C  C39  1  0.10985000  0.38947000  0.62842000  1.0
  C  C40  1  0.75298000  0.57551000  0.19477000  1.0
  C  C41  1  0.24702000  0.42449000  0.69477000  1.0
  C  C42  1  0.64714000  0.41209000  0.21579000  1.0
  C  C43  1  0.35286000  0.58791000  0.71579000  1.0
  C  C44  1  0.52598000  0.38362000  0.28334000  1.0
  C  C45  1  0.47401000  0.61638000  0.78334000  1.0
  C  C46  1  0.60946000  0.66429000  0.30902000  1.0
  C  C47  1  0.39054000  0.33571000  0.80902000  1.0
  C  C48  1  0.73292000  0.70391000  0.24242000  1.0
  C  C49  1  0.26708000  0.29609000  0.74242000  1.0
  C  C50  1  0.12333000  0.71459000  0.24184000  1.0
  C  C51  1  0.87667000  0.28541000  0.74184000  1.0
  C  C52  1  0.13298000  0.85832000  0.28532000  1.0
  C  C53  1  0.86703000  0.14168000  0.78532000  1.0
  C  C54  1  0.18544000  0.88019000  0.37451000  1.0
  C  C55  1  0.81456000  0.11982000  0.87451000  1.0
  C  C56  1  0.23052000  0.76136000  0.41546000  1.0
  C  C57  1  0.76948000  0.23864000  0.91546000  1.0
  C  C58  1  0.17145000  0.60077000  0.28651000  1.0
  C  C59  1  0.82856000  0.39923000  0.78651000  1.0
  C  C60  1  0.99312000  0.83127000  0.86308000  1.0
  C  C61  1  0.00687000  0.16872000  0.36307000  1.0
  C  C62  1  0.28388000  0.93053000  0.83300000  1.0
  C  C63  1  0.71611000  0.06946000  0.33299000  1.0
  C  C64  1  0.36859000  0.26378000  0.05185000  1.0
  C  C65  1  0.63141000  0.73623000  0.55185000  1.0
  C  C66  1  0.11050000  0.22232000  0.11674000  1.0
  C  C67  1  0.88949000  0.77768000  0.61675000  1.0
  N  N68  1  0.57240000  0.69834000  0.00738000  1.0
  N  N69  1  0.42760000  0.30166000  0.50737000  1.0
  N  N70  1  0.03987000  0.62185000  0.00670000  1.0
  N  N71  1  0.96012000  0.37814000  0.50670000  1.0
  N  N72  1  0.87884000  0.57783000  0.04089000  1.0
  N  N73  1  0.12116000  0.42216000  0.54089000  1.0
  N  N74  1  0.05932000  0.67935000  0.15199000  1.0
  N  N75  1  0.94068000  0.32065000  0.65199000  1.0
  N  N76  1  0.50829000  0.50725000  0.32937000  1.0
  N  N77  1  0.49171000  0.49275000  0.82937000  1.0
  N  N78  1  0.22653000  0.62638000  0.37179000  1.0
  N  N79  1  0.77347000  0.37363000  0.87179000  1.0
  N  N80  1  0.84585000  0.74588000  0.86745000  1.0
  N  N81  1  0.15415000  0.25413000  0.36745000  1.0
  N  N82  1  0.14507000  0.94188000  0.86167000  1.0
  N  N83  1  0.85492000  0.05812000  0.36167000  1.0
  N  N84  1  0.41953000  0.94163000  0.80895000  1.0
  N  N85  1  0.58046000  0.05837000  0.30895000  1.0
  N  N86  1  0.49568000  0.33121000  0.01058000  1.0
  N  N87  1  0.50432000  0.66879000  0.51057000  1.0
  N  N88  1  0.23695000  0.17884000  0.09947000  1.0
  N  N89  1  0.76305000  0.82117000  0.59948000  1.0
  N  N90  1  0.99080000  0.25015000  0.13691000  1.0
  N  N91  1  0.00920000  0.74985000  0.63691000  1.0
