# generated using pymatgen
data_CdH10C16N6O7
_symmetry_space_group_name_H-M   'P 1'
_cell_length_a   9.46082000
_cell_length_b   13.73130000
_cell_length_c   17.18470000
_cell_angle_alpha   90.00000000
_cell_angle_beta   101.75800000
_cell_angle_gamma   89.99980000
_symmetry_Int_Tables_number   1
_chemical_formula_structural   CdH10C16N6O7
_chemical_formula_sum   'Cd4 H40 C64 N24 O28'
_cell_volume   2185.60983543
_cell_formula_units_Z   4
loop_
 _symmetry_equiv_pos_site_id
 _symmetry_equiv_pos_as_xyz
  1  'x, y, z'
loop_
 _atom_site_type_symbol
 _atom_site_label
 _atom_site_symmetry_multiplicity
 _atom_site_fract_x
 _atom_site_fract_y
 _atom_site_fract_z
 _atom_site_occupancy
  Cd  Cd0  1  0.82674000  0.69836000  0.60843000  1.0
  Cd  Cd1  1  0.67327000  0.19836000  0.89157000  1.0
  Cd  Cd2  1  0.17326000  0.30164000  0.39157000  1.0
  Cd  Cd3  1  0.32674000  0.80164000  0.10843000  1.0
  H  H4  1  0.54969000  0.69493000  0.48653000  1.0
  H  H5  1  0.95031000  0.19493000  0.01348000  1.0
  H  H6  1  0.45030000  0.30507000  0.51348000  1.0
  H  H7  1  0.04969000  0.80507000  0.98653000  1.0
  H  H8  1  0.35666000  0.70151000  0.36399000  1.0
  H  H9  1  0.14333000  0.20151000  0.13602000  1.0
  H  H10  1  0.64333000  0.29849000  0.63602000  1.0
  H  H11  1  0.85666000  0.79849000  0.86399000  1.0
  H  H12  1  0.33529000  0.57221000  0.26263000  1.0
  H  H13  1  0.16470000  0.07221000  0.23737000  1.0
  H  H14  1  0.66470000  0.42779000  0.73737000  1.0
  H  H15  1  0.83529000  0.92779000  0.76264000  1.0
  H  H16  1  0.50594000  0.43139000  0.28182000  1.0
  H  H17  1  0.99405000  0.93139000  0.21818000  1.0
  H  H18  1  0.49406000  0.56862000  0.71818000  1.0
  H  H19  1  0.00594000  0.06861000  0.78182000  1.0
  H  H20  1  0.89308000  0.33587000  0.49708000  1.0
  H  H21  1  0.60692000  0.83586000  0.00292000  1.0
  H  H22  1  0.10692000  0.66414000  0.50292000  1.0
  H  H23  1  0.39308000  0.16413000  0.99708000  1.0
  H  H24  1  0.70588000  0.34123000  0.36920000  1.0
  H  H25  1  0.79413000  0.84123000  0.13080000  1.0
  H  H26  1  0.29412000  0.65877000  0.63080000  1.0
  H  H27  1  0.20588000  0.15876000  0.86920000  1.0
  H  H28  1  0.26194000  0.47843000  0.85325000  1.0
  H  H29  1  0.23808000  0.97843000  0.64675000  1.0
  H  H30  1  0.73805000  0.52156000  0.14675000  1.0
  H  H31  1  0.76193000  0.02157000  0.35325000  1.0
  H  H32  1  0.46950000  0.37928000  0.92259000  1.0
  H  H33  1  0.03051000  0.87929000  0.57741000  1.0
  H  H34  1  0.53050000  0.62072000  0.07741000  1.0
  H  H35  1  0.96950000  0.12072000  0.42259000  1.0
  H  H36  1  0.42876000  0.18550000  0.73357000  1.0
  H  H37  1  0.07125000  0.68551000  0.76642000  1.0
  H  H38  1  0.57125000  0.81450000  0.26643000  1.0
  H  H39  1  0.92875000  0.31450000  0.23357000  1.0
  H  H40  1  0.21618000  0.27362000  0.65730000  1.0
  H  H41  1  0.28383000  0.77362000  0.84269000  1.0
  H  H42  1  0.78382000  0.72638000  0.34270000  1.0
  H  H43  1  0.71617000  0.22639000  0.15731000  1.0
  C  C44  1  0.53961000  0.63780000  0.44174000  1.0
  C  C45  1  0.96038000  0.13780000  0.05826000  1.0
  C  C46  1  0.46038000  0.36220000  0.55826000  1.0
  C  C47  1  0.03962000  0.86220000  0.94174000  1.0
  C  C48  1  0.43215000  0.64074000  0.37434000  1.0
  C  C49  1  0.06785000  0.14074000  0.12567000  1.0
  C  C50  1  0.56784000  0.35926000  0.62567000  1.0
  C  C51  1  0.93215000  0.85926000  0.87433000  1.0
  C  C52  1  0.41959000  0.56635000  0.31612000  1.0
  C  C53  1  0.08040000  0.06635000  0.18388000  1.0
  C  C54  1  0.58040000  0.43365000  0.68388000  1.0
  C  C55  1  0.91959000  0.93365000  0.81612000  1.0
  C  C56  1  0.51355000  0.48858000  0.32651000  1.0
  C  C57  1  0.98645000  0.98858000  0.17349000  1.0
  C  C58  1  0.48645000  0.51142000  0.67349000  1.0
  C  C59  1  0.01355000  0.01142000  0.82651000  1.0
  C  C60  1  0.62292000  0.48148000  0.39626000  1.0
  C  C61  1  0.87707000  0.98148000  0.10374000  1.0
  C  C62  1  0.37707000  0.51852000  0.60374000  1.0
  C  C63  1  0.12293000  0.01852000  0.89626000  1.0
  C  C64  1  0.63745000  0.55835000  0.45428000  1.0
  C  C65  1  0.86255000  0.05835000  0.04572000  1.0
  C  C66  1  0.36255000  0.44165000  0.54572000  1.0
  C  C67  1  0.13745000  0.94165000  0.95428000  1.0
  C  C68  1  0.82845000  0.47746000  0.53440000  1.0
  C  C69  1  0.67155000  0.97746000  0.96560000  1.0
  C  C70  1  0.17155000  0.52254000  0.46560000  1.0
  C  C71  1  0.32845000  0.02254000  0.03440000  1.0
  C  C72  1  0.82019000  0.39758000  0.48165000  1.0
  C  C73  1  0.67981000  0.89757000  0.01835000  1.0
  C  C74  1  0.17981000  0.60243000  0.51835000  1.0
  C  C75  1  0.32019000  0.10242000  0.98165000  1.0
  C  C76  1  0.71780000  0.40090000  0.41193000  1.0
  C  C77  1  0.78220000  0.90090000  0.08807000  1.0
  C  C78  1  0.28219000  0.59910000  0.58807000  1.0
  C  C79  1  0.21781000  0.09910000  0.91193000  1.0
  C  C80  1  0.93224000  0.48047000  0.60936000  1.0
  C  C81  1  0.56777000  0.98047000  0.89064000  1.0
  C  C82  1  0.06777000  0.51953000  0.39064000  1.0
  C  C83  1  0.43223000  0.01953000  0.10936000  1.0
  C  C84  1  0.10428000  0.44083000  0.70560000  1.0
  C  C85  1  0.39572000  0.94083000  0.79440000  1.0
  C  C86  1  0.89571000  0.55917000  0.29440000  1.0
  C  C87  1  0.60428000  0.05917000  0.20560000  1.0
  C  C88  1  0.22399000  0.38416000  0.74882000  1.0
  C  C89  1  0.27602000  0.88416000  0.75118000  1.0
  C  C90  1  0.77601000  0.61584000  0.25117000  1.0
  C  C91  1  0.72398000  0.11585000  0.24883000  1.0
  C  C92  1  0.29540000  0.41399000  0.82475000  1.0
  C  C93  1  0.20461000  0.91399000  0.67525000  1.0
  C  C94  1  0.70460000  0.58601000  0.17525000  1.0
  C  C95  1  0.79540000  0.08602000  0.32475000  1.0
  C  C96  1  0.41157000  0.35887000  0.86347000  1.0
  C  C97  1  0.08844000  0.85887000  0.63653000  1.0
  C  C98  1  0.58843000  0.64113000  0.13653000  1.0
  C  C99  1  0.91156000  0.14113000  0.36347000  1.0
  C  C100  1  0.38943000  0.25083000  0.75808000  1.0
  C  C101  1  0.11058000  0.75083000  0.74192000  1.0
  C  C102  1  0.61057000  0.74917000  0.24192000  1.0
  C  C103  1  0.88942000  0.24917000  0.25808000  1.0
  C  C104  1  0.27075000  0.30040000  0.71528000  1.0
  C  C105  1  0.22926000  0.80040000  0.78472000  1.0
  C  C106  1  0.72925000  0.69960000  0.28472000  1.0
  C  C107  1  0.77075000  0.19960000  0.21529000  1.0
  N  N108  1  0.74279000  0.55563000  0.52130000  1.0
  N  N109  1  0.75721000  0.05563000  0.97870000  1.0
  N  N110  1  0.25721000  0.44437000  0.47870000  1.0
  N  N111  1  0.24279000  0.94437000  0.02130000  1.0
  N  N112  1  0.94459000  0.55009000  0.66280000  1.0
  N  N113  1  0.55542000  0.05008000  0.83720000  1.0
  N  N114  1  0.05541000  0.44991000  0.33720000  1.0
  N  N115  1  0.44459000  0.94992000  0.16280000  1.0
  N  N116  1  0.05518000  0.52487000  0.72485000  1.0
  N  N117  1  0.44483000  0.02486000  0.77514000  1.0
  N  N118  1  0.94482000  0.47513000  0.27514000  1.0
  N  N119  1  0.55518000  0.97514000  0.22486000  1.0
  N  N120  1  0.45908000  0.27899000  0.83097000  1.0
  N  N121  1  0.04093000  0.77899000  0.66903000  1.0
  N  N122  1  0.54092000  0.72101000  0.16903000  1.0
  N  N123  1  0.95908000  0.22101000  0.33097000  1.0
  N  N124  1  0.80496000  0.82903000  0.47631000  1.0
  N  N125  1  0.69504000  0.32903000  0.02369000  1.0
  N  N126  1  0.19504000  0.17097000  0.52369000  1.0
  N  N127  1  0.30496000  0.67097000  0.97631000  1.0
  N  N128  1  0.61626000  0.73934000  0.69861000  1.0
  N  N129  1  0.88374000  0.23934000  0.80139000  1.0
  N  N130  1  0.38374000  0.26066000  0.30139000  1.0
  N  N131  1  0.11626000  0.76066000  0.19861000  1.0
  O  O132  1  0.74948000  0.85324000  0.53518000  1.0
  O  O133  1  0.75052000  0.35324000  0.96482000  1.0
  O  O134  1  0.25053000  0.14676000  0.46482000  1.0
  O  O135  1  0.24948000  0.64676000  0.03518000  1.0
  O  O136  1  0.79138000  0.87935000  0.41518000  1.0
  O  O137  1  0.70862000  0.37935000  0.08481000  1.0
  O  O138  1  0.20862000  0.12065000  0.58482000  1.0
  O  O139  1  0.29138000  0.62065000  0.91518000  1.0
  O  O140  1  0.87742000  0.74805000  0.48193000  1.0
  O  O141  1  0.62258000  0.24805000  0.01807000  1.0
  O  O142  1  0.12258000  0.25195000  0.51807000  1.0
  O  O143  1  0.37742000  0.75195000  0.98193000  1.0
  O  O144  1  0.03018000  0.40898000  0.63252000  1.0
  O  O145  1  0.46983000  0.90897000  0.86748000  1.0
  O  O146  1  0.96982000  0.59102000  0.36748000  1.0
  O  O147  1  0.53017000  0.09103000  0.13252000  1.0
  O  O148  1  0.51982000  0.75610000  0.73616000  1.0
  O  O149  1  0.98019000  0.25611000  0.76384000  1.0
  O  O150  1  0.48018000  0.24390000  0.26384000  1.0
  O  O151  1  0.01981000  0.74390000  0.23616000  1.0
  O  O152  1  0.75043000  0.74679000  0.73101000  1.0
  O  O153  1  0.74958000  0.24678000  0.76899000  1.0
  O  O154  1  0.24957000  0.25321000  0.26900000  1.0
  O  O155  1  0.25042000  0.75321000  0.23101000  1.0
  O  O156  1  0.58487000  0.71226000  0.62536000  1.0
  O  O157  1  0.91513000  0.21226000  0.87464000  1.0
  O  O158  1  0.41513000  0.28774000  0.37464000  1.0
  O  O159  1  0.08487000  0.78774000  0.12536000  1.0
