# generated using pymatgen
data_Zn8H72C99O38
_symmetry_space_group_name_H-M   'P 1'
_cell_length_a   26.86380000
_cell_length_b   26.86380000
_cell_length_c   33.07130000
_cell_angle_alpha   66.03290000
_cell_angle_beta   66.03290000
_cell_angle_gamma   59.99610000
_symmetry_Int_Tables_number   1
_chemical_formula_structural   Zn8H72C99O38
_chemical_formula_sum   'Zn16 H144 C198 O76'
_cell_volume   18253.50998418
_cell_formula_units_Z   2
loop_
 _symmetry_equiv_pos_site_id
 _symmetry_equiv_pos_as_xyz
  1  'x, y, z'
loop_
 _atom_site_type_symbol
 _atom_site_label
 _atom_site_symmetry_multiplicity
 _atom_site_fract_x
 _atom_site_fract_y
 _atom_site_fract_z
 _atom_site_occupancy
  Zn  Zn0  1  0.90542000  0.76876000  0.50219000  1.0
  Zn  Zn1  1  0.76876000  0.82366000  0.50219000  1.0
  Zn  Zn2  1  0.82367000  0.90539000  0.50219000  1.0
  Zn  Zn3  1  0.67634000  0.73124000  0.99781000  1.0
  Zn  Zn4  1  0.59461000  0.67633000  0.99781000  1.0
  Zn  Zn5  1  0.73124000  0.59458000  0.99781000  1.0
  Zn  Zn6  1  0.09458000  0.23124000  0.49781000  1.0
  Zn  Zn7  1  0.23124000  0.17634000  0.49781000  1.0
  Zn  Zn8  1  0.17633000  0.09461000  0.49781000  1.0
  Zn  Zn9  1  0.32366000  0.26876000  0.00219000  1.0
  Zn  Zn10  1  0.40539000  0.32367000  0.00219000  1.0
  Zn  Zn11  1  0.26876000  0.40542000  0.00219000  1.0
  Zn  Zn12  1  0.86255000  0.86253000  0.41239000  1.0
  Zn  Zn13  1  0.63747000  0.63745000  0.08761000  1.0
  Zn  Zn14  1  0.13745000  0.13747000  0.58761000  1.0
  Zn  Zn15  1  0.36253000  0.36255000  0.91239000  1.0
  H  H16  1  0.00423000  0.76758000  0.31841000  1.0
  H  H17  1  0.07931000  0.67801000  0.43412000  1.0
  H  H18  1  0.09728000  0.70735000  0.27099000  1.0
  H  H19  1  0.17428000  0.61788000  0.38648000  1.0
  H  H20  1  0.19511000  0.65599000  0.23406000  1.0
  H  H21  1  0.15404000  0.60991000  0.26756000  1.0
  H  H22  1  0.26033000  0.51234000  0.31904000  1.0
  H  H23  1  0.29203000  0.46718000  0.27970000  1.0
  H  H24  1  0.10686000  0.47778000  0.33544000  1.0
  H  H25  1  0.28329000  0.41029000  0.35103000  1.0
  H  H26  1  0.09207000  0.38993000  0.39738000  1.0
  H  H27  1  0.26807000  0.32331000  0.41154000  1.0
  H  H28  1  0.76764000  0.90976000  0.31839000  1.0
  H  H29  1  0.67799000  0.80864000  0.43414000  1.0
  H  H30  1  0.70738000  0.92439000  0.27098000  1.0
  H  H31  1  0.61790000  0.82139000  0.38650000  1.0
  H  H32  1  0.65603000  0.91484000  0.23406000  1.0
  H  H33  1  0.60993000  0.96849000  0.26755000  1.0
  H  H34  1  0.51239000  0.90821000  0.31901000  1.0
  H  H35  1  0.46723000  0.96101000  0.27966000  1.0
  H  H36  1  0.47775000  0.07980000  0.33542000  1.0
  H  H37  1  0.41023000  0.95528000  0.35107000  1.0
  H  H38  1  0.38994000  0.12055000  0.39733000  1.0
  H  H39  1  0.32327000  0.99701000  0.41159000  1.0
  H  H40  1  0.90976000  0.00421000  0.31840000  1.0
  H  H41  1  0.80860000  0.07929000  0.43412000  1.0
  H  H42  1  0.92439000  0.09725000  0.27098000  1.0
  H  H43  1  0.82134000  0.17427000  0.38646000  1.0
  H  H44  1  0.91484000  0.19510000  0.23404000  1.0
  H  H45  1  0.96851000  0.15401000  0.26752000  1.0
  H  H46  1  0.90824000  0.26032000  0.31901000  1.0
  H  H47  1  0.96106000  0.29202000  0.27968000  1.0
  H  H48  1  0.07992000  0.10695000  0.33541000  1.0
  H  H49  1  0.95527000  0.28332000  0.35106000  1.0
  H  H50  1  0.12063000  0.09218000  0.39733000  1.0
  H  H51  1  0.99696000  0.26813000  0.41156000  1.0
  H  H52  1  0.59024000  0.73236000  0.18161000  1.0
  H  H53  1  0.69136000  0.82201000  0.06586000  1.0
  H  H54  1  0.57561000  0.79262000  0.22902000  1.0
  H  H55  1  0.67861000  0.88210000  0.11350000  1.0
  H  H56  1  0.58516000  0.84397000  0.26594000  1.0
  H  H57  1  0.53151000  0.89007000  0.23245000  1.0
  H  H58  1  0.59179000  0.98761000  0.18099000  1.0
  H  H59  1  0.53899000  0.03277000  0.22034000  1.0
  H  H60  1  0.42020000  0.02225000  0.16458000  1.0
  H  H61  1  0.54472000  0.08977000  0.14893000  1.0
  H  H62  1  0.37945000  0.11006000  0.10267000  1.0
  H  H63  1  0.50299000  0.17673000  0.08841000  1.0
  H  H64  1  0.49579000  0.59023000  0.18160000  1.0
  H  H65  1  0.42070000  0.69140000  0.06588000  1.0
  H  H66  1  0.40275000  0.57561000  0.22902000  1.0
  H  H67  1  0.32573000  0.67866000  0.11354000  1.0
  H  H68  1  0.30490000  0.58516000  0.26596000  1.0
  H  H69  1  0.34599000  0.53149000  0.23248000  1.0
  H  H70  1  0.23968000  0.59176000  0.18099000  1.0
  H  H71  1  0.20798000  0.53894000  0.22032000  1.0
  H  H72  1  0.39306000  0.42008000  0.16459000  1.0
  H  H73  1  0.21668000  0.54473000  0.14895000  1.0
  H  H74  1  0.40783000  0.37937000  0.10267000  1.0
  H  H75  1  0.23187000  0.50304000  0.08844000  1.0
  H  H76  1  0.73242000  0.49577000  0.18159000  1.0
  H  H77  1  0.82199000  0.42069000  0.06588000  1.0
  H  H78  1  0.79265000  0.40272000  0.22900000  1.0
  H  H79  1  0.88212000  0.32572000  0.11352000  1.0
  H  H80  1  0.84401000  0.30489000  0.26594000  1.0
  H  H81  1  0.89009000  0.34596000  0.23244000  1.0
  H  H82  1  0.98766000  0.23967000  0.18096000  1.0
  H  H83  1  0.03282000  0.20797000  0.22030000  1.0
  H  H84  1  0.02222000  0.39314000  0.16456000  1.0
  H  H85  1  0.08971000  0.21671000  0.14897000  1.0
  H  H86  1  0.11007000  0.40793000  0.10262000  1.0
  H  H87  1  0.17669000  0.23193000  0.08846000  1.0
  H  H88  1  0.99577000  0.23242000  0.68159000  1.0
  H  H89  1  0.92069000  0.32199000  0.56588000  1.0
  H  H90  1  0.90272000  0.29265000  0.72901000  1.0
  H  H91  1  0.82572000  0.38212000  0.61352000  1.0
  H  H92  1  0.80489000  0.34401000  0.76594000  1.0
  H  H93  1  0.84596000  0.39009000  0.73244000  1.0
  H  H94  1  0.73967000  0.48766000  0.68096000  1.0
  H  H95  1  0.70797000  0.53282000  0.72030000  1.0
  H  H96  1  0.89314000  0.52222000  0.66456000  1.0
  H  H97  1  0.71671000  0.58972000  0.64897000  1.0
  H  H98  1  0.90793000  0.61007000  0.60262000  1.0
  H  H99  1  0.73193000  0.67669000  0.58846000  1.0
  H  H100  1  0.23236000  0.09024000  0.68161000  1.0
  H  H101  1  0.32201000  0.19136000  0.56586000  1.0
  H  H102  1  0.29262000  0.07561000  0.72902000  1.0
  H  H103  1  0.38210000  0.17861000  0.61350000  1.0
  H  H104  1  0.34397000  0.08516000  0.76594000  1.0
  H  H105  1  0.39007000  0.03151000  0.73245000  1.0
  H  H106  1  0.48761000  0.09179000  0.68099000  1.0
  H  H107  1  0.53277000  0.03899000  0.72034000  1.0
  H  H108  1  0.52225000  0.92020000  0.66458000  1.0
  H  H109  1  0.58977000  0.04472000  0.64893000  1.0
  H  H110  1  0.61006000  0.87945000  0.60267000  1.0
  H  H111  1  0.67673000  0.00299000  0.58841000  1.0
  H  H112  1  0.09023000  0.99579000  0.68160000  1.0
  H  H113  1  0.19140000  0.92071000  0.56588000  1.0
  H  H114  1  0.07561000  0.90275000  0.72902000  1.0
  H  H115  1  0.17866000  0.82573000  0.61354000  1.0
  H  H116  1  0.08516000  0.80490000  0.76596000  1.0
  H  H117  1  0.03149000  0.84599000  0.73248000  1.0
  H  H118  1  0.09176000  0.73968000  0.68099000  1.0
  H  H119  1  0.03894000  0.70798000  0.72032000  1.0
  H  H120  1  0.92008000  0.89305000  0.66459000  1.0
  H  H121  1  0.04473000  0.71668000  0.64895000  1.0
  H  H122  1  0.87937000  0.90783000  0.60267000  1.0
  H  H123  1  0.00304000  0.73187000  0.58844000  1.0
  H  H124  1  0.40976000  0.26764000  0.81839000  1.0
  H  H125  1  0.30864000  0.17799000  0.93414000  1.0
  H  H126  1  0.42439000  0.20738000  0.77098000  1.0
  H  H127  1  0.32139000  0.11790000  0.88650000  1.0
  H  H128  1  0.41484000  0.15603000  0.73406000  1.0
  H  H129  1  0.46849000  0.10993000  0.76755000  1.0
  H  H130  1  0.40821000  0.01239000  0.81901000  1.0
  H  H131  1  0.46101000  0.96723000  0.77966000  1.0
  H  H132  1  0.57980000  0.97775000  0.83542000  1.0
  H  H133  1  0.45528000  0.91023000  0.85107000  1.0
  H  H134  1  0.62055000  0.88994000  0.89733000  1.0
  H  H135  1  0.49701000  0.82327000  0.91159000  1.0
  H  H136  1  0.50421000  0.40977000  0.81840000  1.0
  H  H137  1  0.57930000  0.30860000  0.93412000  1.0
  H  H138  1  0.59725000  0.42439000  0.77098000  1.0
  H  H139  1  0.67427000  0.32134000  0.88646000  1.0
  H  H140  1  0.69510000  0.41484000  0.73404000  1.0
  H  H141  1  0.65401000  0.46851000  0.76752000  1.0
  H  H142  1  0.76032000  0.40825000  0.81901000  1.0
  H  H143  1  0.79202000  0.46106000  0.77968000  1.0
  H  H144  1  0.60694000  0.57992000  0.83541000  1.0
  H  H145  1  0.78332000  0.45527000  0.85105000  1.0
  H  H146  1  0.59217000  0.62063000  0.89733000  1.0
  H  H147  1  0.76813000  0.49696000  0.91156000  1.0
  H  H148  1  0.26758000  0.50423000  0.81841000  1.0
  H  H149  1  0.17801000  0.57931000  0.93412000  1.0
  H  H150  1  0.20735000  0.59728000  0.77099000  1.0
  H  H151  1  0.11788000  0.67428000  0.88648000  1.0
  H  H152  1  0.15599000  0.69511000  0.73406000  1.0
  H  H153  1  0.10991000  0.65404000  0.76756000  1.0
  H  H154  1  0.01234000  0.76033000  0.81904000  1.0
  H  H155  1  0.96718000  0.79203000  0.77970000  1.0
  H  H156  1  0.97778000  0.60686000  0.83544000  1.0
  H  H157  1  0.91029000  0.78329000  0.85103000  1.0
  H  H158  1  0.88993000  0.59207000  0.89738000  1.0
  H  H159  1  0.82331000  0.76807000  0.91154000  1.0
  C  C160  1  0.97867000  0.76017000  0.40807000  1.0
  C  C161  1  0.03570000  0.72621000  0.37924000  1.0
  C  C162  1  0.04155000  0.73452000  0.33318000  1.0
  C  C163  1  0.08405000  0.68425000  0.39828000  1.0
  C  C164  1  0.09378000  0.70056000  0.30664000  1.0
  C  C165  1  0.13662000  0.65087000  0.37206000  1.0
  C  C166  1  0.14122000  0.65816000  0.32635000  1.0
  C  C167  1  0.19414000  0.61595000  0.26210000  1.0
  C  C168  1  0.25411000  0.50638000  0.29061000  1.0
  C  C169  1  0.19565000  0.44959000  0.33933000  1.0
  C  C170  1  0.14170000  0.44371000  0.35259000  1.0
  C  C171  1  0.24128000  0.40640000  0.36077000  1.0
  C  C172  1  0.13366000  0.39503000  0.38690000  1.0
  C  C173  1  0.23275000  0.35749000  0.39494000  1.0
  C  C174  1  0.17918000  0.35114000  0.40846000  1.0
  C  C175  1  0.17139000  0.29798000  0.44438000  1.0
  C  C176  1  0.76021000  0.85309000  0.40806000  1.0
  C  C177  1  0.72623000  0.85888000  0.37924000  1.0
  C  C178  1  0.73455000  0.89077000  0.33316000  1.0
  C  C179  1  0.68425000  0.83349000  0.39829000  1.0
  C  C180  1  0.70061000  0.89901000  0.30664000  1.0
  C  C181  1  0.65088000  0.84049000  0.37206000  1.0
  C  C182  1  0.65819000  0.87428000  0.32635000  1.0
  C  C183  1  0.61598000  0.92779000  0.26210000  1.0
  C  C184  1  0.50641000  0.94883000  0.29059000  1.0
  C  C185  1  0.44954000  0.01533000  0.33936000  1.0
  C  C186  1  0.44369000  0.06189000  0.35260000  1.0
  C  C187  1  0.40637000  0.99143000  0.36080000  1.0
  C  C188  1  0.39502000  0.08432000  0.38690000  1.0
  C  C189  1  0.35747000  0.01472000  0.39498000  1.0
  C  C190  1  0.35113000  0.06113000  0.40849000  1.0
  C  C191  1  0.29799000  0.08618000  0.44441000  1.0
  C  C192  1  0.85306000  0.97867000  0.40809000  1.0
  C  C193  1  0.85885000  0.03569000  0.37924000  1.0
  C  C194  1  0.89075000  0.04153000  0.33317000  1.0
  C  C195  1  0.83344000  0.08404000  0.39827000  1.0
  C  C196  1  0.89900000  0.09376000  0.30663000  1.0
  C  C197  1  0.84045000  0.13661000  0.37203000  1.0
  C  C198  1  0.87427000  0.14120000  0.32633000  1.0
  C  C199  1  0.92782000  0.19412000  0.26208000  1.0
  C  C200  1  0.94888000  0.25409000  0.29060000  1.0
  C  C201  1  0.01537000  0.19569000  0.33935000  1.0
  C  C202  1  0.06197000  0.14177000  0.35258000  1.0
  C  C203  1  0.99144000  0.24133000  0.36079000  1.0
  C  C204  1  0.08439000  0.13375000  0.38688000  1.0
  C  C205  1  0.01472000  0.23281000  0.39496000  1.0
  C  C206  1  0.06115000  0.17926000  0.40846000  1.0
  C  C207  1  0.08617000  0.17144000  0.44440000  1.0
  C  C208  1  0.64691000  0.73979000  0.09194000  1.0
  C  C209  1  0.64112000  0.77377000  0.12075000  1.0
  C  C210  1  0.60923000  0.76545000  0.16684000  1.0
  C  C211  1  0.66651000  0.81575000  0.10171000  1.0
  C  C212  1  0.60099000  0.79939000  0.19336000  1.0
  C  C213  1  0.65951000  0.84912000  0.12794000  1.0
  C  C214  1  0.62572000  0.84181000  0.17365000  1.0
  C  C215  1  0.57221000  0.88401000  0.23790000  1.0
  C  C216  1  0.55117000  0.99359000  0.20941000  1.0
  C  C217  1  0.48467000  0.05046000  0.16064000  1.0
  C  C218  1  0.43811000  0.05631000  0.14740000  1.0
  C  C219  1  0.50857000  0.09363000  0.13920000  1.0
  C  C220  1  0.41568000  0.10498000  0.11310000  1.0
  C  C221  1  0.48528000  0.14253000  0.10502000  1.0
  C  C222  1  0.43887000  0.14887000  0.09151000  1.0
  C  C223  1  0.41382000  0.20201000  0.05559000  1.0
  C  C224  1  0.52132000  0.64694000  0.09191000  1.0
  C  C225  1  0.46431000  0.64115000  0.12076000  1.0
  C  C226  1  0.45847000  0.60925000  0.16683000  1.0
  C  C227  1  0.41596000  0.66656000  0.10173000  1.0
  C  C228  1  0.40624000  0.60100000  0.19337000  1.0
  C  C229  1  0.36338000  0.65955000  0.12797000  1.0
  C  C230  1  0.35880000  0.62573000  0.17367000  1.0
  C  C231  1  0.30588000  0.57218000  0.23792000  1.0
  C  C232  1  0.24591000  0.55112000  0.20940000  1.0
  C  C233  1  0.30431000  0.48463000  0.16065000  1.0
  C  C234  1  0.35823000  0.43803000  0.14742000  1.0
  C  C235  1  0.25867000  0.50855000  0.13921000  1.0
  C  C236  1  0.36625000  0.41561000  0.11312000  1.0
  C  C237  1  0.26719000  0.48528000  0.10504000  1.0
  C  C238  1  0.32074000  0.43885000  0.09154000  1.0
  C  C239  1  0.32856000  0.41383000  0.05560000  1.0
  C  C240  1  0.73983000  0.52133000  0.09192000  1.0
  C  C241  1  0.77379000  0.46430000  0.12075000  1.0
  C  C242  1  0.76549000  0.45845000  0.16682000  1.0
  C  C243  1  0.81575000  0.41595000  0.10172000  1.0
  C  C244  1  0.79944000  0.40622000  0.19335000  1.0
  C  C245  1  0.84913000  0.36338000  0.12794000  1.0
  C  C246  1  0.84184000  0.35878000  0.17365000  1.0
  C  C247  1  0.88405000  0.30586000  0.23790000  1.0
  C  C248  1  0.99362000  0.24589000  0.20939000  1.0
  C  C249  1  0.05041000  0.30435000  0.16067000  1.0
  C  C250  1  0.05629000  0.35830000  0.14741000  1.0
  C  C251  1  0.09360000  0.25872000  0.13923000  1.0
  C  C252  1  0.10497000  0.36634000  0.11310000  1.0
  C  C253  1  0.14251000  0.26725000  0.10506000  1.0
  C  C254  1  0.14886000  0.32082000  0.09154000  1.0
  C  C255  1  0.20201000  0.32861000  0.05562000  1.0
  C  C256  1  0.02133000  0.23983000  0.59193000  1.0
  C  C257  1  0.96430000  0.27379000  0.62076000  1.0
  C  C258  1  0.95845000  0.26548000  0.66682000  1.0
  C  C259  1  0.91595000  0.31575000  0.60172000  1.0
  C  C260  1  0.90622000  0.29944000  0.69336000  1.0
  C  C261  1  0.86338000  0.34913000  0.62794000  1.0
  C  C262  1  0.85878000  0.34184000  0.67365000  1.0
  C  C263  1  0.80586000  0.38405000  0.73790000  1.0
  C  C264  1  0.74589000  0.49362000  0.70939000  1.0
  C  C265  1  0.80435000  0.55041000  0.66067000  1.0
  C  C266  1  0.85830000  0.55629000  0.64741000  1.0
  C  C267  1  0.75872000  0.59360000  0.63923000  1.0
  C  C268  1  0.86634000  0.60497000  0.61310000  1.0
  C  C269  1  0.76725000  0.64251000  0.60506000  1.0
  C  C270  1  0.82082000  0.64886000  0.59154000  1.0
  C  C271  1  0.82861000  0.70201000  0.55562000  1.0
  C  C272  1  0.23979000  0.14691000  0.59194000  1.0
  C  C273  1  0.27377000  0.14112000  0.62075000  1.0
  C  C274  1  0.26545000  0.10923000  0.66684000  1.0
  C  C275  1  0.31575000  0.16651000  0.60171000  1.0
  C  C276  1  0.29939000  0.10099000  0.69337000  1.0
  C  C277  1  0.34912000  0.15951000  0.62794000  1.0
  C  C278  1  0.34181000  0.12572000  0.67365000  1.0
  C  C279  1  0.38401000  0.07221000  0.73790000  1.0
  C  C280  1  0.49359000  0.05117000  0.70941000  1.0
  C  C281  1  0.55046000  0.98467000  0.66064000  1.0
  C  C282  1  0.55631000  0.93811000  0.64740000  1.0
  C  C283  1  0.59363000  0.00857000  0.63920000  1.0
  C  C284  1  0.60498000  0.91568000  0.61310000  1.0
  C  C285  1  0.64253000  0.98528000  0.60502000  1.0
  C  C286  1  0.64887000  0.93887000  0.59151000  1.0
  C  C287  1  0.70201000  0.91382000  0.55559000  1.0
  C  C288  1  0.14694000  0.02133000  0.59191000  1.0
  C  C289  1  0.14115000  0.96431000  0.62076000  1.0
  C  C290  1  0.10925000  0.95847000  0.66683000  1.0
  C  C291  1  0.16656000  0.91596000  0.60173000  1.0
  C  C292  1  0.10100000  0.90624000  0.69337000  1.0
  C  C293  1  0.15955000  0.86339000  0.62797000  1.0
  C  C294  1  0.12573000  0.85880000  0.67367000  1.0
  C  C295  1  0.07218000  0.80588000  0.73792000  1.0
  C  C296  1  0.05112000  0.74591000  0.70940000  1.0
  C  C297  1  0.98463000  0.80431000  0.66065000  1.0
  C  C298  1  0.93803000  0.85823000  0.64742000  1.0
  C  C299  1  0.00856000  0.75867000  0.63921000  1.0
  C  C300  1  0.91561000  0.86625000  0.61312000  1.0
  C  C301  1  0.98528000  0.76719000  0.60504000  1.0
  C  C302  1  0.93885000  0.82074000  0.59154000  1.0
  C  C303  1  0.91383000  0.82856000  0.55560000  1.0
  C  C304  1  0.35309000  0.26021000  0.90806000  1.0
  C  C305  1  0.35888000  0.22623000  0.87925000  1.0
  C  C306  1  0.39077000  0.23455000  0.83316000  1.0
  C  C307  1  0.33349000  0.18425000  0.89829000  1.0
  C  C308  1  0.39901000  0.20061000  0.80664000  1.0
  C  C309  1  0.34049000  0.15088000  0.87206000  1.0
  C  C310  1  0.37428000  0.15819000  0.82635000  1.0
  C  C311  1  0.42779000  0.11599000  0.76210000  1.0
  C  C312  1  0.44883000  0.00641000  0.79059000  1.0
  C  C313  1  0.51533000  0.94955000  0.83936000  1.0
  C  C314  1  0.56189000  0.94369000  0.85260000  1.0
  C  C315  1  0.49143000  0.90637000  0.86080000  1.0
  C  C316  1  0.58432000  0.89502000  0.88690000  1.0
  C  C317  1  0.51472000  0.85747000  0.89498000  1.0
  C  C318  1  0.56113000  0.85113000  0.90849000  1.0
  C  C319  1  0.58618000  0.79799000  0.94441000  1.0
  C  C320  1  0.47868000  0.35306000  0.90809000  1.0
  C  C321  1  0.53569000  0.35885000  0.87924000  1.0
  C  C322  1  0.54153000  0.39075000  0.83317000  1.0
  C  C323  1  0.58404000  0.33344000  0.89827000  1.0
  C  C324  1  0.59376000  0.39900000  0.80663000  1.0
  C  C325  1  0.63662000  0.34045000  0.87203000  1.0
  C  C326  1  0.64120000  0.37427000  0.82633000  1.0
  C  C327  1  0.69412000  0.42782000  0.76208000  1.0
  C  C328  1  0.75409000  0.44888000  0.79060000  1.0
  C  C329  1  0.69569000  0.51537000  0.83935000  1.0
  C  C330  1  0.64177000  0.56197000  0.85258000  1.0
  C  C331  1  0.74133000  0.49144000  0.86079000  1.0
  C  C332  1  0.63375000  0.58439000  0.88688000  1.0
  C  C333  1  0.73281000  0.51472000  0.89496000  1.0
  C  C334  1  0.67926000  0.56115000  0.90846000  1.0
  C  C335  1  0.67144000  0.58617000  0.94440000  1.0
  C  C336  1  0.26017000  0.47867000  0.90808000  1.0
  C  C337  1  0.22621000  0.53570000  0.87925000  1.0
  C  C338  1  0.23451000  0.54155000  0.83318000  1.0
  C  C339  1  0.18425000  0.58405000  0.89828000  1.0
  C  C340  1  0.20056000  0.59378000  0.80665000  1.0
  C  C341  1  0.15087000  0.63662000  0.87206000  1.0
  C  C342  1  0.15816000  0.64122000  0.82635000  1.0
  C  C343  1  0.11595000  0.69414000  0.76210000  1.0
  C  C344  1  0.00638000  0.75411000  0.79061000  1.0
  C  C345  1  0.94959000  0.69565000  0.83933000  1.0
  C  C346  1  0.94371000  0.64170000  0.85259000  1.0
  C  C347  1  0.90640000  0.74128000  0.86077000  1.0
  C  C348  1  0.89503000  0.63366000  0.88690000  1.0
  C  C349  1  0.85749000  0.73275000  0.89494000  1.0
  C  C350  1  0.85114000  0.67918000  0.90846000  1.0
  C  C351  1  0.79799000  0.67139000  0.94438000  1.0
  C  C352  1  0.25001000  0.56146000  0.25001000  1.0
  C  C353  1  0.56151000  0.93849000  0.25000000  1.0
  C  C354  1  0.93854000  0.24999000  0.24999000  1.0
  C  C355  1  0.74999000  0.43854000  0.74999000  1.0
  C  C356  1  0.43849000  0.06151000  0.75000000  1.0
  C  C357  1  0.06146000  0.75001000  0.75001000  1.0
  O  O358  1  0.93891000  0.80259000  0.38771000  1.0
  O  O359  1  0.97383000  0.74379000  0.45113000  1.0
  O  O360  1  0.87949000  0.70404000  0.54318000  1.0
  O  O361  1  0.93469000  0.78358000  0.54003000  1.0
  O  O362  1  0.19358000  0.62165000  0.30352000  1.0
  O  O363  1  0.19986000  0.49872000  0.30505000  1.0
  O  O364  1  0.80261000  0.87082000  0.38769000  1.0
  O  O365  1  0.74387000  0.83120000  0.45112000  1.0
  O  O366  1  0.70403000  0.87334000  0.54318000  1.0
  O  O367  1  0.78359000  0.74175000  0.54010000  1.0
  O  O368  1  0.62170000  0.88124000  0.30353000  1.0
  O  O369  1  0.49868000  0.99631000  0.30505000  1.0
  O  O370  1  0.87075000  0.93892000  0.38773000  1.0
  O  O371  1  0.83119000  0.97386000  0.45115000  1.0
  O  O372  1  0.87331000  0.87942000  0.54321000  1.0
  O  O373  1  0.74174000  0.93462000  0.54005000  1.0
  O  O374  1  0.88126000  0.19355000  0.30350000  1.0
  O  O375  1  0.99635000  0.19987000  0.30506000  1.0
  O  O376  1  0.62918000  0.69739000  0.11231000  1.0
  O  O377  1  0.66880000  0.75613000  0.04888000  1.0
  O  O378  1  0.62666000  0.79598000  0.95682000  1.0
  O  O379  1  0.75825000  0.71641000  0.95990000  1.0
  O  O380  1  0.61876000  0.87830000  0.19647000  1.0
  O  O381  1  0.50368000  0.00132000  0.19495000  1.0
  O  O382  1  0.56108000  0.62925000  0.11227000  1.0
  O  O383  1  0.52614000  0.66881000  0.04885000  1.0
  O  O384  1  0.62058000  0.62669000  0.95679000  1.0
  O  O385  1  0.56538000  0.75826000  0.95995000  1.0
  O  O386  1  0.30645000  0.61874000  0.19650000  1.0
  O  O387  1  0.30014000  0.50365000  0.19494000  1.0
  O  O388  1  0.69741000  0.56108000  0.11229000  1.0
  O  O389  1  0.75621000  0.52617000  0.04887000  1.0
  O  O390  1  0.79596000  0.62051000  0.95682000  1.0
  O  O391  1  0.71642000  0.56531000  0.95997000  1.0
  O  O392  1  0.87835000  0.30642000  0.19648000  1.0
  O  O393  1  0.00128000  0.30014000  0.19495000  1.0
  O  O394  1  0.06109000  0.19741000  0.61229000  1.0
  O  O395  1  0.02617000  0.25621000  0.54887000  1.0
  O  O396  1  0.12051000  0.29596000  0.45682000  1.0
  O  O397  1  0.06531000  0.21642000  0.45997000  1.0
  O  O398  1  0.80642000  0.37835000  0.69648000  1.0
  O  O399  1  0.80014000  0.50128000  0.69495000  1.0
  O  O400  1  0.19739000  0.12918000  0.61231000  1.0
  O  O401  1  0.25613000  0.16880000  0.54888000  1.0
  O  O402  1  0.29598000  0.12666000  0.45682000  1.0
  O  O403  1  0.21641000  0.25825000  0.45990000  1.0
  O  O404  1  0.37830000  0.11876000  0.69647000  1.0
  O  O405  1  0.50132000  0.00369000  0.69495000  1.0
  O  O406  1  0.12925000  0.06108000  0.61227000  1.0
  O  O407  1  0.16881000  0.02614000  0.54885000  1.0
  O  O408  1  0.12669000  0.12058000  0.45679000  1.0
  O  O409  1  0.25826000  0.06538000  0.45995000  1.0
  O  O410  1  0.11874000  0.80645000  0.69650000  1.0
  O  O411  1  0.00365000  0.80013000  0.69494000  1.0
  O  O412  1  0.37082000  0.30261000  0.88769000  1.0
  O  O413  1  0.33120000  0.24387000  0.95112000  1.0
  O  O414  1  0.37334000  0.20403000  0.04318000  1.0
  O  O415  1  0.24175000  0.28359000  0.04010000  1.0
  O  O416  1  0.38124000  0.12170000  0.80353000  1.0
  O  O417  1  0.49632000  0.99868000  0.80505000  1.0
  O  O418  1  0.43892000  0.37075000  0.88773000  1.0
  O  O419  1  0.47386000  0.33119000  0.95115000  1.0
  O  O420  1  0.37942000  0.37331000  0.04321000  1.0
  O  O421  1  0.43462000  0.24174000  0.04005000  1.0
  O  O422  1  0.69355000  0.38126000  0.80350000  1.0
  O  O423  1  0.69986000  0.49635000  0.80506000  1.0
  O  O424  1  0.30259000  0.43892000  0.88771000  1.0
  O  O425  1  0.24379000  0.47383000  0.95113000  1.0
  O  O426  1  0.20404000  0.37949000  0.04318000  1.0
  O  O427  1  0.28358000  0.43469000  0.04003000  1.0
  O  O428  1  0.12165000  0.69358000  0.80352000  1.0
  O  O429  1  0.99872000  0.69986000  0.80505000  1.0
  O  O430  1  0.84016000  0.84014000  0.47958000  1.0
  O  O431  1  0.65986000  0.65984000  0.02042000  1.0
  O  O432  1  0.15984000  0.15986000  0.52042000  1.0
  O  O433  1  0.34014000  0.34016000  0.97958000  1.0
