# generated using pymatgen
data_Cd2H18C10O13
_symmetry_space_group_name_H-M   'P 1'
_cell_length_a   8.56747000
_cell_length_b   9.51997000
_cell_length_c   11.02550000
_cell_angle_alpha   89.34500000
_cell_angle_beta   83.64180000
_cell_angle_gamma   65.88620000
_symmetry_Int_Tables_number   1
_chemical_formula_structural   Cd2H18C10O13
_chemical_formula_sum   'Cd4 H36 C20 O26'
_cell_volume   815.17345645
_cell_formula_units_Z   2
loop_
 _symmetry_equiv_pos_site_id
 _symmetry_equiv_pos_as_xyz
  1  'x, y, z'
loop_
 _atom_site_type_symbol
 _atom_site_label
 _atom_site_symmetry_multiplicity
 _atom_site_fract_x
 _atom_site_fract_y
 _atom_site_fract_z
 _atom_site_occupancy
  Cd  Cd0  1  0.32055000  0.94092000  0.99503000  1.0
  Cd  Cd1  1  0.67946000  0.05908000  0.00496000  1.0
  Cd  Cd2  1  0.30975000  0.78918000  0.47459000  1.0
  Cd  Cd3  1  0.69025000  0.21082000  0.52541000  1.0
  H  H4  1  0.09805000  0.40767000  0.12709000  1.0
  H  H5  1  0.90195000  0.59233000  0.87291000  1.0
  H  H6  1  0.10999000  0.34579000  0.34040000  1.0
  H  H7  1  0.89001000  0.65421000  0.65960000  1.0
  H  H8  1  0.89665000  0.64902000  0.07016000  1.0
  H  H9  1  0.10335000  0.35098000  0.92984000  1.0
  H  H10  1  0.92906000  0.61940000  0.41597000  1.0
  H  H11  1  0.07093000  0.38061000  0.58404000  1.0
  H  H12  1  0.06344000  0.59610000  0.27898000  1.0
  H  H13  1  0.93655000  0.40391000  0.72103000  1.0
  H  H14  1  0.81000000  0.80273000  0.24307000  1.0
  H  H15  1  0.19000000  0.19727000  0.75694000  1.0
  H  H16  1  0.84129000  0.42864000  0.02327000  1.0
  H  H17  1  0.15871000  0.57136000  0.97673000  1.0
  H  H18  1  0.72601000  0.43808000  0.16798000  1.0
  H  H19  1  0.27399000  0.56192000  0.83203000  1.0
  H  H20  1  0.26953000  0.08645000  0.55315000  1.0
  H  H21  1  0.73047000  0.91355000  0.44685000  1.0
  H  H22  1  0.08891000  0.06957000  0.59067000  1.0
  H  H23  1  0.91108000  0.93043000  0.40933000  1.0
  H  H24  1  0.59684000  0.75558000  0.56862000  1.0
  H  H25  1  0.40316000  0.24442000  0.43138000  1.0
  H  H26  1  0.64010000  0.58411000  0.59441000  1.0
  H  H27  1  0.35990000  0.41589000  0.40559000  1.0
  H  H28  1  0.14931000  0.83214000  0.24426000  1.0
  H  H29  1  0.85069000  0.16786000  0.75574000  1.0
  H  H30  1  0.12672000  0.98858000  0.30184000  1.0
  H  H31  1  0.87328000  0.01142000  0.69816000  1.0
  H  H32  1  0.42716000  0.79702000  0.75507000  1.0
  H  H33  1  0.57284000  0.20298000  0.24493000  1.0
  H  H34  1  0.23172000  0.83645000  0.77030000  1.0
  H  H35  1  0.76828000  0.16354000  0.22970000  1.0
  H  H36  1  0.30627000  0.67545000  0.06941000  1.0
  H  H37  1  0.69374000  0.32455000  0.93059000  1.0
  H  H38  1  0.11001000  0.78163000  0.04123000  1.0
  H  H39  1  0.88999000  0.21837000  0.95877000  1.0
  C  C40  1  0.00056000  0.36893000  0.17163000  1.0
  C  C41  1  0.99944000  0.63107000  0.82838000  1.0
  C  C42  1  0.63039000  0.72672000  0.06941000  1.0
  C  C43  1  0.36961000  0.27328000  0.93058000  1.0
  C  C44  1  0.98422000  0.41199000  0.30719000  1.0
  C  C45  1  0.01578000  0.58802000  0.69281000  1.0
  C  C46  1  0.79233000  0.63164000  0.12721000  1.0
  C  C47  1  0.20767000  0.36836000  0.87280000  1.0
  C  C48  1  0.94686000  0.58355000  0.31962000  1.0
  C  C49  1  0.05314000  0.41646000  0.68038000  1.0
  C  C50  1  0.86241000  0.35893000  0.38624000  1.0
  C  C51  1  0.13759000  0.64107000  0.61376000  1.0
  C  C52  1  0.79374000  0.69445000  0.25482000  1.0
  C  C53  1  0.20626000  0.30555000  0.74518000  1.0
  C  C54  1  0.62607000  0.73880000  0.33751000  1.0
  C  C55  1  0.37393000  0.26121000  0.66249000  1.0
  C  C56  1  0.08587000  0.19825000  0.13707000  1.0
  C  C57  1  0.91414000  0.80175000  0.86293000  1.0
  C  C58  1  0.83216000  0.46059000  0.11963000  1.0
  C  C59  1  0.16785000  0.53940000  0.88038000  1.0
  O  O60  1  0.59332000  0.83989000  0.42338000  1.0
  O  O61  1  0.40668000  0.16011000  0.57662000  1.0
  O  O62  1  0.18753000  0.04501000  0.52618000  1.0
  O  O63  1  0.81246000  0.95499000  0.47382000  1.0
  O  O64  1  0.52459000  0.67472000  0.32241000  1.0
  O  O65  1  0.47541000  0.32528000  0.67760000  1.0
  O  O66  1  0.56370000  0.68914000  0.62595000  1.0
  O  O67  1  0.43630000  0.31085000  0.37405000  1.0
  O  O68  1  0.57143000  0.87561000  0.08236000  1.0
  O  O69  1  0.42857000  0.12439000  0.91763000  1.0
  O  O70  1  0.11448000  0.89193000  0.32372000  1.0
  O  O71  1  0.88552000  0.10807000  0.67628000  1.0
  O  O72  1  0.55830000  0.66295000  0.01016000  1.0
  O  O73  1  0.44171000  0.33705000  0.98983000  1.0
  O  O74  1  0.31698000  0.86785000  0.80123000  1.0
  O  O75  1  0.68302000  0.13215000  0.19877000  1.0
  O  O76  1  0.79254000  0.42182000  0.49066000  1.0
  O  O77  1  0.20746000  0.57818000  0.50933000  1.0
  O  O78  1  0.20385000  0.77000000  0.09407000  1.0
  O  O79  1  0.79616000  0.23000000  0.90592000  1.0
  O  O80  1  0.84423000  0.24016000  0.34795000  1.0
  O  O81  1  0.15577000  0.75983000  0.65204000  1.0
  O  O82  1  0.05300000  0.15266000  0.03594000  1.0
  O  O83  1  0.94700000  0.84734000  0.96406000  1.0
  O  O84  1  0.20242000  0.10796000  0.19595000  1.0
  O  O85  1  0.79758000  0.89205000  0.80406000  1.0
