# generated using pymatgen
data_RbSi2H30C12NO3
_symmetry_space_group_name_H-M   'P 1'
_cell_length_a   10.99600000
_cell_length_b   11.59800000
_cell_length_c   16.30950000
_cell_angle_alpha   87.80660000
_cell_angle_beta   89.99970000
_cell_angle_gamma   89.99970000
_symmetry_Int_Tables_number   1
_chemical_formula_structural   RbSi2H30C12NO3
_chemical_formula_sum   'Rb4 Si8 H120 C48 N4 O12'
_cell_volume   2078.45282767
_cell_formula_units_Z   4
loop_
 _symmetry_equiv_pos_site_id
 _symmetry_equiv_pos_as_xyz
  1  'x, y, z'
loop_
 _atom_site_type_symbol
 _atom_site_label
 _atom_site_symmetry_multiplicity
 _atom_site_fract_x
 _atom_site_fract_y
 _atom_site_fract_z
 _atom_site_occupancy
  Rb  Rb0  1  0.48064000  0.85928000  0.43387000  1.0
  Rb  Rb1  1  0.98064000  0.64072000  0.06613000  1.0
  Rb  Rb2  1  0.51936000  0.14072000  0.56613000  1.0
  Rb  Rb3  1  0.01936000  0.35928000  0.93387000  1.0
  Si  Si4  1  0.57238000  0.15756000  0.33474000  1.0
  Si  Si5  1  0.07237000  0.34244000  0.16526000  1.0
  Si  Si6  1  0.42763000  0.84244000  0.66526000  1.0
  Si  Si7  1  0.92763000  0.65756000  0.83474000  1.0
  Si  Si8  1  0.77582000  0.03104000  0.42688000  1.0
  Si  Si9  1  0.27581000  0.46896000  0.07312000  1.0
  Si  Si10  1  0.22419000  0.96896000  0.57312000  1.0
  Si  Si11  1  0.72419000  0.53104000  0.92688000  1.0
  H  H12  1  0.66406000  0.09124000  0.20316000  1.0
  H  H13  1  0.16403000  0.40877000  0.29684000  1.0
  H  H14  1  0.33596000  0.90876000  0.79684000  1.0
  H  H15  1  0.83596000  0.59123000  0.70316000  1.0
  H  H16  1  0.51952000  0.02588000  0.22084000  1.0
  H  H17  1  0.01950000  0.47414000  0.27915000  1.0
  H  H18  1  0.48049000  0.97413000  0.77916000  1.0
  H  H19  1  0.98049000  0.52587000  0.72085000  1.0
  H  H20  1  0.52913000  0.17164000  0.18311000  1.0
  H  H21  1  0.02911000  0.32838000  0.31689000  1.0
  H  H22  1  0.47088000  0.82837000  0.81690000  1.0
  H  H23  1  0.97088000  0.67163000  0.68312000  1.0
  H  H24  1  0.59743000  0.36583000  0.29036000  1.0
  H  H25  1  0.09743000  0.13417000  0.20964000  1.0
  H  H26  1  0.40257000  0.63416000  0.70964000  1.0
  H  H27  1  0.90257000  0.86583000  0.79036000  1.0
  H  H28  1  0.74228000  0.29940000  0.30343000  1.0
  H  H29  1  0.24227000  0.20061000  0.19658000  1.0
  H  H30  1  0.25772000  0.70061000  0.69658000  1.0
  H  H31  1  0.75772000  0.79939000  0.80343000  1.0
  H  H32  1  0.65774000  0.33769000  0.39093000  1.0
  H  H33  1  0.15774000  0.16232000  0.10908000  1.0
  H  H34  1  0.34226000  0.66232000  0.60908000  1.0
  H  H35  1  0.84225000  0.83768000  0.89093000  1.0
  H  H36  1  0.36593000  0.24541000  0.30782000  1.0
  H  H37  1  0.86592000  0.25459000  0.19218000  1.0
  H  H38  1  0.63407000  0.75458000  0.69218000  1.0
  H  H39  1  0.13407000  0.74542000  0.80783000  1.0
  H  H40  1  0.39865000  0.24243000  0.41372000  1.0
  H  H41  1  0.89865000  0.25756000  0.08628000  1.0
  H  H42  1  0.60135000  0.75756000  0.58628000  1.0
  H  H43  1  0.10135000  0.74244000  0.91373000  1.0
  H  H44  1  0.35084000  0.11480000  0.36696000  1.0
  H  H45  1  0.85084000  0.38519000  0.13303000  1.0
  H  H46  1  0.64916000  0.88519000  0.63304000  1.0
  H  H47  1  0.14916000  0.61481000  0.86697000  1.0
  H  H48  1  0.89201000  0.84774000  0.46317000  1.0
  H  H49  1  0.39201000  0.65226000  0.03683000  1.0
  H  H50  1  0.10799000  0.15226000  0.53683000  1.0
  H  H51  1  0.60799000  0.34774000  0.96317000  1.0
  H  H52  1  0.75083000  0.84978000  0.51410000  1.0
  H  H53  1  0.25082000  0.65021000  0.98590000  1.0
  H  H54  1  0.24918000  0.15021000  0.48590000  1.0
  H  H55  1  0.74918000  0.34978000  0.01410000  1.0
  H  H56  1  0.75728000  0.81537000  0.40890000  1.0
  H  H57  1  0.25728000  0.68463000  0.09110000  1.0
  H  H58  1  0.24272000  0.18464000  0.59110000  1.0
  H  H59  1  0.74273000  0.31537000  0.90890000  1.0
  H  H60  1  0.98230000  0.03946000  0.35979000  1.0
  H  H61  1  0.48230000  0.46054000  0.14020000  1.0
  H  H62  1  0.01770000  0.96054000  0.64020000  1.0
  H  H63  1  0.51770000  0.53946000  0.85981000  1.0
  H  H64  1  0.89514000  0.16318000  0.33210000  1.0
  H  H65  1  0.39515000  0.33683000  0.16791000  1.0
  H  H66  1  0.10486000  0.83682000  0.66790000  1.0
  H  H67  1  0.60486000  0.66318000  0.83210000  1.0
  H  H68  1  0.86678000  0.03177000  0.28364000  1.0
  H  H69  1  0.36677000  0.46824000  0.21636000  1.0
  H  H70  1  0.13323000  0.96823000  0.71636000  1.0
  H  H71  1  0.63322000  0.53177000  0.78364000  1.0
  H  H72  1  0.93293000  0.08421000  0.53087000  1.0
  H  H73  1  0.43292000  0.41580000  0.96913000  1.0
  H  H74  1  0.06708000  0.91580000  0.46913000  1.0
  H  H75  1  0.56707000  0.58420000  0.03087000  1.0
  H  H76  1  0.78725000  0.08011000  0.57638000  1.0
  H  H77  1  0.28725000  0.41988000  0.92362000  1.0
  H  H78  1  0.21275000  0.91988000  0.42362000  1.0
  H  H79  1  0.71275000  0.58012000  0.07638000  1.0
  H  H80  1  0.83019000  0.20061000  0.51238000  1.0
  H  H81  1  0.33018000  0.29939000  0.98763000  1.0
  H  H82  1  0.16982000  0.79939000  0.48762000  1.0
  H  H83  1  0.66981000  0.70061000  0.01238000  1.0
  H  H84  1  0.58320000  0.63318000  0.19686000  1.0
  H  H85  1  0.08318000  0.86683000  0.30313000  1.0
  H  H86  1  0.41681000  0.36682000  0.80313000  1.0
  H  H87  1  0.91682000  0.13317000  0.69687000  1.0
  H  H88  1  0.56595000  0.57051000  0.29843000  1.0
  H  H89  1  0.06594000  0.92949000  0.20156000  1.0
  H  H90  1  0.43406000  0.42949000  0.70156000  1.0
  H  H91  1  0.93407000  0.07052000  0.79845000  1.0
  H  H92  1  0.79073000  0.56873000  0.31686000  1.0
  H  H93  1  0.29072000  0.93125000  0.18313000  1.0
  H  H94  1  0.20927000  0.43127000  0.68314000  1.0
  H  H95  1  0.70928000  0.06874000  0.81687000  1.0
  H  H96  1  0.75361000  0.49721000  0.22502000  1.0
  H  H97  1  0.25360000  0.00279000  0.27497000  1.0
  H  H98  1  0.24640000  0.50280000  0.77498000  1.0
  H  H99  1  0.74641000  0.99720000  0.72503000  1.0
  H  H100  1  0.88066000  0.82691000  0.19833000  1.0
  H  H101  1  0.38066000  0.67309000  0.30167000  1.0
  H  H102  1  0.11934000  0.17309000  0.80167000  1.0
  H  H103  1  0.61934000  0.32691000  0.69832000  1.0
  H  H104  1  0.86792000  0.76814000  0.30082000  1.0
  H  H105  1  0.36791000  0.73185000  0.19918000  1.0
  H  H106  1  0.13208000  0.23186000  0.69918000  1.0
  H  H107  1  0.63209000  0.26814000  0.80081000  1.0
  H  H108  1  0.69372000  0.90033000  0.27440000  1.0
  H  H109  1  0.19371000  0.59966000  0.22560000  1.0
  H  H110  1  0.30627000  0.09966000  0.72559000  1.0
  H  H111  1  0.80628000  0.40034000  0.77439000  1.0
  H  H112  1  0.65603000  0.82755000  0.18275000  1.0
  H  H113  1  0.15602000  0.67244000  0.31725000  1.0
  H  H114  1  0.34398000  0.17245000  0.81724000  1.0
  H  H115  1  0.84399000  0.32755000  0.68275000  1.0
  H  H116  1  0.42600000  0.46161000  0.39417000  1.0
  H  H117  1  0.92600000  0.03839000  0.10584000  1.0
  H  H118  1  0.57397000  0.53840000  0.60583000  1.0
  H  H119  1  0.07398000  0.96159000  0.89417000  1.0
  H  H120  1  0.31149000  0.55461000  0.43415000  1.0
  H  H121  1  0.81150000  0.94538000  0.06586000  1.0
  H  H122  1  0.68849000  0.44540000  0.56585000  1.0
  H  H123  1  0.18849000  0.05459000  0.93414000  1.0
  H  H124  1  0.66564000  0.63510000  0.48226000  1.0
  H  H125  1  0.16564000  0.86489000  0.01773000  1.0
  H  H126  1  0.33435000  0.36490000  0.51773000  1.0
  H  H127  1  0.83435000  0.13508000  0.98227000  1.0
  H  H128  1  0.63828000  0.50978000  0.42424000  1.0
  H  H129  1  0.13829000  0.99023000  0.07575000  1.0
  H  H130  1  0.36170000  0.49022000  0.57575000  1.0
  H  H131  1  0.86169000  0.00977000  0.92425000  1.0
  C  C132  1  0.57109000  0.10674000  0.22526000  1.0
  C  C133  1  0.07107000  0.39328000  0.27474000  1.0
  C  C134  1  0.42893000  0.89327000  0.77474000  1.0
  C  C135  1  0.92892000  0.60672000  0.72526000  1.0
  C  C136  1  0.65006000  0.30402000  0.32903000  1.0
  C  C137  1  0.15006000  0.19599000  0.17097000  1.0
  C  C138  1  0.34994000  0.69598000  0.67097000  1.0
  C  C139  1  0.84994000  0.80401000  0.82903000  1.0
  C  C140  1  0.40720000  0.19265000  0.35792000  1.0
  C  C141  1  0.90719000  0.30735000  0.14207000  1.0
  C  C142  1  0.59281000  0.80735000  0.64207000  1.0
  C  C143  1  0.09281000  0.69265000  0.85793000  1.0
  C  C144  1  0.79573000  0.87129000  0.45523000  1.0
  C  C145  1  0.29573000  0.62871000  0.04477000  1.0
  C  C146  1  0.20427000  0.12870000  0.54477000  1.0
  C  C147  1  0.70427000  0.37130000  0.95522000  1.0
  C  C148  1  0.89039000  0.06906000  0.34257000  1.0
  C  C149  1  0.39039000  0.43094000  0.15743000  1.0
  C  C150  1  0.10961000  0.93094000  0.65743000  1.0
  C  C151  1  0.60961000  0.56906000  0.84257000  1.0
  C  C152  1  0.83681000  0.10607000  0.52008000  1.0
  C  C153  1  0.33680000  0.39393000  0.97992000  1.0
  C  C154  1  0.16320000  0.89393000  0.47992000  1.0
  C  C155  1  0.66320000  0.60607000  0.02008000  1.0
  C  C156  1  0.62307000  0.62703000  0.25907000  1.0
  C  C157  1  0.12306000  0.87297000  0.24092000  1.0
  C  C158  1  0.37694000  0.37298000  0.74092000  1.0
  C  C159  1  0.87695000  0.12703000  0.75908000  1.0
  C  C160  1  0.75176000  0.58059000  0.25459000  1.0
  C  C161  1  0.25175000  0.91941000  0.24541000  1.0
  C  C162  1  0.24824000  0.41941000  0.74541000  1.0
  C  C163  1  0.74825000  0.08060000  0.75460000  1.0
  C  C164  1  0.82518000  0.77144000  0.23948000  1.0
  C  C165  1  0.32518000  0.72856000  0.26052000  1.0
  C  C166  1  0.17482000  0.22856000  0.76052000  1.0
  C  C167  1  0.67483000  0.27143000  0.73948000  1.0
  C  C168  1  0.69614000  0.81686000  0.24482000  1.0
  C  C169  1  0.19613000  0.68314000  0.25518000  1.0
  C  C170  1  0.30386000  0.18314000  0.75517000  1.0
  C  C171  1  0.80387000  0.31686000  0.74482000  1.0
  C  C172  1  0.40034000  0.51409000  0.44663000  1.0
  C  C173  1  0.90035000  0.98590000  0.05337000  1.0
  C  C174  1  0.59964000  0.48592000  0.55336000  1.0
  C  C175  1  0.09963000  0.01408000  0.94663000  1.0
  C  C176  1  0.60476000  0.56094000  0.47520000  1.0
  C  C177  1  0.10476000  0.93907000  0.02480000  1.0
  C  C178  1  0.39523000  0.43907000  0.52480000  1.0
  C  C179  1  0.89522000  0.06092000  0.97521000  1.0
  N  N180  1  0.62903000  0.06270000  0.40584000  1.0
  N  N181  1  0.12902000  0.43730000  0.09417000  1.0
  N  N182  1  0.37098000  0.93730000  0.59417000  1.0
  N  N183  1  0.87098000  0.56270000  0.90584000  1.0
  O  O184  1  0.62205000  0.73890000  0.29390000  1.0
  O  O185  1  0.12205000  0.76110000  0.20610000  1.0
  O  O186  1  0.37795000  0.26110000  0.70609000  1.0
  O  O187  1  0.87795000  0.23891000  0.79391000  1.0
  O  O188  1  0.82712000  0.65829000  0.20646000  1.0
  O  O189  1  0.32711000  0.84171000  0.29354000  1.0
  O  O190  1  0.17289000  0.34171000  0.79354000  1.0
  O  O191  1  0.67290000  0.15828000  0.70645000  1.0
  O  O192  1  0.48635000  0.60650000  0.45477000  1.0
  O  O193  1  0.98636000  0.89350000  0.04524000  1.0
  O  O194  1  0.51363000  0.39351000  0.54523000  1.0
  O  O195  1  0.01363000  0.10649000  0.95477000  1.0
