# generated using pymatgen
data_FeH5C6N4O
_symmetry_space_group_name_H-M   'P 1'
_cell_length_a   6.53215000
_cell_length_b   9.66274000
_cell_length_c   9.66524373
_cell_angle_alpha   101.70148719
_cell_angle_beta   105.66773287
_cell_angle_gamma   105.60630000
_symmetry_Int_Tables_number   1
_chemical_formula_structural   FeH5C6N4O
_chemical_formula_sum   'Fe2 H10 C12 N8 O2'
_cell_volume   540.19738339
_cell_formula_units_Z   2
loop_
 _symmetry_equiv_pos_site_id
 _symmetry_equiv_pos_as_xyz
  1  'x, y, z'
loop_
 _atom_site_type_symbol
 _atom_site_label
 _atom_site_symmetry_multiplicity
 _atom_site_fract_x
 _atom_site_fract_y
 _atom_site_fract_z
 _atom_site_occupancy
  Fe  Fe0  1  0.00001000  0.99999000  1.00000000  1.0
  Fe  Fe1  1  0.50000000  0.99999000  0.99999000  1.0
  H  H2  1  0.24879000  0.33452000  0.00048000  1.0
  H  H3  1  0.75113000  0.99952000  0.66533000  1.0
  H  H4  1  0.39950000  0.62946000  0.00163000  1.0
  H  H5  1  0.60066000  0.99874000  0.37044000  1.0
  H  H6  1  0.75121000  0.66547000  0.99952000  1.0
  H  H7  1  0.24887000  0.00048000  0.33467000  1.0
  H  H8  1  0.60053000  0.37054000  0.99839000  1.0
  H  H9  1  0.39933000  0.00127000  0.62955000  1.0
  H  H10  1  0.36282000  0.18719000  0.18616000  1.0
  H  H11  1  0.63719000  0.81281000  0.81384000  1.0
  C  C12  1  0.07983000  0.32107000  0.00319000  1.0
  C  C13  1  0.92022000  0.99693000  0.67888000  1.0
  C  C14  1  0.25171000  0.66152000  0.99864000  1.0
  C  C15  1  0.74825000  0.00141000  0.33838000  1.0
  C  C16  1  0.92018000  0.67894000  0.99681000  1.0
  C  C17  1  0.07978000  0.00307000  0.32113000  1.0
  C  C18  1  0.74831000  0.33848000  0.00138000  1.0
  C  C19  1  0.25174000  0.99860000  0.66162000  1.0
  C  C20  1  0.96110000  0.42296000  0.00127000  1.0
  C  C21  1  0.03900000  0.99881000  0.57709000  1.0
  C  C22  1  0.03890000  0.57703000  0.99874000  1.0
  C  C23  1  0.96099000  0.00121000  0.42291000  1.0
  N  N24  1  0.94658000  0.18881000  0.00546000  1.0
  N  N25  1  0.05349000  0.99454000  0.81118000  1.0
  N  N26  1  0.25728000  0.80111000  0.99610000  1.0
  N  N27  1  0.74270000  0.00397000  0.19881000  1.0
  N  N28  1  0.05343000  0.81119000  0.99454000  1.0
  N  N29  1  0.94649000  0.00545000  0.18881000  1.0
  N  N30  1  0.74272000  0.19889000  0.00389000  1.0
  N  N31  1  0.25729000  0.99602000  0.80118000  1.0
  O  O32  1  0.31654000  0.09956000  0.09983000  1.0
  O  O33  1  0.68348000  0.90043000  0.90018000  1.0
