# generated using pymatgen
data_ZnH14C14S(NO)4
_symmetry_space_group_name_H-M   'P 1'
_cell_length_a   8.58982000
_cell_length_b   10.37790000
_cell_length_c   10.37800000
_cell_angle_alpha   105.61600000
_cell_angle_beta   89.99990000
_cell_angle_gamma   90.00000000
_symmetry_Int_Tables_number   1
_chemical_formula_structural   ZnH14C14S(NO)4
_chemical_formula_sum   'Zn2 H28 C28 S2 N8 O8'
_cell_volume   890.99019945
_cell_formula_units_Z   2
loop_
 _symmetry_equiv_pos_site_id
 _symmetry_equiv_pos_as_xyz
  1  'x, y, z'
loop_
 _atom_site_type_symbol
 _atom_site_label
 _atom_site_symmetry_multiplicity
 _atom_site_fract_x
 _atom_site_fract_y
 _atom_site_fract_z
 _atom_site_occupancy
  Zn  Zn0  1  0.36058000  0.95523000  0.04477000  1.0
  Zn  Zn1  1  0.86058000  0.04477000  0.95523000  1.0
  H  H2  1  0.22657000  0.10098000  0.33732000  1.0
  H  H3  1  0.72657000  0.89902000  0.66268000  1.0
  H  H4  1  0.72657000  0.33731000  0.10098000  1.0
  H  H5  1  0.22657000  0.66268000  0.89902000  1.0
  H  H6  1  0.43370000  0.18057000  0.55365000  1.0
  H  H7  1  0.93371000  0.81943000  0.44635000  1.0
  H  H8  1  0.93370000  0.55365000  0.18057000  1.0
  H  H9  1  0.43371000  0.44635000  0.81943000  1.0
  H  H10  1  0.68857000  0.01470000  0.19903000  1.0
  H  H11  1  0.18857000  0.98530000  0.80097000  1.0
  H  H12  1  0.18857000  0.19903000  0.01470000  1.0
  H  H13  1  0.68856000  0.80097000  0.98530000  1.0
  H  H14  1  0.73670000  0.07793000  0.55158000  1.0
  H  H15  1  0.23670000  0.92207000  0.44842000  1.0
  H  H16  1  0.23670000  0.55158000  0.07793000  1.0
  H  H17  1  0.73670000  0.44842000  0.92207000  1.0
  H  H18  1  0.83918000  0.07813000  0.40233000  1.0
  H  H19  1  0.33918000  0.92187000  0.59767000  1.0
  H  H20  1  0.33918000  0.40233000  0.07812000  1.0
  H  H21  1  0.83919000  0.59767000  0.92187000  1.0
  H  H22  1  0.87656000  0.30731000  0.34938000  1.0
  H  H23  1  0.37656000  0.69269000  0.65062000  1.0
  H  H24  1  0.37656000  0.34938000  0.30731000  1.0
  H  H25  1  0.87656000  0.65062000  0.69269000  1.0
  H  H26  1  0.93551000  0.54728000  0.45272000  1.0
  H  H27  1  0.43551000  0.45272000  0.54728000  1.0
  H  H28  1  0.69922000  0.27287000  0.72713000  1.0
  H  H29  1  0.19922000  0.72713000  0.27287000  1.0
  C  C30  1  0.35275000  0.09894000  0.34081000  1.0
  C  C31  1  0.85275000  0.90106000  0.65919000  1.0
  C  C32  1  0.85275000  0.34081000  0.09894000  1.0
  C  C33  1  0.35275000  0.65919000  0.90106000  1.0
  C  C34  1  0.45285000  0.13897000  0.44737000  1.0
  C  C35  1  0.95285000  0.86103000  0.55263000  1.0
  C  C36  1  0.95285000  0.44737000  0.13897000  1.0
  C  C37  1  0.45285000  0.55263000  0.86103000  1.0
  C  C38  1  0.58904000  0.05101000  0.26336000  1.0
  C  C39  1  0.08904000  0.94899000  0.73664000  1.0
  C  C40  1  0.08904000  0.26336000  0.05101000  1.0
  C  C41  1  0.58904000  0.73664000  0.94899000  1.0
  C  C42  1  0.74762000  0.12840000  0.47187000  1.0
  C  C43  1  0.24763000  0.87160000  0.52813000  1.0
  C  C44  1  0.24762000  0.47187000  0.12840000  1.0
  C  C45  1  0.74763000  0.52813000  0.87160000  1.0
  C  C46  1  0.78394000  0.27444000  0.53174000  1.0
  C  C47  1  0.28394000  0.72556000  0.46826000  1.0
  C  C48  1  0.28394000  0.53174000  0.27444000  1.0
  C  C49  1  0.78394000  0.46826000  0.72556000  1.0
  C  C50  1  0.85006000  0.35230000  0.45479000  1.0
  C  C51  1  0.35006000  0.64770000  0.54521000  1.0
  C  C52  1  0.35006000  0.45479000  0.35229000  1.0
  C  C53  1  0.85006000  0.54521000  0.64770000  1.0
  C  C54  1  0.88266000  0.48731000  0.51269000  1.0
  C  C55  1  0.38266000  0.51269000  0.48731000  1.0
  C  C56  1  0.75123000  0.33314000  0.66686000  1.0
  C  C57  1  0.25123000  0.66686000  0.33314000  1.0
  S  S58  1  0.01529000  0.88038000  0.11962000  1.0
  S  S59  1  0.51529000  0.11962000  0.88038000  1.0
  N  N60  1  0.43939000  0.04391000  0.22660000  1.0
  N  N61  1  0.93939000  0.95609000  0.77340000  1.0
  N  N62  1  0.93939000  0.22660000  0.04391000  1.0
  N  N63  1  0.43939000  0.77340000  0.95609000  1.0
  N  N64  1  0.60089000  0.10754000  0.39624000  1.0
  N  N65  1  0.10089000  0.89246000  0.60376000  1.0
  N  N66  1  0.10089000  0.39624000  0.10754000  1.0
  N  N67  1  0.60089000  0.60376000  0.89246000  1.0
  O  O68  1  0.13037000  0.95050000  0.04950000  1.0
  O  O69  1  0.63037000  0.04950000  0.95050000  1.0
  O  O70  1  0.85796000  0.92370000  0.07630000  1.0
  O  O71  1  0.35796000  0.07630000  0.92370000  1.0
  O  O72  1  0.03033000  0.92992000  0.26543000  1.0
  O  O73  1  0.53034000  0.07008000  0.73457000  1.0
  O  O74  1  0.53033000  0.26543000  0.92992000  1.0
  O  O75  1  0.03033000  0.73457000  0.07008000  1.0
