# generated using pymatgen
data_AgH8C4S2NO3
_symmetry_space_group_name_H-M   'P 1'
_cell_length_a   7.08559000
_cell_length_b   7.81832000
_cell_length_c   15.71230000
_cell_angle_alpha   89.99720000
_cell_angle_beta   93.09500000
_cell_angle_gamma   89.99910000
_symmetry_Int_Tables_number   1
_chemical_formula_structural   AgH8C4S2NO3
_chemical_formula_sum   'Ag4 H32 C16 S8 N4 O12'
_cell_volume   869.15111606
_cell_formula_units_Z   4
loop_
 _symmetry_equiv_pos_site_id
 _symmetry_equiv_pos_as_xyz
  1  'x, y, z'
loop_
 _atom_site_type_symbol
 _atom_site_label
 _atom_site_symmetry_multiplicity
 _atom_site_fract_x
 _atom_site_fract_y
 _atom_site_fract_z
 _atom_site_occupancy
  Ag  Ag0  1  0.20070000  0.95356000  0.99947000  1.0
  Ag  Ag1  1  0.70068000  0.54644000  0.49948000  1.0
  Ag  Ag2  1  0.79933000  0.04645000  0.00053000  1.0
  Ag  Ag3  1  0.29931000  0.45354000  0.50053000  1.0
  H  H4  1  0.90590000  0.87638000  0.80333000  1.0
  H  H5  1  0.40590000  0.62360000  0.30332000  1.0
  H  H6  1  0.09410000  0.12361000  0.19668000  1.0
  H  H7  1  0.59412000  0.37641000  0.69668000  1.0
  H  H8  1  0.96275000  0.05053000  0.73323000  1.0
  H  H9  1  0.46277000  0.44945000  0.23322000  1.0
  H  H10  1  0.03724000  0.94945000  0.26678000  1.0
  H  H11  1  0.53724000  0.55056000  0.76678000  1.0
  H  H12  1  0.90414000  0.38146000  0.77998000  1.0
  H  H13  1  0.40417000  0.11854000  0.27998000  1.0
  H  H14  1  0.09585000  0.61853000  0.22002000  1.0
  H  H15  1  0.59584000  0.88150000  0.72001000  1.0
  H  H16  1  0.81068000  0.43561000  0.87883000  1.0
  H  H17  1  0.31070000  0.06435000  0.37882000  1.0
  H  H18  1  0.18932000  0.56439000  0.12117000  1.0
  H  H19  1  0.68929000  0.93565000  0.62116000  1.0
  H  H20  1  0.10221000  0.31087000  0.95633000  1.0
  H  H21  1  0.60221000  0.18912000  0.45635000  1.0
  H  H22  1  0.89780000  0.68915000  0.04365000  1.0
  H  H23  1  0.39779000  0.81086000  0.54365000  1.0
  H  H24  1  0.15521000  0.48222000  0.88810000  1.0
  H  H25  1  0.65522000  0.01777000  0.38812000  1.0
  H  H26  1  0.84479000  0.51778000  0.11189000  1.0
  H  H27  1  0.34476000  0.98222000  0.61187000  1.0
  H  H28  1  0.38599000  0.25332000  0.87230000  1.0
  H  H29  1  0.88600000  0.24668000  0.37231000  1.0
  H  H30  1  0.61401000  0.74668000  0.12770000  1.0
  H  H31  1  0.11401000  0.75329000  0.62768000  1.0
  H  H32  1  0.24455000  0.27349000  0.77516000  1.0
  H  H33  1  0.74458000  0.22651000  0.27517000  1.0
  H  H34  1  0.75544000  0.72649000  0.22483000  1.0
  H  H35  1  0.25542000  0.77349000  0.72482000  1.0
  C  C36  1  0.95727000  0.00832000  0.79993000  1.0
  C  C37  1  0.45727000  0.49167000  0.29993000  1.0
  C  C38  1  0.04273000  0.99167000  0.20009000  1.0
  C  C39  1  0.54274000  0.50834000  0.70008000  1.0
  C  C40  1  0.90427000  0.34598000  0.84776000  1.0
  C  C41  1  0.40430000  0.15400000  0.34776000  1.0
  C  C42  1  0.09573000  0.65401000  0.15224000  1.0
  C  C43  1  0.59572000  0.84601000  0.65223000  1.0
  C  C44  1  0.10333000  0.34966000  0.88890000  1.0
  C  C45  1  0.60335000  0.15034000  0.38891000  1.0
  C  C46  1  0.89667000  0.65035000  0.11109000  1.0
  C  C47  1  0.39666000  0.84965000  0.61108000  1.0
  C  C48  1  0.24288000  0.23960000  0.84303000  1.0
  C  C49  1  0.74291000  0.26038000  0.34304000  1.0
  C  C50  1  0.75711000  0.76037000  0.15697000  1.0
  C  C51  1  0.25709000  0.73962000  0.65695000  1.0
  S  S52  1  0.19542000  0.01142000  0.84681000  1.0
  S  S53  1  0.69541000  0.48857000  0.34681000  1.0
  S  S54  1  0.80459000  0.98858000  0.15320000  1.0
  S  S55  1  0.30460000  0.51143000  0.65319000  1.0
  S  S56  1  0.78816000  0.13881000  0.85184000  1.0
  S  S57  1  0.28817000  0.36116000  0.35183000  1.0
  S  S58  1  0.21184000  0.86118000  0.14817000  1.0
  S  S59  1  0.71184000  0.63885000  0.64816000  1.0
  N  N60  1  0.44048000  0.27861000  0.08327000  1.0
  N  N61  1  0.94046000  0.22140000  0.58328000  1.0
  N  N62  1  0.55949000  0.72140000  0.91674000  1.0
  N  N63  1  0.05950000  0.77863000  0.41672000  1.0
  O  O64  1  0.46731000  0.18408000  0.01843000  1.0
  O  O65  1  0.96729000  0.31593000  0.51842000  1.0
  O  O66  1  0.53270000  0.81592000  0.98159000  1.0
  O  O67  1  0.03270000  0.68402000  0.48159000  1.0
  O  O68  1  0.28012000  0.27732000  0.11551000  1.0
  O  O69  1  0.78011000  0.22271000  0.61552000  1.0
  O  O70  1  0.71990000  0.72272000  0.88449000  1.0
  O  O71  1  0.21986000  0.77728000  0.38447000  1.0
  O  O72  1  0.57310000  0.37040000  0.11429000  1.0
  O  O73  1  0.07308000  0.12960000  0.61430000  1.0
  O  O74  1  0.42693000  0.62961000  0.88572000  1.0
  O  O75  1  0.92692000  0.87042000  0.38574000  1.0
