# generated using pymatgen
data_AlH22(C5O)5
_symmetry_space_group_name_H-M   'P 1'
_cell_length_a   6.66799000
_cell_length_b   22.60380000
_cell_length_c   27.01750000
_cell_angle_alpha   78.12730000
_cell_angle_beta   89.94280000
_cell_angle_gamma   89.98760000
_symmetry_Int_Tables_number   1
_chemical_formula_structural   AlH22(C5O)5
_chemical_formula_sum   'Al4 H88 C100 O20'
_cell_volume   3985.01272930
_cell_formula_units_Z   4
loop_
 _symmetry_equiv_pos_site_id
 _symmetry_equiv_pos_as_xyz
  1  'x, y, z'
loop_
 _atom_site_type_symbol
 _atom_site_label
 _atom_site_symmetry_multiplicity
 _atom_site_fract_x
 _atom_site_fract_y
 _atom_site_fract_z
 _atom_site_occupancy
  Al  Al0  1  0.75845000  0.74863000  0.74913000  1.0
  Al  Al1  1  0.24531000  0.25001000  0.25093000  1.0
  Al  Al2  1  0.25846000  0.75138000  0.75100000  1.0
  Al  Al3  1  0.74531000  0.25009000  0.24914000  1.0
  H  H4  1  0.78988000  0.60715000  0.97862000  1.0
  H  H5  1  0.16051000  0.38419000  0.01792000  1.0
  H  H6  1  0.28892000  0.89296000  0.52146000  1.0
  H  H7  1  0.66277000  0.11543000  0.48182000  1.0
  H  H8  1  0.69055000  0.89319000  0.94084000  1.0
  H  H9  1  0.29972000  0.06023000  0.09423000  1.0
  H  H10  1  0.19149000  0.60691000  0.55941000  1.0
  H  H11  1  0.79933000  0.43980000  0.40566000  1.0
  H  H12  1  0.29434000  0.94894000  0.89809000  1.0
  H  H13  1  0.68325000  0.11103000  0.05968000  1.0
  H  H14  1  0.79521000  0.55111000  0.60188000  1.0
  H  H15  1  0.18268000  0.38926000  0.44053000  1.0
  H  H16  1  0.29084000  0.88160000  0.83575000  1.0
  H  H17  1  0.69890000  0.17635000  0.12191000  1.0
  H  H18  1  0.79181000  0.61848000  0.66419000  1.0
  H  H19  1  0.19780000  0.32396000  0.37827000  1.0
  H  H20  1  0.27208000  0.93152000  0.99500000  1.0
  H  H21  1  0.70605000  0.07252000  0.99962000  1.0
  H  H22  1  0.77257000  0.56851000  0.50488000  1.0
  H  H23  1  0.20612000  0.42760000  0.50071000  1.0
  H  H24  1  0.27026000  0.99431000  0.05856000  1.0
  H  H25  1  0.70412000  0.00671000  0.93814000  1.0
  H  H26  1  0.77015000  0.50574000  0.44130000  1.0
  H  H27  1  0.20479000  0.49338000  0.56222000  1.0
  H  H28  1  0.64453000  0.63856000  0.04359000  1.0
  H  H29  1  0.67380000  0.60124000  0.10773000  1.0
  H  H30  1  0.85208000  0.65555000  0.07885000  1.0
  H  H31  1  0.30688000  0.35087000  0.95609000  1.0
  H  H32  1  0.11349000  0.34094000  0.91388000  1.0
  H  H33  1  0.31221000  0.39176000  0.89259000  1.0
  H  H34  1  0.14244000  0.86180000  0.45657000  1.0
  H  H35  1  0.17158000  0.89917000  0.39243000  1.0
  H  H36  1  0.34930000  0.84460000  0.42108000  1.0
  H  H37  1  0.81127000  0.14844000  0.54348000  1.0
  H  H38  1  0.61866000  0.15874000  0.58588000  1.0
  H  H39  1  0.81651000  0.10757000  0.60700000  1.0
  H  H40  1  0.86895000  0.67096000  0.91383000  1.0
  H  H41  1  0.08507000  0.64343000  0.94922000  1.0
  H  H42  1  0.10818000  0.68126000  0.88523000  1.0
  H  H43  1  0.87024000  0.35203000  0.05299000  1.0
  H  H44  1  0.08842000  0.32208000  0.08649000  1.0
  H  H45  1  0.85518000  0.31730000  0.11797000  1.0
  H  H46  1  0.36675000  0.82914000  0.58631000  1.0
  H  H47  1  0.58326000  0.85618000  0.55078000  1.0
  H  H48  1  0.60594000  0.81838000  0.61476000  1.0
  H  H49  1  0.37143000  0.14784000  0.44728000  1.0
  H  H50  1  0.58908000  0.17785000  0.41345000  1.0
  H  H51  1  0.35528000  0.18266000  0.38234000  1.0
  H  H52  1  0.04565000  0.59178000  0.74492000  1.0
  H  H53  1  0.09824000  0.51392000  0.75150000  1.0
  H  H54  1  0.84636000  0.53903000  0.75190000  1.0
  H  H55  1  0.11591000  0.41370000  0.24859000  1.0
  H  H56  1  0.24049000  0.48303000  0.22806000  1.0
  H  H57  1  0.98721000  0.48285000  0.24732000  1.0
  H  H58  1  0.54786000  0.90815000  0.75502000  1.0
  H  H59  1  0.60156000  0.98594000  0.74834000  1.0
  H  H60  1  0.34931000  0.96114000  0.74821000  1.0
  H  H61  1  0.61575000  0.08630000  0.25134000  1.0
  H  H62  1  0.73933000  0.01679000  0.27174000  1.0
  H  H63  1  0.48601000  0.01734000  0.25258000  1.0
  H  H64  1  0.15051000  0.56863000  0.18679000  1.0
  H  H65  1  0.06781000  0.61231000  0.12859000  1.0
  H  H66  1  0.89443000  0.58738000  0.17844000  1.0
  H  H67  1  0.89761000  0.43779000  0.79813000  1.0
  H  H68  1  0.14309000  0.41338000  0.81639000  1.0
  H  H69  1  0.93769000  0.38958000  0.85745000  1.0
  H  H70  1  0.64853000  0.93127000  0.31301000  1.0
  H  H71  1  0.56563000  0.88767000  0.37127000  1.0
  H  H72  1  0.39230000  0.91277000  0.32153000  1.0
  H  H73  1  0.40213000  0.06234000  0.70184000  1.0
  H  H74  1  0.64788000  0.08634000  0.68334000  1.0
  H  H75  1  0.44245000  0.11045000  0.64246000  1.0
  H  H76  1  0.67328000  0.76589000  0.88887000  1.0
  H  H77  1  0.52641000  0.82139000  0.91065000  1.0
  H  H78  1  0.55988000  0.82312000  0.84476000  1.0
  H  H79  1  0.33186000  0.10746000  0.20702000  1.0
  H  H80  1  0.47095000  0.08760000  0.15641000  1.0
  H  H81  1  0.43345000  0.16471000  0.16095000  1.0
  H  H82  1  0.17430000  0.73424000  0.61132000  1.0
  H  H83  1  0.02757000  0.67874000  0.58957000  1.0
  H  H84  1  0.06064000  0.67703000  0.65545000  1.0
  H  H85  1  0.83076000  0.39252000  0.29282000  1.0
  H  H86  1  0.97005000  0.41252000  0.34327000  1.0
  H  H87  1  0.93280000  0.33536000  0.33886000  1.0
  H  H88  1  0.50892000  0.70508000  0.80979000  1.0
  H  H89  1  0.49094000  0.29696000  0.19102000  1.0
  H  H90  1  0.00929000  0.79489000  0.69031000  1.0
  H  H91  1  0.99061000  0.20315000  0.30905000  1.0
  C  C92  1  0.50398000  0.68916000  0.68540000  1.0
  C  C93  1  0.49458000  0.30725000  0.31722000  1.0
  C  C94  1  0.00306000  0.81089000  0.81471000  1.0
  C  C95  1  0.99551000  0.19287000  0.18284000  1.0
  C  C96  1  0.50962000  0.84758000  0.69279000  1.0
  C  C97  1  0.49945000  0.15127000  0.30661000  1.0
  C  C98  1  0.00952000  0.65238000  0.80726000  1.0
  C  C99  1  0.99938000  0.34880000  0.19342000  1.0
  C  C100  1  0.00253000  0.40754000  0.15559000  1.0
  C  C101  1  0.00924000  0.59196000  0.84254000  1.0
  C  C102  1  0.50236000  0.09248000  0.34439000  1.0
  C  C103  1  0.50983000  0.90794000  0.65743000  1.0
  C  C104  1  0.99822000  0.51672000  0.14002000  1.0
  C  C105  1  0.02016000  0.48318000  0.85362000  1.0
  C  C106  1  0.49709000  0.98331000  0.35990000  1.0
  C  C107  1  0.52301000  0.01669000  0.64628000  1.0
  C  C108  1  0.03246000  0.46166000  0.17326000  1.0
  C  C109  1  0.00861000  0.53983000  0.82136000  1.0
  C  C110  1  0.53177000  0.03837000  0.32667000  1.0
  C  C111  1  0.51067000  0.96009000  0.67859000  1.0
  C  C112  1  0.98089000  0.40679000  0.10437000  1.0
  C  C113  1  0.00084000  0.58984000  0.89434000  1.0
  C  C114  1  0.48100000  0.09319000  0.39564000  1.0
  C  C115  1  0.50074000  0.91002000  0.60565000  1.0
  C  C116  1  0.97974000  0.46332000  0.06900000  1.0
  C  C117  1  0.99589000  0.53189000  0.92772000  1.0
  C  C118  1  0.47974000  0.03663000  0.43098000  1.0
  C  C119  1  0.49668000  0.96797000  0.57222000  1.0
  C  C120  1  0.95172000  0.51738000  0.08837000  1.0
  C  C121  1  0.03476000  0.47914000  0.90707000  1.0
  C  C122  1  0.45092000  0.98263000  0.41159000  1.0
  C  C123  1  0.53700000  0.02065000  0.59282000  1.0
  C  C124  1  0.00417000  0.46903000  0.01482000  1.0
  C  C125  1  0.96008000  0.52453000  0.98156000  1.0
  C  C126  1  0.50485000  0.03083000  0.48513000  1.0
  C  C127  1  0.46032000  0.97537000  0.51842000  1.0
  C  C128  1  0.86855000  0.57032000  0.00314000  1.0
  C  C129  1  0.09108000  0.42273000  0.99314000  1.0
  C  C130  1  0.36791000  0.92971000  0.49689000  1.0
  C  C131  1  0.59304000  0.07699000  0.50669000  1.0
  C  C132  1  0.86760000  0.56907000  0.05415000  1.0
  C  C133  1  0.10240000  0.42542000  0.94189000  1.0
  C  C134  1  0.36648000  0.93102000  0.44587000  1.0
  C  C135  1  0.60526000  0.07426000  0.55793000  1.0
  C  C136  1  0.81748000  0.85257000  0.88278000  1.0
  C  C137  1  0.17434000  0.12078000  0.13640000  1.0
  C  C138  1  0.31849000  0.64755000  0.61739000  1.0
  C  C139  1  0.67363000  0.37928000  0.36356000  1.0
  C  C140  1  0.82188000  0.89143000  0.91698000  1.0
  C  C141  1  0.16443000  0.08504000  0.09999000  1.0
  C  C142  1  0.32285000  0.60868000  0.58320000  1.0
  C  C143  1  0.66394000  0.41503000  0.39998000  1.0
  C  C144  1  0.99079000  0.92595000  0.92360000  1.0
  C  C145  1  0.99164000  0.07962000  0.07151000  1.0
  C  C146  1  0.49169000  0.57412000  0.57651000  1.0
  C  C147  1  0.49123000  0.42051000  0.42856000  1.0
  C  C148  1  0.16199000  0.92192000  0.89413000  1.0
  C  C149  1  0.82275000  0.11358000  0.08009000  1.0
  C  C150  1  0.66291000  0.57816000  0.60588000  1.0
  C  C151  1  0.32216000  0.38664000  0.42006000  1.0
  C  C152  1  0.16010000  0.88463000  0.85921000  1.0
  C  C153  1  0.82977000  0.15025000  0.11543000  1.0
  C  C154  1  0.66107000  0.61546000  0.64079000  1.0
  C  C155  1  0.32890000  0.34997000  0.38469000  1.0
  C  C156  1  0.99125000  0.84987000  0.85299000  1.0
  C  C157  1  0.00197000  0.15421000  0.14430000  1.0
  C  C158  1  0.49226000  0.65023000  0.64710000  1.0
  C  C159  1  0.50109000  0.34592000  0.35575000  1.0
  C  C160  1  0.14829000  0.96293000  0.99572000  1.0
  C  C161  1  0.83026000  0.04115000  0.99981000  1.0
  C  C162  1  0.64869000  0.53711000  0.50427000  1.0
  C  C163  1  0.33041000  0.45896000  0.50042000  1.0
  C  C164  1  0.14683000  0.99896000  0.03166000  1.0
  C  C165  1  0.82877000  0.00399000  0.96467000  1.0
  C  C166  1  0.64690000  0.50112000  0.46830000  1.0
  C  C167  1  0.32925000  0.49609000  0.53558000  1.0
  C  C168  1  0.98933000  0.03979000  0.03430000  1.0
  C  C169  1  0.98914000  0.96466000  0.96143000  1.0
  C  C170  1  0.48923000  0.46031000  0.46579000  1.0
  C  C171  1  0.48978000  0.53540000  0.53869000  1.0
  C  C172  1  0.75494000  0.61859000  0.07235000  1.0
  C  C173  1  0.21330000  0.37475000  0.92489000  1.0
  C  C174  1  0.25286000  0.88167000  0.42772000  1.0
  C  C175  1  0.71756000  0.12475000  0.57480000  1.0
  C  C176  1  0.01568000  0.64919000  0.91179000  1.0
  C  C177  1  0.94761000  0.34665000  0.08938000  1.0
  C  C178  1  0.51399000  0.85061000  0.58824000  1.0
  C  C179  1  0.44818000  0.15329000  0.41076000  1.0
  C  C180  1  0.99961000  0.54644000  0.76465000  1.0
  C  C181  1  0.09574000  0.45987000  0.22705000  1.0
  C  C182  1  0.50226000  0.95354000  0.73530000  1.0
  C  C183  1  0.59492000  0.04014000  0.27285000  1.0
  C  C184  1  0.02793000  0.57433000  0.15912000  1.0
  C  C185  1  0.00027000  0.42799000  0.83054000  1.0
  C  C186  1  0.52604000  0.92568000  0.34076000  1.0
  C  C187  1  0.50457000  0.07195000  0.66933000  1.0
  C  C188  1  0.63406000  0.81415000  0.88172000  1.0
  C  C189  1  0.36340000  0.11997000  0.16640000  1.0
  C  C190  1  0.13505000  0.68599000  0.61848000  1.0
  C  C191  1  0.86255000  0.38009000  0.33341000  1.0
  O  O192  1  0.33932000  0.82547000  0.70770000  1.0
  O  O193  1  0.66791000  0.17435000  0.29121000  1.0
  O  O194  1  0.83934000  0.67467000  0.79255000  1.0
  O  O195  1  0.16772000  0.32553000  0.20858000  1.0
  O  O196  1  0.67820000  0.70265000  0.69952000  1.0
  O  O197  1  0.32179000  0.29259000  0.30305000  1.0
  O  O198  1  0.17736000  0.79714000  0.80074000  1.0
  O  O199  1  0.82271000  0.20792000  0.19680000  1.0
  O  O200  1  0.67812000  0.82266000  0.70544000  1.0
  O  O201  1  0.32899000  0.17413000  0.29243000  1.0
  O  O202  1  0.17821000  0.67716000  0.79448000  1.0
  O  O203  1  0.82881000  0.32617000  0.20788000  1.0
  O  O204  1  0.83788000  0.79393000  0.79870000  1.0
  O  O205  1  0.16232000  0.20886000  0.19886000  1.0
  O  O206  1  0.33872000  0.70636000  0.70129000  1.0
  O  O207  1  0.66140000  0.29084000  0.30143000  1.0
  O  O208  1  0.50948000  0.73928000  0.78140000  1.0
  O  O209  1  0.49426000  0.26233000  0.21903000  1.0
  O  O210  1  0.00974000  0.76074000  0.71874000  1.0
  O  O211  1  0.99404000  0.23778000  0.28105000  1.0
