# generated using pymatgen
data_Gd2CuH28(C10O11)2
_symmetry_space_group_name_H-M   'P 1'
_cell_length_a   6.97930000
_cell_length_b   10.02240000
_cell_length_c   11.40180000
_cell_angle_alpha   107.83800000
_cell_angle_beta   101.72800000
_cell_angle_gamma   98.34780000
_symmetry_Int_Tables_number   1
_chemical_formula_structural   Gd2CuH28(C10O11)2
_chemical_formula_sum   'Gd2 Cu1 H28 C20 O22'
_cell_volume   724.71192782
_cell_formula_units_Z   1
loop_
 _symmetry_equiv_pos_site_id
 _symmetry_equiv_pos_as_xyz
  1  'x, y, z'
loop_
 _atom_site_type_symbol
 _atom_site_label
 _atom_site_symmetry_multiplicity
 _atom_site_fract_x
 _atom_site_fract_y
 _atom_site_fract_z
 _atom_site_occupancy
  Gd  Gd0  1  0.63426000  0.71591000  0.09840000  1.0
  Gd  Gd1  1  0.36574000  0.28409000  0.90160000  1.0
  Cu  Cu2  1  0.00000000  0.00000000  0.50000000  1.0
  H  H3  1  0.43366000  0.59142000  0.34436000  1.0
  H  H4  1  0.56634000  0.40858000  0.65565000  1.0
  H  H5  1  0.61134000  0.59214000  0.48020000  1.0
  H  H6  1  0.38866000  0.40786000  0.51980000  1.0
  H  H7  1  0.51412000  0.64779000  0.67494000  1.0
  H  H8  1  0.48588000  0.35221000  0.32507000  1.0
  H  H9  1  0.32302000  0.75620000  0.70038000  1.0
  H  H10  1  0.67697000  0.24380000  0.29963000  1.0
  H  H11  1  0.98679000  0.53303000  0.19699000  1.0
  H  H12  1  0.01320000  0.46698000  0.80300000  1.0
  H  H13  1  0.89414000  0.46825000  0.30632000  1.0
  H  H14  1  0.10587000  0.53175000  0.69368000  1.0
  H  H15  1  0.04180000  0.90326000  0.14583000  1.0
  H  H16  1  0.95820000  0.09673000  0.85416000  1.0
  H  H17  1  0.06909000  0.85548000  0.26805000  1.0
  H  H18  1  0.93092000  0.14452000  0.73195000  1.0
  H  H19  1  0.16407000  0.16915000  0.25842000  1.0
  H  H20  1  0.83592000  0.83086000  0.74158000  1.0
  H  H21  1  0.00680000  0.26351000  0.35311000  1.0
  H  H22  1  0.99320000  0.73649000  0.64689000  1.0
  H  H23  1  0.52462000  0.00810000  0.14590000  1.0
  H  H24  1  0.47539000  0.99190000  0.85410000  1.0
  H  H25  1  0.66561000  0.01774000  0.27876000  1.0
  H  H26  1  0.33440000  0.98226000  0.72124000  1.0
  H  H27  1  0.23915000  0.56478000  0.10925000  1.0
  H  H28  1  0.76086000  0.43522000  0.89076000  1.0
  H  H29  1  0.29762000  0.71167000  0.23358000  1.0
  H  H30  1  0.70238000  0.28833000  0.76643000  1.0
  C  C31  1  0.68781000  0.76901000  0.42274000  1.0
  C  C32  1  0.31219000  0.23098000  0.57726000  1.0
  C  C33  1  0.52846000  0.65995000  0.43935000  1.0
  C  C34  1  0.47155000  0.34004000  0.56066000  1.0
  C  C35  1  0.40647000  0.72610000  0.52662000  1.0
  C  C36  1  0.59354000  0.27390000  0.47338000  1.0
  C  C37  1  0.26769000  0.81096000  0.48007000  1.0
  C  C38  1  0.73232000  0.18904000  0.51993000  1.0
  C  C39  1  0.41429000  0.70875000  0.63937000  1.0
  C  C40  1  0.58571000  0.29125000  0.36063000  1.0
  C  C41  1  0.71187000  0.37700000  0.11529000  1.0
  C  C42  1  0.28812000  0.62299000  0.88471000  1.0
  C  C43  1  0.91793000  0.43474000  0.20993000  1.0
  C  C44  1  0.08206000  0.56527000  0.79007000  1.0
  C  C45  1  0.04699000  0.32635000  0.19596000  1.0
  C  C46  1  0.95301000  0.67366000  0.80404000  1.0
  C  C47  1  0.14463000  0.30153000  0.08827000  1.0
  C  C48  1  0.85537000  0.69848000  0.91173000  1.0
  C  C49  1  0.07420000  0.24972000  0.27328000  1.0
  C  C50  1  0.92580000  0.75029000  0.72672000  1.0
  O  O51  1  0.73451000  0.74554000  0.31795000  1.0
  O  O52  1  0.26549000  0.25446000  0.68204000  1.0
  O  O53  1  0.77560000  0.87851000  0.52255000  1.0
  O  O54  1  0.22440000  0.12149000  0.47745000  1.0
  O  O55  1  0.23124000  0.80040000  0.36412000  1.0
  O  O56  1  0.76876000  0.19959000  0.63588000  1.0
  O  O57  1  0.18913000  0.88951000  0.56166000  1.0
  O  O58  1  0.81087000  0.11049000  0.43834000  1.0
  O  O59  1  0.60791000  0.46847000  0.09507000  1.0
  O  O60  1  0.39208000  0.53153000  0.90493000  1.0
  O  O61  1  0.64218000  0.24418000  0.05758000  1.0
  O  O62  1  0.35781000  0.75582000  0.94243000  1.0
  O  O63  1  0.14775000  0.39261000  0.02883000  1.0
  O  O64  1  0.85225000  0.60739000  0.97117000  1.0
  O  O65  1  0.22627000  0.19525000  0.05629000  1.0
  O  O66  1  0.77372000  0.80475000  0.94371000  1.0
  O  O67  1  0.96967000  0.87303000  0.20121000  1.0
  O  O68  1  0.03033000  0.12697000  0.79879000  1.0
  O  O69  1  0.57671000  0.95127000  0.19525000  1.0
  O  O70  1  0.42329000  0.04873000  0.80475000  1.0
  O  O71  1  0.32710000  0.66340000  0.15149000  1.0
  O  O72  1  0.67291000  0.33660000  0.84852000  1.0
