# generated using pymatgen
data_Ag2H12PdC12(N2O5)2
_symmetry_space_group_name_H-M   'P 1'
_cell_length_a   4.64359000
_cell_length_b   7.72459000
_cell_length_c   25.90910000
_cell_angle_alpha   90.00000000
_cell_angle_beta   90.00000000
_cell_angle_gamma   105.16000000
_symmetry_Int_Tables_number   1
_chemical_formula_structural   Ag2H12PdC12(N2O5)2
_chemical_formula_sum   'Ag4 H24 Pd2 C24 N8 O20'
_cell_volume   897.01278115
_cell_formula_units_Z   2
loop_
 _symmetry_equiv_pos_site_id
 _symmetry_equiv_pos_as_xyz
  1  'x, y, z'
loop_
 _atom_site_type_symbol
 _atom_site_label
 _atom_site_symmetry_multiplicity
 _atom_site_fract_x
 _atom_site_fract_y
 _atom_site_fract_z
 _atom_site_occupancy
  Ag  Ag0  1  0.79962000  0.75889000  0.79233000  1.0
  Ag  Ag1  1  0.20038000  0.74111000  0.29233000  1.0
  Ag  Ag2  1  0.20038000  0.24111000  0.20767000  1.0
  Ag  Ag3  1  0.79962000  0.25889000  0.70767000  1.0
  H  H4  1  0.74007000  0.15119000  0.87988000  1.0
  H  H5  1  0.25993000  0.34881000  0.37988000  1.0
  H  H6  1  0.25993000  0.84881000  0.12012000  1.0
  H  H7  1  0.74007000  0.65119000  0.62012000  1.0
  H  H8  1  0.12994000  0.26849000  0.87955000  1.0
  H  H9  1  0.87007000  0.23151000  0.37955000  1.0
  H  H10  1  0.87007000  0.73151000  0.12045000  1.0
  H  H11  1  0.12993000  0.76849000  0.62045000  1.0
  H  H12  1  0.87847000  0.33161000  0.83627000  1.0
  H  H13  1  0.12153000  0.16839000  0.33627000  1.0
  H  H14  1  0.12153000  0.66839000  0.16373000  1.0
  H  H15  1  0.87847000  0.83161000  0.66373000  1.0
  H  H16  1  0.17700000  0.01219000  0.96722000  1.0
  H  H17  1  0.82300000  0.48781000  0.46722000  1.0
  H  H18  1  0.82299000  0.98781000  0.03278000  1.0
  H  H19  1  0.17701000  0.51219000  0.53278000  1.0
  H  H20  1  0.24907000  0.95709000  0.90207000  1.0
  H  H21  1  0.75093000  0.54291000  0.40207000  1.0
  H  H22  1  0.75093000  0.04291000  0.09793000  1.0
  H  H23  1  0.24907000  0.45709000  0.59793000  1.0
  H  H24  1  0.45847000  0.89961000  0.95345000  1.0
  H  H25  1  0.54153000  0.60039000  0.45345000  1.0
  H  H26  1  0.54153000  0.10039000  0.04655000  1.0
  H  H27  1  0.45846000  0.39961000  0.54655000  1.0
  Pd  Pd28  1  0.50000000  0.50000000  0.00000000  1.0
  Pd  Pd29  1  0.50000000  0.00000000  0.50000000  1.0
  C  C30  1  0.90095000  0.28172000  0.87549000  1.0
  C  C31  1  0.09905000  0.21828000  0.37549000  1.0
  C  C32  1  0.09905000  0.71828000  0.12451000  1.0
  C  C33  1  0.90096000  0.78172000  0.62451000  1.0
  C  C34  1  0.84526000  0.41196000  0.91435000  1.0
  C  C35  1  0.15473000  0.08804000  0.41435000  1.0
  C  C36  1  0.15473000  0.58804000  0.08565000  1.0
  C  C37  1  0.84527000  0.91196000  0.58565000  1.0
  C  C38  1  0.03898000  0.58935000  0.91535000  1.0
  C  C39  1  0.96102000  0.91064000  0.41535000  1.0
  C  C40  1  0.96102000  0.41064000  0.08465000  1.0
  C  C41  1  0.03898000  0.08936000  0.58465000  1.0
  C  C42  1  0.01476000  0.73356000  0.94796000  1.0
  C  C43  1  0.98524000  0.76643000  0.44796000  1.0
  C  C44  1  0.98524000  0.26643000  0.05204000  1.0
  C  C45  1  0.01476000  0.23357000  0.55204000  1.0
  C  C46  1  0.23586000  0.91212000  0.94246000  1.0
  C  C47  1  0.76414000  0.58788000  0.44246000  1.0
  C  C48  1  0.76414000  0.08788000  0.05754000  1.0
  C  C49  1  0.23585000  0.41212000  0.55754000  1.0
  C  C50  1  0.27719000  0.62768000  0.87965000  1.0
  C  C51  1  0.72280000  0.87232000  0.37965000  1.0
  C  C52  1  0.72280000  0.37232000  0.12035000  1.0
  C  C53  1  0.27720000  0.12768000  0.62035000  1.0
  N  N54  1  0.47933000  0.66096000  0.85121000  1.0
  N  N55  1  0.52067000  0.83904000  0.35121000  1.0
  N  N56  1  0.52067000  0.33904000  0.14879000  1.0
  N  N57  1  0.47933000  0.16096000  0.64879000  1.0
  N  N58  1  0.22020000  0.11203000  0.78484000  1.0
  N  N59  1  0.77980000  0.38797000  0.28484000  1.0
  N  N60  1  0.77980000  0.88797000  0.21516000  1.0
  N  N61  1  0.22020000  0.61203000  0.71516000  1.0
  O  O62  1  0.62353000  0.35439000  0.94461000  1.0
  O  O63  1  0.37647000  0.14560000  0.44461000  1.0
  O  O64  1  0.37647000  0.64560000  0.05539000  1.0
  O  O65  1  0.62353000  0.85440000  0.55539000  1.0
  O  O66  1  0.81498000  0.72284000  0.98276000  1.0
  O  O67  1  0.18502000  0.77716000  0.48276000  1.0
  O  O68  1  0.18502000  0.27716000  0.01724000  1.0
  O  O69  1  0.81498000  0.22284000  0.51724000  1.0
  O  O70  1  0.98105000  0.05485000  0.75699000  1.0
  O  O71  1  0.01896000  0.44515000  0.25699000  1.0
  O  O72  1  0.01896000  0.94515000  0.24301000  1.0
  O  O73  1  0.98105000  0.55486000  0.74301000  1.0
  O  O74  1  0.38768000  0.26550000  0.77751000  1.0
  O  O75  1  0.61232000  0.23451000  0.27751000  1.0
  O  O76  1  0.61232000  0.73451000  0.22249000  1.0
  O  O77  1  0.38768000  0.76550000  0.72249000  1.0
  O  O78  1  0.27210000  0.00690000  0.81883000  1.0
  O  O79  1  0.72790000  0.49310000  0.31883000  1.0
  O  O80  1  0.72790000  0.99310000  0.18117000  1.0
  O  O81  1  0.27211000  0.50690000  0.68117000  1.0
