# generated using pymatgen
data_NiH16C26(NO)4
_symmetry_space_group_name_H-M   'P 1'
_cell_length_a   5.31721000
_cell_length_b   41.39970000
_cell_length_c   41.39970000
_cell_angle_alpha   120.00000000
_cell_angle_beta   90.00000000
_cell_angle_gamma   90.00000000
_symmetry_Int_Tables_number   1
_chemical_formula_structural   NiH16C26(NO)4
_chemical_formula_sum   'Ni3 H48 C78 N12 O12'
_cell_volume   7892.39536112
_cell_formula_units_Z   3
loop_
 _symmetry_equiv_pos_site_id
 _symmetry_equiv_pos_as_xyz
  1  'x, y, z'
loop_
 _atom_site_type_symbol
 _atom_site_label
 _atom_site_symmetry_multiplicity
 _atom_site_fract_x
 _atom_site_fract_y
 _atom_site_fract_z
 _atom_site_occupancy
  Ni  Ni0  1  0.50544000  0.50000000  0.50000000  1.0
  Ni  Ni1  1  0.50543000  0.00000000  0.50000000  1.0
  Ni  Ni2  1  0.50544000  0.50000000  0.00000000  1.0
  H  H3  1  0.53357000  0.48007000  0.42041000  1.0
  H  H4  1  0.53357000  0.94034000  0.51993000  1.0
  H  H5  1  0.53357000  0.57959000  0.05966000  1.0
  H  H6  1  0.53357000  0.51993000  0.57959000  1.0
  H  H7  1  0.53357000  0.05966000  0.48007000  1.0
  H  H8  1  0.53357000  0.42041000  0.94034000  1.0
  H  H9  1  0.54410000  0.51251000  0.38332000  1.0
  H  H10  1  0.54410000  0.87081000  0.48749000  1.0
  H  H11  1  0.54410000  0.61668000  0.12919000  1.0
  H  H12  1  0.54410000  0.48749000  0.61668000  1.0
  H  H13  1  0.54410000  0.12919000  0.51251000  1.0
  H  H14  1  0.54410000  0.38332000  0.87081000  1.0
  H  H15  1  0.68677000  0.63811000  0.45595000  1.0
  H  H16  1  0.68676000  0.81784000  0.36190000  1.0
  H  H17  1  0.68676000  0.54405000  0.18216000  1.0
  H  H18  1  0.68676000  0.36189000  0.54405000  1.0
  H  H19  1  0.68676000  0.18216000  0.63811000  1.0
  H  H20  1  0.68676000  0.45595000  0.81784000  1.0
  H  H21  1  0.67544000  0.67309000  0.42175000  1.0
  H  H22  1  0.67544000  0.74866000  0.32691000  1.0
  H  H23  1  0.67544000  0.57825000  0.25134000  1.0
  H  H24  1  0.67544000  0.32691000  0.57825000  1.0
  H  H25  1  0.67544000  0.25134000  0.67309000  1.0
  H  H26  1  0.67544000  0.42175000  0.74866000  1.0
  H  H27  1  0.47996000  0.61673000  0.48751000  1.0
  H  H28  1  0.47996000  0.87078000  0.38327000  1.0
  H  H29  1  0.47996000  0.51249000  0.12922000  1.0
  H  H30  1  0.47995000  0.38327000  0.51249000  1.0
  H  H31  1  0.47996000  0.12922000  0.61673000  1.0
  H  H32  1  0.47996000  0.48751000  0.87078000  1.0
  H  H33  1  0.48096000  0.57957000  0.51989000  1.0
  H  H34  1  0.48096000  0.94032000  0.42043000  1.0
  H  H35  1  0.48096000  0.48011000  0.05968000  1.0
  H  H36  1  0.48096000  0.42043000  0.48011000  1.0
  H  H37  1  0.48096000  0.05968000  0.57957000  1.0
  H  H38  1  0.48096000  0.51989000  0.94032000  1.0
  H  H39  1  0.33648000  0.54407000  0.36194000  1.0
  H  H40  1  0.33648000  0.81787000  0.45593000  1.0
  H  H41  1  0.33648000  0.63806000  0.18213000  1.0
  H  H42  1  0.33648000  0.45593000  0.63806000  1.0
  H  H43  1  0.33648000  0.18213000  0.54407000  1.0
  H  H44  1  0.33648000  0.36194000  0.81787000  1.0
  H  H45  1  0.34734000  0.57825000  0.32694000  1.0
  H  H46  1  0.34734000  0.74869000  0.42175000  1.0
  H  H47  1  0.34734000  0.67306000  0.25131000  1.0
  H  H48  1  0.34734000  0.42175000  0.67306000  1.0
  H  H49  1  0.34734000  0.25131000  0.57825000  1.0
  H  H50  1  0.34734000  0.32694000  0.74869000  1.0
  C  C51  1  0.51130000  0.56790000  0.43212000  1.0
  C  C52  1  0.51130000  0.86422000  0.43210000  1.0
  C  C53  1  0.51130000  0.56788000  0.13578000  1.0
  C  C54  1  0.51130000  0.43210000  0.56788000  1.0
  C  C55  1  0.51130000  0.13578000  0.56790000  1.0
  C  C56  1  0.51130000  0.43212000  0.86422000  1.0
  C  C57  1  0.51185000  0.58846000  0.41154000  1.0
  C  C58  1  0.51185000  0.82308000  0.41154000  1.0
  C  C59  1  0.51185000  0.58846000  0.17692000  1.0
  C  C60  1  0.51185000  0.41154000  0.58846000  1.0
  C  C61  1  0.51185000  0.17692000  0.58846000  1.0
  C  C62  1  0.51185000  0.41154000  0.82308000  1.0
  C  C63  1  0.51145000  0.62780000  0.37220000  1.0
  C  C64  1  0.51145000  0.74440000  0.37219000  1.0
  C  C65  1  0.51145000  0.62779000  0.25559000  1.0
  C  C66  1  0.51145000  0.37220000  0.62780000  1.0
  C  C67  1  0.51145000  0.25560000  0.62781000  1.0
  C  C68  1  0.51145000  0.37221000  0.74441000  1.0
  C  C69  1  0.51140000  0.64836000  0.35165000  1.0
  C  C70  1  0.51140000  0.70329000  0.35165000  1.0
  C  C71  1  0.51140000  0.64836000  0.29672000  1.0
  C  C72  1  0.51140000  0.35164000  0.64835000  1.0
  C  C73  1  0.51140000  0.29671000  0.64835000  1.0
  C  C74  1  0.51140000  0.35164000  0.70328000  1.0
  C  C75  1  0.52205000  0.51036000  0.43388000  1.0
  C  C76  1  0.52206000  0.92352000  0.48964000  1.0
  C  C77  1  0.52206000  0.56612000  0.07648000  1.0
  C  C78  1  0.52206000  0.48964000  0.56612000  1.0
  C  C79  1  0.52206000  0.07648000  0.51036000  1.0
  C  C80  1  0.52206000  0.43388000  0.92352000  1.0
  C  C81  1  0.52568000  0.52877000  0.41356000  1.0
  C  C82  1  0.52568000  0.88479000  0.47124000  1.0
  C  C83  1  0.52568000  0.58645000  0.11522000  1.0
  C  C84  1  0.52568000  0.47123000  0.58644000  1.0
  C  C85  1  0.52568000  0.11521000  0.52876000  1.0
  C  C86  1  0.52568000  0.41355000  0.88478000  1.0
  C  C87  1  0.60600000  0.62510000  0.42801000  1.0
  C  C88  1  0.60600000  0.80291000  0.37490000  1.0
  C  C89  1  0.60600000  0.57198000  0.19708000  1.0
  C  C90  1  0.60600000  0.37490000  0.57199000  1.0
  C  C91  1  0.60600000  0.19709000  0.62510000  1.0
  C  C92  1  0.60600000  0.42802000  0.80292000  1.0
  C  C93  1  0.60306000  0.64470000  0.40888000  1.0
  C  C94  1  0.60307000  0.76418000  0.35531000  1.0
  C  C95  1  0.60306000  0.59112000  0.23582000  1.0
  C  C96  1  0.60306000  0.35530000  0.59112000  1.0
  C  C97  1  0.60307000  0.23582000  0.64470000  1.0
  C  C98  1  0.60306000  0.40888000  0.76418000  1.0
  C  C99  1  0.00547000  0.51892000  0.51888000  1.0
  C  C100  1  0.00548000  0.99996000  0.48108000  1.0
  C  C101  1  0.00547000  0.48112000  0.00004000  1.0
  C  C102  1  0.00547000  0.48108000  0.48112000  1.0
  C  C103  1  0.00547000  0.00004000  0.51892000  1.0
  C  C104  1  0.00547000  0.51888000  0.99996000  1.0
  C  C105  1  0.49559000  0.58646000  0.47124000  1.0
  C  C106  1  0.49559000  0.88478000  0.41354000  1.0
  C  C107  1  0.49559000  0.52877000  0.11523000  1.0
  C  C108  1  0.49559000  0.41354000  0.52876000  1.0
  C  C109  1  0.49559000  0.11522000  0.58646000  1.0
  C  C110  1  0.49559000  0.47124000  0.88478000  1.0
  C  C111  1  0.49406000  0.56609000  0.48960000  1.0
  C  C112  1  0.49406000  0.92351000  0.43391000  1.0
  C  C113  1  0.49406000  0.51040000  0.07649000  1.0
  C  C114  1  0.49406000  0.43391000  0.51040000  1.0
  C  C115  1  0.49406000  0.07649000  0.56609000  1.0
  C  C116  1  0.49406000  0.48960000  0.92351000  1.0
  C  C117  1  0.41737000  0.57199000  0.37492000  1.0
  C  C118  1  0.41737000  0.80293000  0.42801000  1.0
  C  C119  1  0.41737000  0.62508000  0.19707000  1.0
  C  C120  1  0.41737000  0.42801000  0.62508000  1.0
  C  C121  1  0.41737000  0.19707000  0.57199000  1.0
  C  C122  1  0.41737000  0.37492000  0.80293000  1.0
  C  C123  1  0.41993000  0.59113000  0.35532000  1.0
  C  C124  1  0.41993000  0.76419000  0.40887000  1.0
  C  C125  1  0.41993000  0.64468000  0.23581000  1.0
  C  C126  1  0.41993000  0.40887000  0.64468000  1.0
  C  C127  1  0.41993000  0.23581000  0.59113000  1.0
  C  C128  1  0.41993000  0.35532000  0.76419000  1.0
  N  N129  1  0.50642000  0.52862000  0.47133000  1.0
  N  N130  1  0.50642000  0.94271000  0.47138000  1.0
  N  N131  1  0.50642000  0.52867000  0.05729000  1.0
  N  N132  1  0.50642000  0.47138000  0.52867000  1.0
  N  N133  1  0.50642000  0.05729000  0.52862000  1.0
  N  N134  1  0.50642000  0.47133000  0.94271000  1.0
  N  N135  1  0.51141000  0.68586000  0.37172000  1.0
  N  N136  1  0.51141000  0.68586000  0.31414000  1.0
  N  N137  1  0.51141000  0.62828000  0.31414000  1.0
  N  N138  1  0.51141000  0.31414000  0.62828000  1.0
  N  N139  1  0.51141000  0.31414000  0.68586000  1.0
  N  N140  1  0.51141000  0.37172000  0.68586000  1.0
  O  O141  1  0.79394000  0.53311000  0.53300000  1.0
  O  O142  1  0.79394000  0.99989000  0.46689000  1.0
  O  O143  1  0.79394000  0.46700000  0.00011000  1.0
  O  O144  1  0.79394000  0.46689000  0.46700000  1.0
  O  O145  1  0.79394000  0.00011000  0.53311000  1.0
  O  O146  1  0.79394000  0.53300000  0.99989000  1.0
  O  O147  1  0.21692000  0.53305000  0.53303000  1.0
  O  O148  1  0.21691000  0.99998000  0.46695000  1.0
  O  O149  1  0.21692000  0.46697000  0.00002000  1.0
  O  O150  1  0.21692000  0.46695000  0.46697000  1.0
  O  O151  1  0.21692000  0.00002000  0.53305000  1.0
  O  O152  1  0.21692000  0.53303000  0.99998000  1.0
