# generated using pymatgen
data_TbH11C17O11
_symmetry_space_group_name_H-M   'P 1'
_cell_length_a   7.29160000
_cell_length_b   9.17153000
_cell_length_c   12.72330000
_cell_angle_alpha   75.17220000
_cell_angle_beta   85.21730000
_cell_angle_gamma   89.63310000
_symmetry_Int_Tables_number   1
_chemical_formula_structural   TbH11C17O11
_chemical_formula_sum   'Tb2 H22 C34 O22'
_cell_volume   819.57519301
_cell_formula_units_Z   2
loop_
 _symmetry_equiv_pos_site_id
 _symmetry_equiv_pos_as_xyz
  1  'x, y, z'
loop_
 _atom_site_type_symbol
 _atom_site_label
 _atom_site_symmetry_multiplicity
 _atom_site_fract_x
 _atom_site_fract_y
 _atom_site_fract_z
 _atom_site_occupancy
  Tb  Tb0  1  0.74835000  0.94730000  0.95975000  1.0
  Tb  Tb1  1  0.25165000  0.05271000  0.04024000  1.0
  H  H2  1  0.36191000  0.70408000  0.84141000  1.0
  H  H3  1  0.63811000  0.29593000  0.15859000  1.0
  H  H4  1  0.09123000  0.04079000  0.80927000  1.0
  H  H5  1  0.90877000  0.95921000  0.19073000  1.0
  H  H6  1  0.93161000  0.01335000  0.73534000  1.0
  H  H7  1  0.06839000  0.98664000  0.26466000  1.0
  H  H8  1  0.74496000  0.64491000  0.91048000  1.0
  H  H9  1  0.25501000  0.35511000  0.08951000  1.0
  H  H10  1  0.89698000  0.73875000  0.82321000  1.0
  H  H11  1  0.10302000  0.26126000  0.17679000  1.0
  H  H12  1  0.55427000  0.55965000  0.19999000  1.0
  H  H13  1  0.44574000  0.44035000  0.80001000  1.0
  H  H14  1  0.07696000  0.41107000  0.42677000  1.0
  H  H15  1  0.92303000  0.58893000  0.57322000  1.0
  H  H16  1  0.87560000  0.55676000  0.29090000  1.0
  H  H17  1  0.12440000  0.44324000  0.70909000  1.0
  H  H18  1  0.52812000  0.29829000  0.61108000  1.0
  H  H19  1  0.47187000  0.70171000  0.38892000  1.0
  H  H20  1  0.15599000  0.92091000  0.49755000  1.0
  H  H21  1  0.84401000  0.07908000  0.50246000  1.0
  H  H22  1  0.23856000  0.16996000  0.36627000  1.0
  H  H23  1  0.76143000  0.83003000  0.63373000  1.0
  C  C24  1  0.09988000  0.63644000  0.16799000  1.0
  C  C25  1  0.90012000  0.36356000  0.83201000  1.0
  C  C26  1  0.29162000  0.63615000  0.14231000  1.0
  C  C27  1  0.70839000  0.36385000  0.85769000  1.0
  C  C28  1  0.40577000  0.55875000  0.21969000  1.0
  C  C29  1  0.59423000  0.44125000  0.78031000  1.0
  C  C30  1  0.32865000  0.47567000  0.32208000  1.0
  C  C31  1  0.67134000  0.52432000  0.67792000  1.0
  C  C32  1  0.13742000  0.47458000  0.34713000  1.0
  C  C33  1  0.86258000  0.52541000  0.65287000  1.0
  C  C34  1  0.02377000  0.55589000  0.27088000  1.0
  C  C35  1  0.97622000  0.44411000  0.72912000  1.0
  C  C36  1  0.97923000  0.72980000  0.08899000  1.0
  C  C37  1  0.02078000  0.27020000  0.91100000  1.0
  C  C38  1  0.37279000  0.70660000  0.02828000  1.0
  C  C39  1  0.62723000  0.29340000  0.97172000  1.0
  C  C40  1  0.45456000  0.39249000  0.40253000  1.0
  C  C41  1  0.54543000  0.60750000  0.59747000  1.0
  C  C42  1  0.38718000  0.24939000  0.48135000  1.0
  C  C43  1  0.61281000  0.75060000  0.51865000  1.0
  C  C44  1  0.44453000  0.21638000  0.58716000  1.0
  C  C45  1  0.55547000  0.78362000  0.41284000  1.0
  C  C46  1  0.39047000  0.08155000  0.66182000  1.0
  C  C47  1  0.60953000  0.91845000  0.33818000  1.0
  C  C48  1  0.28707000  0.97437000  0.62865000  1.0
  C  C49  1  0.71293000  0.02563000  0.37136000  1.0
  C  C50  1  0.23220000  0.00635000  0.52261000  1.0
  C  C51  1  0.76780000  0.99364000  0.47739000  1.0
  C  C52  1  0.27930000  0.14475000  0.44940000  1.0
  C  C53  1  0.72069000  0.85524000  0.55060000  1.0
  C  C54  1  0.43307000  0.05460000  0.77888000  1.0
  C  C55  1  0.56693000  0.94541000  0.22112000  1.0
  C  C56  1  0.24034000  0.82813000  0.71050000  1.0
  C  C57  1  0.75967000  0.17187000  0.28951000  1.0
  O  O58  1  0.81134000  0.69835000  0.09008000  1.0
  O  O59  1  0.18867000  0.30165000  0.90991000  1.0
  O  O60  1  0.04989000  0.85112000  0.01969000  1.0
  O  O61  1  0.95012000  0.14888000  0.98030000  1.0
  O  O62  1  0.45557000  0.83623000  0.00917000  1.0
  O  O63  1  0.54443000  0.16378000  0.99083000  1.0
  O  O64  1  0.35534000  0.63111000  0.96000000  1.0
  O  O65  1  0.64468000  0.36889000  0.04000000  1.0
  O  O66  1  0.61264000  0.43949000  0.40432000  1.0
  O  O67  1  0.38735000  0.56050000  0.59568000  1.0
  O  O68  1  0.59885000  0.04667000  0.80002000  1.0
  O  O69  1  0.40115000  0.95334000  0.19998000  1.0
  O  O70  1  0.29382000  0.04514000  0.84916000  1.0
  O  O71  1  0.70617000  0.95486000  0.15084000  1.0
  O  O72  1  0.38475000  0.77307000  0.76219000  1.0
  O  O73  1  0.61526000  0.22694000  0.23782000  1.0
  O  O74  1  0.08274000  0.77287000  0.72724000  1.0
  O  O75  1  0.91727000  0.22712000  0.27277000  1.0
  O  O76  1  0.95459000  0.04112000  0.80180000  1.0
  O  O77  1  0.04541000  0.95888000  0.19819000  1.0
  O  O78  1  0.78073000  0.74652000  0.86776000  1.0
  O  O79  1  0.21926000  0.25349000  0.13223000  1.0
