# generated using pymatgen
data_AgH12C6S3ClO4
_symmetry_space_group_name_H-M   'P 1'
_cell_length_a   8.38199000
_cell_length_b   8.38206000
_cell_length_c   8.38207000
_cell_angle_alpha   82.39910000
_cell_angle_beta   82.40010000
_cell_angle_gamma   82.39970000
_symmetry_Int_Tables_number   1
_chemical_formula_structural   AgH12C6S3ClO4
_chemical_formula_sum   'Ag2 H24 C12 S6 Cl2 O8'
_cell_volume   574.64710943
_cell_formula_units_Z   2
loop_
 _symmetry_equiv_pos_site_id
 _symmetry_equiv_pos_as_xyz
  1  'x, y, z'
loop_
 _atom_site_type_symbol
 _atom_site_label
 _atom_site_symmetry_multiplicity
 _atom_site_fract_x
 _atom_site_fract_y
 _atom_site_fract_z
 _atom_site_occupancy
  Ag  Ag0  1  0.10187000  0.10188000  0.10187000  1.0
  Ag  Ag1  1  0.89813000  0.89813000  0.89813000  1.0
  H  H2  1  0.38646000  0.73956000  0.15601000  1.0
  H  H3  1  0.73956000  0.15600000  0.38646000  1.0
  H  H4  1  0.61354000  0.84399000  0.26044000  1.0
  H  H5  1  0.15600000  0.38647000  0.73957000  1.0
  H  H6  1  0.15600000  0.73957000  0.38647000  1.0
  H  H7  1  0.73956000  0.38646000  0.15600000  1.0
  H  H8  1  0.26043000  0.84400000  0.61354000  1.0
  H  H9  1  0.84400000  0.61352000  0.26044000  1.0
  H  H10  1  0.61354000  0.26043000  0.84400000  1.0
  H  H11  1  0.38646000  0.15600000  0.73957000  1.0
  H  H12  1  0.84400000  0.26043000  0.61353000  1.0
  H  H13  1  0.26043000  0.61354000  0.84401000  1.0
  H  H14  1  0.55125000  0.75092000  0.00069000  1.0
  H  H15  1  0.75092000  0.00069000  0.55126000  1.0
  H  H16  1  0.44875000  0.99931000  0.24909000  1.0
  H  H17  1  0.00068000  0.55126000  0.75092000  1.0
  H  H18  1  0.00068000  0.75092000  0.55126000  1.0
  H  H19  1  0.75092000  0.55126000  0.00069000  1.0
  H  H20  1  0.24908000  0.99931000  0.44875000  1.0
  H  H21  1  0.99932000  0.44874000  0.24908000  1.0
  H  H22  1  0.44875000  0.24908000  0.99932000  1.0
  H  H23  1  0.55125000  0.00068000  0.75093000  1.0
  H  H24  1  0.99932000  0.24908000  0.44874000  1.0
  H  H25  1  0.24908000  0.44874000  0.99931000  1.0
  C  C26  1  0.46089000  0.82352000  0.07695000  1.0
  C  C27  1  0.82352000  0.07694000  0.46090000  1.0
  C  C28  1  0.53910000  0.92306000  0.17648000  1.0
  C  C29  1  0.07694000  0.46090000  0.82353000  1.0
  C  C30  1  0.07694000  0.82353000  0.46090000  1.0
  C  C31  1  0.82353000  0.46089000  0.07694000  1.0
  C  C32  1  0.17647000  0.92306000  0.53911000  1.0
  C  C33  1  0.92306000  0.53910000  0.17647000  1.0
  C  C34  1  0.53910000  0.17647000  0.92307000  1.0
  C  C35  1  0.46089000  0.07694000  0.82353000  1.0
  C  C36  1  0.92306000  0.17647000  0.53910000  1.0
  C  C37  1  0.17647000  0.53911000  0.92306000  1.0
  S  S38  1  0.32539000  0.94271000  0.94272000  1.0
  S  S39  1  0.94271000  0.94271000  0.32540000  1.0
  S  S40  1  0.67461000  0.05728000  0.05730000  1.0
  S  S41  1  0.94270000  0.32540000  0.94271000  1.0
  S  S42  1  0.05729000  0.05729000  0.67460000  1.0
  S  S43  1  0.05729000  0.67460000  0.05729000  1.0
  Cl  Cl44  1  0.35395000  0.35394000  0.35395000  1.0
  Cl  Cl45  1  0.64604000  0.64605000  0.64605000  1.0
  O  O46  1  0.26313000  0.26310000  0.26309000  1.0
  O  O47  1  0.73689000  0.73689000  0.73690000  1.0
  O  O48  1  0.45459000  0.45460000  0.23787000  1.0
  O  O49  1  0.45458000  0.23786000  0.45461000  1.0
  O  O50  1  0.54542000  0.76213000  0.54540000  1.0
  O  O51  1  0.23782000  0.45458000  0.45458000  1.0
  O  O52  1  0.76216000  0.54540000  0.54541000  1.0
  O  O53  1  0.54541000  0.54540000  0.76214000  1.0
