# generated using pymatgen
data_Ag2H12WC8(S3N2)2
_symmetry_space_group_name_H-M   'P 1'
_cell_length_a   7.84297000
_cell_length_b   13.03630000
_cell_length_c   17.12850000
_cell_angle_alpha   89.99980000
_cell_angle_beta   93.89980000
_cell_angle_gamma   89.99990000
_symmetry_Int_Tables_number   1
_chemical_formula_structural   Ag2H12WC8(S3N2)2
_chemical_formula_sum   'Ag8 H48 W4 C32 S24 N16'
_cell_volume   1747.21948436
_cell_formula_units_Z   4
loop_
 _symmetry_equiv_pos_site_id
 _symmetry_equiv_pos_as_xyz
  1  'x, y, z'
loop_
 _atom_site_type_symbol
 _atom_site_label
 _atom_site_symmetry_multiplicity
 _atom_site_fract_x
 _atom_site_fract_y
 _atom_site_fract_z
 _atom_site_occupancy
  Ag  Ag0  1  0.79555000  0.64624000  0.76532000  1.0
  Ag  Ag1  1  0.70445000  0.14624000  0.23468000  1.0
  Ag  Ag2  1  0.20445000  0.35377000  0.23468000  1.0
  Ag  Ag3  1  0.29555000  0.85376000  0.76532000  1.0
  Ag  Ag4  1  0.56389000  0.24959000  0.72179000  1.0
  Ag  Ag5  1  0.93611000  0.74958000  0.27821000  1.0
  Ag  Ag6  1  0.43611000  0.75041000  0.27821000  1.0
  Ag  Ag7  1  0.06389000  0.25041000  0.72179000  1.0
  H  H8  1  0.21469000  0.50686000  0.70925000  1.0
  H  H9  1  0.28532000  0.00686000  0.29074000  1.0
  H  H10  1  0.78531000  0.49314000  0.29075000  1.0
  H  H11  1  0.71468000  0.99314000  0.70925000  1.0
  H  H12  1  0.14069000  0.43885000  0.57255000  1.0
  H  H13  1  0.35932000  0.93886000  0.42744000  1.0
  H  H14  1  0.85932000  0.56115000  0.42746000  1.0
  H  H15  1  0.64068000  0.06114000  0.57255000  1.0
  H  H16  1  0.31275000  0.56636000  0.47347000  1.0
  H  H17  1  0.18727000  0.06636000  0.52652000  1.0
  H  H18  1  0.68725000  0.43364000  0.52653000  1.0
  H  H19  1  0.81274000  0.93364000  0.47347000  1.0
  H  H20  1  0.42546000  0.77142000  0.51665000  1.0
  H  H21  1  0.07454000  0.27141000  0.48335000  1.0
  H  H22  1  0.57453000  0.22858000  0.48335000  1.0
  H  H23  1  0.92546000  0.72858000  0.51665000  1.0
  H  H24  1  0.60366000  0.68594000  0.52235000  1.0
  H  H25  1  0.89635000  0.18593000  0.47765000  1.0
  H  H26  1  0.39634000  0.31407000  0.47765000  1.0
  H  H27  1  0.10365000  0.81407000  0.52235000  1.0
  H  H28  1  0.55794000  0.76189000  0.60590000  1.0
  H  H29  1  0.94206000  0.26188000  0.39410000  1.0
  H  H30  1  0.44206000  0.23811000  0.39410000  1.0
  H  H31  1  0.05794000  0.73811000  0.60590000  1.0
  H  H32  1  0.85081000  0.85514000  0.85381000  1.0
  H  H33  1  0.64919000  0.35514000  0.14619000  1.0
  H  H34  1  0.14919000  0.14486000  0.14620000  1.0
  H  H35  1  0.35081000  0.64486000  0.85381000  1.0
  H  H36  1  0.78704000  0.01249000  0.93732000  1.0
  H  H37  1  0.71296000  0.51249000  0.06267000  1.0
  H  H38  1  0.21296000  0.98751000  0.06268000  1.0
  H  H39  1  0.28704000  0.48751000  0.93733000  1.0
  H  H40  1  0.63368000  0.93366000  0.06625000  1.0
  H  H41  1  0.86632000  0.43366000  0.93374000  1.0
  H  H42  1  0.36632000  0.06634000  0.93375000  1.0
  H  H43  1  0.13368000  0.56633000  0.06626000  1.0
  H  H44  1  0.54431000  0.65626000  0.03077000  1.0
  H  H45  1  0.95569000  0.15626000  0.96923000  1.0
  H  H46  1  0.45569000  0.34374000  0.96923000  1.0
  H  H47  1  0.04431000  0.84373000  0.03077000  1.0
  H  H48  1  0.51656000  0.76130000  0.09641000  1.0
  H  H49  1  0.98344000  0.26130000  0.90359000  1.0
  H  H50  1  0.48344000  0.23870000  0.90359000  1.0
  H  H51  1  0.01655000  0.73869000  0.09641000  1.0
  H  H52  1  0.70995000  0.68972000  0.10353000  1.0
  H  H53  1  0.79005000  0.18971000  0.89647000  1.0
  H  H54  1  0.29005000  0.31029000  0.89647000  1.0
  H  H55  1  0.20994000  0.81028000  0.10353000  1.0
  W  W56  1  0.81259000  0.41509000  0.71845000  1.0
  W  W57  1  0.68741000  0.91509000  0.28156000  1.0
  W  W58  1  0.18740000  0.58491000  0.28156000  1.0
  W  W59  1  0.31259000  0.08491000  0.71844000  1.0
  C  C60  1  0.36713000  0.62130000  0.66046000  1.0
  C  C61  1  0.13288000  0.12130000  0.33953000  1.0
  C  C62  1  0.63287000  0.37870000  0.33954000  1.0
  C  C63  1  0.86712000  0.87870000  0.66047000  1.0
  C  C64  1  0.22454000  0.50358000  0.58487000  1.0
  C  C65  1  0.27548000  0.00358000  0.41512000  1.0
  C  C66  1  0.77546000  0.49642000  0.41513000  1.0
  C  C67  1  0.72452000  0.99641000  0.58488000  1.0
  C  C68  1  0.30867000  0.56628000  0.53659000  1.0
  C  C69  1  0.19135000  0.06628000  0.46341000  1.0
  C  C70  1  0.69134000  0.43372000  0.46341000  1.0
  C  C71  1  0.80866000  0.93372000  0.53659000  1.0
  C  C72  1  0.50225000  0.71952000  0.55522000  1.0
  C  C73  1  0.99776000  0.21951000  0.44478000  1.0
  C  C74  1  0.49775000  0.28048000  0.44478000  1.0
  C  C75  1  0.00224000  0.78048000  0.55522000  1.0
  C  C76  1  0.74641000  0.76257000  0.93934000  1.0
  C  C77  1  0.75359000  0.26257000  0.06066000  1.0
  C  C78  1  0.25359000  0.23743000  0.06066000  1.0
  C  C79  1  0.24640000  0.73743000  0.93934000  1.0
  C  C80  1  0.75842000  0.93451000  0.95301000  1.0
  C  C81  1  0.74157000  0.43452000  0.04699000  1.0
  C  C82  1  0.24157000  0.06549000  0.04699000  1.0
  C  C83  1  0.25843000  0.56548000  0.95301000  1.0
  C  C84  1  0.68397000  0.89614000  0.01637000  1.0
  C  C85  1  0.81604000  0.39614000  0.98363000  1.0
  C  C86  1  0.31603000  0.10386000  0.98363000  1.0
  C  C87  1  0.18396000  0.60386000  0.01637000  1.0
  C  C88  1  0.60811000  0.72001000  0.06258000  1.0
  C  C89  1  0.89189000  0.22001000  0.93742000  1.0
  C  C90  1  0.39189000  0.27999000  0.93742000  1.0
  C  C91  1  0.10811000  0.77999000  0.06258000  1.0
  S  S92  1  0.45246000  0.68584000  0.74001000  1.0
  S  S93  1  0.04754000  0.18584000  0.25999000  1.0
  S  S94  1  0.54755000  0.31417000  0.25999000  1.0
  S  S95  1  0.95245000  0.81416000  0.74001000  1.0
  S  S96  1  0.76975000  0.63984000  0.90832000  1.0
  S  S97  1  0.73024000  0.13985000  0.09168000  1.0
  S  S98  1  0.23025000  0.36016000  0.09168000  1.0
  S  S99  1  0.26975000  0.86015000  0.90832000  1.0
  S  S100  1  0.80938000  0.55054000  0.64182000  1.0
  S  S101  1  0.69062000  0.05054000  0.35818000  1.0
  S  S102  1  0.19062000  0.44946000  0.35818000  1.0
  S  S103  1  0.30938000  0.94946000  0.64182000  1.0
  S  S104  1  0.59410000  0.41721000  0.79349000  1.0
  S  S105  1  0.90589000  0.91721000  0.20651000  1.0
  S  S106  1  0.40589000  0.58280000  0.20651000  1.0
  S  S107  1  0.09410000  0.08279000  0.79349000  1.0
  S  S108  1  0.80112000  0.28178000  0.63191000  1.0
  S  S109  1  0.69888000  0.78178000  0.36810000  1.0
  S  S110  1  0.19887000  0.71822000  0.36810000  1.0
  S  S111  1  0.30112000  0.21822000  0.63190000  1.0
  S  S112  1  0.05458000  0.41748000  0.79583000  1.0
  S  S113  1  0.44542000  0.91748000  0.20417000  1.0
  S  S114  1  0.94542000  0.58252000  0.20417000  1.0
  S  S115  1  0.55458000  0.08252000  0.79583000  1.0
  N  N116  1  0.26216000  0.53835000  0.66009000  1.0
  N  N117  1  0.23786000  0.03835000  0.33990000  1.0
  N  N118  1  0.73785000  0.46166000  0.33991000  1.0
  N  N119  1  0.76214000  0.96165000  0.66009000  1.0
  N  N120  1  0.39524000  0.63869000  0.58353000  1.0
  N  N121  1  0.10476000  0.13868000  0.41646000  1.0
  N  N122  1  0.60476000  0.36131000  0.41647000  1.0
  N  N123  1  0.89524000  0.86131000  0.58354000  1.0
  N  N124  1  0.79514000  0.85188000  0.90658000  1.0
  N  N125  1  0.70486000  0.35188000  0.09342000  1.0
  N  N126  1  0.20486000  0.14812000  0.09342000  1.0
  N  N127  1  0.29514000  0.64812000  0.90658000  1.0
  N  N128  1  0.67688000  0.79051000  0.00743000  1.0
  N  N129  1  0.82312000  0.29051000  0.99257000  1.0
  N  N130  1  0.32311000  0.20949000  0.99257000  1.0
  N  N131  1  0.17688000  0.70948000  0.00743000  1.0
