# generated using pymatgen
data_TlH(CO2)2
_symmetry_space_group_name_H-M   'P 1'
_cell_length_a   6.39273000
_cell_length_b   6.49539000
_cell_length_c   10.28580000
_cell_angle_alpha   89.99990000
_cell_angle_beta   94.06950000
_cell_angle_gamma   89.99980000
_symmetry_Int_Tables_number   1
_chemical_formula_structural   TlH(CO2)2
_chemical_formula_sum   'Tl4 H4 C8 O16'
_cell_volume   426.02325017
_cell_formula_units_Z   4
loop_
 _symmetry_equiv_pos_site_id
 _symmetry_equiv_pos_as_xyz
  1  'x, y, z'
loop_
 _atom_site_type_symbol
 _atom_site_label
 _atom_site_symmetry_multiplicity
 _atom_site_fract_x
 _atom_site_fract_y
 _atom_site_fract_z
 _atom_site_occupancy
  Tl  Tl0  1  0.54714000  0.46665000  0.79229000  1.0
  Tl  Tl1  1  0.95287000  0.96664000  0.20771000  1.0
  Tl  Tl2  1  0.45286000  0.53336000  0.20771000  1.0
  Tl  Tl3  1  0.04714000  0.03337000  0.79228000  1.0
  H  H4  1  0.93996000  0.44373000  0.29072000  1.0
  H  H5  1  0.56003000  0.94373000  0.70929000  1.0
  H  H6  1  0.06003000  0.55626000  0.70930000  1.0
  H  H7  1  0.43996000  0.05627000  0.29071000  1.0
  C  C8  1  0.91530000  0.41496000  0.48786000  1.0
  C  C9  1  0.58471000  0.91499000  0.51214000  1.0
  C  C10  1  0.08470000  0.58501000  0.51214000  1.0
  C  C11  1  0.41527000  0.08501000  0.48786000  1.0
  C  C12  1  0.05881000  0.54161000  0.94161000  1.0
  C  C13  1  0.44120000  0.04163000  0.05839000  1.0
  C  C14  1  0.94120000  0.45839000  0.05839000  1.0
  C  C15  1  0.55882000  0.95839000  0.94161000  1.0
  O  O16  1  0.86804000  0.36303000  0.36584000  1.0
  O  O17  1  0.63195000  0.86303000  0.63416000  1.0
  O  O18  1  0.13196000  0.63696000  0.63417000  1.0
  O  O19  1  0.36803000  0.13697000  0.36583000  1.0
  O  O20  1  0.83122000  0.33367000  0.57873000  1.0
  O  O21  1  0.66877000  0.83370000  0.42127000  1.0
  O  O22  1  0.16879000  0.66630000  0.42126000  1.0
  O  O23  1  0.33119000  0.16630000  0.57873000  1.0
  O  O24  1  0.98984000  0.47365000  0.82932000  1.0
  O  O25  1  0.51016000  0.97366000  0.17067000  1.0
  O  O26  1  0.01016000  0.52636000  0.17068000  1.0
  O  O27  1  0.48985000  0.02636000  0.82932000  1.0
  O  O28  1  0.20823000  0.66519000  0.96281000  1.0
  O  O29  1  0.29177000  0.16521000  0.03718000  1.0
  O  O30  1  0.79176000  0.33481000  0.03718000  1.0
  O  O31  1  0.70825000  0.83480000  0.96282000  1.0
