# generated using pymatgen
data_ZnH16C18N3O5
_symmetry_space_group_name_H-M   'P 1'
_cell_length_a   10.87060000
_cell_length_b   15.88450000
_cell_length_c   16.83450000
_cell_angle_alpha   87.48800000
_cell_angle_beta   89.73570000
_cell_angle_gamma   87.50760000
_symmetry_Int_Tables_number   1
_chemical_formula_structural   ZnH16C18N3O5
_chemical_formula_sum   'Zn2 H32 C36 N6 O10'
_cell_volume   2901.32995438
_cell_formula_units_Z   2
loop_
 _symmetry_equiv_pos_site_id
 _symmetry_equiv_pos_as_xyz
  1  'x, y, z'
loop_
 _atom_site_type_symbol
 _atom_site_label
 _atom_site_symmetry_multiplicity
 _atom_site_fract_x
 _atom_site_fract_y
 _atom_site_fract_z
 _atom_site_occupancy
  Zn  Zn0  1  0.51008000  0.59201000  0.50637000  1.0
  Zn  Zn1  1  0.52148000  0.41739000  0.49783000  1.0
  H  H2  1  0.90058000  0.62429000  0.44010000  1.0
  H  H3  1  0.89448000  0.53639000  0.38003000  1.0
  H  H4  1  0.41270000  0.38494000  0.27282000  1.0
  H  H5  1  0.69319000  0.72707000  0.49592000  1.0
  H  H6  1  0.69004000  0.88740000  0.49184000  1.0
  H  H7  1  0.69443000  0.13371000  0.39963000  1.0
  H  H8  1  0.67129000  0.29325000  0.40618000  1.0
  H  H9  1  0.31686000  0.72387000  0.52879000  1.0
  H  H10  1  0.39582000  0.11657000  0.56853000  1.0
  H  H11  1  0.29744000  0.88448000  0.52932000  1.0
  H  H12  1  0.38834000  0.27625000  0.57009000  1.0
  H  H13  1  0.13048000  0.38412000  0.55876000  1.0
  H  H14  1  0.10926000  0.52230000  0.37379000  1.0
  H  H15  1  0.11468000  0.61880000  0.42179000  1.0
  H  H16  1  0.89731000  0.60528000  0.59081000  1.0
  H  H17  1  0.10956000  0.61879000  0.57117000  1.0
  H  H18  1  0.91628000  0.37522000  0.55060000  1.0
  H  H19  1  0.92087000  0.38860000  0.44636000  1.0
  H  H20  1  0.13610000  0.38379000  0.45434000  1.0
  H  H21  1  0.30321000  0.72659000  0.70147000  1.0
  H  H22  1  0.45601000  0.68127000  0.71713000  1.0
  H  H23  1  0.35685000  0.70273000  0.80088000  1.0
  H  H24  1  0.92154000  0.50291000  0.63476000  1.0
  H  H25  1  0.15867000  0.31206000  0.10438000  1.0
  H  H26  1  0.24958000  0.35683000  0.02442000  1.0
  H  H27  1  0.15751000  0.42440000  0.08568000  1.0
  H  H28  1  0.13291000  0.52489000  0.62915000  1.0
  H  H29  1  0.29143000  0.58090000  0.88893000  1.0
  H  H30  1  0.39797000  0.64606000  0.10050000  1.0
  H  H31  1  0.46925000  0.65061000  0.24275000  1.0
  H  H32  1  0.53056000  0.35207000  0.75665000  1.0
  H  H33  1  0.49085000  0.34098000  0.90456000  1.0
  C  C34  1  0.50130000  0.51461000  0.34768000  1.0
  C  C35  1  0.44154000  0.59225000  0.21789000  1.0
  C  C36  1  0.34561000  0.53160000  0.85998000  1.0
  C  C37  1  0.75453000  0.50609000  0.50953000  1.0
  C  C38  1  0.36660000  0.53706000  0.77828000  1.0
  C  C39  1  0.39382000  0.46173000  0.90546000  1.0
  C  C40  1  0.43845000  0.47367000  0.74106000  1.0
  C  C41  1  0.47907000  0.40190000  0.78668000  1.0
  C  C42  1  0.45706000  0.39537000  0.86799000  1.0
  C  C43  1  0.45310000  0.24133000  0.53283000  1.0
  C  C44  1  0.45773000  0.15403000  0.53205000  1.0
  C  C45  1  0.13521000  0.50816000  0.50148000  1.0
  C  C46  1  0.54599000  0.11447000  0.48348000  1.0
  C  C47  1  0.62533000  0.16376000  0.43738000  1.0
  C  C48  1  0.61322000  0.25111000  0.44099000  1.0
  C  C49  1  0.47530000  0.48098000  0.65514000  1.0
  C  C50  1  0.60614000  0.85303000  0.50014000  1.0
  C  C51  1  0.60829000  0.76549000  0.50228000  1.0
  C  C52  1  0.49223000  0.89664000  0.50923000  1.0
  C  C53  1  0.39602000  0.76350000  0.52146000  1.0
  C  C54  1  0.38595000  0.85105000  0.52127000  1.0
  C  C55  1  0.27502000  0.51185000  0.49718000  1.0
  C  C56  1  0.08572000  0.55225000  0.57581000  1.0
  C  C57  1  0.93652000  0.55919000  0.43394000  1.0
  C  C58  1  0.07869000  0.55517000  0.42711000  1.0
  C  C59  1  0.94462000  0.54366000  0.58274000  1.0
  C  C60  1  0.95193000  0.41529000  0.50167000  1.0
  C  C61  1  0.89507000  0.50514000  0.50706000  1.0
  C  C62  1  0.36039000  0.68253000  0.73904000  1.0
  C  C63  1  0.21406000  0.36526000  0.08490000  1.0
  C  C64  1  0.09398000  0.41676000  0.50428000  1.0
  C  C65  1  0.45209000  0.51665000  0.26445000  1.0
  C  C66  1  0.41057000  0.44232000  0.23487000  1.0
  C  C67  1  0.36222000  0.44012000  0.15820000  1.0
  C  C68  1  0.36705000  0.51403000  0.10710000  1.0
  C  C69  1  0.39977000  0.59010000  0.14047000  1.0
  N  N70  1  0.35874000  0.52020000  0.02388000  1.0
  N  N71  1  0.38738000  0.45243000  0.98914000  1.0
  N  N72  1  0.52950000  0.28862000  0.48825000  1.0
  N  N73  1  0.56304000  0.02558000  0.47920000  1.0
  N  N74  1  0.47526000  0.98546000  0.50937000  1.0
  N  N75  1  0.50517000  0.72185000  0.51219000  1.0
  O  O76  1  0.49879000  0.58388000  0.38313000  1.0
  O  O77  1  0.31327000  0.36577000  0.14049000  1.0
  O  O78  1  0.53957000  0.44288000  0.37707000  1.0
  O  O79  1  0.69774000  0.57818000  0.50546000  1.0
  O  O80  1  0.70317000  0.43559000  0.51498000  1.0
  O  O81  1  0.50260000  0.55326000  0.62672000  1.0
  O  O82  1  0.48013000  0.41258000  0.61803000  1.0
  O  O83  1  0.32125000  0.58277000  0.50830000  1.0
  O  O84  1  0.33632000  0.44432000  0.48219000  1.0
  O  O85  1  0.30976000  0.60143000  0.73239000  1.0
