# generated using pymatgen
data_Ag3H10C10S2(NO4)3
_symmetry_space_group_name_H-M   'P 1'
_cell_length_a   5.22009000
_cell_length_b   11.92560000
_cell_length_c   14.22890000
_cell_angle_alpha   99.44740000
_cell_angle_beta   89.99990000
_cell_angle_gamma   89.99980000
_symmetry_Int_Tables_number   1
_chemical_formula_structural   Ag3H10C10S2(NO4)3
_chemical_formula_sum   'Ag6 H20 C20 S4 N6 O24'
_cell_volume   873.77332260
_cell_formula_units_Z   2
loop_
 _symmetry_equiv_pos_site_id
 _symmetry_equiv_pos_as_xyz
  1  'x, y, z'
loop_
 _atom_site_type_symbol
 _atom_site_label
 _atom_site_symmetry_multiplicity
 _atom_site_fract_x
 _atom_site_fract_y
 _atom_site_fract_z
 _atom_site_occupancy
  Ag  Ag0  1  0.91545000  0.00505000  0.50569000  1.0
  Ag  Ag1  1  0.08455000  0.50505000  0.00569000  1.0
  Ag  Ag2  1  0.24127000  0.23688000  0.58327000  1.0
  Ag  Ag3  1  0.75872000  0.73689000  0.08327000  1.0
  Ag  Ag4  1  0.80716000  0.41788000  0.65346000  1.0
  Ag  Ag5  1  0.19282000  0.91789000  0.15345000  1.0
  H  H6  1  0.33525000  0.51797000  0.65298000  1.0
  H  H7  1  0.66474000  0.01798000  0.15298000  1.0
  H  H8  1  0.28817000  0.45604000  0.74375000  1.0
  H  H9  1  0.71182000  0.95604000  0.24375000  1.0
  H  H10  1  0.22004000  0.19350000  0.16163000  1.0
  H  H11  1  0.77997000  0.69351000  0.66164000  1.0
  H  H12  1  0.28621000  0.23824000  0.00710000  1.0
  H  H13  1  0.71379000  0.73824000  0.50709000  1.0
  H  H14  1  0.48393000  0.41743000  0.29356000  1.0
  H  H15  1  0.51610000  0.91742000  0.79356000  1.0
  H  H16  1  0.64253000  0.43412000  0.13263000  1.0
  H  H17  1  0.35752000  0.93410000  0.63262000  1.0
  H  H18  1  0.08259000  0.17151000  0.31569000  1.0
  H  H19  1  0.91740000  0.67152000  0.81569000  1.0
  H  H20  1  0.01382000  0.02288000  0.85516000  1.0
  H  H21  1  0.98617000  0.52289000  0.35516000  1.0
  H  H22  1  0.88250000  0.99877000  0.01646000  1.0
  H  H23  1  0.11750000  0.49878000  0.51645000  1.0
  H  H24  1  0.39069000  0.26163000  0.85070000  1.0
  H  H25  1  0.60929000  0.76163000  0.35070000  1.0
  C  C26  1  0.77171000  0.29266000  0.31722000  1.0
  C  C27  1  0.22828000  0.79265000  0.81722000  1.0
  C  C28  1  0.64804000  0.36725000  0.26368000  1.0
  C  C29  1  0.35200000  0.86723000  0.76368000  1.0
  C  C30  1  0.73543000  0.37716000  0.17446000  1.0
  C  C31  1  0.26458000  0.87715000  0.67446000  1.0
  C  C32  1  0.95077000  0.31234000  0.13423000  1.0
  C  C33  1  0.04923000  0.81233000  0.63423000  1.0
  C  C34  1  0.97750000  0.22960000  0.27829000  1.0
  C  C35  1  0.02249000  0.72961000  0.77829000  1.0
  C  C36  1  0.71348000  0.14559000  0.84032000  1.0
  C  C37  1  0.28651000  0.64561000  0.34031000  1.0
  C  C38  1  0.85128000  0.07070000  0.88925000  1.0
  C  C39  1  0.14872000  0.57072000  0.38924000  1.0
  C  C40  1  0.77912000  0.05747000  0.97946000  1.0
  C  C41  1  0.22089000  0.55748000  0.47946000  1.0
  C  C42  1  0.56802000  0.11977000  0.02571000  1.0
  C  C43  1  0.43200000  0.61977000  0.52571000  1.0
  C  C44  1  0.50845000  0.20440000  0.88464000  1.0
  C  C45  1  0.49155000  0.70442000  0.38464000  1.0
  S  S46  1  0.68264000  0.28855000  0.43632000  1.0
  S  S47  1  0.31735000  0.78855000  0.93633000  1.0
  S  S48  1  0.79183000  0.15793000  0.72189000  1.0
  S  S49  1  0.20816000  0.65794000  0.22189000  1.0
  N  N50  1  0.06047000  0.24025000  0.18999000  1.0
  N  N51  1  0.93954000  0.74025000  0.68998000  1.0
  N  N52  1  0.44294000  0.19110000  0.97405000  1.0
  N  N53  1  0.55707000  0.69111000  0.47405000  1.0
  N  N54  1  0.42088000  0.98902000  0.38582000  1.0
  N  N55  1  0.57912000  0.48902000  0.88583000  1.0
  O  O56  1  0.84722000  0.20351000  0.46999000  1.0
  O  O57  1  0.15274000  0.70352000  0.97000000  1.0
  O  O58  1  0.73074000  0.40511000  0.48698000  1.0
  O  O59  1  0.26926000  0.90512000  0.98698000  1.0
  O  O60  1  0.40778000  0.25875000  0.43418000  1.0
  O  O61  1  0.59222000  0.75875000  0.93418000  1.0
  O  O62  1  0.04363000  0.31607000  0.05216000  1.0
  O  O63  1  0.95639000  0.81606000  0.55216000  1.0
  O  O64  1  0.73960000  0.04545000  0.66566000  1.0
  O  O65  1  0.26040000  0.54547000  0.16567000  1.0
  O  O66  1  0.06619000  0.18910000  0.72351000  1.0
  O  O67  1  0.93379000  0.68911000  0.22352000  1.0
  O  O68  1  0.62444000  0.24844000  0.69656000  1.0
  O  O69  1  0.37555000  0.74845000  0.19656000  1.0
  O  O70  1  0.49230000  0.11467000  0.11042000  1.0
  O  O71  1  0.50771000  0.61467000  0.61042000  1.0
  O  O72  1  0.36972000  0.99868000  0.47397000  1.0
  O  O73  1  0.63027000  0.49868000  0.97397000  1.0
  O  O74  1  0.65169000  0.96451000  0.35947000  1.0
  O  O75  1  0.34831000  0.46451000  0.85948000  1.0
  O  O76  1  0.25063000  0.00277000  0.32616000  1.0
  O  O77  1  0.74937000  0.50276000  0.82616000  1.0
  O  O78  1  0.24715000  0.45155000  0.67468000  1.0
  O  O79  1  0.75284000  0.95155000  0.17468000  1.0
