# generated using pymatgen
data_ZnH8(C3O4)2
_symmetry_space_group_name_H-M   'P 1'
_cell_length_a   7.25952000
_cell_length_b   8.28438000
_cell_length_c   14.93030000
_cell_angle_alpha   90.00050000
_cell_angle_beta   89.99510000
_cell_angle_gamma   89.99890000
_symmetry_Int_Tables_number   1
_chemical_formula_structural   ZnH8(C3O4)2
_chemical_formula_sum   'Zn4 H32 C24 O32'
_cell_volume   897.91752961
_cell_formula_units_Z   4
loop_
 _symmetry_equiv_pos_site_id
 _symmetry_equiv_pos_as_xyz
  1  'x, y, z'
loop_
 _atom_site_type_symbol
 _atom_site_label
 _atom_site_symmetry_multiplicity
 _atom_site_fract_x
 _atom_site_fract_y
 _atom_site_fract_z
 _atom_site_occupancy
  Zn  Zn0  1  0.24998000  0.66102000  0.80677000  1.0
  Zn  Zn1  1  0.74998000  0.83898000  0.30677000  1.0
  Zn  Zn2  1  0.25002000  0.16102000  0.69323000  1.0
  Zn  Zn3  1  0.75002000  0.33899000  0.19323000  1.0
  H  H4  1  0.25000000  0.71923000  0.47128000  1.0
  H  H5  1  0.75001000  0.78077000  0.97129000  1.0
  H  H6  1  0.25001000  0.21923000  0.02871000  1.0
  H  H7  1  0.75001000  0.28077000  0.52871000  1.0
  H  H8  1  0.25002000  0.52313000  0.32548000  1.0
  H  H9  1  0.75001000  0.97687000  0.82549000  1.0
  H  H10  1  0.24998000  0.02314000  0.17451000  1.0
  H  H11  1  0.74999000  0.47686000  0.67452000  1.0
  H  H12  1  0.89596000  0.71736000  0.77443000  1.0
  H  H13  1  0.10398000  0.78267000  0.27442000  1.0
  H  H14  1  0.60403000  0.21736000  0.72558000  1.0
  H  H15  1  0.39602000  0.28266000  0.22557000  1.0
  H  H16  1  0.10403000  0.28264000  0.22557000  1.0
  H  H17  1  0.89603000  0.21733000  0.72558000  1.0
  H  H18  1  0.39597000  0.78265000  0.27442000  1.0
  H  H19  1  0.60398000  0.71734000  0.77443000  1.0
  H  H20  1  0.90433000  0.58492000  0.85394000  1.0
  H  H21  1  0.09564000  0.91509000  0.35395000  1.0
  H  H22  1  0.59567000  0.08493000  0.64606000  1.0
  H  H23  1  0.40435000  0.41509000  0.14605000  1.0
  H  H24  1  0.09567000  0.41508000  0.14605000  1.0
  H  H25  1  0.90435000  0.08491000  0.64604000  1.0
  H  H26  1  0.40432000  0.91507000  0.35395000  1.0
  H  H27  1  0.59564000  0.58491000  0.85395000  1.0
  H  H28  1  0.24998000  0.50267000  0.96811000  1.0
  H  H29  1  0.74998000  0.99732000  0.46812000  1.0
  H  H30  1  0.25003000  0.00267000  0.53188000  1.0
  H  H31  1  0.75002000  0.49733000  0.03189000  1.0
  H  H32  1  0.24998000  0.36510000  0.88723000  1.0
  H  H33  1  0.74998000  0.13490000  0.38724000  1.0
  H  H34  1  0.25002000  0.86510000  0.61276000  1.0
  H  H35  1  0.75002000  0.63490000  0.11277000  1.0
  C  C36  1  0.24997000  0.52504000  0.64113000  1.0
  C  C37  1  0.74998000  0.97496000  0.14114000  1.0
  C  C38  1  0.25002000  0.02503000  0.85886000  1.0
  C  C39  1  0.75003000  0.47497000  0.35887000  1.0
  C  C40  1  0.24998000  0.48931000  0.54516000  1.0
  C  C41  1  0.74997000  0.01068000  0.04517000  1.0
  C  C42  1  0.25002000  0.98932000  0.95484000  1.0
  C  C43  1  0.75003000  0.51069000  0.45484000  1.0
  C  C44  1  0.25000000  0.58860000  0.47115000  1.0
  C  C45  1  0.74999000  0.91139000  0.97116000  1.0
  C  C46  1  0.25001000  0.08861000  0.02884000  1.0
  C  C47  1  0.75002000  0.41140000  0.52885000  1.0
  C  C48  1  0.25001000  0.48656000  0.39523000  1.0
  C  C49  1  0.75001000  0.01343000  0.89524000  1.0
  C  C50  1  0.25000000  0.98657000  0.10476000  1.0
  C  C51  1  0.75000000  0.51344000  0.60477000  1.0
  C  C52  1  0.24999000  0.33028000  0.42700000  1.0
  C  C53  1  0.74998000  0.16972000  0.92701000  1.0
  C  C54  1  0.25000000  0.83028000  0.07299000  1.0
  C  C55  1  0.75001000  0.66972000  0.57300000  1.0
  C  C56  1  0.24999000  0.17633000  0.37827000  1.0
  C  C57  1  0.74998000  0.32367000  0.87828000  1.0
  C  C58  1  0.25000000  0.67634000  0.12172000  1.0
  C  C59  1  0.75001000  0.82367000  0.62173000  1.0
  O  O60  1  0.24997000  0.67404000  0.66488000  1.0
  O  O61  1  0.74997000  0.82596000  0.16489000  1.0
  O  O62  1  0.25002000  0.17404000  0.83511000  1.0
  O  O63  1  0.75003000  0.32596000  0.33512000  1.0
  O  O64  1  0.24998000  0.41355000  0.69934000  1.0
  O  O65  1  0.74999000  0.08645000  0.19936000  1.0
  O  O66  1  0.25000000  0.91355000  0.80064000  1.0
  O  O67  1  0.75001000  0.58645000  0.30065000  1.0
  O  O68  1  0.24993000  0.04178000  0.42043000  1.0
  O  O69  1  0.74993000  0.45822000  0.92044000  1.0
  O  O70  1  0.25006000  0.54178000  0.07956000  1.0
  O  O71  1  0.75007000  0.95822000  0.57957000  1.0
  O  O72  1  0.25004000  0.18414000  0.29298000  1.0
  O  O73  1  0.75003000  0.31584000  0.79299000  1.0
  O  O74  1  0.24996000  0.68415000  0.20701000  1.0
  O  O75  1  0.74996000  0.81587000  0.70702000  1.0
  O  O76  1  0.24997000  0.33038000  0.51904000  1.0
  O  O77  1  0.74997000  0.16962000  0.01906000  1.0
  O  O78  1  0.25001000  0.83038000  0.98094000  1.0
  O  O79  1  0.75003000  0.66962000  0.48095000  1.0
  O  O80  1  0.97247000  0.67282000  0.82385000  1.0
  O  O81  1  0.02747000  0.82721000  0.32385000  1.0
  O  O82  1  0.52753000  0.17284000  0.67615000  1.0
  O  O83  1  0.47253000  0.32722000  0.17615000  1.0
  O  O84  1  0.02753000  0.32717000  0.17615000  1.0
  O  O85  1  0.97253000  0.17278000  0.67615000  1.0
  O  O86  1  0.47247000  0.82718000  0.32385000  1.0
  O  O87  1  0.52747000  0.67279000  0.82385000  1.0
  O  O88  1  0.24985000  0.48145000  0.90243000  1.0
  O  O89  1  0.74985000  0.01855000  0.40243000  1.0
  O  O90  1  0.25020000  0.98145000  0.59757000  1.0
  O  O91  1  0.75018000  0.51855000  0.09757000  1.0
