# generated using pymatgen
data_AgH4C5(NO2)2
_symmetry_space_group_name_H-M   'P 1'
_cell_length_a   7.99892000
_cell_length_b   8.52276000
_cell_length_c   11.32310000
_cell_angle_alpha   73.48150000
_cell_angle_beta   83.13350000
_cell_angle_gamma   70.46420000
_symmetry_Int_Tables_number   1
_chemical_formula_structural   AgH4C5(NO2)2
_chemical_formula_sum   'Ag4 H16 C20 N8 O16'
_cell_volume   697.20946081
_cell_formula_units_Z   4
loop_
 _symmetry_equiv_pos_site_id
 _symmetry_equiv_pos_as_xyz
  1  'x, y, z'
loop_
 _atom_site_type_symbol
 _atom_site_label
 _atom_site_symmetry_multiplicity
 _atom_site_fract_x
 _atom_site_fract_y
 _atom_site_fract_z
 _atom_site_occupancy
  Ag  Ag0  1  0.07425000  0.29043000  0.33385000  1.0
  Ag  Ag1  1  0.92575000  0.70957000  0.66615000  1.0
  Ag  Ag2  1  0.53447000  0.80911000  0.46571000  1.0
  Ag  Ag3  1  0.46553000  0.19089000  0.53429000  1.0
  H  H4  1  0.24579000  0.50959000  0.99356000  1.0
  H  H5  1  0.75422000  0.49040000  0.00644000  1.0
  H  H6  1  0.05870000  0.84545000  0.86846000  1.0
  H  H7  1  0.94131000  0.15455000  0.13154000  1.0
  H  H8  1  0.79768000  0.95455000  0.03534000  1.0
  H  H9  1  0.20232000  0.04545000  0.96466000  1.0
  H  H10  1  0.71457000  0.79030000  0.27540000  1.0
  H  H11  1  0.28543000  0.20970000  0.72460000  1.0
  H  H12  1  0.88832000  0.29012000  0.53800000  1.0
  H  H13  1  0.11168000  0.70988000  0.46200000  1.0
  H  H14  1  0.77199000  0.12285000  0.76827000  1.0
  H  H15  1  0.22800000  0.87715000  0.23174000  1.0
  H  H16  1  0.52233000  0.24706000  0.93882000  1.0
  H  H17  1  0.47767000  0.75294000  0.06118000  1.0
  H  H18  1  0.38286000  0.59682000  0.82502000  1.0
  H  H19  1  0.61714000  0.40319000  0.17498000  1.0
  C  C20  1  0.13265000  0.60786000  0.01886000  1.0
  C  C21  1  0.86736000  0.39213000  0.98114000  1.0
  C  C22  1  0.03636000  0.77374000  0.96149000  1.0
  C  C23  1  0.96365000  0.22626000  0.03851000  1.0
  C  C24  1  0.90036000  0.83042000  0.04699000  1.0
  C  C25  1  0.09965000  0.16958000  0.95301000  1.0
  C  C26  1  0.92205000  0.69481000  0.15222000  1.0
  C  C27  1  0.07795000  0.30519000  0.84778000  1.0
  C  C28  1  0.82547000  0.67631000  0.26562000  1.0
  C  C29  1  0.17453000  0.32369000  0.73438000  1.0
  C  C30  1  0.78070000  0.40646000  0.54709000  1.0
  C  C31  1  0.21930000  0.59354000  0.45291000  1.0
  C  C32  1  0.68237000  0.39296000  0.66057000  1.0
  C  C33  1  0.31763000  0.60704000  0.33943000  1.0
  C  C34  1  0.68559000  0.25386000  0.76129000  1.0
  C  C35  1  0.31441000  0.74614000  0.23871000  1.0
  C  C36  1  0.55688000  0.31825000  0.84858000  1.0
  C  C37  1  0.44311000  0.68175000  0.15142000  1.0
  C  C38  1  0.48332000  0.49183000  0.79641000  1.0
  C  C39  1  0.51668000  0.50817000  0.20359000  1.0
  N  N40  1  0.86199000  0.53516000  0.35548000  1.0
  N  N41  1  0.13800000  0.46484000  0.64452000  1.0
  N  N42  1  0.74920000  0.54785000  0.45752000  1.0
  N  N43  1  0.25080000  0.45215000  0.54248000  1.0
  N  N44  1  0.85061000  0.03039000  0.39522000  1.0
  N  N45  1  0.14939000  0.96961000  0.60478000  1.0
  N  N46  1  0.43521000  0.13053000  0.21921000  1.0
  N  N47  1  0.56479000  0.86947000  0.78079000  1.0
  O  O48  1  0.06538000  0.55788000  0.13450000  1.0
  O  O49  1  0.93462000  0.44211000  0.86550000  1.0
  O  O50  1  0.55760000  0.53916000  0.68291000  1.0
  O  O51  1  0.44240000  0.46084000  0.31709000  1.0
  O  O52  1  0.99791000  0.03473000  0.33903000  1.0
  O  O53  1  0.00209000  0.96527000  0.66097000  1.0
  O  O54  1  0.82444000  0.88613000  0.43790000  1.0
  O  O55  1  0.17556000  0.11387000  0.56210000  1.0
  O  O56  1  0.73561000  0.16926000  0.40760000  1.0
  O  O57  1  0.26439000  0.83074000  0.59240000  1.0
  O  O58  1  0.37467000  0.08815000  0.33236000  1.0
  O  O59  1  0.62533000  0.91185000  0.66764000  1.0
  O  O60  1  0.32730000  0.23625000  0.13960000  1.0
  O  O61  1  0.67270000  0.76375000  0.86040000  1.0
  O  O62  1  0.59602000  0.06601000  0.19407000  1.0
  O  O63  1  0.40398000  0.93399000  0.80593000  1.0
