# generated using pymatgen
data_LiH2C2O3
_symmetry_space_group_name_H-M   'P 1'
_cell_length_a   4.98877000
_cell_length_b   7.98009116
_cell_length_c   8.20806000
_cell_angle_alpha   88.99694289
_cell_angle_beta   72.32100000
_cell_angle_gamma   71.81785054
_symmetry_Int_Tables_number   1
_chemical_formula_structural   LiH2C2O3
_chemical_formula_sum   'Li4 H8 C8 O12'
_cell_volume   294.71282567
_cell_formula_units_Z   4
loop_
 _symmetry_equiv_pos_site_id
 _symmetry_equiv_pos_as_xyz
  1  'x, y, z'
loop_
 _atom_site_type_symbol
 _atom_site_label
 _atom_site_symmetry_multiplicity
 _atom_site_fract_x
 _atom_site_fract_y
 _atom_site_fract_z
 _atom_site_occupancy
  Li  Li0  1  0.53660000  0.07123000  0.41827000  1.0
  Li  Li1  1  0.02596000  0.92822000  0.58202000  1.0
  Li  Li2  1  0.88805000  0.58620000  0.94487000  1.0
  Li  Li3  1  0.41791000  0.41379000  0.05539000  1.0
  H  H4  1  0.76521000  0.89545000  0.11022000  1.0
  H  H5  1  0.76995000  0.10577000  0.88923000  1.0
  H  H6  1  0.27522000  0.39699000  0.37896000  1.0
  H  H7  1  0.05179000  0.60302000  0.62152000  1.0
  H  H8  1  0.78913000  0.31885000  0.49598000  1.0
  H  H9  1  0.60498000  0.68081000  0.50398000  1.0
  H  H10  1  0.32828000  0.81998000  0.98581000  1.0
  H  H11  1  0.13375000  0.17911000  0.01437000  1.0
  C  C12  1  0.81157000  0.44302000  0.26307000  1.0
  C  C13  1  0.51843000  0.55696000  0.73696000  1.0
  C  C14  1  0.62996000  0.41003000  0.44093000  1.0
  C  C15  1  0.48162000  0.58979000  0.55902000  1.0
  C  C16  1  0.17730000  0.95782000  0.23066000  1.0
  C  C17  1  0.36473000  0.04219000  0.76913000  1.0
  C  C18  1  0.39587000  0.91301000  0.04868000  1.0
  C  C19  1  0.35726000  0.08661000  0.95108000  1.0
  O  O20  1  0.70908000  0.45674000  0.13780000  1.0
  O  O21  1  0.30417000  0.54356000  0.86219000  1.0
  O  O22  1  0.06327000  0.45808000  0.25090000  1.0
  O  O23  1  0.77277000  0.54205000  0.74939000  1.0
  O  O24  1  0.41735000  0.32830000  0.43913000  1.0
  O  O25  1  0.18539000  0.67173000  0.56122000  1.0
  O  O26  1  0.26358000  0.98172000  0.35630000  1.0
  O  O27  1  0.60112000  0.01666000  0.64358000  1.0
  O  O28  1  0.90973000  0.97381000  0.24410000  1.0
  O  O29  1  0.12552000  0.02815000  0.75550000  1.0
  O  O30  1  0.69616000  0.82949000  0.03728000  1.0
  O  O31  1  0.56190000  0.17087000  0.96246000  1.0
