# generated using pymatgen
data_CdH14C14(NO4)2
_symmetry_space_group_name_H-M   'P 1'
_cell_length_a   10.00750000
_cell_length_b   10.01790000
_cell_length_c   11.05980000
_cell_angle_alpha   85.75640000
_cell_angle_beta   73.02030000
_cell_angle_gamma   65.61850000
_symmetry_Int_Tables_number   1
_chemical_formula_structural   CdH14C14(NO4)2
_chemical_formula_sum   'Cd2 H28 C28 N4 O16'
_cell_volume   964.50141352
_cell_formula_units_Z   2
loop_
 _symmetry_equiv_pos_site_id
 _symmetry_equiv_pos_as_xyz
  1  'x, y, z'
loop_
 _atom_site_type_symbol
 _atom_site_label
 _atom_site_symmetry_multiplicity
 _atom_site_fract_x
 _atom_site_fract_y
 _atom_site_fract_z
 _atom_site_occupancy
  Cd  Cd0  1  0.81444000  0.83516000  0.97245000  1.0
  Cd  Cd1  1  0.18555000  0.16485000  0.02755000  1.0
  H  H2  1  0.56887000  0.89358000  0.85480000  1.0
  H  H3  1  0.43113000  0.10642000  0.14519000  1.0
  H  H4  1  0.72826000  0.76902000  0.78289000  1.0
  H  H5  1  0.27173000  0.23098000  0.21710000  1.0
  H  H6  1  0.04025000  0.65538000  0.09167000  1.0
  H  H7  1  0.95975000  0.34463000  0.90833000  1.0
  H  H8  1  0.04657000  0.81074000  0.07910000  1.0
  H  H9  1  0.95342000  0.18927000  0.92089000  1.0
  H  H10  1  0.61938000  0.81341000  0.32454000  1.0
  H  H11  1  0.38063000  0.18659000  0.67547000  1.0
  H  H12  1  0.70651000  0.82650000  0.44057000  1.0
  H  H13  1  0.29350000  0.17350000  0.55942000  1.0
  H  H14  1  0.52622000  0.92157000  0.66316000  1.0
  H  H15  1  0.47379000  0.07843000  0.33685000  1.0
  H  H16  1  0.33046000  0.95737000  0.69282000  1.0
  H  H17  1  0.66956000  0.04262000  0.30717000  1.0
  H  H18  1  0.13325000  0.01409000  0.57796000  1.0
  H  H19  1  0.86675000  0.98591000  0.42204000  1.0
  H  H20  1  0.90463000  0.01486000  0.74817000  1.0
  H  H21  1  0.09536000  0.98514000  0.25183000  1.0
  H  H22  1  0.12431000  0.57180000  0.79770000  1.0
  H  H23  1  0.87569000  0.42819000  0.20230000  1.0
  H  H24  1  0.36313000  0.55011000  0.62751000  1.0
  H  H25  1  0.63687000  0.44988000  0.37250000  1.0
  H  H26  1  0.42221000  0.62268000  0.22368000  1.0
  H  H27  1  0.57778000  0.37732000  0.77633000  1.0
  H  H28  1  0.40252000  0.35791000  0.23170000  1.0
  H  H29  1  0.59748000  0.64209000  0.76829000  1.0
  C  C30  1  0.60245000  0.87683000  0.40858000  1.0
  C  C31  1  0.39756000  0.12317000  0.59143000  1.0
  C  C32  1  0.42958000  0.96369000  0.62204000  1.0
  C  C33  1  0.57042000  0.03630000  0.37797000  1.0
  C  C34  1  0.41364000  0.77389000  0.49624000  1.0
  C  C35  1  0.58639000  0.22608000  0.50376000  1.0
  C  C36  1  0.26968000  0.78296000  0.59437000  1.0
  C  C37  1  0.73033000  0.21703000  0.40563000  1.0
  C  C38  1  0.13681000  0.91351000  0.62477000  1.0
  C  C39  1  0.86319000  0.08648000  0.37522000  1.0
  C  C40  1  0.00890000  0.91482000  0.71876000  1.0
  C  C41  1  0.99110000  0.08518000  0.28123000  1.0
  C  C42  1  0.13237000  0.66698000  0.74680000  1.0
  C  C43  1  0.86763000  0.33302000  0.25320000  1.0
  C  C44  1  0.26463000  0.65563000  0.65260000  1.0
  C  C45  1  0.73537000  0.34436000  0.34740000  1.0
  C  C46  1  0.63817000  0.50598000  0.07731000  1.0
  C  C47  1  0.36182000  0.49403000  0.92270000  1.0
  C  C48  1  0.50195000  0.52350000  0.16613000  1.0
  C  C49  1  0.49803000  0.47651000  0.83388000  1.0
  C  C50  1  0.49323000  0.38523000  0.17061000  1.0
  C  C51  1  0.50676000  0.61479000  0.82939000  1.0
  C  C52  1  0.62452000  0.29107000  0.08418000  1.0
  C  C53  1  0.37546000  0.70895000  0.91582000  1.0
  C  C54  1  0.72042000  0.60085000  0.02919000  1.0
  C  C55  1  0.27957000  0.39916000  0.97081000  1.0
  C  C56  1  0.69294000  0.13567000  0.04252000  1.0
  C  C57  1  0.30706000  0.86434000  0.95748000  1.0
  N  N58  1  0.00851000  0.79492000  0.78215000  1.0
  N  N59  1  0.99148000  0.20508000  0.21784000  1.0
  N  N60  1  0.47129000  0.87233000  0.50828000  1.0
  N  N61  1  0.52871000  0.12766000  0.49172000  1.0
  O  O62  1  0.65861000  0.72950000  0.08252000  1.0
  O  O63  1  0.34138000  0.27051000  0.91748000  1.0
  O  O64  1  0.84508000  0.55079000  0.93969000  1.0
  O  O65  1  0.15492000  0.44921000  0.06032000  1.0
  O  O66  1  0.71205000  0.36510000  0.02714000  1.0
  O  O67  1  0.28794000  0.63491000  0.97286000  1.0
  O  O68  1  0.61554000  0.05821000  0.08223000  1.0
  O  O69  1  0.38446000  0.94180000  0.91777000  1.0
  O  O70  1  0.82942000  0.08168000  0.96949000  1.0
  O  O71  1  0.17057000  0.91833000  0.03051000  1.0
  O  O72  1  0.47265000  0.68006000  0.40700000  1.0
  O  O73  1  0.52738000  0.31992000  0.59301000  1.0
  O  O74  1  0.67984000  0.87206000  0.81168000  1.0
  O  O75  1  0.32016000  0.12794000  0.18832000  1.0
  O  O76  1  0.97433000  0.76247000  0.10429000  1.0
  O  O77  1  0.02567000  0.23753000  0.89571000  1.0
