# generated using pymatgen
data_CoH20C24(N2F)2
_symmetry_space_group_name_H-M   'P 1'
_cell_length_a   8.24187000
_cell_length_b   8.24193000
_cell_length_c   16.39920000
_cell_angle_alpha   90.01510000
_cell_angle_beta   89.96780000
_cell_angle_gamma   89.99750000
_symmetry_Int_Tables_number   1
_chemical_formula_structural   CoH20C24(N2F)2
_chemical_formula_sum   'Co2 H40 C48 N8 F4'
_cell_volume   1113.97965718
_cell_formula_units_Z   2
loop_
 _symmetry_equiv_pos_site_id
 _symmetry_equiv_pos_as_xyz
  1  'x, y, z'
loop_
 _atom_site_type_symbol
 _atom_site_label
 _atom_site_symmetry_multiplicity
 _atom_site_fract_x
 _atom_site_fract_y
 _atom_site_fract_z
 _atom_site_occupancy
  Co  Co0  1  0.50003000  0.50000000  0.75000000  1.0
  Co  Co1  1  0.50008000  0.50006000  0.25000000  1.0
  H  H2  1  0.30594000  0.57114000  0.90021000  1.0
  H  H3  1  0.69401000  0.42891000  0.90022000  1.0
  H  H4  1  0.42882000  0.30602000  0.09986000  1.0
  H  H5  1  0.57107000  0.69412000  0.09970000  1.0
  H  H6  1  0.69409000  0.57106000  0.40029000  1.0
  H  H7  1  0.30599000  0.42881000  0.40015000  1.0
  H  H8  1  0.57111000  0.30592000  0.59975000  1.0
  H  H9  1  0.42887000  0.69399000  0.59983000  1.0
  H  H10  1  0.14897000  0.41303000  0.00349000  1.0
  H  H11  1  0.85100000  0.58705000  0.00344000  1.0
  H  H12  1  0.58700000  0.14905000  0.99658000  1.0
  H  H13  1  0.41299000  0.85111000  0.99647000  1.0
  H  H14  1  0.85108000  0.41296000  0.50351000  1.0
  H  H15  1  0.14902000  0.58698000  0.50344000  1.0
  H  H16  1  0.41304000  0.14892000  0.49650000  1.0
  H  H17  1  0.58704000  0.85096000  0.49658000  1.0
  H  H18  1  0.29482000  0.97794000  0.87402000  1.0
  H  H19  1  0.70529000  0.02210000  0.87405000  1.0
  H  H20  1  0.02201000  0.29483000  0.12597000  1.0
  H  H21  1  0.97782000  0.70526000  0.12596000  1.0
  H  H22  1  0.70529000  0.97783000  0.37405000  1.0
  H  H23  1  0.29485000  0.02201000  0.37402000  1.0
  H  H24  1  0.97787000  0.29477000  0.62598000  1.0
  H  H25  1  0.02204000  0.70525000  0.62595000  1.0
  H  H26  1  0.45313000  0.15591000  0.78095000  1.0
  H  H27  1  0.54695000  0.84409000  0.78105000  1.0
  H  H28  1  0.84402000  0.45312000  0.21904000  1.0
  H  H29  1  0.15583000  0.54697000  0.21895000  1.0
  H  H30  1  0.54698000  0.15585000  0.28107000  1.0
  H  H31  1  0.45315000  0.84404000  0.28094000  1.0
  H  H32  1  0.15585000  0.45310000  0.71902000  1.0
  H  H33  1  0.84404000  0.54692000  0.71899000  1.0
  H  H34  1  0.13831000  0.10955000  0.06891000  1.0
  H  H35  1  0.86159000  0.89049000  0.06891000  1.0
  H  H36  1  0.89053000  0.13834000  0.93109000  1.0
  H  H37  1  0.10956000  0.86165000  0.93105000  1.0
  H  H38  1  0.86161000  0.10953000  0.56894000  1.0
  H  H39  1  0.13831000  0.89049000  0.56892000  1.0
  H  H40  1  0.10959000  0.13832000  0.43108000  1.0
  H  H41  1  0.89051000  0.86161000  0.43110000  1.0
  C  C42  1  0.30057000  0.43909000  0.89816000  1.0
  C  C43  1  0.69941000  0.56097000  0.89817000  1.0
  C  C44  1  0.56089000  0.30066000  0.10189000  1.0
  C  C45  1  0.43898000  0.69946000  0.10176000  1.0
  C  C46  1  0.69944000  0.43897000  0.39823000  1.0
  C  C47  1  0.30064000  0.56089000  0.39811000  1.0
  C  C48  1  0.43905000  0.30054000  0.60181000  1.0
  C  C49  1  0.56092000  0.69938000  0.60187000  1.0
  C  C50  1  0.21282000  0.34963000  0.95470000  1.0
  C  C51  1  0.78718000  0.65040000  0.95468000  1.0
  C  C52  1  0.65037000  0.21291000  0.04534000  1.0
  C  C53  1  0.34959000  0.78723000  0.04524000  1.0
  C  C54  1  0.78722000  0.34957000  0.45474000  1.0
  C  C55  1  0.21289000  0.65036000  0.45468000  1.0
  C  C56  1  0.34963000  0.21278000  0.54528000  1.0
  C  C57  1  0.65039000  0.78714000  0.54534000  1.0
  C  C58  1  0.20657000  0.17970000  0.94808000  1.0
  C  C59  1  0.79346000  0.82034000  0.94808000  1.0
  C  C60  1  0.82030000  0.20660000  0.05193000  1.0
  C  C61  1  0.17963000  0.79346000  0.05188000  1.0
  C  C62  1  0.79346000  0.17961000  0.44812000  1.0
  C  C63  1  0.20659000  0.82029000  0.44808000  1.0
  C  C64  1  0.17968000  0.20655000  0.55190000  1.0
  C  C65  1  0.82032000  0.79342000  0.55193000  1.0
  C  C66  1  0.29390000  0.10871000  0.88403000  1.0
  C  C67  1  0.70621000  0.89134000  0.88405000  1.0
  C  C68  1  0.89123000  0.29393000  0.11596000  1.0
  C  C69  1  0.10862000  0.70618000  0.11593000  1.0
  C  C70  1  0.70620000  0.10862000  0.38408000  1.0
  C  C71  1  0.29394000  0.89123000  0.38403000  1.0
  C  C72  1  0.10865000  0.29385000  0.61596000  1.0
  C  C73  1  0.89128000  0.70616000  0.61595000  1.0
  C  C74  1  0.38146000  0.20626000  0.83079000  1.0
  C  C75  1  0.61861000  0.79379000  0.83086000  1.0
  C  C76  1  0.79367000  0.38149000  0.16922000  1.0
  C  C77  1  0.20617000  0.61864000  0.16911000  1.0
  C  C78  1  0.61864000  0.20618000  0.33090000  1.0
  C  C79  1  0.38150000  0.79368000  0.33077000  1.0
  C  C80  1  0.20619000  0.38141000  0.66917000  1.0
  C  C81  1  0.79373000  0.61857000  0.66917000  1.0
  C  C82  1  0.10285000  0.08391000  0.00550000  1.0
  C  C83  1  0.89711000  0.91613000  0.00549000  1.0
  C  C84  1  0.91607000  0.10292000  0.99450000  1.0
  C  C85  1  0.08393000  0.89712000  0.99447000  1.0
  C  C86  1  0.89709000  0.08391000  0.50553000  1.0
  C  C87  1  0.10290000  0.91605000  0.50551000  1.0
  C  C88  1  0.08392000  0.10284000  0.49450000  1.0
  C  C89  1  0.91613000  0.89711000  0.49451000  1.0
  N  N90  1  0.38439000  0.36916000  0.83698000  1.0
  N  N91  1  0.61558000  0.63089000  0.83705000  1.0
  N  N92  1  0.63076000  0.38444000  0.16306000  1.0
  N  N93  1  0.36903000  0.61565000  0.16287000  1.0
  N  N94  1  0.61563000  0.36903000  0.33714000  1.0
  N  N95  1  0.38443000  0.63077000  0.33693000  1.0
  N  N96  1  0.36909000  0.38438000  0.66297000  1.0
  N  N97  1  0.63082000  0.61556000  0.66301000  1.0
  F  F98  1  0.66120000  0.33883000  0.74997000  1.0
  F  F99  1  0.33883000  0.66119000  0.75003000  1.0
  F  F100  1  0.66126000  0.66124000  0.24999000  1.0
  F  F101  1  0.33882000  0.33881000  0.25002000  1.0
