# generated using pymatgen
data_Nd2H15C12(NO4)3
_symmetry_space_group_name_H-M   'P 1'
_cell_length_a   11.81460000
_cell_length_b   19.25750000
_cell_length_c   19.26151814
_cell_angle_alpha   84.58806894
_cell_angle_beta   72.14212520
_cell_angle_gamma   72.12910000
_symmetry_Int_Tables_number   1
_chemical_formula_structural   Nd2H15C12(NO4)3
_chemical_formula_sum   'Nd16 H120 C96 N24 O96'
_cell_volume   3969.97136729
_cell_formula_units_Z   8
loop_
 _symmetry_equiv_pos_site_id
 _symmetry_equiv_pos_as_xyz
  1  'x, y, z'
loop_
 _atom_site_type_symbol
 _atom_site_label
 _atom_site_symmetry_multiplicity
 _atom_site_fract_x
 _atom_site_fract_y
 _atom_site_fract_z
 _atom_site_occupancy
  Nd  Nd0  1  0.63123000  0.20313000  0.36545000  1.0
  Nd  Nd1  1  0.19995000  0.29696000  0.13446000  1.0
  Nd  Nd2  1  0.33448000  0.36555000  0.29688000  1.0
  Nd  Nd3  1  0.99681000  0.13450000  0.20306000  1.0
  Nd  Nd4  1  0.36877000  0.79687000  0.63455000  1.0
  Nd  Nd5  1  0.80005000  0.70304000  0.86554000  1.0
  Nd  Nd6  1  0.66552000  0.63445000  0.70312000  1.0
  Nd  Nd7  1  0.00318000  0.86550000  0.79694000  1.0
  Nd  Nd8  1  0.53754000  0.02180000  0.39377000  1.0
  Nd  Nd9  1  0.95303000  0.47824000  0.10619000  1.0
  Nd  Nd10  1  0.05942000  0.39377000  0.47814000  1.0
  Nd  Nd11  1  0.93136000  0.10622000  0.02182000  1.0
  Nd  Nd12  1  0.46246000  0.97820000  0.60623000  1.0
  Nd  Nd13  1  0.04697000  0.52176000  0.89381000  1.0
  Nd  Nd14  1  0.94058000  0.60623000  0.52186000  1.0
  Nd  Nd15  1  0.06864000  0.89378000  0.97818000  1.0
  H  H16  1  0.58862000  0.21898000  0.56227000  1.0
  H  H17  1  0.37003000  0.28104000  0.93773000  1.0
  H  H18  1  0.30735000  0.56235000  0.28101000  1.0
  H  H19  1  0.15094000  0.93768000  0.21897000  1.0
  H  H20  1  0.41138000  0.78102000  0.43773000  1.0
  H  H21  1  0.62998000  0.71896000  0.06227000  1.0
  H  H22  1  0.69264000  0.43765000  0.71899000  1.0
  H  H23  1  0.84906000  0.06232000  0.78103000  1.0
  H  H24  1  0.71453000  0.14763000  0.57854000  1.0
  H  H25  1  0.44093000  0.35235000  0.92138000  1.0
  H  H26  1  0.36188000  0.57878000  0.35228000  1.0
  H  H27  1  0.29302000  0.92131000  0.14760000  1.0
  H  H28  1  0.28547000  0.85237000  0.42146000  1.0
  H  H29  1  0.55907000  0.64766000  0.07862000  1.0
  H  H30  1  0.63812000  0.42122000  0.64772000  1.0
  H  H31  1  0.70698000  0.07869000  0.85240000  1.0
  H  H32  1  0.85951000  0.08143000  0.45423000  1.0
  H  H33  1  0.39572000  0.41855000  0.04564000  1.0
  H  H34  1  0.44119000  0.45442000  0.41853000  1.0
  H  H35  1  0.31404000  0.04569000  0.08139000  1.0
  H  H36  1  0.14049000  0.91857000  0.54577000  1.0
  H  H37  1  0.60429000  0.58145000  0.95436000  1.0
  H  H38  1  0.55880000  0.54558000  0.58147000  1.0
  H  H39  1  0.68596000  0.95431000  0.91861000  1.0
  H  H40  1  0.92736000  0.14413000  0.47648000  1.0
  H  H41  1  0.54839000  0.35570000  0.02348000  1.0
  H  H42  1  0.57158000  0.47672000  0.35572000  1.0
  H  H43  1  0.40403000  0.02343000  0.14415000  1.0
  H  H44  1  0.07264000  0.85587000  0.52352000  1.0
  H  H45  1  0.45161000  0.64430000  0.97652000  1.0
  H  H46  1  0.42841000  0.52328000  0.64428000  1.0
  H  H47  1  0.59597000  0.97657000  0.85585000  1.0
  H  H48  1  0.81879000  0.94713000  0.21348000  1.0
  H  H49  1  0.97934000  0.55278000  0.28643000  1.0
  H  H50  1  0.26608000  0.21349000  0.55272000  1.0
  H  H51  1  0.03207000  0.28655000  0.94719000  1.0
  H  H52  1  0.18120000  0.05287000  0.78653000  1.0
  H  H53  1  0.02066000  0.44722000  0.71357000  1.0
  H  H54  1  0.73392000  0.78651000  0.44728000  1.0
  H  H55  1  0.96793000  0.71344000  0.05281000  1.0
  H  H56  1  0.91610000  0.90661000  0.26950000  1.0
  H  H57  1  0.09197000  0.59350000  0.23054000  1.0
  H  H58  1  0.32285000  0.26940000  0.59337000  1.0
  H  H59  1  0.18544000  0.23066000  0.90657000  1.0
  H  H60  1  0.08390000  0.09340000  0.73051000  1.0
  H  H61  1  0.90803000  0.40650000  0.76946000  1.0
  H  H62  1  0.67716000  0.73060000  0.40662000  1.0
  H  H63  1  0.81456000  0.76934000  0.09343000  1.0
  H  H64  1  0.62302000  0.84292000  0.31495000  1.0
  H  H65  1  0.78071000  0.65701000  0.18501000  1.0
  H  H66  1  0.96613000  0.31496000  0.65698000  1.0
  H  H67  1  0.93811000  0.18505000  0.84287000  1.0
  H  H68  1  0.37698000  0.15708000  0.68505000  1.0
  H  H69  1  0.21930000  0.34300000  0.81498000  1.0
  H  H70  1  0.03387000  0.68504000  0.34302000  1.0
  H  H71  1  0.06187000  0.81495000  0.15714000  1.0
  H  H72  1  0.74112000  0.84402000  0.23188000  1.0
  H  H73  1  0.81698000  0.65607000  0.26801000  1.0
  H  H74  1  0.08535000  0.23188000  0.65595000  1.0
  H  H75  1  0.97288000  0.26819000  0.84411000  1.0
  H  H76  1  0.25888000  0.15598000  0.76812000  1.0
  H  H77  1  0.18303000  0.34393000  0.73198000  1.0
  H  H78  1  0.91465000  0.76812000  0.34405000  1.0
  H  H79  1  0.02711000  0.73181000  0.15589000  1.0
  H  H80  1  0.21164000  0.15495000  0.32291000  1.0
  H  H81  1  0.68954000  0.34505000  0.17717000  1.0
  H  H82  1  0.86688000  0.32289000  0.34493000  1.0
  H  H83  1  0.53459000  0.17716000  0.15483000  1.0
  H  H84  1  0.78836000  0.84505000  0.67709000  1.0
  H  H85  1  0.31046000  0.65496000  0.82283000  1.0
  H  H86  1  0.13313000  0.67711000  0.65507000  1.0
  H  H87  1  0.46541000  0.82284000  0.84517000  1.0
  H  H88  1  0.35688000  0.09626000  0.27123000  1.0
  H  H89  1  0.72443000  0.40379000  0.22876000  1.0
  H  H90  1  0.95341000  0.27122000  0.40365000  1.0
  H  H91  1  0.62822000  0.22885000  0.09618000  1.0
  H  H92  1  0.64313000  0.90374000  0.72877000  1.0
  H  H93  1  0.27558000  0.59621000  0.77124000  1.0
  H  H94  1  0.04659000  0.72878000  0.59635000  1.0
  H  H95  1  0.37178000  0.77115000  0.90382000  1.0
  H  H96  1  0.12757000  0.07541000  0.45199000  1.0
  H  H97  1  0.65493000  0.42451000  0.04800000  1.0
  H  H98  1  0.70313000  0.45201000  0.42445000  1.0
  H  H99  1  0.57952000  0.04814000  0.07532000  1.0
  H  H100  1  0.87243000  0.92459000  0.54801000  1.0
  H  H101  1  0.34507000  0.57549000  0.95200000  1.0
  H  H102  1  0.29689000  0.54799000  0.57554000  1.0
  H  H103  1  0.42049000  0.95186000  0.92467000  1.0
  H  H104  1  0.18285000  0.14961000  0.45579000  1.0
  H  H105  1  0.78825000  0.35032000  0.04424000  1.0
  H  H106  1  0.83260000  0.45589000  0.35030000  1.0
  H  H107  1  0.63862000  0.04425000  0.14953000  1.0
  H  H108  1  0.81715000  0.85039000  0.54421000  1.0
  H  H109  1  0.21176000  0.64968000  0.95576000  1.0
  H  H110  1  0.16741000  0.54411000  0.64970000  1.0
  H  H111  1  0.36137000  0.95575000  0.85047000  1.0
  H  H112  1  0.74841000  0.24038000  0.47335000  1.0
  H  H113  1  0.46233000  0.25962000  0.02661000  1.0
  H  H114  1  0.48867000  0.47355000  0.25965000  1.0
  H  H115  1  0.22201000  0.02651000  0.24028000  1.0
  H  H116  1  0.25159000  0.75962000  0.52665000  1.0
  H  H117  1  0.53767000  0.74038000  0.97339000  1.0
  H  H118  1  0.51133000  0.52646000  0.74035000  1.0
  H  H119  1  0.77799000  0.97349000  0.75972000  1.0
  H  H120  1  0.75594000  0.88200000  0.35521000  1.0
  H  H121  1  0.99302000  0.61806000  0.14473000  1.0
  H  H122  1  0.13811000  0.35525000  0.61787000  1.0
  H  H123  1  0.11117000  0.14480000  0.88204000  1.0
  H  H124  1  0.24405000  0.11801000  0.64480000  1.0
  H  H125  1  0.00698000  0.38194000  0.85527000  1.0
  H  H126  1  0.86190000  0.64475000  0.38212000  1.0
  H  H127  1  0.88882000  0.85520000  0.11796000  1.0
  H  H128  1  0.30727000  0.02121000  0.36217000  1.0
  H  H129  1  0.69051000  0.47877000  0.13780000  1.0
  H  H130  1  0.82867000  0.36214000  0.47865000  1.0
  H  H131  1  0.66952000  0.13793000  0.02114000  1.0
  H  H132  1  0.69273000  0.97879000  0.63783000  1.0
  H  H133  1  0.30950000  0.52123000  0.86220000  1.0
  H  H134  1  0.17134000  0.63786000  0.52134000  1.0
  H  H135  1  0.33048000  0.86206000  0.97886000  1.0
  C  C136  1  0.59936000  0.11560000  0.52689000  1.0
  C  C137  1  0.24204000  0.38444000  0.97306000  1.0
  C  C138  1  0.21487000  0.52698000  0.38443000  1.0
  C  C139  1  0.12618000  0.97309000  0.11561000  1.0
  C  C140  1  0.40064000  0.88440000  0.47311000  1.0
  C  C141  1  0.75796000  0.61556000  0.02694000  1.0
  C  C142  1  0.78513000  0.47301000  0.61557000  1.0
  C  C143  1  0.87382000  0.02691000  0.88439000  1.0
  C  C144  1  0.66325000  0.16966000  0.53835000  1.0
  C  C145  1  0.37148000  0.33035000  0.96161000  1.0
  C  C146  1  0.33275000  0.53849000  0.33034000  1.0
  C  C147  1  0.20163000  0.96157000  0.16962000  1.0
  C  C148  1  0.33675000  0.83034000  0.46165000  1.0
  C  C149  1  0.62852000  0.66965000  0.03839000  1.0
  C  C150  1  0.66725000  0.46151000  0.66966000  1.0
  C  C151  1  0.79836000  0.03843000  0.83038000  1.0
  C  C152  1  0.86700000  0.13754000  0.44534000  1.0
  C  C153  1  0.45025000  0.36242000  0.05460000  1.0
  C  C154  1  0.50467000  0.44553000  0.36243000  1.0
  C  C155  1  0.31256000  0.05461000  0.13748000  1.0
  C  C156  1  0.13300000  0.86246000  0.55466000  1.0
  C  C157  1  0.54975000  0.63758000  0.94540000  1.0
  C  C158  1  0.49532000  0.55447000  0.63757000  1.0
  C  C159  1  0.68744000  0.94539000  0.86252000  1.0
  C  C160  1  0.92588000  0.14320000  0.36389000  1.0
  C  C161  1  0.43323000  0.35680000  0.13606000  1.0
  C  C162  1  0.56927000  0.36406000  0.35679000  1.0
  C  C163  1  0.28993000  0.13606000  0.14314000  1.0
  C  C164  1  0.07412000  0.85681000  0.63611000  1.0
  C  C165  1  0.56678000  0.64320000  0.86394000  1.0
  C  C166  1  0.43073000  0.63594000  0.64321000  1.0
  C  C167  1  0.71007000  0.86394000  0.85686000  1.0
  C  C168  1  0.82036000  0.01983000  0.28714000  1.0
  C  C169  1  0.12748000  0.48024000  0.21271000  1.0
  C  C170  1  0.34039000  0.28725000  0.48016000  1.0
  C  C171  1  0.10762000  0.21288000  0.01979000  1.0
  C  C172  1  0.17963000  0.98017000  0.71286000  1.0
  C  C173  1  0.87252000  0.51977000  0.78729000  1.0
  C  C174  1  0.65962000  0.71275000  0.51984000  1.0
  C  C175  1  0.89238000  0.78712000  0.98021000  1.0
  C  C176  1  0.82380000  0.94327000  0.27005000  1.0
  C  C177  1  0.03709000  0.55675000  0.22988000  1.0
  C  C178  1  0.26725000  0.27006000  0.55666000  1.0
  C  C179  1  0.09380000  0.23000000  0.94328000  1.0
  C  C180  1  0.17619000  0.05673000  0.72996000  1.0
  C  C181  1  0.96290000  0.44325000  0.77013000  1.0
  C  C182  1  0.73276000  0.72994000  0.44333000  1.0
  C  C183  1  0.90620000  0.77000000  0.05672000  1.0
  C  C184  1  0.67010000  0.87864000  0.27695000  1.0
  C  C185  1  0.82562000  0.62139000  0.22302000  1.0
  C  C186  1  0.04893000  0.27695000  0.62131000  1.0
  C  C187  1  0.94706000  0.22303000  0.87863000  1.0
  C  C188  1  0.32990000  0.12137000  0.72305000  1.0
  C  C189  1  0.17438000  0.37861000  0.77698000  1.0
  C  C190  1  0.95107000  0.72305000  0.37869000  1.0
  C  C191  1  0.05294000  0.77697000  0.12137000  1.0
  C  C192  1  0.57011000  0.93382000  0.24681000  1.0
  C  C193  1  0.75083000  0.56616000  0.25327000  1.0
  C  C194  1  0.00409000  0.24678000  0.56618000  1.0
  C  C195  1  0.81687000  0.25307000  0.93376000  1.0
  C  C196  1  0.42989000  0.06618000  0.75319000  1.0
  C  C197  1  0.24917000  0.43384000  0.74673000  1.0
  C  C198  1  0.99591000  0.75322000  0.43382000  1.0
  C  C199  1  0.18313000  0.74693000  0.06625000  1.0
  C  C200  1  0.37762000  0.17609000  0.32879000  1.0
  C  C201  1  0.88255000  0.32396000  0.17121000  1.0
  C  C202  1  0.05393000  0.32883000  0.32385000  1.0
  C  C203  1  0.70641000  0.17123000  0.17604000  1.0
  C  C204  1  0.62238000  0.82391000  0.67121000  1.0
  C  C205  1  0.11745000  0.67604000  0.82879000  1.0
  C  C206  1  0.94607000  0.67117000  0.67615000  1.0
  C  C207  1  0.29359000  0.82877000  0.82396000  1.0
  C  C208  1  0.30621000  0.12418000  0.32399000  1.0
  C  C209  1  0.75440000  0.37585000  0.17602000  1.0
  C  C210  1  0.93063000  0.32399000  0.37571000  1.0
  C  C211  1  0.63026000  0.17606000  0.12410000  1.0
  C  C212  1  0.69379000  0.87582000  0.67601000  1.0
  C  C213  1  0.24560000  0.62415000  0.82398000  1.0
  C  C214  1  0.06938000  0.67600000  0.62428000  1.0
  C  C215  1  0.36974000  0.82393000  0.87590000  1.0
  C  C216  1  0.21144000  0.08978000  0.45013000  1.0
  C  C217  1  0.75132000  0.41016000  0.04986000  1.0
  C  C218  1  0.80134000  0.45017000  0.41011000  1.0
  C  C219  1  0.66155000  0.04992000  0.08971000  1.0
  C  C220  1  0.78856000  0.91022000  0.54987000  1.0
  C  C221  1  0.24869000  0.58984000  0.95014000  1.0
  C  C222  1  0.19866000  0.54983000  0.58989000  1.0
  C  C223  1  0.33845000  0.95007000  0.91029000  1.0
  C  C224  1  0.25348000  0.05759000  0.51677000  1.0
  C  C225  1  0.82777000  0.44235000  0.98321000  1.0
  C  C226  1  0.81110000  0.51679000  0.44239000  1.0
  C  C227  1  0.77016000  0.98327000  0.05753000  1.0
  C  C228  1  0.74653000  0.94241000  0.48322000  1.0
  C  C229  1  0.17224000  0.55765000  0.01679000  1.0
  C  C230  1  0.18890000  0.48321000  0.55761000  1.0
  C  C231  1  0.22983000  0.01673000  0.94247000  1.0
  N  N232  1  0.74132000  0.18954000  0.46881000  1.0
  N  N233  1  0.39991000  0.31048000  0.03115000  1.0
  N  N234  1  0.43083000  0.46896000  0.31049000  1.0
  N  N235  1  0.21031000  0.03110000  0.18946000  1.0
  N  N236  1  0.25868000  0.81045000  0.53119000  1.0
  N  N237  1  0.60009000  0.68953000  0.96885000  1.0
  N  N238  1  0.56917000  0.53104000  0.68951000  1.0
  N  N239  1  0.78969000  0.96890000  0.81054000  1.0
  N  N240  1  0.72320000  0.91552000  0.31699000  1.0
  N  N241  1  0.95562000  0.58452000  0.18294000  1.0
  N  N242  1  0.13888000  0.31701000  0.58440000  1.0
  N  N243  1  0.04019000  0.18301000  0.91555000  1.0
  N  N244  1  0.27681000  0.08448000  0.68301000  1.0
  N  N245  1  0.04439000  0.41549000  0.81706000  1.0
  N  N246  1  0.86112000  0.68299000  0.41560000  1.0
  N  N247  1  0.95980000  0.81699000  0.08445000  1.0
  N  N248  1  0.31014000  0.06823000  0.38102000  1.0
  N  N249  1  0.75931000  0.43176000  0.11897000  1.0
  N  N250  1  0.87853000  0.38102000  0.43164000  1.0
  N  N251  1  0.69120000  0.11905000  0.06817000  1.0
  N  N252  1  0.68985000  0.93177000  0.61899000  1.0
  N  N253  1  0.24069000  0.56824000  0.88103000  1.0
  N  N254  1  0.12147000  0.61898000  0.56836000  1.0
  N  N255  1  0.30880000  0.88095000  0.93183000  1.0
  O  O256  1  0.59599000  0.10892000  0.46204000  1.0
  O  O257  1  0.16712000  0.39115000  0.03790000  1.0
  O  O258  1  0.20476000  0.46214000  0.39103000  1.0
  O  O259  1  0.05801000  0.03798000  0.10891000  1.0
  O  O260  1  0.40400000  0.89108000  0.53797000  1.0
  O  O261  1  0.83289000  0.60885000  0.96210000  1.0
  O  O262  1  0.79524000  0.53786000  0.60897000  1.0
  O  O263  1  0.94198000  0.96202000  0.89109000  1.0
  O  O264  1  0.55276000  0.08173000  0.58209000  1.0
  O  O265  1  0.21680000  0.41829000  0.91783000  1.0
  O  O266  1  0.13447000  0.58216000  0.41841000  1.0
  O  O267  1  0.13464000  0.91790000  0.08177000  1.0
  O  O268  1  0.44725000  0.91827000  0.41791000  1.0
  O  O269  1  0.78320000  0.58171000  0.08217000  1.0
  O  O270  1  0.86553000  0.41784000  0.58158000  1.0
  O  O271  1  0.86536000  0.08210000  0.91823000  1.0
  O  O272  1  0.85273000  0.17929000  0.32596000  1.0
  O  O273  1  0.35818000  0.32077000  0.17398000  1.0
  O  O274  1  0.53229000  0.32611000  0.32069000  1.0
  O  O275  1  0.17888000  0.17399000  0.17920000  1.0
  O  O276  1  0.14726000  0.82072000  0.67405000  1.0
  O  O277  1  0.64183000  0.67923000  0.82601000  1.0
  O  O278  1  0.46771000  0.67389000  0.67931000  1.0
  O  O279  1  0.82111000  0.82601000  0.82080000  1.0
  O  O280  1  0.03862000  0.11249000  0.33314000  1.0
  O  O281  1  0.48449000  0.38749000  0.16682000  1.0
  O  O282  1  0.65130000  0.33333333  0.38750000  1.0
  O  O283  1  0.37188000  0.16685000  0.11245000  1.0
  O  O284  1  0.96138000  0.88751000  0.66686000  1.0
  O  O285  1  0.51551000  0.61251000  0.83318000  1.0
  O  O286  1  0.34870000  0.66672000  0.61250000  1.0
  O  O287  1  0.62812000  0.83315000  0.88755000  1.0
  O  O288  1  0.71659000  0.06510000  0.32030000  1.0
  O  O289  1  0.10217000  0.43498000  0.17951000  1.0
  O  O290  1  0.28188000  0.32038000  0.43487000  1.0
  O  O291  1  0.03708000  0.17967000  0.06507000  1.0
  O  O292  1  0.28341000  0.93490000  0.67970000  1.0
  O  O293  1  0.89783000  0.56502000  0.82049000  1.0
  O  O294  1  0.71813000  0.67962000  0.56513000  1.0
  O  O295  1  0.96292000  0.82033000  0.93493000  1.0
  O  O296  1  0.92222000  0.03459000  0.26226000  1.0
  O  O297  1  0.21921000  0.46548000  0.23760000  1.0
  O  O298  1  0.45702000  0.26242000  0.46543000  1.0
  O  O299  1  0.18456000  0.23780000  0.03452000  1.0
  O  O300  1  0.07777000  0.96541000  0.73775000  1.0
  O  O301  1  0.78079000  0.53452000  0.76240000  1.0
  O  O302  1  0.54298000  0.73758000  0.53457000  1.0
  O  O303  1  0.81544000  0.76220000  0.96548000  1.0
  O  O304  1  0.53279000  0.99938000  0.27326000  1.0
  O  O305  1  0.80548000  0.50063000  0.22673000  1.0
  O  O306  1  0.03234000  0.27322000  0.50061000  1.0
  O  O307  1  0.80614000  0.22675000  0.99936000  1.0
  O  O308  1  0.46721000  0.00062000  0.72674000  1.0
  O  O309  1  0.19453000  0.49937000  0.77327000  1.0
  O  O310  1  0.96766000  0.72678000  0.49939000  1.0
  O  O311  1  0.19386000  0.77325000  0.00064000  1.0
  O  O312  1  0.53157000  0.91266000  0.20205000  1.0
  O  O313  1  0.64652000  0.58726000  0.29821000  1.0
  O  O314  1  0.94437000  0.20205000  0.58739000  1.0
  O  O315  1  0.73343000  0.29761000  0.91251000  1.0
  O  O316  1  0.46843000  0.08734000  0.79795000  1.0
  O  O317  1  0.35348000  0.41274000  0.70179000  1.0
  O  O318  1  0.05563000  0.79796000  0.41261000  1.0
  O  O319  1  0.26656000  0.70239000  0.08749000  1.0
  O  O320  1  0.46263000  0.15264000  0.36132000  1.0
  O  O321  1  0.97661000  0.34744000  0.13871000  1.0
  O  O322  1  0.11548000  0.36131000  0.34736000  1.0
  O  O323  1  0.82396000  0.13874000  0.15261000  1.0
  O  O324  1  0.53736000  0.84736000  0.63869000  1.0
  O  O325  1  0.02339000  0.65256000  0.86129000  1.0
  O  O326  1  0.88452000  0.63869000  0.65264000  1.0
  O  O327  1  0.17604000  0.86126000  0.84739000  1.0
  O  O328  1  0.35433000  0.23734000  0.29887000  1.0
  O  O329  1  0.89065000  0.26270000  0.20108000  1.0
  O  O330  1  0.09191000  0.29897000  0.26262000  1.0
  O  O331  1  0.65313000  0.20112000  0.23726000  1.0
  O  O332  1  0.64568000  0.76266000  0.70113000  1.0
  O  O333  1  0.10935000  0.73730000  0.79892000  1.0
  O  O334  1  0.90810000  0.70103000  0.73738000  1.0
  O  O335  1  0.34687000  0.79888000  0.76274000  1.0
  O  O336  1  0.37027000  0.05055000  0.51130000  1.0
  O  O337  1  0.93204000  0.44941000  0.98868000  1.0
  O  O338  1  0.92088000  0.51133000  0.44939000  1.0
  O  O339  1  0.88150000  0.98869000  0.05053000  1.0
  O  O340  1  0.62973000  0.94945000  0.48870000  1.0
  O  O341  1  0.06796000  0.55059000  0.01132000  1.0
  O  O342  1  0.07912000  0.48867000  0.55061000  1.0
  O  O343  1  0.11849000  0.01131000  0.94947000  1.0
  O  O344  1  0.17855000  0.04199000  0.57212000  1.0
  O  O345  1  0.79255000  0.45791000  0.92788000  1.0
  O  O346  1  0.72050000  0.57208000  0.45810000  1.0
  O  O347  1  0.75053000  0.92796000  0.04188000  1.0
  O  O348  1  0.82145000  0.95800000  0.42788000  1.0
  O  O349  1  0.20745000  0.54209000  0.07212000  1.0
  O  O350  1  0.27950000  0.42792000  0.54190000  1.0
  O  O351  1  0.24947000  0.07204000  0.95812000  1.0
