# generated using pymatgen
data_GdFe2H25C36(NO4)2
_symmetry_space_group_name_H-M   'P 1'
_cell_length_a   11.47600000
_cell_length_b   11.96830000
_cell_length_c   13.61010000
_cell_angle_alpha   94.90320000
_cell_angle_beta   109.04100000
_cell_angle_gamma   117.20300000
_symmetry_Int_Tables_number   1
_chemical_formula_structural   GdFe2H25C36(NO4)2
_chemical_formula_sum   'Gd2 Fe4 H50 C72 N4 O16'
_cell_volume   1509.16173421
_cell_formula_units_Z   2
loop_
 _symmetry_equiv_pos_site_id
 _symmetry_equiv_pos_as_xyz
  1  'x, y, z'
loop_
 _atom_site_type_symbol
 _atom_site_label
 _atom_site_symmetry_multiplicity
 _atom_site_fract_x
 _atom_site_fract_y
 _atom_site_fract_z
 _atom_site_occupancy
  Gd  Gd0  1  0.79869000  0.35964000  0.38158000  1.0
  Gd  Gd1  1  0.20131000  0.64036000  0.61842000  1.0
  Fe  Fe2  1  0.85101000  0.76302000  0.25027000  1.0
  Fe  Fe3  1  0.14899000  0.23698000  0.74973000  1.0
  Fe  Fe4  1  0.77306000  0.65284000  0.74979000  1.0
  Fe  Fe5  1  0.22694000  0.34716000  0.25021000  1.0
  H  H6  1  0.52418000  0.32339000  0.11586000  1.0
  H  H7  1  0.47583000  0.67661000  0.88413000  1.0
  H  H8  1  0.07880000  0.97306000  0.42973000  1.0
  H  H9  1  0.92120000  0.02694000  0.57027000  1.0
  H  H10  1  0.85003000  0.99436000  0.31719000  1.0
  H  H11  1  0.14997000  0.00564000  0.68281000  1.0
  H  H12  1  0.60851000  0.76024000  0.26405000  1.0
  H  H13  1  0.39148000  0.23976000  0.73595000  1.0
  H  H14  1  0.68724000  0.59254000  0.34437000  1.0
  H  H15  1  0.31276000  0.40746000  0.65563000  1.0
  H  H16  1  0.02515000  0.66303000  0.23923000  1.0
  H  H17  1  0.97485000  0.33697000  0.76077000  1.0
  H  H18  1  0.08964000  0.90080000  0.20029000  1.0
  H  H19  1  0.91036000  0.09920000  0.79971000  1.0
  H  H20  1  0.83858000  0.88294000  0.07998000  1.0
  H  H21  1  0.16141000  0.11706000  0.92003000  1.0
  H  H22  1  0.62113000  0.63742000  0.04356000  1.0
  H  H23  1  0.37886000  0.36258000  0.95644000  1.0
  H  H24  1  0.01804000  0.64067000  0.86931000  1.0
  H  H25  1  0.98196000  0.35933000  0.13069000  1.0
  H  H26  1  0.83765000  0.62534000  0.96239000  1.0
  H  H27  1  0.16235000  0.37466000  0.03761000  1.0
  H  H28  1  0.56536000  0.47460000  0.81096000  1.0
  H  H29  1  0.43465000  0.52540000  0.18904000  1.0
  H  H30  1  0.57549000  0.39512000  0.62256000  1.0
  H  H31  1  0.42451000  0.60488000  0.37744000  1.0
  H  H32  1  0.57060000  0.63228000  0.55603000  1.0
  H  H33  1  0.42940000  0.36772000  0.44397000  1.0
  H  H34  1  0.84834000  0.73693000  0.58156000  1.0
  H  H35  1  0.15166000  0.26307000  0.41844000  1.0
  H  H36  1  0.02028000  0.89378000  0.78529000  1.0
  H  H37  1  0.97972000  0.10622000  0.21471000  1.0
  H  H38  1  0.84925000  0.88528000  0.88812000  1.0
  H  H39  1  0.15075000  0.11472000  0.11188000  1.0
  H  H40  1  0.56844000  0.24628000  0.50924000  1.0
  H  H41  1  0.43156000  0.75372000  0.49076000  1.0
  H  H42  1  0.34110000  0.05463000  0.50085000  1.0
  H  H43  1  0.65890000  0.94537000  0.49915000  1.0
  H  H44  1  0.22695000  0.84274000  0.36381000  1.0
  H  H45  1  0.77306000  0.15726000  0.63620000  1.0
  H  H46  1  0.52994000  0.82792000  0.01086000  1.0
  H  H47  1  0.47006000  0.17208000  0.98914000  1.0
  H  H48  1  0.74350000  0.03599000  0.02684000  1.0
  H  H49  1  0.25650000  0.96401000  0.97316000  1.0
  H  H50  1  0.83962000  0.23707000  0.17550000  1.0
  H  H51  1  0.16038000  0.76293000  0.82451000  1.0
  H  H52  1  0.22857000  0.71519000  0.20491000  1.0
  H  H53  1  0.77143000  0.28481000  0.79509000  1.0
  H  H54  1  0.34008000  0.71026000  0.07837000  1.0
  H  H55  1  0.65992000  0.28974000  0.92163000  1.0
  C  C56  1  0.99775000  0.70762000  0.46153000  1.0
  C  C57  1  0.00225000  0.29239000  0.53847000  1.0
  C  C58  1  0.91295000  0.76546000  0.40826000  1.0
  C  C59  1  0.08705000  0.23454000  0.59174000  1.0
  C  C60  1  0.96650000  0.89678000  0.39826000  1.0
  C  C61  1  0.03350000  0.10322000  0.60174000  1.0
  C  C62  1  0.84575000  0.90748000  0.33825000  1.0
  C  C63  1  0.15426000  0.09252000  0.66175000  1.0
  C  C64  1  0.71750000  0.78357000  0.31108000  1.0
  C  C65  1  0.28250000  0.21643000  0.68892000  1.0
  C  C66  1  0.75804000  0.69524000  0.35309000  1.0
  C  C67  1  0.24196000  0.30476000  0.64691000  1.0
  C  C68  1  0.71946000  0.47137000  0.14946000  1.0
  C  C69  1  0.28054000  0.52863000  0.85054000  1.0
  C  C70  1  0.79750000  0.60402000  0.13980000  1.0
  C  C71  1  0.20250000  0.39598000  0.86020000  1.0
  C  C72  1  0.95119000  0.69025000  0.19152000  1.0
  C  C73  1  0.04881000  0.30975000  0.80848000  1.0
  C  C74  1  0.98361000  0.81374000  0.17056000  1.0
  C  C75  1  0.01639000  0.18626000  0.82944000  1.0
  C  C76  1  0.85053000  0.80471000  0.10729000  1.0
  C  C77  1  0.14947000  0.19529000  0.89272000  1.0
  C  C78  1  0.73511000  0.67581000  0.08828000  1.0
  C  C79  1  0.26488000  0.32419000  0.91172000  1.0
  C  C80  1  0.87552000  0.50840000  0.63587000  1.0
  C  C81  1  0.12449000  0.49160000  0.36414000  1.0
  C  C82  1  0.81638000  0.51180000  0.71774000  1.0
  C  C83  1  0.18363000  0.48819000  0.28226000  1.0
  C  C84  1  0.90157000  0.58713000  0.82982000  1.0
  C  C85  1  0.09844000  0.41287000  0.17018000  1.0
  C  C86  1  0.80624000  0.57708000  0.87928000  1.0
  C  C87  1  0.19376000  0.42292000  0.12072000  1.0
  C  C88  1  0.66167000  0.49607000  0.79884000  1.0
  C  C89  1  0.33833000  0.50393000  0.20116000  1.0
  C  C90  1  0.66713000  0.45472000  0.69939000  1.0
  C  C91  1  0.33287000  0.54528000  0.30061000  1.0
  C  C92  1  0.54146000  0.71346000  0.75492000  1.0
  C  C93  1  0.45854000  0.28654000  0.24508000  1.0
  C  C94  1  0.66685000  0.75114000  0.72851000  1.0
  C  C95  1  0.33315000  0.24886000  0.27149000  1.0
  C  C96  1  0.66621000  0.70209000  0.62774000  1.0
  C  C97  1  0.33378000  0.29792000  0.37226000  1.0
  C  C98  1  0.81225000  0.75777000  0.64143000  1.0
  C  C99  1  0.18775000  0.24223000  0.35857000  1.0
  C  C100  1  0.90365000  0.84013000  0.75019000  1.0
  C  C101  1  0.09635000  0.15987000  0.24981000  1.0
  C  C102  1  0.81471000  0.83629000  0.80442000  1.0
  C  C103  1  0.18529000  0.16371000  0.19558000  1.0
  C  C104  1  0.51129000  0.15320000  0.44765000  1.0
  C  C105  1  0.48872000  0.84680000  0.55235000  1.0
  C  C106  1  0.38495000  0.04577000  0.44265000  1.0
  C  C107  1  0.61505000  0.95423000  0.55735000  1.0
  C  C108  1  0.32148000  0.92868000  0.36608000  1.0
  C  C109  1  0.67852000  0.07132000  0.63392000  1.0
  C  C110  1  0.38218000  0.92073000  0.29230000  1.0
  C  C111  1  0.61782000  0.07927000  0.70770000  1.0
  C  C112  1  0.50794000  0.03593000  0.30190000  1.0
  C  C113  1  0.49206000  0.96407000  0.69810000  1.0
  C  C114  1  0.57115000  0.03364000  0.22635000  1.0
  C  C115  1  0.42885000  0.96636000  0.77365000  1.0
  C  C116  1  0.50955000  0.91507000  0.14598000  1.0
  C  C117  1  0.49045000  0.08493000  0.85402000  1.0
  C  C118  1  0.57454000  0.91660000  0.07376000  1.0
  C  C119  1  0.42546000  0.08340000  0.92624000  1.0
  C  C120  1  0.69290000  0.03159000  0.08279000  1.0
  C  C121  1  0.30711000  0.96841000  0.91721000  1.0
  C  C122  1  0.74576000  0.14436000  0.16417000  1.0
  C  C123  1  0.25424000  0.85564000  0.83583000  1.0
  C  C124  1  0.32323000  0.80333000  0.21014000  1.0
  C  C125  1  0.67677000  0.19667000  0.78986000  1.0
  C  C126  1  0.38480000  0.80039000  0.14006000  1.0
  C  C127  1  0.61520000  0.19961000  0.85994000  1.0
  N  N128  1  0.57162000  0.14933000  0.37979000  1.0
  N  N129  1  0.42838000  0.85067000  0.62021000  1.0
  N  N130  1  0.68739000  0.14609000  0.23398000  1.0
  N  N131  1  0.31262000  0.85390000  0.76602000  1.0
  O  O132  1  0.93512000  0.58298000  0.43895000  1.0
  O  O133  1  0.06488000  0.41702000  0.56105000  1.0
  O  O134  1  0.12761000  0.78181000  0.52976000  1.0
  O  O135  1  0.87239000  0.21819000  0.47024000  1.0
  O  O136  1  0.78108000  0.42570000  0.21171000  1.0
  O  O137  1  0.21892000  0.57431000  0.78829000  1.0
  O  O138  1  0.58069000  0.40597000  0.08708000  1.0
  O  O139  1  0.41931000  0.59403000  0.91292000  1.0
  O  O140  1  0.79328000  0.41397000  0.54899000  1.0
  O  O141  1  0.20672000  0.58603000  0.45100000  1.0
  O  O142  1  0.00292000  0.59964000  0.65883000  1.0
  O  O143  1  0.99708000  0.40036000  0.34117000  1.0
  O  O144  1  0.41582000  0.62910000  0.68335000  1.0
  O  O145  1  0.58418000  0.37090000  0.31665000  1.0
  O  O146  1  0.56782000  0.76909000  0.85080000  1.0
  O  O147  1  0.43218000  0.23091000  0.14920000  1.0
