# generated using pymatgen
data_LiH7(C2O3)2
_symmetry_space_group_name_H-M   'P 1'
_cell_length_a   5.83076000
_cell_length_b   5.95924000
_cell_length_c   18.70980000
_cell_angle_alpha   89.99960000
_cell_angle_beta   90.63990000
_cell_angle_gamma   89.99950000
_symmetry_Int_Tables_number   1
_chemical_formula_structural   LiH7(C2O3)2
_chemical_formula_sum   'Li4 H28 C16 O24'
_cell_volume   650.06697204
_cell_formula_units_Z   4
loop_
 _symmetry_equiv_pos_site_id
 _symmetry_equiv_pos_as_xyz
  1  'x, y, z'
loop_
 _atom_site_type_symbol
 _atom_site_label
 _atom_site_symmetry_multiplicity
 _atom_site_fract_x
 _atom_site_fract_y
 _atom_site_fract_z
 _atom_site_occupancy
  Li  Li0  1  0.20818000  0.39188000  0.72445000  1.0
  Li  Li1  1  0.29180000  0.89187000  0.77555000  1.0
  Li  Li2  1  0.79181000  0.60813000  0.27555000  1.0
  Li  Li3  1  0.70820000  0.10814000  0.22445000  1.0
  H  H4  1  0.07356000  0.24701000  0.59082000  1.0
  H  H5  1  0.42646000  0.74700000  0.90918000  1.0
  H  H6  1  0.92644000  0.75299000  0.40918000  1.0
  H  H7  1  0.57356000  0.25298000  0.09082000  1.0
  H  H8  1  0.98666000  0.23932000  0.46900000  1.0
  H  H9  1  0.51333000  0.73932000  0.03100000  1.0
  H  H10  1  0.01332000  0.76068000  0.53100000  1.0
  H  H11  1  0.48668000  0.26067000  0.96900000  1.0
  H  H12  1  0.45851000  0.23951000  0.83050000  1.0
  H  H13  1  0.04148000  0.73952000  0.66950000  1.0
  H  H14  1  0.54149000  0.76049000  0.16950000  1.0
  H  H15  1  0.95851000  0.26048000  0.33050000  1.0
  H  H16  1  0.19734000  0.23505000  0.85176000  1.0
  H  H17  1  0.30265000  0.73506000  0.64824000  1.0
  H  H18  1  0.80266000  0.76495000  0.14824000  1.0
  H  H19  1  0.69734000  0.26495000  0.35176000  1.0
  H  H20  1  0.84494000  0.26265000  0.77320000  1.0
  H  H21  1  0.65505000  0.76265000  0.72680000  1.0
  H  H22  1  0.15506000  0.73736000  0.22680000  1.0
  H  H23  1  0.34495000  0.23736000  0.27321000  1.0
  H  H24  1  0.75736000  0.28523000  0.69458000  1.0
  H  H25  1  0.74262000  0.78521000  0.80542000  1.0
  H  H26  1  0.24264000  0.71477000  0.30542000  1.0
  H  H27  1  0.25738000  0.21478000  0.19458000  1.0
  H  H28  1  0.59980000  0.24639000  0.49972000  1.0
  H  H29  1  0.90021000  0.74638000  0.00027000  1.0
  H  H30  1  0.40019000  0.75362000  0.50027000  1.0
  H  H31  1  0.09981000  0.25361000  0.99973000  1.0
  C  C32  1  0.44332000  0.25967000  0.59215000  1.0
  C  C33  1  0.05669000  0.75965000  0.90785000  1.0
  C  C34  1  0.55666000  0.74034000  0.40786000  1.0
  C  C35  1  0.94334000  0.24033000  0.09215000  1.0
  C  C36  1  0.21819000  0.24943000  0.55419000  1.0
  C  C37  1  0.28181000  0.74942000  0.94580000  1.0
  C  C38  1  0.78180000  0.75057000  0.44580000  1.0
  C  C39  1  0.71820000  0.25056000  0.05420000  1.0
  C  C40  1  0.16797000  0.24434000  0.48370000  1.0
  C  C41  1  0.33205000  0.74434000  0.01630000  1.0
  C  C42  1  0.83202000  0.75567000  0.51630000  1.0
  C  C43  1  0.66797000  0.25565000  0.98370000  1.0
  C  C44  1  0.32081000  0.24373000  0.42026000  1.0
  C  C45  1  0.17920000  0.74374000  0.07974000  1.0
  C  C46  1  0.67918000  0.75628000  0.57973000  1.0
  C  C47  1  0.82081000  0.25626000  0.92027000  1.0
  O  O48  1  0.44739000  0.27510000  0.65872000  1.0
  O  O49  1  0.05262000  0.77508000  0.84128000  1.0
  O  O50  1  0.55260000  0.72491000  0.34128000  1.0
  O  O51  1  0.94739000  0.22490000  0.15872000  1.0
  O  O52  1  0.63574000  0.25368000  0.55647000  1.0
  O  O53  1  0.86427000  0.75366000  0.94353000  1.0
  O  O54  1  0.36427000  0.74633000  0.44353000  1.0
  O  O55  1  0.13574000  0.24632000  0.05647000  1.0
  O  O56  1  0.54099000  0.24245000  0.42900000  1.0
  O  O57  1  0.95901000  0.74244000  0.07099000  1.0
  O  O58  1  0.45900000  0.75757000  0.57100000  1.0
  O  O59  1  0.04100000  0.25755000  0.92901000  1.0
  O  O60  1  0.22729000  0.24371000  0.35937000  1.0
  O  O61  1  0.27271000  0.74371000  0.14063000  1.0
  O  O62  1  0.77271000  0.75631000  0.64063000  1.0
  O  O63  1  0.72730000  0.25629000  0.85937000  1.0
  O  O64  1  0.30090000  0.21581000  0.81022000  1.0
  O  O65  1  0.19908000  0.71582000  0.68978000  1.0
  O  O66  1  0.69909000  0.78419000  0.18978000  1.0
  O  O67  1  0.80091000  0.28419000  0.31022000  1.0
  O  O68  1  0.89920000  0.27736000  0.72344000  1.0
  O  O69  1  0.60078000  0.77735000  0.77656000  1.0
  O  O70  1  0.10079000  0.72264000  0.27657000  1.0
  O  O71  1  0.39921000  0.22265000  0.22344000  1.0
