# generated using pymatgen
data_AlH5C15O5F2
_symmetry_space_group_name_H-M   'P 1'
_cell_length_a   6.67881000
_cell_length_b   20.34170000
_cell_length_c   22.99070000
_cell_angle_alpha   93.34050000
_cell_angle_beta   90.48350000
_cell_angle_gamma   91.14270000
_symmetry_Int_Tables_number   1
_chemical_formula_structural   AlH5C15O5F2
_chemical_formula_sum   'Al4 H20 C60 O20 F8'
_cell_volume   3117.40703669
_cell_formula_units_Z   4
loop_
 _symmetry_equiv_pos_site_id
 _symmetry_equiv_pos_as_xyz
  1  'x, y, z'
loop_
 _atom_site_type_symbol
 _atom_site_label
 _atom_site_symmetry_multiplicity
 _atom_site_fract_x
 _atom_site_fract_y
 _atom_site_fract_z
 _atom_site_occupancy
  Al  Al0  1  0.21138000  0.75042000  0.75039000  1.0
  Al  Al1  1  0.78862000  0.24958000  0.24961000  1.0
  Al  Al2  1  0.71135000  0.74886000  0.74901000  1.0
  Al  Al3  1  0.28864000  0.25114000  0.25099000  1.0
  H  H4  1  0.30578000  0.54617000  0.95497000  1.0
  H  H5  1  0.69423000  0.45383000  0.04503000  1.0
  H  H6  1  0.80954000  0.95550000  0.54268000  1.0
  H  H7  1  0.19045000  0.04449000  0.45732000  1.0
  H  H8  1  0.33697000  0.46622000  0.03294000  1.0
  H  H9  1  0.66305000  0.53378000  0.96706000  1.0
  H  H10  1  0.83385000  0.03581000  0.46465000  1.0
  H  H11  1  0.16616000  0.96418000  0.53535000  1.0
  H  H12  1  0.25089000  0.58770000  0.64455000  1.0
  H  H13  1  0.74911000  0.41230000  0.35546000  1.0
  H  H14  1  0.19672000  0.91853000  0.86131000  1.0
  H  H15  1  0.80328000  0.08148000  0.13869000  1.0
  H  H16  1  0.45861000  0.40910000  0.51525000  1.0
  H  H17  1  0.54139000  0.59090000  0.48475000  1.0
  H  H18  1  0.06366000  0.10333000  0.99340000  1.0
  H  H19  1  0.93634000  0.89668000  0.00660000  1.0
  H  H20  1  0.45524000  0.66520000  0.76088000  1.0
  H  H21  1  0.54475000  0.33480000  0.23912000  1.0
  H  H22  1  0.96297000  0.83602000  0.74662000  1.0
  H  H23  1  0.03702000  0.16398000  0.25338000  1.0
  C  C24  1  0.47172000  0.83013000  0.83157000  1.0
  C  C25  1  0.52828000  0.16987000  0.16843000  1.0
  C  C26  1  0.95539000  0.66901000  0.66828000  1.0
  C  C27  1  0.04460000  0.33099000  0.33172000  1.0
  C  C28  1  0.46324000  0.82629000  0.67323000  1.0
  C  C29  1  0.53676000  0.17371000  0.32677000  1.0
  C  C30  1  0.95947000  0.67282000  0.82642000  1.0
  C  C31  1  0.04052000  0.32718000  0.17358000  1.0
  C  C32  1  0.19028000  0.48130000  0.01826000  1.0
  C  C33  1  0.80975000  0.51870000  0.98174000  1.0
  C  C34  1  0.68850000  0.01982000  0.48039000  1.0
  C  C35  1  0.31151000  0.98017000  0.51961000  1.0
  C  C36  1  0.01735000  0.45500000  0.04400000  1.0
  C  C37  1  0.98266000  0.54500000  0.95600000  1.0
  C  C38  1  0.51361000  0.04522000  0.45598000  1.0
  C  C39  1  0.48639000  0.95477000  0.54401000  1.0
  C  C40  1  0.82697000  0.47441000  0.02501000  1.0
  C  C41  1  0.17306000  0.52559000  0.97499000  1.0
  C  C42  1  0.32485000  0.02469000  0.47632000  1.0
  C  C43  1  0.67515000  0.97531000  0.52367000  1.0
  C  C44  1  0.03255000  0.41008000  0.08846000  1.0
  C  C45  1  0.96747000  0.58992000  0.91154000  1.0
  C  C46  1  0.52608000  0.09032000  0.41153000  1.0
  C  C47  1  0.47393000  0.90968000  0.58847000  1.0
  C  C48  1  0.95998000  0.62838000  0.87293000  1.0
  C  C49  1  0.04003000  0.37162000  0.12707000  1.0
  C  C50  1  0.46651000  0.87101000  0.62694000  1.0
  C  C51  1  0.53348000  0.12899000  0.37306000  1.0
  C  C52  1  0.81238000  0.61201000  0.57459000  1.0
  C  C53  1  0.18760000  0.38799000  0.42541000  1.0
  C  C54  1  0.64032000  0.88205000  0.92317000  1.0
  C  C55  1  0.35968000  0.11795000  0.07684000  1.0
  C  C56  1  0.96345000  0.62014000  0.61716000  1.0
  C  C57  1  0.03654000  0.37986000  0.38284000  1.0
  C  C58  1  0.47952000  0.87809000  0.88346000  1.0
  C  C59  1  0.52048000  0.12192000  0.11655000  1.0
  C  C60  1  0.13175000  0.58015000  0.61216000  1.0
  C  C61  1  0.86824000  0.41985000  0.38784000  1.0
  C  C62  1  0.32329000  0.92258000  0.89151000  1.0
  C  C63  1  0.67672000  0.07743000  0.10848000  1.0
  C  C64  1  0.14682000  0.53159000  0.56696000  1.0
  C  C65  1  0.85318000  0.46841000  0.43305000  1.0
  C  C66  1  0.33044000  0.97171000  0.93666000  1.0
  C  C67  1  0.66958000  0.02829000  0.06334000  1.0
  C  C68  1  0.99276000  0.52419000  0.52343000  1.0
  C  C69  1  0.00724000  0.47581000  0.47657000  1.0
  C  C70  1  0.49547000  0.97535000  0.97679000  1.0
  C  C71  1  0.50455000  0.02466000  0.02320000  1.0
  C  C72  1  0.82326000  0.56587000  0.52686000  1.0
  C  C73  1  0.17673000  0.43413000  0.47314000  1.0
  C  C74  1  0.65246000  0.92898000  0.97039000  1.0
  C  C75  1  0.34754000  0.07102000  0.02961000  1.0
  C  C76  1  0.31100000  0.48764000  0.56147000  1.0
  C  C77  1  0.68899000  0.51236000  0.43853000  1.0
  C  C78  1  0.17953000  0.02019000  0.94511000  1.0
  C  C79  1  0.82048000  0.97981000  0.05488000  1.0
  C  C80  1  0.32906000  0.44068000  0.51733000  1.0
  C  C81  1  0.67094000  0.55932000  0.48267000  1.0
  C  C82  1  0.18387000  0.06813000  0.98891000  1.0
  C  C83  1  0.81614000  0.93187000  0.01109000  1.0
  O  O84  1  0.63312000  0.80876000  0.69175000  1.0
  O  O85  1  0.36687000  0.19125000  0.30825000  1.0
  O  O86  1  0.13096000  0.69184000  0.80935000  1.0
  O  O87  1  0.86904000  0.30816000  0.19065000  1.0
  O  O88  1  0.29835000  0.81411000  0.81130000  1.0
  O  O89  1  0.70165000  0.18589000  0.18870000  1.0
  O  O90  1  0.78512000  0.68700000  0.68670000  1.0
  O  O91  1  0.21486000  0.31300000  0.31330000  1.0
  O  O92  1  0.29203000  0.80922000  0.69188000  1.0
  O  O93  1  0.70796000  0.19078000  0.30812000  1.0
  O  O94  1  0.78959000  0.68812000  0.80620000  1.0
  O  O95  1  0.21040000  0.31187000  0.19380000  1.0
  O  O96  1  0.12466000  0.68685000  0.69034000  1.0
  O  O97  1  0.87533000  0.31314000  0.30967000  1.0
  O  O98  1  0.63814000  0.81139000  0.81091000  1.0
  O  O99  1  0.36186000  0.18861000  0.18910000  1.0
  O  O100  1  0.45824000  0.71009000  0.74899000  1.0
  O  O101  1  0.54175000  0.28991000  0.25101000  1.0
  O  O102  1  0.96295000  0.78903000  0.75116000  1.0
  O  O103  1  0.03704000  0.21097000  0.24884000  1.0
  F  F104  1  0.64929000  0.65062000  0.57726000  1.0
  F  F105  1  0.35069000  0.34937000  0.42275000  1.0
  F  F106  1  0.79110000  0.83854000  0.91807000  1.0
  F  F107  1  0.20890000  0.16146000  0.08194000  1.0
  F  F108  1  0.45692000  0.49451000  0.60332000  1.0
  F  F109  1  0.54307000  0.50549000  0.39669000  1.0
  F  F110  1  0.02336000  0.01692000  0.90641000  1.0
  F  F111  1  0.97665000  0.98309000  0.09359000  1.0
