# generated using pymatgen
data_ThH12(C3O)8
_symmetry_space_group_name_H-M   'P 1'
_cell_length_a   12.43800000
_cell_length_b   14.28830000
_cell_length_c   14.28830000
_cell_angle_alpha   102.30100000
_cell_angle_beta   101.64000000
_cell_angle_gamma   101.64000000
_symmetry_Int_Tables_number   1
_chemical_formula_structural   ThH12(C3O)8
_chemical_formula_sum   'Th4 H48 C96 O32'
_cell_volume   2349.14838227
_cell_formula_units_Z   4
loop_
 _symmetry_equiv_pos_site_id
 _symmetry_equiv_pos_as_xyz
  1  'x, y, z'
loop_
 _atom_site_type_symbol
 _atom_site_label
 _atom_site_symmetry_multiplicity
 _atom_site_fract_x
 _atom_site_fract_y
 _atom_site_fract_z
 _atom_site_occupancy
  Th  Th0  1  0.54284000  0.78587000  0.28455000  1.0
  Th  Th1  1  0.04284000  0.28455000  0.78587000  1.0
  Th  Th2  1  0.77143000  0.05851000  0.55695000  1.0
  Th  Th3  1  0.27143000  0.55695000  0.05852000  1.0
  H  H4  1  0.46358000  0.48386000  0.94963000  1.0
  H  H5  1  0.96358000  0.94963000  0.48386000  1.0
  H  H6  1  0.80122000  0.63236000  0.12959000  1.0
  H  H7  1  0.30122000  0.12960000  0.63236000  1.0
  H  H8  1  0.88233000  0.52279000  0.01751000  1.0
  H  H9  1  0.38233000  0.01751000  0.52279000  1.0
  H  H10  1  0.43257000  0.34625000  0.79917000  1.0
  H  H11  1  0.93257000  0.79917000  0.34625000  1.0
  H  H12  1  0.51323000  0.23346000  0.69023000  1.0
  H  H13  1  0.01323000  0.69023000  0.23346000  1.0
  H  H14  1  0.85056000  0.38151000  0.87112000  1.0
  H  H15  1  0.35056000  0.87112000  0.38151000  1.0
  H  H16  1  0.52298000  0.99243000  0.11600000  1.0
  H  H17  1  0.02298000  0.11600000  0.99243000  1.0
  H  H18  1  0.20789000  0.79817000  0.92757000  1.0
  H  H19  1  0.70789000  0.92757000  0.79817000  1.0
  H  H20  1  0.14714000  0.94135000  0.88018000  1.0
  H  H21  1  0.64714000  0.88018000  0.94135000  1.0
  H  H22  1  0.56341000  0.17486000  0.12995000  1.0
  H  H23  1  0.06341000  0.12995000  0.17486000  1.0
  H  H24  1  0.49475000  0.31923000  0.09474000  1.0
  H  H25  1  0.99474000  0.09474000  0.31923000  1.0
  H  H26  1  0.18199000  0.12299000  0.90308000  1.0
  H  H27  1  0.68199000  0.90308000  0.12299000  1.0
  H  H28  1  0.62695000  0.22109000  0.44794000  1.0
  H  H29  1  0.12695000  0.44794000  0.22109000  1.0
  H  H30  1  0.32329000  0.02376000  0.24275000  1.0
  H  H31  1  0.82329000  0.24275000  0.02376000  1.0
  H  H32  1  0.25421000  0.16791000  0.20747000  1.0
  H  H33  1  0.75421000  0.20747000  0.16792000  1.0
  H  H34  1  0.65808000  0.40341000  0.47596000  1.0
  H  H35  1  0.15808000  0.47596000  0.40341000  1.0
  H  H36  1  0.60022000  0.54626000  0.42543000  1.0
  H  H37  1  0.10022000  0.42543000  0.54626000  1.0
  H  H38  1  0.29343000  0.35058000  0.22424000  1.0
  H  H39  1  0.79343000  0.22424000  0.35058000  1.0
  H  H40  1  0.46606000  0.67129000  0.49256000  1.0
  H  H41  1  0.96606000  0.49256000  0.67129000  1.0
  H  H42  1  0.50896000  0.93679000  0.72045000  1.0
  H  H43  1  0.00895000  0.72046000  0.93679000  1.0
  H  H44  1  0.42862000  0.83673000  0.82575000  1.0
  H  H45  1  0.92862000  0.82575000  0.83673000  1.0
  H  H46  1  0.39013000  0.50573000  0.51853000  1.0
  H  H47  1  0.89013000  0.51853000  0.50573000  1.0
  H  H48  1  0.30651000  0.40600000  0.62247000  1.0
  H  H49  1  0.80651000  0.62247000  0.40600000  1.0
  H  H50  1  0.35210000  0.67140000  0.85136000  1.0
  H  H51  1  0.85210000  0.85136000  0.67140000  1.0
  C  C52  1  0.55458000  0.49200000  0.96356000  1.0
  C  C53  1  0.05458000  0.96356000  0.49200000  1.0
  C  C54  1  0.62746000  0.56303000  0.04551000  1.0
  C  C55  1  0.12745000  0.04551000  0.56303000  1.0
  C  C56  1  0.74684000  0.57506000  0.06474000  1.0
  C  C57  1  0.24684000  0.06474000  0.57506000  1.0
  C  C58  1  0.79081000  0.51468000  0.00270000  1.0
  C  C59  1  0.29081000  0.00270000  0.51467000  1.0
  C  C60  1  0.71758000  0.44016000  0.91871000  1.0
  C  C61  1  0.21758000  0.91871000  0.44016000  1.0
  C  C62  1  0.59710000  0.42904000  0.89826000  1.0
  C  C63  1  0.09710000  0.89827000  0.42904000  1.0
  C  C64  1  0.52406000  0.35419000  0.81439000  1.0
  C  C65  1  0.02406000  0.81439000  0.35419000  1.0
  C  C66  1  0.56782000  0.29169000  0.75425000  1.0
  C  C67  1  0.06782000  0.75425000  0.29169000  1.0
  C  C68  1  0.68693000  0.30147000  0.77556000  1.0
  C  C69  1  0.18692000  0.77556000  0.30147000  1.0
  C  C70  1  0.75982000  0.37497000  0.85545000  1.0
  C  C71  1  0.25982000  0.85545000  0.37497000  1.0
  C  C72  1  0.58228000  0.62706000  0.11526000  1.0
  C  C73  1  0.08228000  0.11526000  0.62706000  1.0
  C  C74  1  0.73188000  0.23001000  0.71328000  1.0
  C  C75  1  0.23188000  0.71328000  0.23001000  1.0
  C  C76  1  0.44229000  0.98227000  0.06303000  1.0
  C  C77  1  0.94229000  0.06303000  0.98227000  1.0
  C  C78  1  0.36941000  0.88812000  0.02464000  1.0
  C  C79  1  0.86941000  0.02464000  0.88812000  1.0
  C  C80  1  0.26291000  0.87307000  0.95666000  1.0
  C  C81  1  0.76291000  0.95666000  0.87307000  1.0
  C  C82  1  0.22976000  0.95228000  0.93095000  1.0
  C  C83  1  0.72976000  0.93095000  0.95229000  1.0
  C  C84  1  0.30105000  0.05012000  0.97187000  1.0
  C  C85  1  0.80105000  0.97187000  0.05012000  1.0
  C  C86  1  0.41058000  0.06525000  0.03788000  1.0
  C  C87  1  0.91058000  0.03788000  0.06525000  1.0
  C  C88  1  0.48046000  0.16356000  0.07966000  1.0
  C  C89  1  0.98046000  0.07966000  0.16356000  1.0
  C  C90  1  0.44297000  0.24359000  0.06074000  1.0
  C  C91  1  0.94297000  0.06074000  0.24359000  1.0
  C  C92  1  0.33376000  0.22862000  0.99718000  1.0
  C  C93  1  0.83376000  0.99718000  0.22862000  1.0
  C  C94  1  0.26543000  0.13348000  0.95223000  1.0
  C  C95  1  0.76543000  0.95223000  0.13349000  1.0
  C  C96  1  0.39816000  0.80293000  0.05984000  1.0
  C  C97  1  0.89816000  0.05984000  0.80293000  1.0
  C  C98  1  0.28879000  0.31468000  0.98132000  1.0
  C  C99  1  0.78879000  0.98132000  0.31468000  1.0
  C  C100  1  0.54516000  0.21036000  0.39617000  1.0
  C  C101  1  0.04516000  0.39617000  0.21036000  1.0
  C  C102  1  0.47997000  0.11500000  0.34682000  1.0
  C  C103  1  0.97997000  0.34682000  0.11499000  1.0
  C  C104  1  0.37281000  0.09955000  0.27988000  1.0
  C  C105  1  0.87281000  0.27988000  0.09955000  1.0
  C  C106  1  0.33498000  0.17941000  0.26098000  1.0
  C  C107  1  0.83498000  0.26098000  0.17941000  1.0
  C  C108  1  0.40245000  0.27804000  0.30644000  1.0
  C  C109  1  0.90245000  0.30644000  0.27804000  1.0
  C  C110  1  0.50907000  0.29365000  0.37687000  1.0
  C  C111  1  0.00907000  0.37687000  0.29365000  1.0
  C  C112  1  0.57800000  0.39197000  0.42142000  1.0
  C  C113  1  0.07800000  0.42142000  0.39197000  1.0
  C  C114  1  0.54628000  0.47109000  0.39413000  1.0
  C  C115  1  0.04628000  0.39413000  0.47109000  1.0
  C  C116  1  0.44301000  0.45553000  0.32158000  1.0
  C  C117  1  0.94301000  0.32158000  0.45553000  1.0
  C  C118  1  0.37169000  0.36100000  0.28040000  1.0
  C  C119  1  0.87169000  0.28040000  0.36100000  1.0
  C  C120  1  0.52652000  0.02927000  0.36098000  1.0
  C  C121  1  0.02652000  0.36098000  0.02927000  1.0
  C  C122  1  0.41587000  0.54016000  0.28425000  1.0
  C  C123  1  0.91587000  0.28425000  0.54016000  1.0
  C  C124  1  0.45752000  0.70614000  0.56553000  1.0
  C  C125  1  0.95752000  0.56553000  0.70614000  1.0
  C  C126  1  0.49111000  0.80841000  0.60071000  1.0
  C  C127  1  0.99111000  0.60071000  0.80841000  1.0
  C  C128  1  0.48166000  0.85615000  0.69559000  1.0
  C  C129  1  0.98166000  0.69559000  0.85615000  1.0
  C  C130  1  0.43829000  0.80072000  0.75352000  1.0
  C  C131  1  0.93829000  0.75352000  0.80072000  1.0
  C  C132  1  0.40471000  0.69546000  0.72014000  1.0
  C  C133  1  0.90471000  0.72014000  0.69546000  1.0
  C  C134  1  0.41463000  0.64713000  0.62421000  1.0
  C  C135  1  0.91463000  0.62420000  0.64713000  1.0
  C  C136  1  0.38036000  0.54186000  0.59066000  1.0
  C  C137  1  0.88036000  0.59066000  0.54186000  1.0
  C  C138  1  0.33532000  0.48657000  0.64797000  1.0
  C  C139  1  0.83532000  0.64797000  0.48656000  1.0
  C  C140  1  0.32560000  0.53444000  0.74269000  1.0
  C  C141  1  0.82560000  0.74269000  0.53444000  1.0
  C  C142  1  0.36093000  0.63659000  0.77849000  1.0
  C  C143  1  0.86093000  0.77849000  0.63659000  1.0
  C  C144  1  0.54332000  0.86867000  0.54095000  1.0
  C  C145  1  0.04332000  0.54095000  0.86867000  1.0
  C  C146  1  0.27038000  0.47499000  0.80150000  1.0
  C  C147  1  0.77038000  0.80151000  0.47499000  1.0
  O  O148  1  0.47446000  0.60935000  0.10771000  1.0
  O  O149  1  0.97447000  0.10771000  0.60935000  1.0
  O  O150  1  0.65086000  0.69889000  0.18319000  1.0
  O  O151  1  0.15086000  0.18319000  0.69889000  1.0
  O  O152  1  0.83923000  0.23490000  0.73378000  1.0
  O  O153  1  0.33923000  0.73378000  0.23490000  1.0
  O  O154  1  0.66355000  0.16296000  0.64049000  1.0
  O  O155  1  0.16355000  0.64049000  0.16296000  1.0
  O  O156  1  0.49201000  0.81880000  0.12441000  1.0
  O  O157  1  0.99201000  0.12441000  0.81880000  1.0
  O  O158  1  0.32616000  0.71885000  0.02510000  1.0
  O  O159  1  0.82616000  0.02509000  0.71885000  1.0
  O  O160  1  0.19723000  0.29617000  0.91291000  1.0
  O  O161  1  0.69724000  0.91291000  0.29617000  1.0
  O  O162  1  0.33988000  0.40087000  0.03615000  1.0
  O  O163  1  0.83988000  0.03614000  0.40087000  1.0
  O  O164  1  0.61844000  0.04765000  0.42888000  1.0
  O  O165  1  0.11844000  0.42888000  0.04765000  1.0
  O  O166  1  0.47631000  0.94325000  0.30524000  1.0
  O  O167  1  0.97631000  0.30524000  0.94325000  1.0
  O  O168  1  0.32310000  0.52367000  0.21820000  1.0
  O  O169  1  0.82310000  0.21820000  0.52367000  1.0
  O  O170  1  0.48800000  0.62417000  0.31869000  1.0
  O  O171  1  0.98800000  0.31869000  0.62417000  1.0
  O  O172  1  0.52735000  0.82889000  0.44814000  1.0
  O  O173  1  0.02735000  0.44814000  0.82889000  1.0
  O  O174  1  0.60285000  0.95588000  0.58488000  1.0
  O  O175  1  0.10285000  0.58488000  0.95588000  1.0
  O  O176  1  0.28498000  0.51495000  0.89410000  1.0
  O  O177  1  0.78498000  0.89410000  0.51495000  1.0
  O  O178  1  0.20993000  0.38827000  0.75706000  1.0
  O  O179  1  0.70993000  0.75706000  0.38827000  1.0
