# generated using pymatgen
data_NiH14C20N4O5
_symmetry_space_group_name_H-M   'P 1'
_cell_length_a   10.00250000
_cell_length_b   12.17420000
_cell_length_c   15.85470000
_cell_angle_alpha   89.14400000
_cell_angle_beta   89.58640000
_cell_angle_gamma   73.67800000
_symmetry_Int_Tables_number   1
_chemical_formula_structural   NiH14C20N4O5
_chemical_formula_sum   'Ni4 H56 C80 N16 O20'
_cell_volume   1852.63874444
_cell_formula_units_Z   4
loop_
 _symmetry_equiv_pos_site_id
 _symmetry_equiv_pos_as_xyz
  1  'x, y, z'
loop_
 _atom_site_type_symbol
 _atom_site_label
 _atom_site_symmetry_multiplicity
 _atom_site_fract_x
 _atom_site_fract_y
 _atom_site_fract_z
 _atom_site_occupancy
  Ni  Ni0  1  0.64875000  0.07145000  0.06673000  1.0
  Ni  Ni1  1  0.34416000  0.42631000  0.56332000  1.0
  Ni  Ni2  1  0.34683000  0.92689000  0.93168000  1.0
  Ni  Ni3  1  0.65427000  0.57475000  0.43694000  1.0
  H  H4  1  0.11410000  0.01904000  0.08330000  1.0
  H  H5  1  0.87505000  0.48256000  0.58266000  1.0
  H  H6  1  0.87721000  0.98178000  0.90842000  1.0
  H  H7  1  0.12313000  0.51803000  0.41681000  1.0
  H  H8  1  0.33242000  0.20619000  0.23197000  1.0
  H  H9  1  0.67099000  0.28137000  0.73429000  1.0
  H  H10  1  0.68158000  0.77708000  0.76148000  1.0
  H  H11  1  0.32554000  0.72085000  0.26562000  1.0
  H  H12  1  0.88245000  0.29824000  0.23754000  1.0
  H  H13  1  0.12051000  0.20187000  0.73484000  1.0
  H  H14  1  0.13100000  0.69754000  0.76705000  1.0
  H  H15  1  0.87601000  0.79998000  0.26651000  1.0
  H  H16  1  0.94143000  0.88153000  0.02906000  1.0
  H  H17  1  0.05566000  0.62737000  0.53072000  1.0
  H  H18  1  0.05733000  0.12473000  0.96640000  1.0
  H  H19  1  0.94588000  0.37554000  0.46915000  1.0
  H  H20  1  0.23196000  0.54827000  0.90453000  1.0
  H  H21  1  0.77131000  0.95110000  0.40233000  1.0
  H  H22  1  0.77391000  0.44891000  0.09780000  1.0
  H  H23  1  0.23068000  0.05061000  0.59823000  1.0
  H  H24  1  0.37475000  0.26580000  0.11149000  1.0
  H  H25  1  0.61343000  0.22834000  0.60768000  1.0
  H  H26  1  0.61529000  0.73046000  0.89018000  1.0
  H  H27  1  0.38535000  0.77256000  0.39273000  1.0
  H  H28  1  0.01583000  0.69702000  0.93832000  1.0
  H  H29  1  0.99084000  0.80614000  0.43889000  1.0
  H  H30  1  0.99249000  0.30403000  0.06047000  1.0
  H  H31  1  0.01160000  0.19649000  0.56212000  1.0
  H  H32  1  0.03175000  0.57026000  0.19410000  1.0
  H  H33  1  0.96652000  0.93403000  0.69189000  1.0
  H  H34  1  0.96409000  0.43559000  0.80569000  1.0
  H  H35  1  0.03015000  0.06615000  0.31021000  1.0
  H  H36  1  0.76863000  0.64793000  0.16196000  1.0
  H  H37  1  0.23463000  0.85224000  0.66224000  1.0
  H  H38  1  0.23220000  0.35768000  0.83516000  1.0
  H  H39  1  0.76647000  0.14919000  0.34001000  1.0
  H  H40  1  0.47056000  0.45928000  0.90694000  1.0
  H  H41  1  0.53630000  0.03801000  0.40067000  1.0
  H  H42  1  0.53665000  0.53681000  0.10027000  1.0
  H  H43  1  0.46402000  0.96210000  0.59989000  1.0
  H  H44  1  0.57709000  0.86156000  0.15802000  1.0
  H  H45  1  0.42167000  0.63603000  0.65810000  1.0
  H  H46  1  0.42201000  0.14200000  0.83827000  1.0
  H  H47  1  0.57876000  0.36495000  0.34362000  1.0
  H  H48  1  0.25022000  0.42516000  0.16235000  1.0
  H  H49  1  0.74524000  0.07549000  0.65754000  1.0
  H  H50  1  0.74307000  0.57675000  0.84088000  1.0
  H  H51  1  0.25154000  0.92388000  0.34390000  1.0
  H  H52  1  0.68335000  0.25779000  0.92858000  1.0
  H  H53  1  0.31545000  0.23375000  0.42169000  1.0
  H  H54  1  0.31649000  0.73317000  0.07765000  1.0
  H  H55  1  0.68364000  0.76568000  0.57884000  1.0
  H  H56  1  0.18746000  0.35807000  0.31026000  1.0
  H  H57  1  0.82054000  0.13205000  0.81220000  1.0
  H  H58  1  0.83680000  0.62563000  0.68933000  1.0
  H  H59  1  0.17356000  0.87018000  0.18781000  1.0
  C  C60  1  0.84933000  0.13111000  0.13629000  1.0
  C  C61  1  0.13867000  0.37314000  0.62216000  1.0
  C  C62  1  0.14275000  0.87234000  0.87501000  1.0
  C  C63  1  0.85903000  0.62842000  0.37842000  1.0
  C  C64  1  0.98402000  0.15495000  0.15902000  1.0
  C  C65  1  0.01132000  0.34682000  0.65702000  1.0
  C  C66  1  0.01798000  0.84378000  0.84032000  1.0
  C  C67  1  0.98623000  0.65465000  0.34366000  1.0
  C  C68  1  0.11113000  0.08658000  0.12818000  1.0
  C  C69  1  0.88136000  0.41373000  0.62847000  1.0
  C  C70  1  0.88661000  0.91115000  0.86542000  1.0
  C  C71  1  0.11639000  0.58752000  0.37156000  1.0
  C  C72  1  0.23401000  0.19379000  0.21063000  1.0
  C  C73  1  0.76709000  0.29881000  0.71258000  1.0
  C  C74  1  0.77659000  0.79456000  0.78395000  1.0
  C  C75  1  0.22963000  0.70328000  0.28757000  1.0
  C  C76  1  0.98138000  0.24476000  0.21365000  1.0
  C  C77  1  0.01976000  0.25508000  0.71290000  1.0
  C  C78  1  0.02942000  0.75082000  0.78717000  1.0
  C  C79  1  0.97695000  0.74676000  0.28809000  1.0
  C  C80  1  0.86456000  0.84886000  0.06178000  1.0
  C  C81  1  0.13393000  0.65737000  0.56293000  1.0
  C  C82  1  0.13459000  0.15694000  0.93398000  1.0
  C  C83  1  0.86731000  0.34520000  0.43756000  1.0
  C  C84  1  0.25767000  0.47618000  0.03144000  1.0
  C  C85  1  0.74211000  0.02286000  0.52785000  1.0
  C  C86  1  0.74272000  0.52258000  0.97148000  1.0
  C  C87  1  0.25758000  0.97803000  0.47294000  1.0
  C  C88  1  0.36910000  0.04055000  0.11059000  1.0
  C  C89  1  0.62363000  0.45308000  0.61422000  1.0
  C  C90  1  0.62824000  0.95853000  0.87245000  1.0
  C  C91  1  0.37402000  0.54798000  0.38542000  1.0
  C  C92  1  0.23600000  0.10647000  0.15327000  1.0
  C  C93  1  0.75954000  0.38906000  0.65511000  1.0
  C  C94  1  0.76595000  0.88699000  0.83774000  1.0
  C  C95  1  0.23791000  0.61259000  0.34482000  1.0
  C  C96  1  0.01154000  0.64655000  0.06862000  1.0
  C  C97  1  0.99048000  0.85820000  0.56790000  1.0
  C  C98  1  0.99004000  0.35815000  0.93060000  1.0
  C  C99  1  0.00989000  0.14370000  0.43349000  1.0
  C  C100  1  0.19078000  0.55360000  0.96864000  1.0
  C  C101  1  0.81167000  0.94665000  0.46631000  1.0
  C  C102  1  0.81328000  0.44541000  0.03333000  1.0
  C  C103  1  0.18934000  0.05482000  0.53449000  1.0
  C  C104  1  0.43196000  0.29123000  0.06045000  1.0
  C  C105  1  0.56047000  0.20235000  0.55579000  1.0
  C  C106  1  0.56213000  0.70296000  0.94244000  1.0
  C  C107  1  0.43854000  0.79842000  0.44456000  1.0
  C  C108  1  0.10638000  0.26385000  0.23960000  1.0
  C  C109  1  0.89696000  0.23193000  0.74102000  1.0
  C  C110  1  0.90819000  0.72674000  0.75910000  1.0
  C  C111  1  0.09930000  0.77009000  0.25973000  1.0
  C  C112  1  0.06863000  0.63813000  0.98755000  1.0
  C  C113  1  0.93539000  0.86475000  0.48672000  1.0
  C  C114  1  0.93647000  0.36355000  0.01246000  1.0
  C  C115  1  0.06606000  0.13731000  0.51433000  1.0
  C  C116  1  0.07521000  0.56662000  0.13075000  1.0
  C  C117  1  0.92410000  0.93711000  0.62864000  1.0
  C  C118  1  0.92263000  0.43789000  0.86946000  1.0
  C  C119  1  0.07430000  0.06371000  0.37294000  1.0
  C  C120  1  0.77323000  0.72714000  0.13187000  1.0
  C  C121  1  0.22821000  0.77454000  0.63238000  1.0
  C  C122  1  0.22711000  0.27831000  0.86477000  1.0
  C  C123  1  0.77226000  0.22685000  0.37002000  1.0
  C  C124  1  0.48242000  0.38960000  0.95198000  1.0
  C  C125  1  0.51989000  0.10639000  0.44577000  1.0
  C  C126  1  0.52056000  0.60565000  0.05414000  1.0
  C  C127  1  0.47997000  0.89396000  0.55462000  1.0
  C  C128  1  0.68067000  0.83396000  0.13149000  1.0
  C  C129  1  0.31806000  0.66633000  0.63204000  1.0
  C  C130  1  0.31771000  0.17047000  0.86388000  1.0
  C  C131  1  0.68246000  0.33499000  0.36960000  1.0
  C  C132  1  0.19853000  0.48336000  0.11227000  1.0
  C  C133  1  0.79943000  0.01787000  0.60869000  1.0
  C  C134  1  0.79840000  0.51840000  0.88983000  1.0
  C  C135  1  0.19883000  0.98257000  0.39254000  1.0
  C  C136  1  0.58719000  0.29002000  0.96332000  1.0
  C  C137  1  0.41167000  0.20360000  0.45673000  1.0
  C  C138  1  0.41252000  0.70311000  0.04222000  1.0
  C  C139  1  0.58781000  0.79653000  0.54353000  1.0
  N  N140  1  0.38404000  0.39020000  0.01464000  1.0
  N  N141  1  0.61426000  0.10587000  0.50983000  1.0
  N  N142  1  0.61548000  0.60586000  0.98960000  1.0
  N  N143  1  0.38528000  0.89482000  0.49066000  1.0
  N  N144  1  0.88899000  0.73675000  0.08668000  1.0
  N  N145  1  0.11202000  0.76841000  0.58737000  1.0
  N  N146  1  0.11158000  0.26927000  0.91043000  1.0
  N  N147  1  0.88877000  0.23377000  0.41414000  1.0
  N  N148  1  0.55382000  0.22912000  0.03075000  1.0
  N  N149  1  0.43887000  0.26271000  0.52523000  1.0
  N  N150  1  0.44040000  0.76293000  0.97266000  1.0
  N  N151  1  0.56006000  0.73780000  0.47498000  1.0
  N  N152  1  0.73837000  0.90930000  0.08783000  1.0
  N  N153  1  0.25816000  0.59419000  0.58876000  1.0
  N  N154  1  0.25892000  0.09561000  0.90703000  1.0
  N  N155  1  0.74269000  0.40781000  0.41177000  1.0
  O  O156  1  0.36524000  0.96055000  0.06213000  1.0
  O  O157  1  0.62341000  0.53653000  0.56568000  1.0
  O  O158  1  0.62706000  0.05079000  0.90787000  1.0
  O  O159  1  0.37403000  0.46414000  0.43356000  1.0
  O  O160  1  0.83645000  0.10044000  0.05906000  1.0
  O  O161  1  0.13811000  0.40232000  0.54417000  1.0
  O  O162  1  0.13907000  0.90243000  0.95224000  1.0
  O  O163  1  0.85931000  0.59955000  0.45641000  1.0
  O  O164  1  0.75741000  0.14047000  0.19185000  1.0
  O  O165  1  0.24319000  0.36788000  0.66902000  1.0
  O  O166  1  0.24828000  0.86840000  0.82837000  1.0
  O  O167  1  0.75492000  0.63361000  0.33115000  1.0
  O  O168  1  0.47646000  0.07433000  0.12714000  1.0
  O  O169  1  0.51923000  0.41596000  0.63184000  1.0
  O  O170  1  0.52517000  0.91639000  0.86381000  1.0
  O  O171  1  0.47855000  0.58502000  0.36806000  1.0
  O  O172  1  0.09580000  0.35277000  0.29359000  1.0
  O  O173  1  0.91121000  0.14165000  0.79606000  1.0
  O  O174  1  0.92623000  0.63458000  0.70725000  1.0
  O  O175  1  0.08339000  0.86087000  0.20482000  1.0
