# generated using pymatgen
data_ZnH13C20(NO3)2
_symmetry_space_group_name_H-M   'P 1'
_cell_length_a   12.26640000
_cell_length_b   15.70500000
_cell_length_c   26.64430000
_cell_angle_alpha   90.00000000
_cell_angle_beta   89.99990000
_cell_angle_gamma   96.13240000
_symmetry_Int_Tables_number   1
_chemical_formula_structural   ZnH13C20(NO3)2
_chemical_formula_sum   'Zn8 H104 C160 N16 O48'
_cell_volume   5103.48772845
_cell_formula_units_Z   8
loop_
 _symmetry_equiv_pos_site_id
 _symmetry_equiv_pos_as_xyz
  1  'x, y, z'
loop_
 _atom_site_type_symbol
 _atom_site_label
 _atom_site_symmetry_multiplicity
 _atom_site_fract_x
 _atom_site_fract_y
 _atom_site_fract_z
 _atom_site_occupancy
  Zn  Zn0  1  0.11817000  0.59027000  0.22838000  1.0
  Zn  Zn1  1  0.88183000  0.90973000  0.72838000  1.0
  Zn  Zn2  1  0.88183000  0.40973000  0.77162000  1.0
  Zn  Zn3  1  0.11817000  0.09027000  0.27162000  1.0
  Zn  Zn4  1  0.26642000  0.77704000  0.25103000  1.0
  Zn  Zn5  1  0.73358000  0.72296000  0.75103000  1.0
  Zn  Zn6  1  0.73358000  0.22296000  0.74897000  1.0
  Zn  Zn7  1  0.26642000  0.27704000  0.24897000  1.0
  H  H8  1  0.87198000  0.19130000  0.20245000  1.0
  H  H9  1  0.12802000  0.30871000  0.70245000  1.0
  H  H10  1  0.12802000  0.80870000  0.79755000  1.0
  H  H11  1  0.87198000  0.69130000  0.29756000  1.0
  H  H12  1  0.52434000  0.17104000  0.20934000  1.0
  H  H13  1  0.47567000  0.32896000  0.70934000  1.0
  H  H14  1  0.47567000  0.82896000  0.79066000  1.0
  H  H15  1  0.52433000  0.67104000  0.29066000  1.0
  H  H16  1  0.73843000  0.93845000  0.87332000  1.0
  H  H17  1  0.26157000  0.56155000  0.37332000  1.0
  H  H18  1  0.26157000  0.06155000  0.12668000  1.0
  H  H19  1  0.73843000  0.43845000  0.62668000  1.0
  H  H20  1  0.70232000  0.95104000  0.96510000  1.0
  H  H21  1  0.29768000  0.54896000  0.46510000  1.0
  H  H22  1  0.29768000  0.04896000  0.03490000  1.0
  H  H23  1  0.70232000  0.45104000  0.53490000  1.0
  H  H24  1  0.99956000  0.83769000  0.99710000  1.0
  H  H25  1  0.00044000  0.66231000  0.49710000  1.0
  H  H26  1  0.00044000  0.16231000  0.00290000  1.0
  H  H27  1  0.99956000  0.33769000  0.50290000  1.0
  H  H28  1  0.03554000  0.82697000  0.90541000  1.0
  H  H29  1  0.96446000  0.67303000  0.40541000  1.0
  H  H30  1  0.96446000  0.17303000  0.09459000  1.0
  H  H31  1  0.03554000  0.32697000  0.59459000  1.0
  H  H32  1  0.81452000  0.74210000  0.05299000  1.0
  H  H33  1  0.18548000  0.75790000  0.55299000  1.0
  H  H34  1  0.18548000  0.25790000  0.94701000  1.0
  H  H35  1  0.81452000  0.24210000  0.44701000  1.0
  H  H36  1  0.91552000  0.67478000  0.12181000  1.0
  H  H37  1  0.08448000  0.82523000  0.62181000  1.0
  H  H38  1  0.08448000  0.32522000  0.87819000  1.0
  H  H39  1  0.91552000  0.17478000  0.37819000  1.0
  H  H40  1  0.07114000  0.92305000  0.16372000  1.0
  H  H41  1  0.92887000  0.57695000  0.66372000  1.0
  H  H42  1  0.92886000  0.07695000  0.83628000  1.0
  H  H43  1  0.07114000  0.42305000  0.33628000  1.0
  H  H44  1  0.96582000  0.99055000  0.09669000  1.0
  H  H45  1  0.03418000  0.50945000  0.59669000  1.0
  H  H46  1  0.03418000  0.00945000  0.90331000  1.0
  H  H47  1  0.96582000  0.49055000  0.40331000  1.0
  H  H48  1  0.83180000  0.65323000  0.89712000  1.0
  H  H49  1  0.16820000  0.84677000  0.39712000  1.0
  H  H50  1  0.16820000  0.34677000  0.10288000  1.0
  H  H51  1  0.83180000  0.15323000  0.60288000  1.0
  H  H52  1  0.83085000  0.59481000  0.98441000  1.0
  H  H53  1  0.16914000  0.90519000  0.48441000  1.0
  H  H54  1  0.16914000  0.40519000  0.01559000  1.0
  H  H55  1  0.83085000  0.09481000  0.51559000  1.0
  H  H56  1  0.51184000  0.67902000  0.00858000  1.0
  H  H57  1  0.48816000  0.82098000  0.50858000  1.0
  H  H58  1  0.48815000  0.32098000  0.99142000  1.0
  H  H59  1  0.51184000  0.17902000  0.49142000  1.0
  H  H60  1  0.51350000  0.73519000  0.92075000  1.0
  H  H61  1  0.48650000  0.76481000  0.42075000  1.0
  H  H62  1  0.48650000  0.26481000  0.07925000  1.0
  H  H63  1  0.51350000  0.23519000  0.57925000  1.0
  H  H64  1  0.67660000  0.71697000  0.11789000  1.0
  H  H65  1  0.32340000  0.78303000  0.61789000  1.0
  H  H66  1  0.32340000  0.28303000  0.88211000  1.0
  H  H67  1  0.67660000  0.21697000  0.38211000  1.0
  H  H68  1  0.52557000  0.72897000  0.18000000  1.0
  H  H69  1  0.47443000  0.77103000  0.68000000  1.0
  H  H70  1  0.47443000  0.27103000  0.82000000  1.0
  H  H71  1  0.52557000  0.22897000  0.32000000  1.0
  H  H72  1  0.34260000  0.50667000  0.11530000  1.0
  H  H73  1  0.65740000  0.99333000  0.61530000  1.0
  H  H74  1  0.65740000  0.49333000  0.88470000  1.0
  H  H75  1  0.34260000  0.00667000  0.38470000  1.0
  H  H76  1  0.49366000  0.49389000  0.05365000  1.0
  H  H77  1  0.50634000  0.00611000  0.55365000  1.0
  H  H78  1  0.50634000  0.50611000  0.94635000  1.0
  H  H79  1  0.49366000  0.99389000  0.44635000  1.0
  H  H80  1  0.90179000  0.52253000  0.26442000  1.0
  H  H81  1  0.09821000  0.97747000  0.76442000  1.0
  H  H82  1  0.09821000  0.47747000  0.73558000  1.0
  H  H83  1  0.90180000  0.02253000  0.23558000  1.0
  H  H84  1  0.77966000  0.38620000  0.26154000  1.0
  H  H85  1  0.22034000  0.11380000  0.76154000  1.0
  H  H86  1  0.22034000  0.61380000  0.73846000  1.0
  H  H87  1  0.77966000  0.88620000  0.23846000  1.0
  H  H88  1  0.02527000  0.28143000  0.17044000  1.0
  H  H89  1  0.97473000  0.21857000  0.67044000  1.0
  H  H90  1  0.97473000  0.71857000  0.82956000  1.0
  H  H91  1  0.02527000  0.78143000  0.32956000  1.0
  H  H92  1  0.13792000  0.42236000  0.17701000  1.0
  H  H93  1  0.86208000  0.07764000  0.67701000  1.0
  H  H94  1  0.86208000  0.57765000  0.82299000  1.0
  H  H95  1  0.13792000  0.92236000  0.32299000  1.0
  H  H96  1  0.35541000  0.09082000  0.19475000  1.0
  H  H97  1  0.64459000  0.40918000  0.69475000  1.0
  H  H98  1  0.64459000  0.90918000  0.80525000  1.0
  H  H99  1  0.35541000  0.59082000  0.30525000  1.0
  H  H100  1  0.23904000  0.95200000  0.20592000  1.0
  H  H101  1  0.76096000  0.54800000  0.70592000  1.0
  H  H102  1  0.76096000  0.04800000  0.79408000  1.0
  H  H103  1  0.23904000  0.45200000  0.29408000  1.0
  H  H104  1  0.49980000  0.83606000  0.26448000  1.0
  H  H105  1  0.50021000  0.66394000  0.76449000  1.0
  H  H106  1  0.50020000  0.16394000  0.73552000  1.0
  H  H107  1  0.49980000  0.33606000  0.23552000  1.0
  H  H108  1  0.62784000  0.96738000  0.25329000  1.0
  H  H109  1  0.37216000  0.53262000  0.75330000  1.0
  H  H110  1  0.37216000  0.03262000  0.74670000  1.0
  H  H111  1  0.62784000  0.46738000  0.24671000  1.0
  C  C112  1  0.91553000  0.88064000  0.82890000  1.0
  C  C113  1  0.08447000  0.61936000  0.32890000  1.0
  C  C114  1  0.08447000  0.11936000  0.17110000  1.0
  C  C115  1  0.91553000  0.38064000  0.67110000  1.0
  C  C116  1  0.88945000  0.88194000  0.88342000  1.0
  C  C117  1  0.11055000  0.61806000  0.38342000  1.0
  C  C118  1  0.11055000  0.11806000  0.11658000  1.0
  C  C119  1  0.88945000  0.38194000  0.61658000  1.0
  C  C120  1  0.79522000  0.91643000  0.90053000  1.0
  C  C121  1  0.20478000  0.58357000  0.40053000  1.0
  C  C122  1  0.20478000  0.08357000  0.09947000  1.0
  C  C123  1  0.79522000  0.41643000  0.59947000  1.0
  C  C124  1  0.77464000  0.92362000  0.95142000  1.0
  C  C125  1  0.22536000  0.57638000  0.45142000  1.0
  C  C126  1  0.22536000  0.07638000  0.04858000  1.0
  C  C127  1  0.77464000  0.42362000  0.54858000  1.0
  C  C128  1  0.84872000  0.89562000  0.98611000  1.0
  C  C129  1  0.15128000  0.60438000  0.48611000  1.0
  C  C130  1  0.15128000  0.10438000  0.01389000  1.0
  C  C131  1  0.84872000  0.39562000  0.51389000  1.0
  C  C132  1  0.94226000  0.85939000  0.96993000  1.0
  C  C133  1  0.05774000  0.64061000  0.46993000  1.0
  C  C134  1  0.05774000  0.14061000  0.03007000  1.0
  C  C135  1  0.94226000  0.35939000  0.53007000  1.0
  C  C136  1  0.96187000  0.85307000  0.91870000  1.0
  C  C137  1  0.03813000  0.64693000  0.41870000  1.0
  C  C138  1  0.03813000  0.14693000  0.08130000  1.0
  C  C139  1  0.96187000  0.35307000  0.58130000  1.0
  C  C140  1  0.88465000  0.86976000  0.07205000  1.0
  C  C141  1  0.11535000  0.63024000  0.57205000  1.0
  C  C142  1  0.11535000  0.13024000  0.92795000  1.0
  C  C143  1  0.88465000  0.36976000  0.42795000  1.0
  C  C144  1  0.86941000  0.78095000  0.07810000  1.0
  C  C145  1  0.13059000  0.71905000  0.57810000  1.0
  C  C146  1  0.13059000  0.21905000  0.92190000  1.0
  C  C147  1  0.86941000  0.28095000  0.42190000  1.0
  C  C148  1  0.92629000  0.74379000  0.11597000  1.0
  C  C149  1  0.07371000  0.75621000  0.61597000  1.0
  C  C150  1  0.07371000  0.25620000  0.88403000  1.0
  C  C151  1  0.92629000  0.24379000  0.38403000  1.0
  C  C152  1  0.99955000  0.79475000  0.14690000  1.0
  C  C153  1  0.00044000  0.70525000  0.64690000  1.0
  C  C154  1  0.00044000  0.20525000  0.85310000  1.0
  C  C155  1  0.99956000  0.29475000  0.35310000  1.0
  C  C156  1  0.01375000  0.88371000  0.13995000  1.0
  C  C157  1  0.98625000  0.61629000  0.63995000  1.0
  C  C158  1  0.98625000  0.11629000  0.86005000  1.0
  C  C159  1  0.01375000  0.38371000  0.36005000  1.0
  C  C160  1  0.95562000  0.92164000  0.10276000  1.0
  C  C161  1  0.04438000  0.57836000  0.60276000  1.0
  C  C162  1  0.04438000  0.07836000  0.89724000  1.0
  C  C163  1  0.95562000  0.42164000  0.39724000  1.0
  C  C164  1  0.06409000  0.75300000  0.18545000  1.0
  C  C165  1  0.93591000  0.74700000  0.68545000  1.0
  C  C166  1  0.93591000  0.24700000  0.81455000  1.0
  C  C167  1  0.06409000  0.25300000  0.31455000  1.0
  C  C168  1  0.66909000  0.72758000  0.84990000  1.0
  C  C169  1  0.33091000  0.77242000  0.34990000  1.0
  C  C170  1  0.33091000  0.27242000  0.15010000  1.0
  C  C171  1  0.66909000  0.22758000  0.65010000  1.0
  C  C172  1  0.67189000  0.69713000  0.90312000  1.0
  C  C173  1  0.32811000  0.80287000  0.40312000  1.0
  C  C174  1  0.32811000  0.30287000  0.09688000  1.0
  C  C175  1  0.67189000  0.19713000  0.59688000  1.0
  C  C176  1  0.76157000  0.65796000  0.92151000  1.0
  C  C177  1  0.23843000  0.84204000  0.42151000  1.0
  C  C178  1  0.23843000  0.34204000  0.07849000  1.0
  C  C179  1  0.76157000  0.15796000  0.57849000  1.0
  C  C180  1  0.76167000  0.62554000  0.97000000  1.0
  C  C181  1  0.23833000  0.87446000  0.47000000  1.0
  C  C182  1  0.23833000  0.37446000  0.03000000  1.0
  C  C183  1  0.76166000  0.12554000  0.53000000  1.0
  C  C184  1  0.67109000  0.63253000  0.00121000  1.0
  C  C185  1  0.32891000  0.86747000  0.50121000  1.0
  C  C186  1  0.32891000  0.36747000  0.99879000  1.0
  C  C187  1  0.67109000  0.13254000  0.49879000  1.0
  C  C188  1  0.58161000  0.67290000  0.98406000  1.0
  C  C189  1  0.41839000  0.82710000  0.48405000  1.0
  C  C190  1  0.41839000  0.32710000  0.01595000  1.0
  C  C191  1  0.58161000  0.17290000  0.51595000  1.0
  C  C192  1  0.58280000  0.70451000  0.93510000  1.0
  C  C193  1  0.41720000  0.79549000  0.43510000  1.0
  C  C194  1  0.41720000  0.29549000  0.06490000  1.0
  C  C195  1  0.58280000  0.20451000  0.56490000  1.0
  C  C196  1  0.59196000  0.60566000  0.08230000  1.0
  C  C197  1  0.40805000  0.89434000  0.58230000  1.0
  C  C198  1  0.40804000  0.39434000  0.91770000  1.0
  C  C199  1  0.59195000  0.10566000  0.41770000  1.0
  C  C200  1  0.60314000  0.67142000  0.11776000  1.0
  C  C201  1  0.39686000  0.82858000  0.61776000  1.0
  C  C202  1  0.39686000  0.32858000  0.88224000  1.0
  C  C203  1  0.60314000  0.17142000  0.38224000  1.0
  C  C204  1  0.51920000  0.67786000  0.15218000  1.0
  C  C205  1  0.48080000  0.82214000  0.65218000  1.0
  C  C206  1  0.48080000  0.32214000  0.84782000  1.0
  C  C207  1  0.51920000  0.17786000  0.34782000  1.0
  C  C208  1  0.42465000  0.61907000  0.15112000  1.0
  C  C209  1  0.57535000  0.88093000  0.65112000  1.0
  C  C210  1  0.57535000  0.38093000  0.84888000  1.0
  C  C211  1  0.42465000  0.11907000  0.34888000  1.0
  C  C212  1  0.41574000  0.55250000  0.11577000  1.0
  C  C213  1  0.58426000  0.94750000  0.61577000  1.0
  C  C214  1  0.58426000  0.44750000  0.88423000  1.0
  C  C215  1  0.41574000  0.05250000  0.38423000  1.0
  C  C216  1  0.49956000  0.54545000  0.08121000  1.0
  C  C217  1  0.50044000  0.95455000  0.58121000  1.0
  C  C218  1  0.50044000  0.45455000  0.91879000  1.0
  C  C219  1  0.49956000  0.04545000  0.41878000  1.0
  C  C220  1  0.33333333  0.63047000  0.18661000  1.0
  C  C221  1  0.66666667  0.86953000  0.68661000  1.0
  C  C222  1  0.66666667  0.36953000  0.81339000  1.0
  C  C223  1  0.33333333  0.13047000  0.31339000  1.0
  C  C224  1  0.92538000  0.46784000  0.24348000  1.0
  C  C225  1  0.07462000  0.03216000  0.74347000  1.0
  C  C226  1  0.07462000  0.53216000  0.75652000  1.0
  C  C227  1  0.92538000  0.96784000  0.25653000  1.0
  C  C228  1  0.85720000  0.39168000  0.24166000  1.0
  C  C229  1  0.14280000  0.10832000  0.74166000  1.0
  C  C230  1  0.14280000  0.60832000  0.75834000  1.0
  C  C231  1  0.85721000  0.89168000  0.25834000  1.0
  C  C232  1  0.89149000  0.32247000  0.21464000  1.0
  C  C233  1  0.10851000  0.17753000  0.71464000  1.0
  C  C234  1  0.10851000  0.67753000  0.78536000  1.0
  C  C235  1  0.89149000  0.82247000  0.28536000  1.0
  C  C236  1  0.99411000  0.33386000  0.19064000  1.0
  C  C237  1  0.00589000  0.16614000  0.69064000  1.0
  C  C238  1  0.00589000  0.66614000  0.80936000  1.0
  C  C239  1  0.99411000  0.83386000  0.30936000  1.0
  C  C240  1  0.05717000  0.41204000  0.19443000  1.0
  C  C241  1  0.94283000  0.08796000  0.69443000  1.0
  C  C242  1  0.94283000  0.58796000  0.80557000  1.0
  C  C243  1  0.05717000  0.91204000  0.30557000  1.0
  C  C244  1  0.71973000  0.22774000  0.21985000  1.0
  C  C245  1  0.28027000  0.27226000  0.71985000  1.0
  C  C246  1  0.28027000  0.77226000  0.78015000  1.0
  C  C247  1  0.71973000  0.72774000  0.28015000  1.0
  C  C248  1  0.67732000  0.13196000  0.21817000  1.0
  C  C249  1  0.32268000  0.36804000  0.71817000  1.0
  C  C250  1  0.32268000  0.86804000  0.78183000  1.0
  C  C251  1  0.67732000  0.63196000  0.28183000  1.0
  C  C252  1  0.50227000  0.04007000  0.22193000  1.0
  C  C253  1  0.49773000  0.45992000  0.72193000  1.0
  C  C254  1  0.49773000  0.95992000  0.77807000  1.0
  C  C255  1  0.50227000  0.54008000  0.27807000  1.0
  C  C256  1  0.39085000  0.03481000  0.20885000  1.0
  C  C257  1  0.60915000  0.46519000  0.70885000  1.0
  C  C258  1  0.60915000  0.96519000  0.79115000  1.0
  C  C259  1  0.39085000  0.53481000  0.29115000  1.0
  C  C260  1  0.32570000  0.95813000  0.21576000  1.0
  C  C261  1  0.67430000  0.54187000  0.71576000  1.0
  C  C262  1  0.67430000  0.04187000  0.78424000  1.0
  C  C263  1  0.32570000  0.45813000  0.28424000  1.0
  C  C264  1  0.47123000  0.89315000  0.24813000  1.0
  C  C265  1  0.52877000  0.60685000  0.74813000  1.0
  C  C266  1  0.52877000  0.10685000  0.75187000  1.0
  C  C267  1  0.47123000  0.39315000  0.25187000  1.0
  C  C268  1  0.54286000  0.96691000  0.24199000  1.0
  C  C269  1  0.45714000  0.53309000  0.74199000  1.0
  C  C270  1  0.45714000  0.03309000  0.75801000  1.0
  C  C271  1  0.54286000  0.46691000  0.25801000  1.0
  N  N272  1  0.02369000  0.47845000  0.22024000  1.0
  N  N273  1  0.97631000  0.02155000  0.72024000  1.0
  N  N274  1  0.97631000  0.52155000  0.77976000  1.0
  N  N275  1  0.02369000  0.97845000  0.27976000  1.0
  N  N276  1  0.82980000  0.24269000  0.21185000  1.0
  N  N277  1  0.17020000  0.25731000  0.71185000  1.0
  N  N278  1  0.17020000  0.75731000  0.78815000  1.0
  N  N279  1  0.82980000  0.74269000  0.28815000  1.0
  N  N280  1  0.56555000  0.11856000  0.21632000  1.0
  N  N281  1  0.43445000  0.38144000  0.71632000  1.0
  N  N282  1  0.43445000  0.88144000  0.78368000  1.0
  N  N283  1  0.56555000  0.61856000  0.28368000  1.0
  N  N284  1  0.36448000  0.88783000  0.23503000  1.0
  N  N285  1  0.63551000  0.61217000  0.73503000  1.0
  N  N286  1  0.63551000  0.11217000  0.76497000  1.0
  N  N287  1  0.36449000  0.38783000  0.26497000  1.0
  O  O288  1  0.83857000  0.90090000  0.79887000  1.0
  O  O289  1  0.16143000  0.59910000  0.29887000  1.0
  O  O290  1  0.16143000  0.09910000  0.20113000  1.0
  O  O291  1  0.83857000  0.40090000  0.70113000  1.0
  O  O292  1  0.00759000  0.86324000  0.81383000  1.0
  O  O293  1  0.99241000  0.63676000  0.31383000  1.0
  O  O294  1  0.99241000  0.13676000  0.18617000  1.0
  O  O295  1  0.00759000  0.36324000  0.68617000  1.0
  O  O296  1  0.82546000  0.90894000  0.03584000  1.0
  O  O297  1  0.17454000  0.59106000  0.53584000  1.0
  O  O298  1  0.17454000  0.09106000  0.96416000  1.0
  O  O299  1  0.82546000  0.40894000  0.46416000  1.0
  O  O300  1  0.14024000  0.79969000  0.20821000  1.0
  O  O301  1  0.85976000  0.70031000  0.70821000  1.0
  O  O302  1  0.85976000  0.20031000  0.79179000  1.0
  O  O303  1  0.14024000  0.29969000  0.29179000  1.0
  O  O304  1  0.03859000  0.67308000  0.19229000  1.0
  O  O305  1  0.96141000  0.82692000  0.69229000  1.0
  O  O306  1  0.96141000  0.32692000  0.80771000  1.0
  O  O307  1  0.03859000  0.17308000  0.30771000  1.0
  O  O308  1  0.75404000  0.71245000  0.82296000  1.0
  O  O309  1  0.24596000  0.78755000  0.32296000  1.0
  O  O310  1  0.24596000  0.28755000  0.17704000  1.0
  O  O311  1  0.75404000  0.21245000  0.67704000  1.0
  O  O312  1  0.58906000  0.76241000  0.83346000  1.0
  O  O313  1  0.41094000  0.73759000  0.33346000  1.0
  O  O314  1  0.41094000  0.23759000  0.16654000  1.0
  O  O315  1  0.58906000  0.26241000  0.66654000  1.0
  O  O316  1  0.67801000  0.59869000  0.04880000  1.0
  O  O317  1  0.32199000  0.90131000  0.54880000  1.0
  O  O318  1  0.32199000  0.40131000  0.95120000  1.0
  O  O319  1  0.67801000  0.09869000  0.45120000  1.0
  O  O320  1  0.34906000  0.69280000  0.21739000  1.0
  O  O321  1  0.65093000  0.80721000  0.71740000  1.0
  O  O322  1  0.65093000  0.30720000  0.78261000  1.0
  O  O323  1  0.34907000  0.19279000  0.28260000  1.0
  O  O324  1  0.24636000  0.57816000  0.18391000  1.0
  O  O325  1  0.75364000  0.92184000  0.68391000  1.0
  O  O326  1  0.75364000  0.42184000  0.81609000  1.0
  O  O327  1  0.24636000  0.07816000  0.31609000  1.0
  O  O328  1  0.65704000  0.28225000  0.22908000  1.0
  O  O329  1  0.34295000  0.21775000  0.72908000  1.0
  O  O330  1  0.34296000  0.71775000  0.77092000  1.0
  O  O331  1  0.65705000  0.78225000  0.27092000  1.0
  O  O332  1  0.74066000  0.07613000  0.22021000  1.0
  O  O333  1  0.25935000  0.42386000  0.72021000  1.0
  O  O334  1  0.25935000  0.92386000  0.77979000  1.0
  O  O335  1  0.74065000  0.57614000  0.27979000  1.0
