# generated using pymatgen
data_AgH11C12N4O3
_symmetry_space_group_name_H-M   'P 1'
_cell_length_a   8.75556000
_cell_length_b   9.31267000
_cell_length_c   15.60320000
_cell_angle_alpha   89.99990000
_cell_angle_beta   89.99950000
_cell_angle_gamma   103.34700000
_symmetry_Int_Tables_number   1
_chemical_formula_structural   AgH11C12N4O3
_chemical_formula_sum   'Ag4 H44 C48 N16 O12'
_cell_volume   1237.88448686
_cell_formula_units_Z   4
loop_
 _symmetry_equiv_pos_site_id
 _symmetry_equiv_pos_as_xyz
  1  'x, y, z'
loop_
 _atom_site_type_symbol
 _atom_site_label
 _atom_site_symmetry_multiplicity
 _atom_site_fract_x
 _atom_site_fract_y
 _atom_site_fract_z
 _atom_site_occupancy
  Ag  Ag0  1  0.69756000  0.68734000  0.99556000  1.0
  Ag  Ag1  1  0.30244000  0.81266000  0.49556000  1.0
  Ag  Ag2  1  0.30244000  0.31266000  0.00444000  1.0
  Ag  Ag3  1  0.69756000  0.18734000  0.50444000  1.0
  H  H4  1  0.57675000  0.44988000  0.87655000  1.0
  H  H5  1  0.42325000  0.05012000  0.37655000  1.0
  H  H6  1  0.42325000  0.55012000  0.12345000  1.0
  H  H7  1  0.57675000  0.94988000  0.62345000  1.0
  H  H8  1  0.61822000  0.28417000  0.89968000  1.0
  H  H9  1  0.38178000  0.21583000  0.39968000  1.0
  H  H10  1  0.38177000  0.71583000  0.10032000  1.0
  H  H11  1  0.61823000  0.78417000  0.60032000  1.0
  H  H12  1  0.89788000  0.24441000  0.90892000  1.0
  H  H13  1  0.10212000  0.25559000  0.40892000  1.0
  H  H14  1  0.10212000  0.75559000  0.09108000  1.0
  H  H15  1  0.89788000  0.74441000  0.59108000  1.0
  H  H16  1  0.87576000  0.97494000  0.89692000  1.0
  H  H17  1  0.12425000  0.52506000  0.39692000  1.0
  H  H18  1  0.12424000  0.02506000  0.10308000  1.0
  H  H19  1  0.87576000  0.47494000  0.60308000  1.0
  H  H20  1  0.61635000  0.89222000  0.12204000  1.0
  H  H21  1  0.38364000  0.60777000  0.62204000  1.0
  H  H22  1  0.38365000  0.10777000  0.87796000  1.0
  H  H23  1  0.61635000  0.39223000  0.37797000  1.0
  H  H24  1  0.62471000  0.15946000  0.14271000  1.0
  H  H25  1  0.37528000  0.34053000  0.64271000  1.0
  H  H26  1  0.37529000  0.84054000  0.85729000  1.0
  H  H27  1  0.62472000  0.65947000  0.35729000  1.0
  H  H28  1  0.68833000  0.59189000  0.14318000  1.0
  H  H29  1  0.31166000  0.90811000  0.64318000  1.0
  H  H30  1  0.31166000  0.40811000  0.85682000  1.0
  H  H31  1  0.68834000  0.09188000  0.35682000  1.0
  H  H32  1  0.85365000  0.73627000  0.25428000  1.0
  H  H33  1  0.14635000  0.76373000  0.75428000  1.0
  H  H34  1  0.14635000  0.26373000  0.74572000  1.0
  H  H35  1  0.85365000  0.23627000  0.24572000  1.0
  H  H36  1  0.11238000  0.68263000  0.29188000  1.0
  H  H37  1  0.88762000  0.81737000  0.79189000  1.0
  H  H38  1  0.88762000  0.31737000  0.70812000  1.0
  H  H39  1  0.11239000  0.18264000  0.20811000  1.0
  H  H40  1  0.19873000  0.47670000  0.21857000  1.0
  H  H41  1  0.80127000  0.02330000  0.71857000  1.0
  H  H42  1  0.80127000  0.52330000  0.78143000  1.0
  H  H43  1  0.19874000  0.97671000  0.28143000  1.0
  H  H44  1  0.04000000  0.34300000  0.09920000  1.0
  H  H45  1  0.96000000  0.15699000  0.59920000  1.0
  H  H46  1  0.96000000  0.65700000  0.90080000  1.0
  H  H47  1  0.04002000  0.84301000  0.40080000  1.0
  C  C48  1  0.83365000  0.17054000  0.95752000  1.0
  C  C49  1  0.16636000  0.32946000  0.45751000  1.0
  C  C50  1  0.16635000  0.82946000  0.04248000  1.0
  C  C51  1  0.83365000  0.67054000  0.54249000  1.0
  C  C52  1  0.82168000  0.01948000  0.95047000  1.0
  C  C53  1  0.17832000  0.48052000  0.45046000  1.0
  C  C54  1  0.17832000  0.98052000  0.04953000  1.0
  C  C55  1  0.82168000  0.51948000  0.54954000  1.0
  C  C56  1  0.67605000  0.97382000  0.07582000  1.0
  C  C57  1  0.32395000  0.52618000  0.57582000  1.0
  C  C58  1  0.32395000  0.02618000  0.92418000  1.0
  C  C59  1  0.67605000  0.47382000  0.42418000  1.0
  C  C60  1  0.68167000  0.12275000  0.08725000  1.0
  C  C61  1  0.31833000  0.37724000  0.58725000  1.0
  C  C62  1  0.31833000  0.87725000  0.91275000  1.0
  C  C63  1  0.68168000  0.62276000  0.41275000  1.0
  C  C64  1  0.76112000  0.22400000  0.02672000  1.0
  C  C65  1  0.23888000  0.27600000  0.52671000  1.0
  C  C66  1  0.23888000  0.77600000  0.97328000  1.0
  C  C67  1  0.76113000  0.72400000  0.47329000  1.0
  C  C68  1  0.76665000  0.38381000  0.03719000  1.0
  C  C69  1  0.23334000  0.11619000  0.53719000  1.0
  C  C70  1  0.23334000  0.61619000  0.96281000  1.0
  C  C71  1  0.76667000  0.88382000  0.46281000  1.0
  C  C72  1  0.85705000  0.46319000  0.10907000  1.0
  C  C73  1  0.14294000  0.03681000  0.60907000  1.0
  C  C74  1  0.14294000  0.53681000  0.89093000  1.0
  C  C75  1  0.85706000  0.96320000  0.39093000  1.0
  C  C76  1  0.80444000  0.57244000  0.15517000  1.0
  C  C77  1  0.19556000  0.92756000  0.65517000  1.0
  C  C78  1  0.19556000  0.42756000  0.84483000  1.0
  C  C79  1  0.80444000  0.07244000  0.34482000  1.0
  C  C80  1  0.89600000  0.65097000  0.22030000  1.0
  C  C81  1  0.10400000  0.84904000  0.72031000  1.0
  C  C82  1  0.10400000  0.34904000  0.77970000  1.0
  C  C83  1  0.89600000  0.15096000  0.27969000  1.0
  C  C84  1  0.03914000  0.61867000  0.24226000  1.0
  C  C85  1  0.96086000  0.88133000  0.74226000  1.0
  C  C86  1  0.96086000  0.38133000  0.75774000  1.0
  C  C87  1  0.03915000  0.11868000  0.25774000  1.0
  C  C88  1  0.08960000  0.50572000  0.19985000  1.0
  C  C89  1  0.91040000  0.99429000  0.69985000  1.0
  C  C90  1  0.91040000  0.49428000  0.80015000  1.0
  C  C91  1  0.08961000  0.00572000  0.30015000  1.0
  C  C92  1  0.99911000  0.42920000  0.13357000  1.0
  C  C93  1  0.00088000  0.07080000  0.63357000  1.0
  C  C94  1  0.00088000  0.57080000  0.86643000  1.0
  C  C95  1  0.99913000  0.92920000  0.36643000  1.0
  N  N96  1  0.74330000  0.92192000  0.00811000  1.0
  N  N97  1  0.25670000  0.57808000  0.50811000  1.0
  N  N98  1  0.25669000  0.07808000  0.99189000  1.0
  N  N99  1  0.74330000  0.42192000  0.49190000  1.0
  N  N100  1  0.69139000  0.45308000  0.98541000  1.0
  N  N101  1  0.30861000  0.04691000  0.48541000  1.0
  N  N102  1  0.30861000  0.54692000  0.01459000  1.0
  N  N103  1  0.69140000  0.95308000  0.51459000  1.0
  N  N104  1  0.59188000  0.37826000  0.92427000  1.0
  N  N105  1  0.40812000  0.12173000  0.42427000  1.0
  N  N106  1  0.40811000  0.62173000  0.07573000  1.0
  N  N107  1  0.59189000  0.87827000  0.57573000  1.0
  N  N108  1  0.54557000  0.67925000  0.76123000  1.0
  N  N109  1  0.45443000  0.82074000  0.26123000  1.0
  N  N110  1  0.45443000  0.32075000  0.23877000  1.0
  N  N111  1  0.54557000  0.17925000  0.73877000  1.0
  O  O112  1  0.55401000  0.63957000  0.83909000  1.0
  O  O113  1  0.44598000  0.86043000  0.33909000  1.0
  O  O114  1  0.44598000  0.36043000  0.16091000  1.0
  O  O115  1  0.55401000  0.13957000  0.66091000  1.0
  O  O116  1  0.45112000  0.75794000  0.74086000  1.0
  O  O117  1  0.54887000  0.74205000  0.24086000  1.0
  O  O118  1  0.54887000  0.24205000  0.25914000  1.0
  O  O119  1  0.45113000  0.25794000  0.75914000  1.0
  O  O120  1  0.63112000  0.63944000  0.70457000  1.0
  O  O121  1  0.36888000  0.86056000  0.20457000  1.0
  O  O122  1  0.36888000  0.36057000  0.29544000  1.0
  O  O123  1  0.63112000  0.13944000  0.79544000  1.0
