# generated using pymatgen
data_Ni3H22C30(N3O7)2
_symmetry_space_group_name_H-M   'P 1'
_cell_length_a   6.84469000
_cell_length_b   20.21950000
_cell_length_c   20.47090000
_cell_angle_alpha   117.38300000
_cell_angle_beta   89.99950000
_cell_angle_gamma   89.99910000
_symmetry_Int_Tables_number   1
_chemical_formula_structural   Ni3H22C30(N3O7)2
_chemical_formula_sum   'Ni6 H44 C60 N12 O28'
_cell_volume   2515.65202746
_cell_formula_units_Z   2
loop_
 _symmetry_equiv_pos_site_id
 _symmetry_equiv_pos_as_xyz
  1  'x, y, z'
loop_
 _atom_site_type_symbol
 _atom_site_label
 _atom_site_symmetry_multiplicity
 _atom_site_fract_x
 _atom_site_fract_y
 _atom_site_fract_z
 _atom_site_occupancy
  Ni  Ni0  1  0.51090000  0.12986000  0.42227000  1.0
  Ni  Ni1  1  0.51091000  0.37013000  0.57772000  1.0
  Ni  Ni2  1  0.48911000  0.87014000  0.57773000  1.0
  Ni  Ni3  1  0.48909000  0.62986000  0.42228000  1.0
  Ni  Ni4  1  0.39571000  0.25001000  0.00001000  1.0
  Ni  Ni5  1  0.60428000  0.75000000  0.00000000  1.0
  H  H6  1  0.50997000  0.40832000  0.43764000  1.0
  H  H7  1  0.50996000  0.09168000  0.56237000  1.0
  H  H8  1  0.49003000  0.59168000  0.56236000  1.0
  H  H9  1  0.49004000  0.90831000  0.43763000  1.0
  H  H10  1  0.44719000  0.39529000  0.22312000  1.0
  H  H11  1  0.44719000  0.10471000  0.77688000  1.0
  H  H12  1  0.55280000  0.60470000  0.77688000  1.0
  H  H13  1  0.55282000  0.89529000  0.22312000  1.0
  H  H14  1  0.47193000  0.19375000  0.24516000  1.0
  H  H15  1  0.47193000  0.30625000  0.75484000  1.0
  H  H16  1  0.52807000  0.80624000  0.75484000  1.0
  H  H17  1  0.52807000  0.69375000  0.24516000  1.0
  H  H18  1  0.19675000  0.13615000  0.52717000  1.0
  H  H19  1  0.19678000  0.36382000  0.47282000  1.0
  H  H20  1  0.80325000  0.86384000  0.47283000  1.0
  H  H21  1  0.80322000  0.63616000  0.52718000  1.0
  H  H22  1  0.82444000  0.13648000  0.52718000  1.0
  H  H23  1  0.82447000  0.36351000  0.47281000  1.0
  H  H24  1  0.17556000  0.86352000  0.47282000  1.0
  H  H25  1  0.17554000  0.63649000  0.52719000  1.0
  H  H26  1  0.82404000  0.12228000  0.31870000  1.0
  H  H27  1  0.82406000  0.37773000  0.68130000  1.0
  H  H28  1  0.17596000  0.87772000  0.68130000  1.0
  H  H29  1  0.17595000  0.62228000  0.31870000  1.0
  H  H30  1  0.19771000  0.12243000  0.31881000  1.0
  H  H31  1  0.19773000  0.37757000  0.68119000  1.0
  H  H32  1  0.80229000  0.87757000  0.68119000  1.0
  H  H33  1  0.80227000  0.62243000  0.31881000  1.0
  H  H34  1  0.08458000  0.34197000  0.10283000  1.0
  H  H35  1  0.08459000  0.15807000  0.89718000  1.0
  H  H36  1  0.91542000  0.65804000  0.89718000  1.0
  H  H37  1  0.91539000  0.84195000  0.10282000  1.0
  H  H38  1  0.71187000  0.33977000  0.10462000  1.0
  H  H39  1  0.71188000  0.16026000  0.89540000  1.0
  H  H40  1  0.28813000  0.66024000  0.89539000  1.0
  H  H41  1  0.28810000  0.83976000  0.10461000  1.0
  H  H42  1  0.40720000  0.35511000  0.96888000  1.0
  H  H43  1  0.40720000  0.14490000  0.03113000  1.0
  H  H44  1  0.59280000  0.64490000  0.03112000  1.0
  H  H45  1  0.59281000  0.85510000  0.96887000  1.0
  H  H46  1  0.47056000  0.39716000  0.05531000  1.0
  H  H47  1  0.47055000  0.10286000  0.94469000  1.0
  H  H48  1  0.52943000  0.60285000  0.94469000  1.0
  H  H49  1  0.52943000  0.89715000  0.05530000  1.0
  C  C50  1  0.48659000  0.49292000  0.36714000  1.0
  C  C51  1  0.48660000  0.00708000  0.63286000  1.0
  C  C52  1  0.51341000  0.50708000  0.63286000  1.0
  C  C53  1  0.51341000  0.99292000  0.36714000  1.0
  C  C54  1  0.48224000  0.41009000  0.33356000  1.0
  C  C55  1  0.48224000  0.08991000  0.66645000  1.0
  C  C56  1  0.51775000  0.58990000  0.66644000  1.0
  C  C57  1  0.51777000  0.91009000  0.33356000  1.0
  C  C58  1  0.49662000  0.37469000  0.37819000  1.0
  C  C59  1  0.49661000  0.12531000  0.62181000  1.0
  C  C60  1  0.50338000  0.62531000  0.62181000  1.0
  C  C61  1  0.50339000  0.87469000  0.37819000  1.0
  C  C62  1  0.46135000  0.36757000  0.25756000  1.0
  C  C63  1  0.46134000  0.13243000  0.74244000  1.0
  C  C64  1  0.53865000  0.63242000  0.74243000  1.0
  C  C65  1  0.53867000  0.86757000  0.25756000  1.0
  C  C66  1  0.50654000  0.26037000  0.39623000  1.0
  C  C67  1  0.50652000  0.23963000  0.60377000  1.0
  C  C68  1  0.49347000  0.73963000  0.60377000  1.0
  C  C69  1  0.49348000  0.76037000  0.39623000  1.0
  C  C70  1  0.49297000  0.29676000  0.34658000  1.0
  C  C71  1  0.49296000  0.20324000  0.65342000  1.0
  C  C72  1  0.50704000  0.70324000  0.65342000  1.0
  C  C73  1  0.50705000  0.79676000  0.34658000  1.0
  C  C74  1  0.47410000  0.25435000  0.27009000  1.0
  C  C75  1  0.47409000  0.24565000  0.72991000  1.0
  C  C76  1  0.52591000  0.74565000  0.72990000  1.0
  C  C77  1  0.52591000  0.75435000  0.27009000  1.0
  C  C78  1  0.45657000  0.28973000  0.22550000  1.0
  C  C79  1  0.45657000  0.21027000  0.77451000  1.0
  C  C80  1  0.54343000  0.71026000  0.77450000  1.0
  C  C81  1  0.54344000  0.78973000  0.22550000  1.0
  C  C82  1  0.43152000  0.24590000  0.14358000  1.0
  C  C83  1  0.43152000  0.25410000  0.85642000  1.0
  C  C84  1  0.56848000  0.75409000  0.85642000  1.0
  C  C85  1  0.56849000  0.74590000  0.14358000  1.0
  C  C86  1  0.11234000  0.13345000  0.48092000  1.0
  C  C87  1  0.11237000  0.36654000  0.51908000  1.0
  C  C88  1  0.88765000  0.86655000  0.51908000  1.0
  C  C89  1  0.88763000  0.63345000  0.48092000  1.0
  C  C90  1  0.90919000  0.13352000  0.48090000  1.0
  C  C91  1  0.90921000  0.36647000  0.51909000  1.0
  C  C92  1  0.09081000  0.86648000  0.51909000  1.0
  C  C93  1  0.09079000  0.63352000  0.48091000  1.0
  C  C94  1  0.90920000  0.12552000  0.36505000  1.0
  C  C95  1  0.90922000  0.37448000  0.63495000  1.0
  C  C96  1  0.09081000  0.87448000  0.63495000  1.0
  C  C97  1  0.09079000  0.62552000  0.36505000  1.0
  C  C98  1  0.11253000  0.12554000  0.36509000  1.0
  C  C99  1  0.11255000  0.37446000  0.63491000  1.0
  C  C100  1  0.88747000  0.87445000  0.63491000  1.0
  C  C101  1  0.88745000  0.62554000  0.36509000  1.0
  C  C102  1  0.99917000  0.30110000  0.05726000  1.0
  C  C103  1  0.99918000  0.19893000  0.94276000  1.0
  C  C104  1  0.00082000  0.69892000  0.94275000  1.0
  C  C105  1  0.00081000  0.80108000  0.05725000  1.0
  C  C106  1  0.79618000  0.30045000  0.05759000  1.0
  C  C107  1  0.79618000  0.19958000  0.94243000  1.0
  C  C108  1  0.20381000  0.69956000  0.94242000  1.0
  C  C109  1  0.20380000  0.80043000  0.05758000  1.0
  N  N110  1  0.21406000  0.13034000  0.42338000  1.0
  N  N111  1  0.21409000  0.36965000  0.57662000  1.0
  N  N112  1  0.78594000  0.86966000  0.57662000  1.0
  N  N113  1  0.78592000  0.63034000  0.42338000  1.0
  N  N114  1  0.80765000  0.13038000  0.42332000  1.0
  N  N115  1  0.80767000  0.36962000  0.57668000  1.0
  N  N116  1  0.19235000  0.86962000  0.57668000  1.0
  N  N117  1  0.19234000  0.63038000  0.42332000  1.0
  N  N118  1  0.09973000  0.25002000  0.00001000  1.0
  N  N119  1  0.90025000  0.75000000  0.00000000  1.0
  N  N120  1  0.69451000  0.25001000  0.00001000  1.0
  N  N121  1  0.30548000  0.75000000  0.00000000  1.0
  O  O122  1  0.48884000  0.53174000  0.43709000  1.0
  O  O123  1  0.48885000  0.96826000  0.56291000  1.0
  O  O124  1  0.51116000  0.46826000  0.56290000  1.0
  O  O125  1  0.51116000  0.03174000  0.43709000  1.0
  O  O126  1  0.48735000  0.52546000  0.32604000  1.0
  O  O127  1  0.48736000  0.97454000  0.67397000  1.0
  O  O128  1  0.51265000  0.47454000  0.67396000  1.0
  O  O129  1  0.51265000  0.02546000  0.32603000  1.0
  O  O130  1  0.50850000  0.18903000  0.36498000  1.0
  O  O131  1  0.50853000  0.31096000  0.63501000  1.0
  O  O132  1  0.49150000  0.81096000  0.63502000  1.0
  O  O133  1  0.49147000  0.68904000  0.36498000  1.0
  O  O134  1  0.51475000  0.30211000  0.46466000  1.0
  O  O135  1  0.51467000  0.19788000  0.53534000  1.0
  O  O136  1  0.48527000  0.69789000  0.53534000  1.0
  O  O137  1  0.48533000  0.80212000  0.46466000  1.0
  O  O138  1  0.39961000  0.28554000  0.11021000  1.0
  O  O139  1  0.39962000  0.21446000  0.88979000  1.0
  O  O140  1  0.60037000  0.71445000  0.88979000  1.0
  O  O141  1  0.60037000  0.78554000  0.11021000  1.0
  O  O142  1  0.44314000  0.17559000  0.11329000  1.0
  O  O143  1  0.44314000  0.32441000  0.88671000  1.0
  O  O144  1  0.55688000  0.82441000  0.88671000  1.0
  O  O145  1  0.55687000  0.67559000  0.11329000  1.0
  O  O146  1  0.37501000  0.36287000  0.02160000  1.0
  O  O147  1  0.37501000  0.13715000  0.97840000  1.0
  O  O148  1  0.62498000  0.63714000  0.97840000  1.0
  O  O149  1  0.62499000  0.86286000  0.02159000  1.0
