# generated using pymatgen
data_CuH7C9N5O3
_symmetry_space_group_name_H-M   'P 1'
_cell_length_a   9.21081000
_cell_length_b   9.48647000
_cell_length_c   13.65636091
_cell_angle_alpha   69.67371183
_cell_angle_beta   78.25925068
_cell_angle_gamma   90.01950000
_symmetry_Int_Tables_number   1
_chemical_formula_structural   CuH7C9N5O3
_chemical_formula_sum   'Cu4 H28 C36 N20 O12'
_cell_volume   1092.26786267
_cell_formula_units_Z   4
loop_
 _symmetry_equiv_pos_site_id
 _symmetry_equiv_pos_as_xyz
  1  'x, y, z'
loop_
 _atom_site_type_symbol
 _atom_site_label
 _atom_site_symmetry_multiplicity
 _atom_site_fract_x
 _atom_site_fract_y
 _atom_site_fract_z
 _atom_site_occupancy
  Cu  Cu0  1  0.06803000  0.36601000  0.62784000  1.0
  Cu  Cu1  1  0.43191000  0.99387000  0.37220000  1.0
  Cu  Cu2  1  0.93197000  0.63385000  0.37236000  1.0
  Cu  Cu3  1  0.56799000  0.00621000  0.62778000  1.0
  H  H4  1  0.80296000  0.26795000  0.80025000  1.0
  H  H5  1  0.69656000  0.06815000  0.19962000  1.0
  H  H6  1  0.19714000  0.73200000  0.19978000  1.0
  H  H7  1  0.30330000  0.93174000  0.80053000  1.0
  H  H8  1  0.64021000  0.37297000  0.92158000  1.0
  H  H9  1  0.85946000  0.29436000  0.07807000  1.0
  H  H10  1  0.35980000  0.62706000  0.07837000  1.0
  H  H11  1  0.14041000  0.70549000  0.92198000  1.0
  H  H12  1  0.93073000  0.78249000  0.77857000  1.0
  H  H13  1  0.56974000  0.56124000  0.22101000  1.0
  H  H14  1  0.06929000  0.21753000  0.22137000  1.0
  H  H15  1  0.43026000  0.43876000  0.77898000  1.0
  H  H16  1  0.08234000  0.66120000  0.66195000  1.0
  H  H17  1  0.41802000  0.32341000  0.33797000  1.0
  H  H18  1  0.91781000  0.33872000  0.33811000  1.0
  H  H19  1  0.58201000  0.67660000  0.66216000  1.0
  H  H20  1  0.57813000  0.57501000  0.98064000  1.0
  H  H21  1  0.92211000  0.55556000  0.01902000  1.0
  H  H22  1  0.42190000  0.42501000  0.01930000  1.0
  H  H23  1  0.07786000  0.44431000  0.98103000  1.0
  H  H24  1  0.62330000  0.75495000  0.87782000  1.0
  H  H25  1  0.87716000  0.63257000  0.12190000  1.0
  H  H26  1  0.37679000  0.24509000  0.12215000  1.0
  H  H27  1  0.12281000  0.36729000  0.87815000  1.0
  H  H28  1  0.83154000  0.80690000  0.94821000  1.0
  H  H29  1  0.66934000  0.75552000  0.05137000  1.0
  H  H30  1  0.16855000  0.19301000  0.05182000  1.0
  H  H31  1  0.33070000  0.24443000  0.94862000  1.0
  C  C32  1  0.31881000  0.23888000  0.70775000  1.0
  C  C33  1  0.18123000  0.94655000  0.29225000  1.0
  C  C34  1  0.68142000  0.76085000  0.29228000  1.0
  C  C35  1  0.81890000  0.05370000  0.70753000  1.0
  C  C36  1  0.30727000  0.18863000  0.61745000  1.0
  C  C37  1  0.19266000  0.80599000  0.38262000  1.0
  C  C38  1  0.69268000  0.81128000  0.38256000  1.0
  C  C39  1  0.80722000  0.19425000  0.61730000  1.0
  C  C40  1  0.82585000  0.38262000  0.79635000  1.0
  C  C41  1  0.67388000  0.17895000  0.20350000  1.0
  C  C42  1  0.17425000  0.61733000  0.20369000  1.0
  C  C43  1  0.32604000  0.82096000  0.79662000  1.0
  C  C44  1  0.73602000  0.44244000  0.86447000  1.0
  C  C45  1  0.76382000  0.30685000  0.13522000  1.0
  C  C46  1  0.26404000  0.55755000  0.13552000  1.0
  C  C47  1  0.23609000  0.69305000  0.86484000  1.0
  C  C48  1  0.76910000  0.58918000  0.85941000  1.0
  C  C49  1  0.73106000  0.44859000  0.14023000  1.0
  C  C50  1  0.23097000  0.41083000  0.14055000  1.0
  C  C51  1  0.26889000  0.55132000  0.85981000  1.0
  C  C52  1  0.89753000  0.66840000  0.78577000  1.0
  C  C53  1  0.60274000  0.45426000  0.21391000  1.0
  C  C54  1  0.10254000  0.33161000  0.21420000  1.0
  C  C55  1  0.39724000  0.54572000  0.78613000  1.0
  C  C56  1  0.98225000  0.60202000  0.71978000  1.0
  C  C57  1  0.51797000  0.32196000  0.28006000  1.0
  C  C58  1  0.01788000  0.39794000  0.28025000  1.0
  C  C59  1  0.48202000  0.67805000  0.72003000  1.0
  C  C60  1  0.67041000  0.65800000  0.92971000  1.0
  C  C61  1  0.82995000  0.58765000  0.06997000  1.0
  C  C62  1  0.32965000  0.34200000  0.07026000  1.0
  C  C63  1  0.17003000  0.41225000  0.93006000  1.0
  C  C64  1  0.75033000  0.71206000  0.99982000  1.0
  C  C65  1  0.24971000  0.28787000  0.00019000  1.0
  C  C66  1  0.49999000  0.99996000  1.00000000  1.0
  C  C67  1  0.00000000  0.00010000  0.99990000  1.0
  N  N68  1  0.19569000  0.23163000  0.56696000  1.0
  N  N69  1  0.30424000  0.79848000  0.43311000  1.0
  N  N70  1  0.80419000  0.76847000  0.43315000  1.0
  N  N71  1  0.69554000  0.20176000  0.56689000  1.0
  N  N72  1  0.20730000  0.16839000  0.49235000  1.0
  N  N73  1  0.29259000  0.66061000  0.50770000  1.0
  N  N74  1  0.79236000  0.83183000  0.50770000  1.0
  N  N75  1  0.70718000  0.33965000  0.49231000  1.0
  N  N76  1  0.32484000  0.08791000  0.49792000  1.0
  N  N77  1  0.17498000  0.58571000  0.50214000  1.0
  N  N78  1  0.67475000  0.91223000  0.50199000  1.0
  N  N79  1  0.82484000  0.41451000  0.49783000  1.0
  N  N80  1  0.38943000  0.09938000  0.57537000  1.0
  N  N81  1  0.11042000  0.67466000  0.42472000  1.0
  N  N82  1  0.61036000  0.90056000  0.42453000  1.0
  N  N83  1  0.88948000  0.32555000  0.57521000  1.0
  N  N84  1  0.94636000  0.46203000  0.72384000  1.0
  N  N85  1  0.55361000  0.18595000  0.27610000  1.0
  N  N86  1  0.05379000  0.53790000  0.27624000  1.0
  N  N87  1  0.44637000  0.81403000  0.72403000  1.0
  O  O88  1  0.41658000  0.19554000  0.76021000  1.0
  O  O89  1  0.08370000  0.95557000  0.23961000  1.0
  O  O90  1  0.58399000  0.80430000  0.23953000  1.0
  O  O91  1  0.91655000  0.04476000  0.76007000  1.0
  O  O92  1  0.21660000  0.32712000  0.72333000  1.0
  O  O93  1  0.28332000  0.05049000  0.27683000  1.0
  O  O94  1  0.78348000  0.67230000  0.27703000  1.0
  O  O95  1  0.71693000  0.94963000  0.72296000  1.0
  O  O96  1  0.59642000  0.09587000  0.97140000  1.0
  O  O97  1  0.90322000  0.06680000  0.02871000  1.0
  O  O98  1  0.40355000  0.90407000  0.02859000  1.0
  O  O99  1  0.09679000  0.93338000  0.97110000  1.0
