# generated using pymatgen
data_ZnH3C16NCl5(O2F)2
_symmetry_space_group_name_H-M   'P 1'
_cell_length_a   9.91241000
_cell_length_b   11.00970000
_cell_length_c   17.78750000
_cell_angle_alpha   89.01050000
_cell_angle_beta   88.45540000
_cell_angle_gamma   89.93850000
_symmetry_Int_Tables_number   1
_chemical_formula_structural   ZnH3C16NCl5(O2F)2
_chemical_formula_sum   'Zn2 H6 C32 N2 Cl10 O8 F4'
_cell_volume   1940.20212237
_cell_formula_units_Z   2
loop_
 _symmetry_equiv_pos_site_id
 _symmetry_equiv_pos_as_xyz
  1  'x, y, z'
loop_
 _atom_site_type_symbol
 _atom_site_label
 _atom_site_symmetry_multiplicity
 _atom_site_fract_x
 _atom_site_fract_y
 _atom_site_fract_z
 _atom_site_occupancy
  Zn  Zn0  1  0.63727000  0.49659000  0.50110000  1.0
  Zn  Zn1  1  0.35491000  0.49831000  0.50478000  1.0
  H  H2  1  0.68603000  0.66462000  0.86364000  1.0
  H  H3  1  0.58530000  0.10418000  0.32041000  1.0
  H  H4  1  0.36815000  0.90630000  0.33026000  1.0
  H  H5  1  0.13442000  0.75146000  0.42082000  1.0
  H  H6  1  0.32999000  0.44043000  0.89260000  1.0
  H  H7  1  0.33861000  0.66548000  0.12986000  1.0
  C  C8  1  0.49552000  0.72969000  0.49871000  1.0
  C  C9  1  0.50920000  0.54548000  0.11507000  1.0
  C  C10  1  0.48810000  0.93720000  0.43236000  1.0
  C  C11  1  0.49138000  0.50537000  0.35856000  1.0
  C  C12  1  0.49739000  0.86582000  0.49736000  1.0
  C  C13  1  0.50719000  0.93159000  0.56358000  1.0
  C  C14  1  0.50638000  0.05952000  0.56539000  1.0
  C  C15  1  0.49886000  0.12952000  0.49875000  1.0
  C  C16  1  0.49314000  0.06347000  0.43299000  1.0
  C  C17  1  0.49003000  0.07605000  0.34824000  1.0
  C  C18  1  0.46852000  0.93404000  0.34830000  1.0
  C  C19  1  0.50845000  0.55416000  0.88776000  1.0
  C  C20  1  0.06487000  0.60318000  0.49941000  1.0
  C  C21  1  0.06596000  0.41152000  0.54136000  1.0
  C  C22  1  0.92162000  0.40764000  0.54136000  1.0
  C  C23  1  0.49918000  0.26585000  0.49927000  1.0
  C  C24  1  0.92581000  0.60030000  0.49698000  1.0
  C  C25  1  0.91678000  0.73171000  0.46826000  1.0
  C  C26  1  0.07927000  0.73428000  0.47407000  1.0
  C  C27  1  0.49704000  0.50735000  0.64646000  1.0
  C  C28  1  0.60652000  0.60990000  0.84026000  1.0
  C  C29  1  0.60251000  0.59398000  0.76280000  1.0
  C  C30  1  0.51290000  0.56188000  0.96716000  1.0
  C  C31  1  0.50119000  0.52424000  0.73000000  1.0
  C  C32  1  0.40326000  0.47063000  0.77883000  1.0
  C  C33  1  0.40586000  0.48464000  0.85628000  1.0
  C  C34  1  0.51276000  0.55740000  0.03568000  1.0
  C  C35  1  0.60141000  0.46842000  0.15226000  1.0
  C  C36  1  0.59290000  0.45406000  0.23080000  1.0
  C  C37  1  0.49409000  0.51588000  0.27390000  1.0
  C  C38  1  0.40248000  0.59049000  0.23566000  1.0
  C  C39  1  0.41003000  0.60620000  0.15796000  1.0
  N  N40  1  0.13999000  0.50639000  0.51868000  1.0
  N  N41  1  0.85019000  0.50248000  0.51493000  1.0
  Cl  Cl42  1  0.51849000  0.12874000  0.65101000  1.0
  Cl  Cl43  1  0.27598000  0.66889000  0.28354000  1.0
  Cl  Cl44  1  0.35954000  0.16719000  0.30891000  1.0
  Cl  Cl45  1  0.84537000  0.28135000  0.57622000  1.0
  Cl  Cl46  1  0.85717000  0.75114000  0.37675000  1.0
  Cl  Cl47  1  0.72551000  0.66625000  0.70759000  1.0
  Cl  Cl48  1  0.13719000  0.83416000  0.54252000  1.0
  Cl  Cl49  1  0.27826000  0.37865000  0.74437000  1.0
  Cl  Cl50  1  0.72144000  0.39261000  0.10007000  1.0
  Cl  Cl51  1  0.70266000  0.35573000  0.27414000  1.0
  O  O52  1  0.60273000  0.67710000  0.51886000  1.0
  O  O53  1  0.38671000  0.67982000  0.47923000  1.0
  O  O54  1  0.60041000  0.53348000  0.38985000  1.0
  O  O55  1  0.38152000  0.47161000  0.39074000  1.0
  O  O56  1  0.60813000  0.31712000  0.47709000  1.0
  O  O57  1  0.39098000  0.31687000  0.52129000  1.0
  O  O58  1  0.60240000  0.46496000  0.61428000  1.0
  O  O59  1  0.38816000  0.53710000  0.61486000  1.0
  F  F60  1  0.56423000  0.86915000  0.30565000  1.0
  F  F61  1  0.12992000  0.31325000  0.56496000  1.0
  F  F62  1  0.85280000  0.81072000  0.51558000  1.0
  F  F63  1  0.51357000  0.86972000  0.62979000  1.0
