# generated using pymatgen
data_Al3H33C56(N3O8)2
_symmetry_space_group_name_H-M   'P 1'
_cell_length_a   13.59950000
_cell_length_b   13.82830000
_cell_length_c   33.48140000
_cell_angle_alpha   83.61880000
_cell_angle_beta   84.08470000
_cell_angle_gamma   62.57150000
_symmetry_Int_Tables_number   1
_chemical_formula_structural   Al3H33C56(N3O8)2
_chemical_formula_sum   'Al6 H66 C112 N12 O32'
_cell_volume   5544.40549522
_cell_formula_units_Z   2
loop_
 _symmetry_equiv_pos_site_id
 _symmetry_equiv_pos_as_xyz
  1  'x, y, z'
loop_
 _atom_site_type_symbol
 _atom_site_label
 _atom_site_symmetry_multiplicity
 _atom_site_fract_x
 _atom_site_fract_y
 _atom_site_fract_z
 _atom_site_occupancy
  Al  Al0  1  0.57682000  0.59355000  0.49020000  1.0
  Al  Al1  1  0.57896000  0.35932000  0.50368000  1.0
  Al  Al2  1  0.35887000  0.55907000  0.50421000  1.0
  Al  Al3  1  0.07464000  0.08091000  0.01392000  1.0
  Al  Al4  1  0.30894000  0.08709000  0.00475000  1.0
  Al  Al5  1  0.10166000  0.30043000  0.00484000  1.0
  H  H6  1  0.15229000  0.42750000  0.89183000  1.0
  H  H7  1  0.20310000  0.75905000  0.60159000  1.0
  H  H8  1  0.44675000  0.92778000  0.90087000  1.0
  H  H9  1  0.51491000  0.77374000  0.66214000  1.0
  H  H10  1  0.18179000  0.81089000  0.67277000  1.0
  H  H11  1  0.46994000  0.87828000  0.82940000  1.0
  H  H12  1  0.12775000  0.93233000  0.91380000  1.0
  H  H13  1  0.15029000  0.88213000  0.84215000  1.0
  H  H14  1  0.76195000  0.22569000  0.60437000  1.0
  H  H15  1  0.72044000  0.55443000  0.59126000  1.0
  H  H16  1  0.91894000  0.14893000  0.91558000  1.0
  H  H17  1  0.18185000  0.44437000  0.81700000  1.0
  H  H18  1  0.82999000  0.20143000  0.67346000  1.0
  H  H19  1  0.78261000  0.53296000  0.66140000  1.0
  H  H20  1  0.94320000  0.44895000  0.90245000  1.0
  H  H21  1  0.91156000  0.46716000  0.82879000  1.0
  H  H22  1  0.55604000  0.22534000  0.40521000  1.0
  H  H23  1  0.23898000  0.51050000  0.40846000  1.0
  H  H24  1  0.45064000  0.12710000  0.10090000  1.0
  H  H25  1  0.53876000  0.21286000  0.33251000  1.0
  H  H26  1  0.22096000  0.49848000  0.33615000  1.0
  H  H27  1  0.48149000  0.16115000  0.16932000  1.0
  H  H28  1  0.14841000  0.42792000  0.09773000  1.0
  H  H29  1  0.17700000  0.46103000  0.16670000  1.0
  H  H30  1  0.12641000  0.92919000  0.12145000  1.0
  H  H31  1  0.19859000  0.75962000  0.31882000  1.0
  H  H32  1  0.46481000  0.80237000  0.39614000  1.0
  H  H33  1  0.46710000  0.87373000  0.18358000  1.0
  H  H34  1  0.44781000  0.91899000  0.10927000  1.0
  H  H35  1  0.24679000  0.51863000  0.61610000  1.0
  H  H36  1  0.94116000  0.43663000  0.11184000  1.0
  H  H37  1  0.88856000  0.45605000  0.18565000  1.0
  H  H38  1  0.68754000  0.54881000  0.37595000  1.0
  H  H39  1  0.78966000  0.20723000  0.40626000  1.0
  H  H40  1  0.86929000  0.15189000  0.19523000  1.0
  H  H41  1  0.92038000  0.13469000  0.12100000  1.0
  H  H42  1  0.84942000  0.16932000  0.33394000  1.0
  H  H43  1  0.53178000  0.20454000  0.61058000  1.0
  H  H44  1  0.47548000  0.13381000  0.82224000  1.0
  H  H45  1  0.44564000  0.11873000  0.89709000  1.0
  H  H46  1  0.51037000  0.16982000  0.68520000  1.0
  H  H47  1  0.53378000  0.72653000  0.59044000  1.0
  H  H48  1  0.81302000  0.09066000  0.88761000  1.0
  H  H49  1  0.95820000  0.01475000  0.87383000  1.0
  H  H50  1  0.85695000  0.01944000  0.84222000  1.0
  H  H51  1  0.08535000  0.58913000  0.65844000  1.0
  H  H52  1  0.18102000  0.64270000  0.66385000  1.0
  H  H53  1  0.08267000  0.64636000  0.70445000  1.0
  H  H54  1  0.05011000  0.83428000  0.16462000  1.0
  H  H55  1  0.98987000  0.97759000  0.17185000  1.0
  H  H56  1  0.98072000  0.88418000  0.21215000  1.0
  H  H57  1  0.04396000  0.84423000  0.40075000  1.0
  H  H58  1  0.12947000  0.79364000  0.44348000  1.0
  H  H59  1  0.05471000  0.72421000  0.43095000  1.0
  H  H60  1  0.33405000  0.00700000  0.28294000  1.0
  H  H61  1  0.44592000  0.09723000  0.25172000  1.0
  H  H62  1  0.63763000  0.03521000  0.27188000  1.0
  H  H63  1  0.71910000  0.87651000  0.32294000  1.0
  H  H64  1  0.60930000  0.78252000  0.35255000  1.0
  H  H65  1  0.56214000  0.60435000  0.29853000  1.0
  H  H66  1  0.53530000  0.75220000  0.24529000  1.0
  H  H67  1  0.69844000  0.77101000  0.21157000  1.0
  H  H68  1  0.88919000  0.64023000  0.23204000  1.0
  H  H69  1  0.91555000  0.49056000  0.28483000  1.0
  H  H70  1  0.69843000  0.66146000  0.46049000  1.0
  H  H71  1  0.01503000  0.94923000  0.03757000  1.0
  C  C72  1  0.69605000  0.40811000  0.55324000  1.0
  C  C73  1  0.36740000  0.32473000  0.69329000  1.0
  C  C74  1  0.29118000  0.42437000  0.67349000  1.0
  C  C75  1  0.30249000  0.44258000  0.63182000  1.0
  C  C76  1  0.23963000  0.37361000  0.83476000  1.0
  C  C77  1  0.22351000  0.36450000  0.87633000  1.0
  C  C78  1  0.38923000  0.19011000  0.87924000  1.0
  C  C79  1  0.40559000  0.19837000  0.83768000  1.0
  C  C80  1  0.33069000  0.29020000  0.81462000  1.0
  C  C81  1  0.34555000  0.29893000  0.77222000  1.0
  C  C82  1  0.35686000  0.30860000  0.73553000  1.0
  C  C83  1  0.40668000  0.38918000  0.56578000  1.0
  C  C84  1  0.29782000  0.27253000  0.89904000  1.0
  C  C85  1  0.37058000  0.73794000  0.59237000  1.0
  C  C86  1  0.45748000  0.74499000  0.60899000  1.0
  C  C87  1  0.44675000  0.77150000  0.64851000  1.0
  C  C88  1  0.34787000  0.79297000  0.67190000  1.0
  C  C89  1  0.25867000  0.79164000  0.65451000  1.0
  C  C90  1  0.27038000  0.76339000  0.61511000  1.0
  C  C91  1  0.32320000  0.85094000  0.78952000  1.0
  C  C92  1  0.33947000  0.81276000  0.71460000  1.0
  C  C93  1  0.39552000  0.88987000  0.84813000  1.0
  C  C94  1  0.39168000  0.69388000  0.55204000  1.0
  C  C95  1  0.38273000  0.91706000  0.88773000  1.0
  C  C96  1  0.20226000  0.91943000  0.89484000  1.0
  C  C97  1  0.21468000  0.89208000  0.85536000  1.0
  C  C98  1  0.31125000  0.87774000  0.83154000  1.0
  C  C99  1  0.28576000  0.93288000  0.91121000  1.0
  C  C100  1  0.73900000  0.39101000  0.59387000  1.0
  C  C101  1  0.76849000  0.29165000  0.61698000  1.0
  C  C102  1  0.80519000  0.27858000  0.65534000  1.0
  C  C103  1  0.81085000  0.36564000  0.67132000  1.0
  C  C104  1  0.77862000  0.46608000  0.64847000  1.0
  C  C105  1  0.69537000  0.40609000  0.43745000  1.0
  C  C106  1  0.74413000  0.47811000  0.60984000  1.0
  C  C107  1  0.89191000  0.32769000  0.78652000  1.0
  C  C108  1  0.85157000  0.35099000  0.71148000  1.0
  C  C109  1  0.89585000  0.22907000  0.85511000  1.0
  C  C110  1  0.91522000  0.21848000  0.89591000  1.0
  C  C111  1  0.92912000  0.38871000  0.88894000  1.0
  C  C112  1  0.91170000  0.39853000  0.84825000  1.0
  C  C113  1  0.89843000  0.31836000  0.83027000  1.0
  C  C114  1  0.93365000  0.29670000  0.91255000  1.0
  C  C115  1  0.39780000  0.36777000  0.41137000  1.0
  C  C116  1  0.41482000  0.38506000  0.45269000  1.0
  C  C117  1  0.48224000  0.28345000  0.38994000  1.0
  C  C118  1  0.47298000  0.27698000  0.34949000  1.0
  C  C119  1  0.37903000  0.35535000  0.32974000  1.0
  C  C120  1  0.29318000  0.43774000  0.35158000  1.0
  C  C121  1  0.30261000  0.44379000  0.39203000  1.0
  C  C122  1  0.34934000  0.33406000  0.21224000  1.0
  C  C123  1  0.37171000  0.35328000  0.28640000  1.0
  C  C124  1  0.40887000  0.21933000  0.15344000  1.0
  C  C125  1  0.39233000  0.20079000  0.11531000  1.0
  C  C126  1  0.22136000  0.37062000  0.11361000  1.0
  C  C127  1  0.37367000  0.69485000  0.43956000  1.0
  C  C128  1  0.23697000  0.38877000  0.15190000  1.0
  C  C129  1  0.33154000  0.31375000  0.17206000  1.0
  C  C130  1  0.29898000  0.27678000  0.09494000  1.0
  C  C131  1  0.34148000  0.74723000  0.39854000  1.0
  C  C132  1  0.40581000  0.79516000  0.37849000  1.0
  C  C133  1  0.39750000  0.83286000  0.33802000  1.0
  C  C134  1  0.32431000  0.81517000  0.31556000  1.0
  C  C135  1  0.25600000  0.77147000  0.33573000  1.0
  C  C136  1  0.26075000  0.74102000  0.37683000  1.0
  C  C137  1  0.21096000  0.88918000  0.17705000  1.0
  C  C138  1  0.38938000  0.36325000  0.60933000  1.0
  C  C139  1  0.20068000  0.91450000  0.13580000  1.0
  C  C140  1  0.38275000  0.90970000  0.12855000  1.0
  C  C141  1  0.39310000  0.88487000  0.16976000  1.0
  C  C142  1  0.30802000  0.87463000  0.19483000  1.0
  C  C143  1  0.31537000  0.85264000  0.23681000  1.0
  C  C144  1  0.31955000  0.83698000  0.27337000  1.0
  C  C145  1  0.28606000  0.92533000  0.11154000  1.0
  C  C146  1  0.73658000  0.38007000  0.39526000  1.0
  C  C147  1  0.78154000  0.27292000  0.38357000  1.0
  C  C148  1  0.81451000  0.25207000  0.34352000  1.0
  C  C149  1  0.46444000  0.26464000  0.62845000  1.0
  C  C150  1  0.80244000  0.33801000  0.31429000  1.0
  C  C151  1  0.75634000  0.44689000  0.32602000  1.0
  C  C152  1  0.72405000  0.46595000  0.36635000  1.0
  C  C153  1  0.89631000  0.38565000  0.17131000  1.0
  C  C154  1  0.92491000  0.37509000  0.13041000  1.0
  C  C155  1  0.91324000  0.20406000  0.13584000  1.0
  C  C156  1  0.88541000  0.21354000  0.17668000  1.0
  C  C157  1  0.87790000  0.30385000  0.19515000  1.0
  C  C158  1  0.85285000  0.31157000  0.23700000  1.0
  C  C159  1  0.83192000  0.31888000  0.27319000  1.0
  C  C160  1  0.45276000  0.24587000  0.66987000  1.0
  C  C161  1  0.93478000  0.28380000  0.11248000  1.0
  C  C162  1  0.26483000  0.97261000  0.95231000  1.0
  C  C163  1  0.27443000  0.25651000  0.94281000  1.0
  C  C164  1  0.96985000  0.27304000  0.95450000  1.0
  C  C165  1  0.26621000  0.96365000  0.06848000  1.0
  C  C166  1  0.27700000  0.25404000  0.05529000  1.0
  C  C167  1  0.97599000  0.26435000  0.06984000  1.0
  C  C168  1  0.87555000  0.06562000  0.86219000  1.0
  C  C169  1  0.13594000  0.59966000  0.67961000  1.0
  C  C170  1  0.03263000  0.89482000  0.18653000  1.0
  C  C171  1  0.09937000  0.77070000  0.41869000  1.0
  C  C172  1  0.46377000  0.88780000  0.31982000  1.0
  C  C173  1  0.41903000  0.97710000  0.29129000  1.0
  C  C174  1  0.48175000  0.02866000  0.27399000  1.0
  C  C175  1  0.58973000  0.99344000  0.28530000  1.0
  C  C176  1  0.63464000  0.90553000  0.31402000  1.0
  C  C177  1  0.57245000  0.85298000  0.33101000  1.0
  C  C178  1  0.74056000  0.53791000  0.29521000  1.0
  C  C179  1  0.63379000  0.61229000  0.28385000  1.0
  C  C180  1  0.61898000  0.69514000  0.25364000  1.0
  C  C181  1  0.71046000  0.70542000  0.23485000  1.0
  C  C182  1  0.81720000  0.63228000  0.24633000  1.0
  C  C183  1  0.83227000  0.54856000  0.27615000  1.0
  N  N184  1  0.41555000  0.84187000  0.76712000  1.0
  N  N185  1  0.46217000  0.28406000  0.26490000  1.0
  N  N186  1  0.27793000  0.42813000  0.26889000  1.0
  N  N187  1  0.26669000  0.41854000  0.23123000  1.0
  N  N188  1  0.42365000  0.82277000  0.72902000  1.0
  N  N189  1  0.25126000  0.81357000  0.73775000  1.0
  N  N190  1  0.24287000  0.83328000  0.77580000  1.0
  N  N191  1  0.93042000  0.23616000  0.76633000  1.0
  N  N192  1  0.90942000  0.24816000  0.72810000  1.0
  N  N193  1  0.84223000  0.43924000  0.72861000  1.0
  N  N194  1  0.86267000  0.42755000  0.76686000  1.0
  N  N195  1  0.45055000  0.27393000  0.22721000  1.0
  O  O196  1  0.48108000  0.68069000  0.53268000  1.0
  O  O197  1  0.50765000  0.31949000  0.46774000  1.0
  O  O198  1  0.33967000  0.46819000  0.46979000  1.0
  O  O199  1  0.30776000  0.66461000  0.46192000  1.0
  O  O200  1  0.50422000  0.50279000  0.49957000  1.0
  O  O201  1  0.98344000  0.18284000  0.97240000  1.0
  O  O202  1  0.17114000  0.99447000  0.96986000  1.0
  O  O203  1  0.34204000  0.98650000  0.96651000  1.0
  O  O204  1  0.34337000  0.16916000  0.96175000  1.0
  O  O205  1  0.18375000  0.32732000  0.95909000  1.0
  O  O206  1  0.99093000  0.34382000  0.96907000  1.0
  O  O207  1  0.67428000  0.49779000  0.53328000  1.0
  O  O208  1  0.98997000  0.17599000  0.05711000  1.0
  O  O209  1  0.17391000  0.98294000  0.05580000  1.0
  O  O210  1  0.34270000  0.97975000  0.04700000  1.0
  O  O211  1  0.34312000  0.16200000  0.04140000  1.0
  O  O212  1  0.18991000  0.32588000  0.03835000  1.0
  O  O213  1  0.99935000  0.33663000  0.04908000  1.0
  O  O214  1  0.16306000  0.15680000  0.00788000  1.0
  O  O215  1  0.68046000  0.33003000  0.54173000  1.0
  O  O216  1  0.49661000  0.32449000  0.54728000  1.0
  O  O217  1  0.33290000  0.47842000  0.54939000  1.0
  O  O218  1  0.32027000  0.66706000  0.54059000  1.0
  O  O219  1  0.46743000  0.67889000  0.44944000  1.0
  O  O220  1  0.66614000  0.50230000  0.44667000  1.0
  O  O221  1  0.68838000  0.32994000  0.46182000  1.0
  O  O222  1  0.87312000  0.15823000  0.83771000  1.0
  O  O223  1  0.21158000  0.49667000  0.69787000  1.0
  O  O224  1  0.13221000  0.87875000  0.20306000  1.0
  O  O225  1  0.19000000  0.69944000  0.39322000  1.0
  O  O226  1  0.64374000  0.67738000  0.48286000  1.0
  O  O227  1  0.99259000  0.01175000  0.01822000  1.0
