# generated using pymatgen
data_MgH4(C2O3)2
_symmetry_space_group_name_H-M   'P 1'
_cell_length_a   5.80954000
_cell_length_b   5.80957000
_cell_length_c   9.36787000
_cell_angle_alpha   100.77800000
_cell_angle_beta   100.77900000
_cell_angle_gamma   107.85900000
_symmetry_Int_Tables_number   1
_chemical_formula_structural   MgH4(C2O3)2
_chemical_formula_sum   'Mg2 H8 C8 O12'
_cell_volume   285.35522852
_cell_formula_units_Z   2
loop_
 _symmetry_equiv_pos_site_id
 _symmetry_equiv_pos_as_xyz
  1  'x, y, z'
loop_
 _atom_site_type_symbol
 _atom_site_label
 _atom_site_symmetry_multiplicity
 _atom_site_fract_x
 _atom_site_fract_y
 _atom_site_fract_z
 _atom_site_occupancy
  Mg  Mg0  1  0.85386000  0.14614000  0.25000000  1.0
  Mg  Mg1  1  0.14615000  0.85387000  0.75000000  1.0
  H  H2  1  0.72126000  0.42998000  0.91951000  1.0
  H  H3  1  0.57001000  0.27873000  0.58049000  1.0
  H  H4  1  0.27874000  0.57002000  0.08049000  1.0
  H  H5  1  0.42998000  0.72127000  0.41951000  1.0
  H  H6  1  0.73383000  0.06413000  0.93929000  1.0
  H  H7  1  0.93587000  0.26617000  0.56071000  1.0
  H  H8  1  0.26617000  0.93587000  0.06071000  1.0
  H  H9  1  0.06413000  0.73383000  0.43930000  1.0
  C  C10  1  0.85269000  0.59899000  0.15920000  1.0
  C  C11  1  0.40099000  0.14731000  0.34079000  1.0
  C  C12  1  0.14732000  0.40099000  0.84080000  1.0
  C  C13  1  0.59901000  0.85268000  0.65921000  1.0
  C  C14  1  0.86934000  0.43832000  0.01468000  1.0
  C  C15  1  0.56168000  0.13066000  0.48532000  1.0
  C  C16  1  0.13065000  0.56168000  0.98532000  1.0
  C  C17  1  0.43832000  0.86935000  0.51468000  1.0
  O  O18  1  0.91374000  0.53190000  0.27937000  1.0
  O  O19  1  0.46810000  0.08625000  0.22063000  1.0
  O  O20  1  0.08624000  0.46810000  0.72062000  1.0
  O  O21  1  0.53190000  0.91374000  0.77937000  1.0
  O  O22  1  0.78774000  0.78410000  0.15192000  1.0
  O  O23  1  0.21591000  0.21225000  0.34807000  1.0
  O  O24  1  0.21225000  0.21593000  0.84808000  1.0
  O  O25  1  0.78409000  0.78775000  0.65193000  1.0
  O  O26  1  0.84229000  0.19563000  0.03473000  1.0
  O  O27  1  0.80437000  0.15771000  0.46527000  1.0
  O  O28  1  0.15771000  0.80437000  0.96527000  1.0
  O  O29  1  0.19564000  0.84229000  0.53473000  1.0
