# generated using pymatgen
data_ZnH4C7N4O3
_symmetry_space_group_name_H-M   'P 1'
_cell_length_a   8.92061000
_cell_length_b   9.29814000
_cell_length_c   10.21150000
_cell_angle_alpha   90.00000000
_cell_angle_beta   90.00020000
_cell_angle_gamma   111.39100000
_symmetry_Int_Tables_number   1
_chemical_formula_structural   ZnH4C7N4O3
_chemical_formula_sum   'Zn4 H16 C28 N16 O12'
_cell_volume   788.64693767
_cell_formula_units_Z   4
loop_
 _symmetry_equiv_pos_site_id
 _symmetry_equiv_pos_as_xyz
  1  'x, y, z'
loop_
 _atom_site_type_symbol
 _atom_site_label
 _atom_site_symmetry_multiplicity
 _atom_site_fract_x
 _atom_site_fract_y
 _atom_site_fract_z
 _atom_site_occupancy
  Zn  Zn0  1  0.15085000  0.83502000  0.80600000  1.0
  Zn  Zn1  1  0.34916000  0.16498000  0.30600000  1.0
  Zn  Zn2  1  0.84916000  0.16498000  0.19400000  1.0
  Zn  Zn3  1  0.65084000  0.83502000  0.69400000  1.0
  H  H4  1  0.93398000  0.48319000  0.61641000  1.0
  H  H5  1  0.56602000  0.51681000  0.11641000  1.0
  H  H6  1  0.06602000  0.51681000  0.38359000  1.0
  H  H7  1  0.43398000  0.48319000  0.88359000  1.0
  H  H8  1  0.92192000  0.48744000  0.78962000  1.0
  H  H9  1  0.57808000  0.51256000  0.28962000  1.0
  H  H10  1  0.07808000  0.51256000  0.21038000  1.0
  H  H11  1  0.42192000  0.48744000  0.71038000  1.0
  H  H12  1  0.71006000  0.33536000  0.89790000  1.0
  H  H13  1  0.78994000  0.66464000  0.39790000  1.0
  H  H14  1  0.28994000  0.66464000  0.10210000  1.0
  H  H15  1  0.21006000  0.33536000  0.60210000  1.0
  H  H16  1  0.15008000  0.91433000  0.50829000  1.0
  H  H17  1  0.34992000  0.08567000  0.00829000  1.0
  H  H18  1  0.84992000  0.08567000  0.49171000  1.0
  H  H19  1  0.65008000  0.91433000  0.99171000  1.0
  C  C20  1  0.83054000  0.64136000  0.69085000  1.0
  C  C21  1  0.66946000  0.35864000  0.19085000  1.0
  C  C22  1  0.16946000  0.35864000  0.30915000  1.0
  C  C23  1  0.33054000  0.64136000  0.80915000  1.0
  C  C24  1  0.85735000  0.48890000  0.69879000  1.0
  C  C25  1  0.64265000  0.51110000  0.19879000  1.0
  C  C26  1  0.14265000  0.51110000  0.30121000  1.0
  C  C27  1  0.35735000  0.48890000  0.80121000  1.0
  C  C28  1  0.63349000  0.31258000  0.57005000  1.0
  C  C29  1  0.86651000  0.68743000  0.07005000  1.0
  C  C30  1  0.36651000  0.68743000  0.42994000  1.0
  C  C31  1  0.13349000  0.31258000  0.92995000  1.0
  C  C32  1  0.64143000  0.28437000  0.81011000  1.0
  C  C33  1  0.85857000  0.71563000  0.31011000  1.0
  C  C34  1  0.35857000  0.71563000  0.18989000  1.0
  C  C35  1  0.14143000  0.28437000  0.68989000  1.0
  C  C36  1  0.48446000  0.18502000  0.58214000  1.0
  C  C37  1  0.01554000  0.81497000  0.08214000  1.0
  C  C38  1  0.51554000  0.81498000  0.41785000  1.0
  C  C39  1  0.98446000  0.18502000  0.91785000  1.0
  C  C40  1  0.43072000  0.11659000  0.70420000  1.0
  C  C41  1  0.06928000  0.88341000  0.20420000  1.0
  C  C42  1  0.56928000  0.88341000  0.29580000  1.0
  C  C43  1  0.93072000  0.11659000  0.79580000  1.0
  C  C44  1  0.25789000  0.99432000  0.55517000  1.0
  C  C45  1  0.24211000  0.00569000  0.05517000  1.0
  C  C46  1  0.74211000  0.00569000  0.44483000  1.0
  C  C47  1  0.75789000  0.99431000  0.94483000  1.0
  N  N48  1  0.70780000  0.35507000  0.69497000  1.0
  N  N49  1  0.79219000  0.64493000  0.19497000  1.0
  N  N50  1  0.29220000  0.64493000  0.30503000  1.0
  N  N51  1  0.20780000  0.35507000  0.80503000  1.0
  N  N52  1  0.50605000  0.16566000  0.82071000  1.0
  N  N53  1  0.99395000  0.83434000  0.32071000  1.0
  N  N54  1  0.49395000  0.83434000  0.17929000  1.0
  N  N55  1  0.00605000  0.16566000  0.67929000  1.0
  N  N56  1  0.28778000  0.99503000  0.68511000  1.0
  N  N57  1  0.21222000  0.00497000  0.18511000  1.0
  N  N58  1  0.71222000  0.00497000  0.31489000  1.0
  N  N59  1  0.78778000  0.99503000  0.81489000  1.0
  N  N60  1  0.37275000  0.10606000  0.48869000  1.0
  N  N61  1  0.12725000  0.89394000  0.98869000  1.0
  N  N62  1  0.62725000  0.89394000  0.51131000  1.0
  N  N63  1  0.87275000  0.10606000  0.01131000  1.0
  O  O64  1  0.95100000  0.76704000  0.69751000  1.0
  O  O65  1  0.54900000  0.23296000  0.19751000  1.0
  O  O66  1  0.04900000  0.23296000  0.30249000  1.0
  O  O67  1  0.45100000  0.76704000  0.80249000  1.0
  O  O68  1  0.68756000  0.63586000  0.67386000  1.0
  O  O69  1  0.81244000  0.36414000  0.17386000  1.0
  O  O70  1  0.31244000  0.36414000  0.32614000  1.0
  O  O71  1  0.18756000  0.63586000  0.82614000  1.0
  O  O72  1  0.69912000  0.38285000  0.46962000  1.0
  O  O73  1  0.80088000  0.61715000  0.96962000  1.0
  O  O74  1  0.30088000  0.61715000  0.53038000  1.0
  O  O75  1  0.19912000  0.38285000  0.03038000  1.0
