# generated using pymatgen
data_CuH4C8(NO2)2
_symmetry_space_group_name_H-M   'P 1'
_cell_length_a   6.69190000
_cell_length_b   7.43854000
_cell_length_c   15.73300000
_cell_angle_alpha   89.99910000
_cell_angle_beta   90.00050000
_cell_angle_gamma   89.99980000
_symmetry_Int_Tables_number   1
_chemical_formula_structural   CuH4C8(NO2)2
_chemical_formula_sum   'Cu4 H16 C32 N8 O16'
_cell_volume   783.15673621
_cell_formula_units_Z   4
loop_
 _symmetry_equiv_pos_site_id
 _symmetry_equiv_pos_as_xyz
  1  'x, y, z'
loop_
 _atom_site_type_symbol
 _atom_site_label
 _atom_site_symmetry_multiplicity
 _atom_site_fract_x
 _atom_site_fract_y
 _atom_site_fract_z
 _atom_site_occupancy
  Cu  Cu0  1  0.74998000  0.93017000  0.68034000  1.0
  Cu  Cu1  1  0.75001000  0.43018000  0.81965000  1.0
  Cu  Cu2  1  0.25000000  0.57056000  0.17959000  1.0
  Cu  Cu3  1  0.25001000  0.07060000  0.32042000  1.0
  H  H4  1  0.43658000  0.00447000  0.55703000  1.0
  H  H5  1  0.43662000  0.50455000  0.94295000  1.0
  H  H6  1  0.06337000  0.00446000  0.55703000  1.0
  H  H7  1  0.93677000  0.49492000  0.05701000  1.0
  H  H8  1  0.56320000  0.99491000  0.44299000  1.0
  H  H9  1  0.56321000  0.49492000  0.05701000  1.0
  H  H10  1  0.93682000  0.99490000  0.44299000  1.0
  H  H11  1  0.06340000  0.50455000  0.94295000  1.0
  H  H12  1  0.43698000  0.82034000  0.80692000  1.0
  H  H13  1  0.43702000  0.32024000  0.69311000  1.0
  H  H14  1  0.06300000  0.82033000  0.80691000  1.0
  H  H15  1  0.93729000  0.68020000  0.30666000  1.0
  H  H16  1  0.56271000  0.18020000  0.19334000  1.0
  H  H17  1  0.56272000  0.68020000  0.30666000  1.0
  H  H18  1  0.93730000  0.18020000  0.19334000  1.0
  H  H19  1  0.06300000  0.32024000  0.69311000  1.0
  C  C20  1  0.75001000  0.36402000  0.57962000  1.0
  C  C21  1  0.75000000  0.86406000  0.92038000  1.0
  C  C22  1  0.24999000  0.13614000  0.07996000  1.0
  C  C23  1  0.25000000  0.63618000  0.42004000  1.0
  C  C24  1  0.75000000  0.47922000  0.49996000  1.0
  C  C25  1  0.75000000  0.97927000  0.00003000  1.0
  C  C26  1  0.24999000  0.01933000  0.00075000  1.0
  C  C27  1  0.25000000  0.51939000  0.49925000  1.0
  C  C28  1  0.75000000  0.64255000  0.55610000  1.0
  C  C29  1  0.75001000  0.14262000  0.94390000  1.0
  C  C30  1  0.25000000  0.85758000  0.05772000  1.0
  C  C31  1  0.25000000  0.35762000  0.44229000  1.0
  C  C32  1  0.75002000  0.52989000  0.63173000  1.0
  C  C33  1  0.75000000  0.02994000  0.86826000  1.0
  C  C34  1  0.25000000  0.97134000  0.13273000  1.0
  C  C35  1  0.25000000  0.47136000  0.36727000  1.0
  C  C36  1  0.35371000  0.96019000  0.61235000  1.0
  C  C37  1  0.35372000  0.46026000  0.88763000  1.0
  C  C38  1  0.14626000  0.96018000  0.61235000  1.0
  C  C39  1  0.85369000  0.53946000  0.11223000  1.0
  C  C40  1  0.64631000  0.03941000  0.38777000  1.0
  C  C41  1  0.64630000  0.53946000  0.11223000  1.0
  C  C42  1  0.85370000  0.03941000  0.38777000  1.0
  C  C43  1  0.14631000  0.46026000  0.88763000  1.0
  C  C44  1  0.35380000  0.85860000  0.75043000  1.0
  C  C45  1  0.35383000  0.35854000  0.74956000  1.0
  C  C46  1  0.14618000  0.85860000  0.75044000  1.0
  C  C47  1  0.85381000  0.64173000  0.25030000  1.0
  C  C48  1  0.64620000  0.14172000  0.24971000  1.0
  C  C49  1  0.64620000  0.64173000  0.25030000  1.0
  C  C50  1  0.85381000  0.14172000  0.24971000  1.0
  C  C51  1  0.14620000  0.35854000  0.74957000  1.0
  N  N52  1  0.45800000  0.90980000  0.68130000  1.0
  N  N53  1  0.45803000  0.40979000  0.81870000  1.0
  N  N54  1  0.04197000  0.90980000  0.68130000  1.0
  N  N55  1  0.95760000  0.59012000  0.18116000  1.0
  N  N56  1  0.54241000  0.09009000  0.31884000  1.0
  N  N57  1  0.54240000  0.59012000  0.18116000  1.0
  N  N58  1  0.95761000  0.09009000  0.31884000  1.0
  N  N59  1  0.04200000  0.40979000  0.81870000  1.0
  O  O60  1  0.75001000  0.19903000  0.59295000  1.0
  O  O61  1  0.75000000  0.69910000  0.90706000  1.0
  O  O62  1  0.24999000  0.30144000  0.09256000  1.0
  O  O63  1  0.25000000  0.80148000  0.40743000  1.0
  O  O64  1  0.74998000  0.45057000  0.42284000  1.0
  O  O65  1  0.75000000  0.95058000  0.07716000  1.0
  O  O66  1  0.24999000  0.04654000  0.92348000  1.0
  O  O67  1  0.25001000  0.54665000  0.57652000  1.0
  O  O68  1  0.74999000  0.81012000  0.54816000  1.0
  O  O69  1  0.75002000  0.31017000  0.95183000  1.0
  O  O70  1  0.25000000  0.68933000  0.05060000  1.0
  O  O71  1  0.25000000  0.18936000  0.44941000  1.0
  O  O72  1  0.75002000  0.57931000  0.70883000  1.0
  O  O73  1  0.74999000  0.07937000  0.79116000  1.0
  O  O74  1  0.25000000  0.92292000  0.21013000  1.0
  O  O75  1  0.25000000  0.42291000  0.28989000  1.0
