# generated using pymatgen
data_Al2H7C16ClO10
_symmetry_space_group_name_H-M   'P 1'
_cell_length_a   6.65931000
_cell_length_b   14.35420000
_cell_length_c   16.91020000
_cell_angle_alpha   94.38880000
_cell_angle_beta   90.62890000
_cell_angle_gamma   90.30140000
_symmetry_Int_Tables_number   1
_chemical_formula_structural   Al2H7C16ClO10
_chemical_formula_sum   'Al4 H14 C32 Cl2 O20'
_cell_volume   1611.56318549
_cell_formula_units_Z   2
loop_
 _symmetry_equiv_pos_site_id
 _symmetry_equiv_pos_as_xyz
  1  'x, y, z'
loop_
 _atom_site_type_symbol
 _atom_site_label
 _atom_site_symmetry_multiplicity
 _atom_site_fract_x
 _atom_site_fract_y
 _atom_site_fract_z
 _atom_site_occupancy
  Al  Al0  1  0.89005000  0.49788000  0.50195000  1.0
  Al  Al1  1  0.39032000  0.49780000  0.50162000  1.0
  Al  Al2  1  0.38637000  0.99832000  0.00256000  1.0
  Al  Al3  1  0.88568000  0.99587000  0.00074000  1.0
  H  H4  1  0.41413000  0.62125000  0.74046000  1.0
  H  H5  1  0.90115000  0.24815000  0.35748000  1.0
  H  H6  1  0.82751000  0.92346000  0.72829000  1.0
  H  H7  1  0.17688000  0.23215000  0.15290000  1.0
  H  H8  1  0.67346000  0.84741000  0.78077000  1.0
  H  H9  1  0.32710000  0.30912000  0.09906000  1.0
  H  H10  1  0.82024000  0.80745000  0.60917000  1.0
  H  H11  1  0.16413000  0.35402000  0.26751000  1.0
  H  H12  1  0.67138000  0.72968000  0.66189000  1.0
  H  H13  1  0.31826000  0.42963000  0.21477000  1.0
  H  H14  1  0.63985000  0.61790000  0.48548000  1.0
  H  H15  1  0.14050000  0.37556000  0.51150000  1.0
  H  H16  1  0.62891000  0.87829000  0.97052000  1.0
  H  H17  1  0.13355000  0.11927000  0.02176000  1.0
  C  C18  1  0.64964000  0.39025000  0.60394000  1.0
  C  C19  1  0.13027000  0.60590000  0.39996000  1.0
  C  C20  1  0.62778000  0.38397000  0.39034000  1.0
  C  C21  1  0.15225000  0.60861000  0.61502000  1.0
  C  C22  1  0.98992000  0.73758000  0.70123000  1.0
  C  C23  1  0.48444000  0.31144000  0.26038000  1.0
  C  C24  1  0.14343000  0.67299000  0.68796000  1.0
  C  C25  1  0.63104000  0.31530000  0.31999000  1.0
  C  C26  1  0.29388000  0.67232000  0.74713000  1.0
  C  C27  1  0.78499000  0.24852000  0.31163000  1.0
  C  C28  1  0.29095000  0.73480000  0.81461000  1.0
  C  C29  1  0.79045000  0.18153000  0.24713000  1.0
  C  C30  1  0.13985000  0.80366000  0.82663000  1.0
  C  C31  1  0.64258000  0.17789000  0.18594000  1.0
  C  C32  1  0.99035000  0.80099000  0.76807000  1.0
  C  C33  1  0.49173000  0.24479000  0.19598000  1.0
  C  C34  1  0.80301000  0.85051000  0.74148000  1.0
  C  C35  1  0.30416000  0.28127000  0.15710000  1.0
  C  C36  1  0.80104000  0.77747000  0.66651000  1.0
  C  C37  1  0.29702000  0.35717000  0.22994000  1.0
  C  C38  1  0.13621000  0.83190000  0.17132000  1.0
  C  C39  1  0.63497000  0.16463000  0.83290000  1.0
  C  C40  1  0.13642000  0.77988000  0.22529000  1.0
  C  C41  1  0.63645000  0.21690000  0.77908000  1.0
  C  C42  1  0.13578000  0.72181000  0.28438000  1.0
  C  C43  1  0.63970000  0.27491000  0.71996000  1.0
  C  C44  1  0.13439000  0.66865000  0.33755000  1.0
  C  C45  1  0.64424000  0.32781000  0.66666667  1.0
  C  C46  1  0.63936000  0.11073000  0.11432000  1.0
  C  C47  1  0.13914000  0.87773000  0.89319000  1.0
  C  C48  1  0.63829000  0.10437000  0.89753000  1.0
  C  C49  1  0.13331000  0.89123000  0.10608000  1.0
  Cl  Cl50  1  0.47692000  0.72081000  0.88585000  1.0
  Cl  Cl51  1  0.98121000  0.09974000  0.24748000  1.0
  O  O52  1  0.45944000  0.42180000  0.40728000  1.0
  O  O53  1  0.98860000  0.59623000  0.57555000  1.0
  O  O54  1  0.81930000  0.42631000  0.58990000  1.0
  O  O55  1  0.29617000  0.59271000  0.43556000  1.0
  O  O56  1  0.79220000  0.39845000  0.42894000  1.0
  O  O57  1  0.32144000  0.57271000  0.59658000  1.0
  O  O58  1  0.96060000  0.56993000  0.41427000  1.0
  O  O59  1  0.48432000  0.40300000  0.56785000  1.0
  O  O60  1  0.64084000  0.55589000  0.50447000  1.0
  O  O61  1  0.13946000  0.44020000  0.49877000  1.0
  O  O62  1  0.81002000  0.07419000  0.91656000  1.0
  O  O63  1  0.30261000  0.90959000  0.07674000  1.0
  O  O64  1  0.46621000  0.08175000  0.09061000  1.0
  O  O65  1  0.96880000  0.90078000  0.92190000  1.0
  O  O66  1  0.47018000  0.08870000  0.92908000  1.0
  O  O67  1  0.96115000  0.91775000  0.08415000  1.0
  O  O68  1  0.30731000  0.91374000  0.91490000  1.0
  O  O69  1  0.80441000  0.09013000  0.08044000  1.0
  O  O70  1  0.63434000  0.94049000  0.99752000  1.0
  O  O71  1  0.13572000  0.05349000  0.00412000  1.0
