# generated using pymatgen
data_CuH18C18(N2O3)2
_symmetry_space_group_name_H-M   'P 1'
_cell_length_a   9.63648000
_cell_length_b   10.13380000
_cell_length_c   11.56290000
_cell_angle_alpha   84.68420000
_cell_angle_beta   67.10940000
_cell_angle_gamma   61.90370000
_symmetry_Int_Tables_number   1
_chemical_formula_structural   CuH18C18(N2O3)2
_chemical_formula_sum   'Cu2 H36 C36 N8 O12'
_cell_volume   911.94452753
_cell_formula_units_Z   2
loop_
 _symmetry_equiv_pos_site_id
 _symmetry_equiv_pos_as_xyz
  1  'x, y, z'
loop_
 _atom_site_type_symbol
 _atom_site_label
 _atom_site_symmetry_multiplicity
 _atom_site_fract_x
 _atom_site_fract_y
 _atom_site_fract_z
 _atom_site_occupancy
  Cu  Cu0  1  0.80355000  0.33533000  0.72227000  1.0
  Cu  Cu1  1  0.19645000  0.66467000  0.27773000  1.0
  H  H2  1  0.99148000  0.36310000  0.46109000  1.0
  H  H3  1  0.00853000  0.63690000  0.53891000  1.0
  H  H4  1  0.83976000  0.50314000  0.55415000  1.0
  H  H5  1  0.16025000  0.49686000  0.44585000  1.0
  H  H6  1  0.70123000  0.62502000  0.00407000  1.0
  H  H7  1  0.29877000  0.37498000  0.99593000  1.0
  H  H8  1  0.79856000  0.89345000  0.70378000  1.0
  H  H9  1  0.20145000  0.10655000  0.29621000  1.0
  H  H10  1  0.66175000  0.05315000  0.08304000  1.0
  H  H11  1  0.33825000  0.94685000  0.91696000  1.0
  H  H12  1  0.49638000  0.89051000  0.25380000  1.0
  H  H13  1  0.50362000  0.10949000  0.74620000  1.0
  H  H14  1  0.64602000  0.69797000  0.21257000  1.0
  H  H15  1  0.35399000  0.30203000  0.78743000  1.0
  H  H16  1  0.42597000  0.12992000  0.35104000  1.0
  H  H17  1  0.57403000  0.87007000  0.64897000  1.0
  H  H18  1  0.42477000  0.30312000  0.48774000  1.0
  H  H19  1  0.57522000  0.69688000  0.51227000  1.0
  H  H20  1  0.67006000  0.22989000  0.54928000  1.0
  H  H21  1  0.32993000  0.77011000  0.45072000  1.0
  H  H22  1  0.93369000  0.98228000  0.46324000  1.0
  H  H23  1  0.06631000  0.01772000  0.53676000  1.0
  H  H24  1  0.44680000  0.57633000  0.88991000  1.0
  H  H25  1  0.55320000  0.42368000  0.11009000  1.0
  H  H26  1  0.37566000  0.50018000  0.62358000  1.0
  H  H27  1  0.62434000  0.49982000  0.37642000  1.0
  H  H28  1  0.18760000  0.67790000  0.66180000  1.0
  H  H29  1  0.81240000  0.32210000  0.33820000  1.0
  H  H30  1  0.17190000  0.51877000  0.73050000  1.0
  H  H31  1  0.82810000  0.48123000  0.26950000  1.0
  H  H32  1  0.03454000  0.69521000  0.94229000  1.0
  H  H33  1  0.96546000  0.30479000  0.05771000  1.0
  H  H34  1  0.09164000  0.83203000  0.86160000  1.0
  H  H35  1  0.90836000  0.16797000  0.13840000  1.0
  H  H36  1  0.17650000  0.73765000  0.97652000  1.0
  H  H37  1  0.82350000  0.26236000  0.02348000  1.0
  C  C38  1  0.67981000  0.83418000  0.06010000  1.0
  C  C39  1  0.32019000  0.16583000  0.93990000  1.0
  C  C40  1  0.71036000  0.72664000  0.97370000  1.0
  C  C41  1  0.28964000  0.27337000  0.02630000  1.0
  C  C42  1  0.75079000  0.74816000  0.84561000  1.0
  C  C43  1  0.24922000  0.25184000  0.15439000  1.0
  C  C44  1  0.76406000  0.87722000  0.80360000  1.0
  C  C45  1  0.23594000  0.12278000  0.19640000  1.0
  C  C46  1  0.73136000  0.98661000  0.89016000  1.0
  C  C47  1  0.26864000  0.01340000  0.10984000  1.0
  C  C48  1  0.68864000  0.96480000  0.01796000  1.0
  C  C49  1  0.31136000  0.03521000  0.98204000  1.0
  C  C50  1  0.63111000  0.81141000  0.19823000  1.0
  C  C51  1  0.36889000  0.18859000  0.80177000  1.0
  C  C52  1  0.82868000  0.91758000  0.35723000  1.0
  C  C53  1  0.17131000  0.08242000  0.64277000  1.0
  C  C54  1  0.68531000  0.95775000  0.32825000  1.0
  C  C55  1  0.31469000  0.04224000  0.67175000  1.0
  C  C56  1  0.53703000  0.09694000  0.37336000  1.0
  C  C57  1  0.46296000  0.90306000  0.62665000  1.0
  C  C58  1  0.53723000  0.19302000  0.45127000  1.0
  C  C59  1  0.46276000  0.80697000  0.54874000  1.0
  C  C60  1  0.67749000  0.15185000  0.48546000  1.0
  C  C61  1  0.32250000  0.84815000  0.51454000  1.0
  C  C62  1  0.82472000  0.01450000  0.43904000  1.0
  C  C63  1  0.17528000  0.98550000  0.56096000  1.0
  C  C64  1  0.43822000  0.53790000  0.80815000  1.0
  C  C65  1  0.56179000  0.46211000  0.19185000  1.0
  C  C66  1  0.25347000  0.57360000  0.69882000  1.0
  C  C67  1  0.74653000  0.42640000  0.30118000  1.0
  C  C68  1  0.13832000  0.72506000  0.90225000  1.0
  C  C69  1  0.86169000  0.27494000  0.09775000  1.0
  C  C70  1  0.77615000  0.63310000  0.75581000  1.0
  C  C71  1  0.22385000  0.36691000  0.24418000  1.0
  C  C72  1  0.73743000  0.12990000  0.85066000  1.0
  C  C73  1  0.26257000  0.87010000  0.14934000  1.0
  N  N74  1  0.28406000  0.60777000  0.80351000  1.0
  N  N75  1  0.71594000  0.39222000  0.19649000  1.0
  N  N76  1  0.73143000  0.83442000  0.25389000  1.0
  N  N77  1  0.26858000  0.16558000  0.74610000  1.0
  N  N78  1  0.89141000  0.72665000  0.23453000  1.0
  N  N79  1  0.10859000  0.27335000  0.76546000  1.0
  N  N80  1  0.95121000  0.77553000  0.29552000  1.0
  N  N81  1  0.04879000  0.22447000  0.70448000  1.0
  O  O82  1  0.76106000  0.51996000  0.80523000  1.0
  O  O83  1  0.23894000  0.48005000  0.19476000  1.0
  O  O84  1  0.80682000  0.65525000  0.64057000  1.0
  O  O85  1  0.19319000  0.34476000  0.35942000  1.0
  O  O86  1  0.79839000  0.13842000  0.73016000  1.0
  O  O87  1  0.20160000  0.86159000  0.26985000  1.0
  O  O88  1  0.68532000  0.23278000  0.93359000  1.0
  O  O89  1  0.31468000  0.76723000  0.06641000  1.0
  O  O90  1  0.56633000  0.43439000  0.72427000  1.0
  O  O91  1  0.43368000  0.56560000  0.27573000  1.0
  O  O92  1  0.86936000  0.40343000  0.51770000  1.0
  O  O93  1  0.13064000  0.59657000  0.48230000  1.0
