# generated using pymatgen
data_SmH23C27O10
_symmetry_space_group_name_H-M   'P 1'
_cell_length_a   7.77777000
_cell_length_b   12.94420000
_cell_length_c   13.67600000
_cell_angle_alpha   97.66680000
_cell_angle_beta   97.39720000
_cell_angle_gamma   103.55800000
_symmetry_Int_Tables_number   1
_chemical_formula_structural   SmH23C27O10
_chemical_formula_sum   'Sm2 H46 C54 O20'
_cell_volume   1308.09911227
_cell_formula_units_Z   2
loop_
 _symmetry_equiv_pos_site_id
 _symmetry_equiv_pos_as_xyz
  1  'x, y, z'
loop_
 _atom_site_type_symbol
 _atom_site_label
 _atom_site_symmetry_multiplicity
 _atom_site_fract_x
 _atom_site_fract_y
 _atom_site_fract_z
 _atom_site_occupancy
  Sm  Sm0  1  0.23137000  0.46235000  0.48161000  1.0
  Sm  Sm1  1  0.76863000  0.53765000  0.51839000  1.0
  H  H2  1  0.94346000  0.31945000  0.57155000  1.0
  H  H3  1  0.05654000  0.68055000  0.42844000  1.0
  H  H4  1  0.12515000  0.32524000  0.64207000  1.0
  H  H5  1  0.87485000  0.67475000  0.35793000  1.0
  H  H6  1  0.40830000  0.52800000  0.24445000  1.0
  H  H7  1  0.59170000  0.47200000  0.75555000  1.0
  H  H8  1  0.09702000  0.17033000  0.37695000  1.0
  H  H9  1  0.90298000  0.82967000  0.62305000  1.0
  H  H10  1  0.34399000  0.08683000  0.77662000  1.0
  H  H11  1  0.65600000  0.91317000  0.22338000  1.0
  H  H12  1  0.16443000  0.61622000  0.23680000  1.0
  H  H13  1  0.83558000  0.38378000  0.76320000  1.0
  H  H14  1  0.94048000  0.66002000  0.11216000  1.0
  H  H15  1  0.05952000  0.33998000  0.88784000  1.0
  H  H16  1  0.98481000  0.65754000  0.93583000  1.0
  H  H17  1  0.01519000  0.34246000  0.06416000  1.0
  H  H18  1  0.49137000  0.57984000  0.01084000  1.0
  H  H19  1  0.50864000  0.42017000  0.98917000  1.0
  H  H20  1  0.39356000  0.57891000  0.84508000  1.0
  H  H21  1  0.60646000  0.42110000  0.15492000  1.0
  H  H22  1  0.02225000  0.61532000  0.77966000  1.0
  H  H23  1  0.97777000  0.38468000  0.22034000  1.0
  H  H24  1  0.84758000  0.23223000  0.33742000  1.0
  H  H25  1  0.15242000  0.76776000  0.66258000  1.0
  H  H26  1  0.51602000  0.19237000  0.31800000  1.0
  H  H27  1  0.48398000  0.80763000  0.68200000  1.0
  H  H28  1  0.33792000  0.01550000  0.34754000  1.0
  H  H29  1  0.66207000  0.98450000  0.65246000  1.0
  H  H30  1  0.83356000  0.92153000  0.41726000  1.0
  H  H31  1  0.16644000  0.07846000  0.58274000  1.0
  H  H32  1  0.32117000  0.83996000  0.38692000  1.0
  H  H33  1  0.67882000  0.16004000  0.61308000  1.0
  H  H34  1  0.67976000  0.78275000  0.44711000  1.0
  H  H35  1  0.32024000  0.21725000  0.55288000  1.0
  H  H36  1  0.30583000  0.92918000  0.84622000  1.0
  H  H37  1  0.69415000  0.07081000  0.15378000  1.0
  H  H38  1  0.22958000  0.84781000  0.99494000  1.0
  H  H39  1  0.77040000  0.15218000  0.00506000  1.0
  H  H40  1  0.18360000  0.96152000  0.14591000  1.0
  H  H41  1  0.81639000  0.03848000  0.85410000  1.0
  H  H42  1  0.29429000  0.23973000  0.99763000  1.0
  H  H43  1  0.70571000  0.76027000  0.00237000  1.0
  H  H44  1  0.16873000  0.12719000  0.23147000  1.0
  H  H45  1  0.83127000  0.87281000  0.76853000  1.0
  H  H46  1  0.31544000  0.33276000  0.14518000  1.0
  H  H47  1  0.68456000  0.66724000  0.85482000  1.0
  C  C48  1  0.34234000  0.59502000  0.13127000  1.0
  C  C49  1  0.65766000  0.40499000  0.86873000  1.0
  C  C50  1  0.18658000  0.61825000  0.15987000  1.0
  C  C51  1  0.81342000  0.38176000  0.84012000  1.0
  C  C52  1  0.06133000  0.64233000  0.08928000  1.0
  C  C53  1  0.93868000  0.35767000  0.91072000  1.0
  C  C54  1  0.08617000  0.64151000  0.99027000  1.0
  C  C55  1  0.91383000  0.35849000  0.00972000  1.0
  C  C56  1  0.24148000  0.61739000  0.96049000  1.0
  C  C57  1  0.75853000  0.38261000  0.03951000  1.0
  C  C58  1  0.37029000  0.59786000  0.03260000  1.0
  C  C59  1  0.62972000  0.40215000  0.96739000  1.0
  C  C60  1  0.26975000  0.60103000  0.85725000  1.0
  C  C61  1  0.73026000  0.39897000  0.14275000  1.0
  C  C62  1  0.15264000  0.60010000  0.77472000  1.0
  C  C63  1  0.84737000  0.39991000  0.22528000  1.0
  C  C64  1  0.18820000  0.56754000  0.67448000  1.0
  C  C65  1  0.81182000  0.43246000  0.32552000  1.0
  C  C66  1  0.86028000  0.07808000  0.37794000  1.0
  C  C67  1  0.13971000  0.92192000  0.62206000  1.0
  C  C68  1  0.77001000  0.15506000  0.35024000  1.0
  C  C69  1  0.22998000  0.84493000  0.64976000  1.0
  C  C70  1  0.58362000  0.13184000  0.33909000  1.0
  C  C71  1  0.41637000  0.86816000  0.66091000  1.0
  C  C72  1  0.48358000  0.03262000  0.35453000  1.0
  C  C73  1  0.51642000  0.96738000  0.64547000  1.0
  C  C74  1  0.57210000  0.95514000  0.38266000  1.0
  C  C75  1  0.42790000  0.04486000  0.61734000  1.0
  C  C76  1  0.76086000  0.97891000  0.39414000  1.0
  C  C77  1  0.23914000  0.02109000  0.60585000  1.0
  C  C78  1  0.46687000  0.85240000  0.39986000  1.0
  C  C79  1  0.53313000  0.14760000  0.60014000  1.0
  C  C80  1  0.53552000  0.77349000  0.43114000  1.0
  C  C81  1  0.46447000  0.22650000  0.56886000  1.0
  C  C82  1  0.42684000  0.67190000  0.44823000  1.0
  C  C83  1  0.57316000  0.32810000  0.55177000  1.0
  C  C84  1  0.30178000  0.08979000  0.91370000  1.0
  C  C85  1  0.69822000  0.91020000  0.08630000  1.0
  C  C86  1  0.28501000  0.97902000  0.91242000  1.0
  C  C87  1  0.71498000  0.02098000  0.08759000  1.0
  C  C88  1  0.24268000  0.93365000  0.99598000  1.0
  C  C89  1  0.75731000  0.06635000  0.00403000  1.0
  C  C90  1  0.21737000  0.99717000  0.08075000  1.0
  C  C91  1  0.78263000  0.00283000  0.91926000  1.0
  C  C92  1  0.23819000  0.10868000  0.08344000  1.0
  C  C93  1  0.76181000  0.89132000  0.91656000  1.0
  C  C94  1  0.27999000  0.15420000  0.99898000  1.0
  C  C95  1  0.72000000  0.84580000  0.00103000  1.0
  C  C96  1  0.21925000  0.17301000  0.17488000  1.0
  C  C97  1  0.78074000  0.82699000  0.82512000  1.0
  C  C98  1  0.26222000  0.28200000  0.19740000  1.0
  C  C99  1  0.73777000  0.71800000  0.80261000  1.0
  C  C100  1  0.24526000  0.34018000  0.29310000  1.0
  C  C101  1  0.75475000  0.65983000  0.70690000  1.0
  O  O102  1  0.06257000  0.55690000  0.59755000  1.0
  O  O103  1  0.93744000  0.44311000  0.40246000  1.0
  O  O104  1  0.07293000  0.32111000  0.57261000  1.0
  O  O105  1  0.92707000  0.67889000  0.42739000  1.0
  O  O106  1  0.33369000  0.54521000  0.65857000  1.0
  O  O107  1  0.66632000  0.45479000  0.34142000  1.0
  O  O108  1  0.46785000  0.56820000  0.19507000  1.0
  O  O109  1  0.53216000  0.43180000  0.80493000  1.0
  O  O110  1  0.50841000  0.60108000  0.47523000  1.0
  O  O111  1  0.49159000  0.39891000  0.52477000  1.0
  O  O112  1  0.25538000  0.64703000  0.43792000  1.0
  O  O113  1  0.74462000  0.35297000  0.56208000  1.0
  O  O114  1  0.04101000  0.09572000  0.38897000  1.0
  O  O115  1  0.95899000  0.90428000  0.61103000  1.0
  O  O116  1  0.18999000  0.29176000  0.36417000  1.0
  O  O117  1  0.81001000  0.70823000  0.63583000  1.0
  O  O118  1  0.28384000  0.44395000  0.30808000  1.0
  O  O119  1  0.71617000  0.55605000  0.69192000  1.0
  O  O120  1  0.33962000  0.13949000  0.83418000  1.0
  O  O121  1  0.66038000  0.86050000  0.16583000  1.0
