# generated using pymatgen
data_LiP2H17C5NO8
_symmetry_space_group_name_H-M   'P 1'
_cell_length_a   5.92318000
_cell_length_b   9.43109000
_cell_length_c   10.88120000
_cell_angle_alpha   74.03730000
_cell_angle_beta   75.65400000
_cell_angle_gamma   84.44270000
_symmetry_Int_Tables_number   1
_chemical_formula_structural   LiP2H17C5NO8
_chemical_formula_sum   'Li2 P4 H34 C10 N2 O16'
_cell_volume   565.91574634
_cell_formula_units_Z   2
loop_
 _symmetry_equiv_pos_site_id
 _symmetry_equiv_pos_as_xyz
  1  'x, y, z'
loop_
 _atom_site_type_symbol
 _atom_site_label
 _atom_site_symmetry_multiplicity
 _atom_site_fract_x
 _atom_site_fract_y
 _atom_site_fract_z
 _atom_site_occupancy
  Li  Li0  1  0.66976000  0.94512000  0.16811000  1.0
  Li  Li1  1  0.33026000  0.05489000  0.83189000  1.0
  P  P2  1  0.61001000  0.30489000  0.09602000  1.0
  P  P3  1  0.38997000  0.69512000  0.90398000  1.0
  P  P4  1  0.83206000  0.65670000  0.35733000  1.0
  P  P5  1  0.16795000  0.34330000  0.64266000  1.0
  H  H6  1  0.72920000  0.52781000  0.98251000  1.0
  H  H7  1  0.27078000  0.47219000  0.01749000  1.0
  H  H8  1  0.16716000  0.55440000  0.40572000  1.0
  H  H9  1  0.83284000  0.44560000  0.59427000  1.0
  H  H10  1  0.73943000  0.81077000  0.98772000  1.0
  H  H11  1  0.26058000  0.18924000  0.01228000  1.0
  H  H12  1  0.99145000  0.87005000  0.96424000  1.0
  H  H13  1  0.00856000  0.12996000  0.03575000  1.0
  H  H14  1  0.26699000  0.96887000  0.11852000  1.0
  H  H15  1  0.73302000  0.03115000  0.88149000  1.0
  H  H16  1  0.25199000  0.82190000  0.23507000  1.0
  H  H17  1  0.74803000  0.17812000  0.76493000  1.0
  H  H18  1  0.55606000  0.41577000  0.40491000  1.0
  H  H19  1  0.44394000  0.58424000  0.59508000  1.0
  H  H20  1  0.37326000  0.45464000  0.22870000  1.0
  H  H21  1  0.62674000  0.54536000  0.77130000  1.0
  H  H22  1  0.40508000  0.27063000  0.32089000  1.0
  H  H23  1  0.59492000  0.72937000  0.67911000  1.0
  H  H24  1  0.58975000  0.63417000  0.21627000  1.0
  H  H25  1  0.41026000  0.36582000  0.78373000  1.0
  H  H26  1  0.87880000  0.57038000  0.15846000  1.0
  H  H27  1  0.12121000  0.42961000  0.84154000  1.0
  H  H28  1  0.97971000  0.36634000  0.36925000  1.0
  H  H29  1  0.02029000  0.63367000  0.63075000  1.0
  H  H30  1  0.96370000  0.29898000  0.23439000  1.0
  H  H31  1  0.03630000  0.70102000  0.76561000  1.0
  H  H32  1  0.69518000  0.10180000  0.39077000  1.0
  H  H33  1  0.30482000  0.89819000  0.60924000  1.0
  H  H34  1  0.69913000  0.17839000  0.52241000  1.0
  H  H35  1  0.30087000  0.82160000  0.47759000  1.0
  H  H36  1  0.11851000  0.04744000  0.35349000  1.0
  H  H37  1  0.88149000  0.95256000  0.64651000  1.0
  H  H38  1  0.14017000  0.13630000  0.47481000  1.0
  H  H39  1  0.85983000  0.86370000  0.52520000  1.0
  C  C40  1  0.50001000  0.36333000  0.24800000  1.0
  C  C41  1  0.50000000  0.63666000  0.75199000  1.0
  C  C42  1  0.73957000  0.56898000  0.24657000  1.0
  C  C43  1  0.26043000  0.43102000  0.75343000  1.0
  C  C44  1  0.86819000  0.31031000  0.33167000  1.0
  C  C45  1  0.13182000  0.68969000  0.66833000  1.0
  C  C46  1  0.80203000  0.16238000  0.42761000  1.0
  C  C47  1  0.19797000  0.83762000  0.57239000  1.0
  C  C48  1  0.02482000  0.07186000  0.44673000  1.0
  C  C49  1  0.97518000  0.92815000  0.55328000  1.0
  N  N50  1  0.66349000  0.41367000  0.31221000  1.0
  N  N51  1  0.33651000  0.58633000  0.68779000  1.0
  O  O52  1  0.79745000  0.42066000  0.00392000  1.0
  O  O53  1  0.20254000  0.57934000  0.99608000  1.0
  O  O54  1  0.38922000  0.32054000  0.04380000  1.0
  O  O55  1  0.61076000  0.67946000  0.95620000  1.0
  O  O56  1  0.72849000  0.15456000  0.12231000  1.0
  O  O57  1  0.27151000  0.84544000  0.87769000  1.0
  O  O58  1  0.72575000  0.56817000  0.49770000  1.0
  O  O59  1  0.27425000  0.43182000  0.50229000  1.0
  O  O60  1  0.11025000  0.63447000  0.33333333  1.0
  O  O61  1  0.88976000  0.36552000  0.66666667  1.0
  O  O62  1  0.77062000  0.81762000  0.31648000  1.0
  O  O63  1  0.22938000  0.18237000  0.68352000  1.0
  O  O64  1  0.82402000  0.88914000  0.00226000  1.0
  O  O65  1  0.17598000  0.11086000  0.99774000  1.0
  O  O66  1  0.34890000  0.90637000  0.18502000  1.0
  O  O67  1  0.65110000  0.09366000  0.81499000  1.0
