# generated using pymatgen
data_CaPH10C3NO7
_symmetry_space_group_name_H-M   'P 1'
_cell_length_a   5.40251000
_cell_length_b   7.90794000
_cell_length_c   10.22060000
_cell_angle_alpha   74.38250000
_cell_angle_beta   79.88710000
_cell_angle_gamma   83.28020000
_symmetry_Int_Tables_number   1
_chemical_formula_structural   CaPH10C3NO7
_chemical_formula_sum   'Ca2 P2 H20 C6 N2 O14'
_cell_volume   412.87576712
_cell_formula_units_Z   2
loop_
 _symmetry_equiv_pos_site_id
 _symmetry_equiv_pos_as_xyz
  1  'x, y, z'
loop_
 _atom_site_type_symbol
 _atom_site_label
 _atom_site_symmetry_multiplicity
 _atom_site_fract_x
 _atom_site_fract_y
 _atom_site_fract_z
 _atom_site_occupancy
  Ca  Ca0  1  0.15039000  0.70854000  0.87423000  1.0
  Ca  Ca1  1  0.84961000  0.29146000  0.12577000  1.0
  P  P2  1  0.68903000  0.41483000  0.83915000  1.0
  P  P3  1  0.31097000  0.58518000  0.16085000  1.0
  H  H4  1  0.82677000  0.30621000  0.63395000  1.0
  H  H5  1  0.17323000  0.69380000  0.36605000  1.0
  H  H6  1  0.94573000  0.51557000  0.62035000  1.0
  H  H7  1  0.05427000  0.48443000  0.37965000  1.0
  H  H8  1  0.25678000  0.37696000  0.75674000  1.0
  H  H9  1  0.74323000  0.62303000  0.24326000  1.0
  H  H10  1  0.12764000  0.18149000  0.80522000  1.0
  H  H11  1  0.87237000  0.81852000  0.19478000  1.0
  H  H12  1  0.43566000  0.34468000  0.54875000  1.0
  H  H13  1  0.56433000  0.65532000  0.45124000  1.0
  H  H14  1  0.20150000  0.21057000  0.53882000  1.0
  H  H15  1  0.79849000  0.78943000  0.46118000  1.0
  H  H16  1  0.64405000  0.83384000  0.99463000  1.0
  H  H17  1  0.35595000  0.16616000  0.00537000  1.0
  H  H18  1  0.77425000  0.01173000  0.95263000  1.0
  H  H19  1  0.22575000  0.98827000  0.04737000  1.0
  H  H20  1  0.16438000  0.83399000  0.56588000  1.0
  H  H21  1  0.83562000  0.16601000  0.43413000  1.0
  H  H22  1  0.89078000  0.86975000  0.63868000  1.0
  H  H23  1  0.10922000  0.13025000  0.36133000  1.0
  C  C24  1  0.90788000  0.38450000  0.68743000  1.0
  C  C25  1  0.09213000  0.61550000  0.31257000  1.0
  C  C26  1  0.31873000  0.23729000  0.60758000  1.0
  C  C27  1  0.68126000  0.76271000  0.39242000  1.0
  C  C28  1  0.47577000  0.06640000  0.66069000  1.0
  C  C29  1  0.52422000  0.93360000  0.33931000  1.0
  N  N30  1  0.15293000  0.29268000  0.72345000  1.0
  N  N31  1  0.84707000  0.70732000  0.27654000  1.0
  O  O32  1  0.44853000  0.50580000  0.78250000  1.0
  O  O33  1  0.55147000  0.49419000  0.21750000  1.0
  O  O34  1  0.65304000  0.23051000  0.93716000  1.0
  O  O35  1  0.34695000  0.76950000  0.06284000  1.0
  O  O36  1  0.81899000  0.52201000  0.90821000  1.0
  O  O37  1  0.18101000  0.47799000  0.09180000  1.0
  O  O38  1  0.37585000  0.95982000  0.76623000  1.0
  O  O39  1  0.62414000  0.04018000  0.23377000  1.0
  O  O40  1  0.69090000  0.04517000  0.59106000  1.0
  O  O41  1  0.30909000  0.95483000  0.40894000  1.0
  O  O42  1  0.81350000  0.88251000  0.96988000  1.0
  O  O43  1  0.18650000  0.11749000  0.03012000  1.0
  O  O44  1  0.03944000  0.78081000  0.64576000  1.0
  O  O45  1  0.96056000  0.21919000  0.35425000  1.0
