# generated using pymatgen
data_LiH10C4N2Cl
_symmetry_space_group_name_H-M   'P 1'
_cell_length_a   6.64420000
_cell_length_b   6.91740000
_cell_length_c   13.86940000
_cell_angle_alpha   97.09060000
_cell_angle_beta   89.99980000
_cell_angle_gamma   90.00000000
_symmetry_Int_Tables_number   1
_chemical_formula_structural   LiH10C4N2Cl
_chemical_formula_sum   'Li4 H40 C16 N8 Cl4'
_cell_volume   632.57073796
_cell_formula_units_Z   4
loop_
 _symmetry_equiv_pos_site_id
 _symmetry_equiv_pos_as_xyz
  1  'x, y, z'
loop_
 _atom_site_type_symbol
 _atom_site_label
 _atom_site_symmetry_multiplicity
 _atom_site_fract_x
 _atom_site_fract_y
 _atom_site_fract_z
 _atom_site_occupancy
  Li  Li0  1  0.12182000  0.12433000  0.70680000  1.0
  Li  Li1  1  0.62183000  0.87566000  0.79320000  1.0
  Li  Li2  1  0.87817000  0.87566000  0.29320000  1.0
  Li  Li3  1  0.37817000  0.12433000  0.20680000  1.0
  H  H4  1  0.29470000  0.48407000  0.75139000  1.0
  H  H5  1  0.79469000  0.51592000  0.74860000  1.0
  H  H6  1  0.70531000  0.51592000  0.24860000  1.0
  H  H7  1  0.20531000  0.48408000  0.25140000  1.0
  H  H8  1  0.45160000  0.30665000  0.76946000  1.0
  H  H9  1  0.95159000  0.69334000  0.73053000  1.0
  H  H10  1  0.54840000  0.69335000  0.23054000  1.0
  H  H11  1  0.04841000  0.30665000  0.26946000  1.0
  H  H12  1  0.50911000  0.21219000  0.61162000  1.0
  H  H13  1  0.00911000  0.78780000  0.88838000  1.0
  H  H14  1  0.49089000  0.78780000  0.38838000  1.0
  H  H15  1  0.99090000  0.21220000  0.11162000  1.0
  H  H16  1  0.50538000  0.46992000  0.61834000  1.0
  H  H17  1  0.00538000  0.53008000  0.88165000  1.0
  H  H18  1  0.49462000  0.53007000  0.38165000  1.0
  H  H19  1  0.99462000  0.46993000  0.11835000  1.0
  H  H20  1  0.29530000  0.35028000  0.48161000  1.0
  H  H21  1  0.79530000  0.64972000  0.01839000  1.0
  H  H22  1  0.70470000  0.64972000  0.51839000  1.0
  H  H23  1  0.20471000  0.35029000  0.98162000  1.0
  H  H24  1  0.14083000  0.46104000  0.57748000  1.0
  H  H25  1  0.64083000  0.53896000  0.92252000  1.0
  H  H26  1  0.85917000  0.53896000  0.42252000  1.0
  H  H27  1  0.35918000  0.46105000  0.07748000  1.0
  H  H28  1  0.35337000  0.95886000  0.53416000  1.0
  H  H29  1  0.85338000  0.04114000  0.96584000  1.0
  H  H30  1  0.64662000  0.04114000  0.46584000  1.0
  H  H31  1  0.14662000  0.95887000  0.03416000  1.0
  H  H32  1  0.24920000  0.02544000  0.42334000  1.0
  H  H33  1  0.74921000  0.97456000  0.07666000  1.0
  H  H34  1  0.75079000  0.97456000  0.57666000  1.0
  H  H35  1  0.25080000  0.02545000  0.92334000  1.0
  H  H36  1  0.93849000  0.23197000  0.43575000  1.0
  H  H37  1  0.43849000  0.76803000  0.06425000  1.0
  H  H38  1  0.06150000  0.76803000  0.56425000  1.0
  H  H39  1  0.56151000  0.23198000  0.93576000  1.0
  H  H40  1  0.84113000  0.30902000  0.55414000  1.0
  H  H41  1  0.34112000  0.69099000  0.94585000  1.0
  H  H42  1  0.15887000  0.69098000  0.44585000  1.0
  H  H43  1  0.65887000  0.30903000  0.05415000  1.0
  C  C44  1  0.41248000  0.34083000  0.62700000  1.0
  C  C45  1  0.91248000  0.65916000  0.87299000  1.0
  C  C46  1  0.58752000  0.65916000  0.37300000  1.0
  C  C47  1  0.08753000  0.34084000  0.12701000  1.0
  C  C48  1  0.23844000  0.33495000  0.55556000  1.0
  C  C49  1  0.73845000  0.66506000  0.94444000  1.0
  C  C50  1  0.76156000  0.66505000  0.44445000  1.0
  C  C51  1  0.26156000  0.33495000  0.05556000  1.0
  C  C52  1  0.21317000  0.99097000  0.49749000  1.0
  C  C53  1  0.71317000  0.00903000  0.00251000  1.0
  C  C54  1  0.78683000  0.00902000  0.50251000  1.0
  C  C55  1  0.28684000  0.99098000  0.99749000  1.0
  C  C56  1  0.91852000  0.18922000  0.50960000  1.0
  C  C57  1  0.41851000  0.81078000  0.99040000  1.0
  C  C58  1  0.08148000  0.81078000  0.49040000  1.0
  C  C59  1  0.58148000  0.18923000  0.00960000  1.0
  N  N60  1  0.33493000  0.34327000  0.72682000  1.0
  N  N61  1  0.83493000  0.65673000  0.77318000  1.0
  N  N62  1  0.66507000  0.65673000  0.27318000  1.0
  N  N63  1  0.16506000  0.34326000  0.22682000  1.0
  N  N64  1  0.11446000  0.15817000  0.55433000  1.0
  N  N65  1  0.61447000  0.84183000  0.94567000  1.0
  N  N66  1  0.88553000  0.84182000  0.44567000  1.0
  N  N67  1  0.38554000  0.15818000  0.05433000  1.0
  Cl  Cl68  1  0.30198000  0.83573000  0.72714000  1.0
  Cl  Cl69  1  0.80198000  0.16426000  0.77286000  1.0
  Cl  Cl70  1  0.69801000  0.16427000  0.27286000  1.0
  Cl  Cl71  1  0.19802000  0.83573000  0.22714000  1.0
