# generated using pymatgen
data_CuH6C14(NO2)2
_symmetry_space_group_name_H-M   'P 1'
_cell_length_a   18.31170000
_cell_length_b   18.31170000
_cell_length_c   26.42990000
_cell_angle_alpha   69.72900000
_cell_angle_beta   69.72900000
_cell_angle_gamma   59.99350000
_symmetry_Int_Tables_number   1
_chemical_formula_structural   CuH6C14(NO2)2
_chemical_formula_sum   'Cu12 H72 C168 N24 O48'
_cell_volume   7033.72309970
_cell_formula_units_Z   12
loop_
 _symmetry_equiv_pos_site_id
 _symmetry_equiv_pos_as_xyz
  1  'x, y, z'
loop_
 _atom_site_type_symbol
 _atom_site_label
 _atom_site_symmetry_multiplicity
 _atom_site_fract_x
 _atom_site_fract_y
 _atom_site_fract_z
 _atom_site_occupancy
  Cu  Cu0  1  0.18485000  0.75006000  0.29126000  1.0
  Cu  Cu1  1  0.77384000  0.18482000  0.29125000  1.0
  Cu  Cu2  1  0.75007000  0.77382000  0.29126000  1.0
  Cu  Cu3  1  0.72618000  0.74993000  0.20874000  1.0
  Cu  Cu4  1  0.31518000  0.72616000  0.20875000  1.0
  Cu  Cu5  1  0.74994000  0.31515000  0.20873000  1.0
  Cu  Cu6  1  0.81515000  0.24994000  0.70873000  1.0
  Cu  Cu7  1  0.22616000  0.81518000  0.70875000  1.0
  Cu  Cu8  1  0.24993000  0.22617000  0.70874000  1.0
  Cu  Cu9  1  0.27383000  0.25007000  0.79126000  1.0
  Cu  Cu10  1  0.68482000  0.27384000  0.79125000  1.0
  Cu  Cu11  1  0.25006000  0.68485000  0.79127000  1.0
  H  H12  1  0.23390000  0.63538000  0.10994000  1.0
  H  H13  1  0.02085000  0.23381000  0.10993000  1.0
  H  H14  1  0.63538000  0.02083000  0.10995000  1.0
  H  H15  1  0.47917000  0.86462000  0.39006000  1.0
  H  H16  1  0.26619000  0.47915000  0.39007000  1.0
  H  H17  1  0.86462000  0.26610000  0.39006000  1.0
  H  H18  1  0.76611000  0.36463000  0.89006000  1.0
  H  H19  1  0.97915000  0.76619000  0.89007000  1.0
  H  H20  1  0.36462000  0.97917000  0.89005000  1.0
  H  H21  1  0.52083000  0.13538000  0.60994000  1.0
  H  H22  1  0.73381000  0.52085000  0.60993000  1.0
  H  H23  1  0.13537000  0.73389000  0.60994000  1.0
  H  H24  1  0.00943000  0.73210000  0.23617000  1.0
  H  H25  1  0.02234000  0.00938000  0.23616000  1.0
  H  H26  1  0.73213000  0.02232000  0.23615000  1.0
  H  H27  1  0.47768000  0.76787000  0.26385000  1.0
  H  H28  1  0.49062000  0.47766000  0.26384000  1.0
  H  H29  1  0.76790000  0.49057000  0.26383000  1.0
  H  H30  1  0.99057000  0.26789000  0.76383000  1.0
  H  H31  1  0.97766000  0.99062000  0.76384000  1.0
  H  H32  1  0.26787000  0.97768000  0.76385000  1.0
  H  H33  1  0.52232000  0.23213000  0.73615000  1.0
  H  H34  1  0.50938000  0.52234000  0.73616000  1.0
  H  H35  1  0.23210000  0.50943000  0.73617000  1.0
  H  H36  1  0.99051000  0.65061000  0.10904000  1.0
  H  H37  1  0.24995000  0.99041000  0.10903000  1.0
  H  H38  1  0.65056000  0.24993000  0.10902000  1.0
  H  H39  1  0.25007000  0.84944000  0.39098000  1.0
  H  H40  1  0.50959000  0.25005000  0.39097000  1.0
  H  H41  1  0.84939000  0.50949000  0.39096000  1.0
  H  H42  1  0.00949000  0.34939000  0.89096000  1.0
  H  H43  1  0.75006000  0.00959000  0.89097000  1.0
  H  H44  1  0.34944000  0.75007000  0.89098000  1.0
  H  H45  1  0.74993000  0.15056000  0.60902000  1.0
  H  H46  1  0.49041000  0.74995000  0.60903000  1.0
  H  H47  1  0.15061000  0.49051000  0.60904000  1.0
  H  H48  1  0.27727000  0.48527000  0.82672000  1.0
  H  H49  1  0.41082000  0.27718000  0.82672000  1.0
  H  H50  1  0.48525000  0.41077000  0.82671000  1.0
  H  H51  1  0.08923000  0.01475000  0.67329000  1.0
  H  H52  1  0.22282000  0.08918000  0.67328000  1.0
  H  H53  1  0.01473000  0.22273000  0.67328000  1.0
  H  H54  1  0.72273000  0.51474000  0.17328000  1.0
  H  H55  1  0.58918000  0.72282000  0.17328000  1.0
  H  H56  1  0.51475000  0.58923000  0.17329000  1.0
  H  H57  1  0.91077000  0.98526000  0.32671000  1.0
  H  H58  1  0.77718000  0.91082000  0.32672000  1.0
  H  H59  1  0.98527000  0.77727000  0.32672000  1.0
  H  H60  1  0.20324000  0.42424000  0.99737000  1.0
  H  H61  1  0.37507000  0.20334000  0.99738000  1.0
  H  H62  1  0.42428000  0.37514000  0.99737000  1.0
  H  H63  1  0.12487000  0.07572000  0.50263000  1.0
  H  H64  1  0.29666000  0.12493000  0.50263000  1.0
  H  H65  1  0.07576000  0.29676000  0.50263000  1.0
  H  H66  1  0.79676000  0.57577000  0.00262000  1.0
  H  H67  1  0.62493000  0.79666000  0.00262000  1.0
  H  H68  1  0.57572000  0.62486000  0.00263000  1.0
  H  H69  1  0.87513000  0.92428000  0.49736000  1.0
  H  H70  1  0.70334000  0.87507000  0.49737000  1.0
  H  H71  1  0.92424000  0.70324000  0.49737000  1.0
  H  H72  1  0.23341000  0.65966000  0.91231000  1.0
  H  H73  1  0.19465000  0.23341000  0.91229000  1.0
  H  H74  1  0.65966000  0.19460000  0.91229000  1.0
  H  H75  1  0.30540000  0.84034000  0.58771000  1.0
  H  H76  1  0.26659000  0.30535000  0.58771000  1.0
  H  H77  1  0.84034000  0.26659000  0.58769000  1.0
  H  H78  1  0.76659000  0.34035000  0.08769000  1.0
  H  H79  1  0.80535000  0.76659000  0.08772000  1.0
  H  H80  1  0.34034000  0.80540000  0.08771000  1.0
  H  H81  1  0.69460000  0.15967000  0.41229000  1.0
  H  H82  1  0.73341000  0.69465000  0.41229000  1.0
  H  H83  1  0.15966000  0.73341000  0.41231000  1.0
  C  C84  1  0.18467000  0.57300000  0.01448000  1.0
  C  C85  1  0.22793000  0.18455000  0.01445000  1.0
  C  C86  1  0.57310000  0.22789000  0.01444000  1.0
  C  C87  1  0.27211000  0.92690000  0.48556000  1.0
  C  C88  1  0.31545000  0.27207000  0.48555000  1.0
  C  C89  1  0.92700000  0.31533000  0.48552000  1.0
  C  C90  1  0.81533000  0.42700000  0.98551000  1.0
  C  C91  1  0.77207000  0.81545000  0.98555000  1.0
  C  C92  1  0.42690000  0.77211000  0.98556000  1.0
  C  C93  1  0.72789000  0.07310000  0.51444000  1.0
  C  C94  1  0.68455000  0.72793000  0.51445000  1.0
  C  C95  1  0.07300000  0.68467000  0.51448000  1.0
  C  C96  1  0.11736000  0.63732000  0.10410000  1.0
  C  C97  1  0.14132000  0.11726000  0.10406000  1.0
  C  C98  1  0.63738000  0.14127000  0.10405000  1.0
  C  C99  1  0.35873000  0.86262000  0.39595000  1.0
  C  C100  1  0.38274000  0.35868000  0.39594000  1.0
  C  C101  1  0.86268000  0.38264000  0.39590000  1.0
  C  C102  1  0.88264000  0.36268000  0.89590000  1.0
  C  C103  1  0.85868000  0.88274000  0.89594000  1.0
  C  C104  1  0.36261000  0.85873000  0.89595000  1.0
  C  C105  1  0.64127000  0.13739000  0.60405000  1.0
  C  C106  1  0.61726000  0.64132000  0.60406000  1.0
  C  C107  1  0.13732000  0.61736000  0.60410000  1.0
  C  C108  1  0.16591000  0.65127000  0.12807000  1.0
  C  C109  1  0.05484000  0.16582000  0.12805000  1.0
  C  C110  1  0.65130000  0.05480000  0.12805000  1.0
  C  C111  1  0.44520000  0.84870000  0.37195000  1.0
  C  C112  1  0.33418000  0.44516000  0.37195000  1.0
  C  C113  1  0.84873000  0.33409000  0.37193000  1.0
  C  C114  1  0.83409000  0.34873000  0.87193000  1.0
  C  C115  1  0.94516000  0.83418000  0.87195000  1.0
  C  C116  1  0.34870000  0.94520000  0.87195000  1.0
  C  C117  1  0.55480000  0.15130000  0.62805000  1.0
  C  C118  1  0.66582000  0.55484000  0.62805000  1.0
  C  C119  1  0.15127000  0.66591000  0.62807000  1.0
  C  C120  1  0.12672000  0.68539000  0.17557000  1.0
  C  C121  1  0.01239000  0.12665000  0.17556000  1.0
  C  C122  1  0.68541000  0.01237000  0.17556000  1.0
  C  C123  1  0.48763000  0.81459000  0.32444000  1.0
  C  C124  1  0.37334000  0.48761000  0.32444000  1.0
  C  C125  1  0.81461000  0.37328000  0.32443000  1.0
  C  C126  1  0.87328000  0.31461000  0.82442000  1.0
  C  C127  1  0.98761000  0.87335000  0.82445000  1.0
  C  C128  1  0.31459000  0.98763000  0.82444000  1.0
  C  C129  1  0.51237000  0.18541000  0.67556000  1.0
  C  C130  1  0.62666000  0.51239000  0.67556000  1.0
  C  C131  1  0.18539000  0.62672000  0.67558000  1.0
  C  C132  1  0.03954000  0.70617000  0.19903000  1.0
  C  C133  1  0.05533000  0.03949000  0.19901000  1.0
  C  C134  1  0.70617000  0.05532000  0.19902000  1.0
  C  C135  1  0.44468000  0.79383000  0.30099000  1.0
  C  C136  1  0.46051000  0.44467000  0.30098000  1.0
  C  C137  1  0.79383000  0.46046000  0.30097000  1.0
  C  C138  1  0.96046000  0.29383000  0.80097000  1.0
  C  C139  1  0.94467000  0.96051000  0.80099000  1.0
  C  C140  1  0.29383000  0.94468000  0.80099000  1.0
  C  C141  1  0.55532000  0.20617000  0.69901000  1.0
  C  C142  1  0.53949000  0.55533000  0.69902000  1.0
  C  C143  1  0.20617000  0.53954000  0.69903000  1.0
  C  C144  1  0.99039000  0.69464000  0.17483000  1.0
  C  C145  1  0.14021000  0.99034000  0.17481000  1.0
  C  C146  1  0.69457000  0.14023000  0.17483000  1.0
  C  C147  1  0.35977000  0.80543000  0.32517000  1.0
  C  C148  1  0.50966000  0.35979000  0.32519000  1.0
  C  C149  1  0.80536000  0.50961000  0.32517000  1.0
  C  C150  1  0.00961000  0.30536000  0.82517000  1.0
  C  C151  1  0.85979000  0.00966000  0.82519000  1.0
  C  C152  1  0.30543000  0.85977000  0.82517000  1.0
  C  C153  1  0.64023000  0.19457000  0.67483000  1.0
  C  C154  1  0.49034000  0.64021000  0.67481000  1.0
  C  C155  1  0.19464000  0.49039000  0.67483000  1.0
  C  C156  1  0.02893000  0.66004000  0.12760000  1.0
  C  C157  1  0.18352000  0.02885000  0.12758000  1.0
  C  C158  1  0.66000000  0.18351000  0.12759000  1.0
  C  C159  1  0.31649000  0.84000000  0.37241000  1.0
  C  C160  1  0.47115000  0.31648000  0.37242000  1.0
  C  C161  1  0.83996000  0.47107000  0.37240000  1.0
  C  C162  1  0.97107000  0.33996000  0.87240000  1.0
  C  C163  1  0.81648000  0.97115000  0.87242000  1.0
  C  C164  1  0.34000000  0.81649000  0.87241000  1.0
  C  C165  1  0.68351000  0.16000000  0.62759000  1.0
  C  C166  1  0.52885000  0.68352000  0.62759000  1.0
  C  C167  1  0.16004000  0.52893000  0.62760000  1.0
  C  C168  1  0.89664000  0.72013000  0.20071000  1.0
  C  C169  1  0.18259000  0.89660000  0.20068000  1.0
  C  C170  1  0.72008000  0.18260000  0.20071000  1.0
  C  C171  1  0.31741000  0.77992000  0.29929000  1.0
  C  C172  1  0.60340000  0.31741000  0.29931000  1.0
  C  C173  1  0.77987000  0.60336000  0.29929000  1.0
  C  C174  1  0.10336000  0.27987000  0.79929000  1.0
  C  C175  1  0.81741000  0.10340000  0.79932000  1.0
  C  C176  1  0.27992000  0.81740000  0.79929000  1.0
  C  C177  1  0.68260000  0.22008000  0.70071000  1.0
  C  C178  1  0.39660000  0.68258000  0.70069000  1.0
  C  C179  1  0.22013000  0.39664000  0.70071000  1.0
  C  C180  1  0.17553000  0.70169000  0.20236000  1.0
  C  C181  1  0.92045000  0.17547000  0.20230000  1.0
  C  C182  1  0.70174000  0.92045000  0.20234000  1.0
  C  C183  1  0.57955000  0.79826000  0.29766000  1.0
  C  C184  1  0.32454000  0.57955000  0.29770000  1.0
  C  C185  1  0.79830000  0.32447000  0.29764000  1.0
  C  C186  1  0.82447000  0.29831000  0.79764000  1.0
  C  C187  1  0.07955000  0.82453000  0.79770000  1.0
  C  C188  1  0.29826000  0.07955000  0.79766000  1.0
  C  C189  1  0.42045000  0.20174000  0.70234000  1.0
  C  C190  1  0.67547000  0.42045000  0.70230000  1.0
  C  C191  1  0.20169000  0.67553000  0.70236000  1.0
  C  C192  1  0.15556000  0.60201000  0.05606000  1.0
  C  C193  1  0.18646000  0.15544000  0.05602000  1.0
  C  C194  1  0.60213000  0.18639000  0.05600000  1.0
  C  C195  1  0.31361000  0.89787000  0.44400000  1.0
  C  C196  1  0.34456000  0.31354000  0.44398000  1.0
  C  C197  1  0.89799000  0.34444000  0.44394000  1.0
  C  C198  1  0.84444000  0.39800000  0.94394000  1.0
  C  C199  1  0.81354000  0.84456000  0.94398000  1.0
  C  C200  1  0.39787000  0.81361000  0.94400000  1.0
  C  C201  1  0.68639000  0.10213000  0.55600000  1.0
  C  C202  1  0.65544000  0.68646000  0.55602000  1.0
  C  C203  1  0.10200000  0.65556000  0.55606000  1.0
  C  C204  1  0.21374000  0.54603000  0.96410000  1.0
  C  C205  1  0.27616000  0.21371000  0.96408000  1.0
  C  C206  1  0.54608000  0.27615000  0.96408000  1.0
  C  C207  1  0.22385000  0.95392000  0.53593000  1.0
  C  C208  1  0.28629000  0.22384000  0.53592000  1.0
  C  C209  1  0.95397000  0.28626000  0.53590000  1.0
  C  C210  1  0.78626000  0.45397000  0.03590000  1.0
  C  C211  1  0.72384000  0.78629000  0.03592000  1.0
  C  C212  1  0.45392000  0.72385000  0.03593000  1.0
  C  C213  1  0.77615000  0.04608000  0.46407000  1.0
  C  C214  1  0.71371000  0.77616000  0.46408000  1.0
  C  C215  1  0.04603000  0.71374000  0.46410000  1.0
  C  C216  1  0.21895000  0.46865000  0.96013000  1.0
  C  C217  1  0.35224000  0.21900000  0.96013000  1.0
  C  C218  1  0.46868000  0.35227000  0.96012000  1.0
  C  C219  1  0.14773000  0.03132000  0.53988000  1.0
  C  C220  1  0.28100000  0.14776000  0.53987000  1.0
  C  C221  1  0.03135000  0.28105000  0.53987000  1.0
  C  C222  1  0.78105000  0.53135000  0.03986000  1.0
  C  C223  1  0.64776000  0.78100000  0.03987000  1.0
  C  C224  1  0.53132000  0.64773000  0.03988000  1.0
  C  C225  1  0.85226000  0.96868000  0.46012000  1.0
  C  C226  1  0.71900000  0.85224000  0.46013000  1.0
  C  C227  1  0.96865000  0.71895000  0.46013000  1.0
  C  C228  1  0.26006000  0.50163000  0.86657000  1.0
  C  C229  1  0.37181000  0.26000000  0.86656000  1.0
  C  C230  1  0.50161000  0.37175000  0.86656000  1.0
  C  C231  1  0.12825000  0.99839000  0.63344000  1.0
  C  C232  1  0.24000000  0.12819000  0.63344000  1.0
  C  C233  1  0.99837000  0.23994000  0.63343000  1.0
  C  C234  1  0.73994000  0.49838000  0.13343000  1.0
  C  C235  1  0.62819000  0.74000000  0.13344000  1.0
  C  C236  1  0.49839000  0.62825000  0.13344000  1.0
  C  C237  1  0.87174000  0.00162000  0.36656000  1.0
  C  C238  1  0.76000000  0.87180000  0.36656000  1.0
  C  C239  1  0.00163000  0.76006000  0.36657000  1.0
  C  C240  1  0.23553000  0.59837000  0.91374000  1.0
  C  C241  1  0.25239000  0.23553000  0.91371000  1.0
  C  C242  1  0.59837000  0.25235000  0.91371000  1.0
  C  C243  1  0.24765000  0.90163000  0.58629000  1.0
  C  C244  1  0.26447000  0.24761000  0.58629000  1.0
  C  C245  1  0.90163000  0.26447000  0.58626000  1.0
  C  C246  1  0.76447000  0.40164000  0.08626000  1.0
  C  C247  1  0.74761000  0.76447000  0.08629000  1.0
  C  C248  1  0.40163000  0.74765000  0.08629000  1.0
  C  C249  1  0.75235000  0.09837000  0.41370000  1.0
  C  C250  1  0.73553000  0.75239000  0.41371000  1.0
  C  C251  1  0.09837000  0.73553000  0.41374000  1.0
  N  N252  1  0.24199000  0.44645000  0.91188000  1.0
  N  N253  1  0.39968000  0.24202000  0.91188000  1.0
  N  N254  1  0.44644000  0.39967000  0.91187000  1.0
  N  N255  1  0.10033000  0.05356000  0.58813000  1.0
  N  N256  1  0.25798000  0.10032000  0.58812000  1.0
  N  N257  1  0.05355000  0.25801000  0.58812000  1.0
  N  N258  1  0.75801000  0.55355000  0.08812000  1.0
  N  N259  1  0.60032000  0.75798000  0.08812000  1.0
  N  N260  1  0.55356000  0.60033000  0.08813000  1.0
  N  N261  1  0.89967000  0.94644000  0.41187000  1.0
  N  N262  1  0.74202000  0.89968000  0.41188000  1.0
  N  N263  1  0.94645000  0.74199000  0.41188000  1.0
  N  N264  1  0.25776000  0.57671000  0.86537000  1.0
  N  N265  1  0.30022000  0.25772000  0.86535000  1.0
  N  N266  1  0.57669000  0.30014000  0.86535000  1.0
  N  N267  1  0.19986000  0.92331000  0.63465000  1.0
  N  N268  1  0.24228000  0.19978000  0.63465000  1.0
  N  N269  1  0.92329000  0.24224000  0.63463000  1.0
  N  N270  1  0.74224000  0.42330000  0.13463000  1.0
  N  N271  1  0.69978000  0.74228000  0.13465000  1.0
  N  N272  1  0.42331000  0.69986000  0.13465000  1.0
  N  N273  1  0.80014000  0.07669000  0.36535000  1.0
  N  N274  1  0.75772000  0.80022000  0.36535000  1.0
  N  N275  1  0.07671000  0.75776000  0.36537000  1.0
  O  O276  1  0.87148000  0.73819000  0.24808000  1.0
  O  O277  1  0.14231000  0.87144000  0.24805000  1.0
  O  O278  1  0.73813000  0.14232000  0.24808000  1.0
  O  O279  1  0.35769000  0.76187000  0.25193000  1.0
  O  O280  1  0.62855000  0.35769000  0.25195000  1.0
  O  O281  1  0.76181000  0.62852000  0.25193000  1.0
  O  O282  1  0.12852000  0.26180000  0.75192000  1.0
  O  O283  1  0.85769000  0.12855000  0.75195000  1.0
  O  O284  1  0.26187000  0.85768000  0.75193000  1.0
  O  O285  1  0.64232000  0.23813000  0.74807000  1.0
  O  O286  1  0.37145000  0.64231000  0.74805000  1.0
  O  O287  1  0.23819000  0.37147000  0.74808000  1.0
  O  O288  1  0.84978000  0.72199000  0.17361000  1.0
  O  O289  1  0.25467000  0.84974000  0.17358000  1.0
  O  O290  1  0.72200000  0.25466000  0.17359000  1.0
  O  O291  1  0.24534000  0.77800000  0.32641000  1.0
  O  O292  1  0.65026000  0.24533000  0.32642000  1.0
  O  O293  1  0.77801000  0.65022000  0.32639000  1.0
  O  O294  1  0.15022000  0.27801000  0.82639000  1.0
  O  O295  1  0.74533000  0.15026000  0.82642000  1.0
  O  O296  1  0.27800000  0.74534000  0.82641000  1.0
  O  O297  1  0.75466000  0.22200000  0.67359000  1.0
  O  O298  1  0.34974000  0.75467000  0.67358000  1.0
  O  O299  1  0.22199000  0.34978000  0.67361000  1.0
  O  O300  1  0.13595000  0.72126000  0.24956000  1.0
  O  O301  1  0.89323000  0.13589000  0.24950000  1.0
  O  O302  1  0.72128000  0.89326000  0.24956000  1.0
  O  O303  1  0.60674000  0.77872000  0.25045000  1.0
  O  O304  1  0.36411000  0.60678000  0.25050000  1.0
  O  O305  1  0.77874000  0.36405000  0.25044000  1.0
  O  O306  1  0.86405000  0.27874000  0.75044000  1.0
  O  O307  1  0.10677000  0.86411000  0.75050000  1.0
  O  O308  1  0.27872000  0.10674000  0.75044000  1.0
  O  O309  1  0.39326000  0.22128000  0.74955000  1.0
  O  O310  1  0.63589000  0.39322000  0.74949000  1.0
  O  O311  1  0.22126000  0.63595000  0.74956000  1.0
  O  O312  1  0.25055000  0.69591000  0.17656000  1.0
  O  O313  1  0.87704000  0.25049000  0.17650000  1.0
  O  O314  1  0.69600000  0.87701000  0.17653000  1.0
  O  O315  1  0.62299000  0.80400000  0.32347000  1.0
  O  O316  1  0.24951000  0.62296000  0.32350000  1.0
  O  O317  1  0.80409000  0.24945000  0.32344000  1.0
  O  O318  1  0.74946000  0.30409000  0.82344000  1.0
  O  O319  1  0.12296000  0.74951000  0.82350000  1.0
  O  O320  1  0.30400000  0.12299000  0.82347000  1.0
  O  O321  1  0.37701000  0.19600000  0.67653000  1.0
  O  O322  1  0.75050000  0.37704000  0.67650000  1.0
  O  O323  1  0.19591000  0.75054000  0.67656000  1.0
