# generated using pymatgen
data_CuH7C12(N3O)2
_symmetry_space_group_name_H-M   'P 1'
_cell_length_a   5.30020000
_cell_length_b   8.40860000
_cell_length_c   15.51510000
_cell_angle_alpha   89.99960000
_cell_angle_beta   89.99980000
_cell_angle_gamma   105.21900000
_symmetry_Int_Tables_number   1
_chemical_formula_structural   CuH7C12(N3O)2
_chemical_formula_sum   'Cu2 H14 C24 N12 O4'
_cell_volume   667.21547805
_cell_formula_units_Z   2
loop_
 _symmetry_equiv_pos_site_id
 _symmetry_equiv_pos_as_xyz
  1  'x, y, z'
loop_
 _atom_site_type_symbol
 _atom_site_label
 _atom_site_symmetry_multiplicity
 _atom_site_fract_x
 _atom_site_fract_y
 _atom_site_fract_z
 _atom_site_occupancy
  Cu  Cu0  1  0.61977000  0.92421000  0.42235000  1.0
  Cu  Cu1  1  0.38024000  0.07579000  0.92234000  1.0
  H  H2  1  0.51457000  0.24767000  0.50648000  1.0
  H  H3  1  0.48543000  0.75234000  0.00648000  1.0
  H  H4  1  0.36852000  0.41617000  0.49619000  1.0
  H  H5  1  0.63147000  0.58383000  0.99619000  1.0
  H  H6  1  0.48633000  0.33158000  0.40233000  1.0
  H  H7  1  0.51367000  0.66843000  0.90233000  1.0
  H  H8  1  0.04818000  0.54675000  0.27288000  1.0
  H  H9  1  0.95181000  0.45325000  0.77288000  1.0
  H  H10  1  0.98402000  0.42608000  0.36881000  1.0
  H  H11  1  0.01597000  0.57392000  0.86881000  1.0
  H  H12  1  0.25659000  0.60624000  0.36503000  1.0
  H  H13  1  0.74340000  0.39375000  0.86503000  1.0
  H  H14  1  0.48274000  0.59193000  0.15813000  1.0
  H  H15  1  0.51725000  0.40807000  0.65813000  1.0
  C  C16  1  0.13191000  0.43580000  0.09994000  1.0
  C  C17  1  0.86809000  0.56419000  0.59994000  1.0
  C  C18  1  0.00926000  0.25884000  0.11303000  1.0
  C  C19  1  0.99074000  0.74115000  0.61303000  1.0
  C  C20  1  0.15405000  0.19782000  0.17384000  1.0
  C  C21  1  0.84595000  0.80217000  0.67384000  1.0
  C  C22  1  0.37776000  0.34199000  0.20053000  1.0
  C  C23  1  0.62224000  0.65800000  0.70053000  1.0
  C  C24  1  0.78893000  0.18065000  0.06586000  1.0
  C  C25  1  0.21107000  0.81935000  0.56586000  1.0
  C  C26  1  0.91378000  0.90527000  0.18556000  1.0
  C  C27  1  0.08622000  0.09473000  0.68555000  1.0
  C  C28  1  0.12303000  0.04058000  0.20929000  1.0
  C  C29  1  0.87697000  0.95942000  0.70929000  1.0
  C  C30  1  0.29335000  0.00688000  0.27222000  1.0
  C  C31  1  0.70664000  0.99312000  0.77222000  1.0
  C  C32  1  0.13794000  0.19068000  0.45414000  1.0
  C  C33  1  0.86207000  0.80933000  0.95414000  1.0
  C  C34  1  0.39190000  0.30320000  0.46555000  1.0
  C  C35  1  0.60810000  0.69681000  0.96556000  1.0
  C  C36  1  0.88926000  0.65109000  0.37325000  1.0
  C  C37  1  0.11074000  0.34891000  0.87325000  1.0
  C  C38  1  0.05494000  0.55163000  0.34349000  1.0
  C  C39  1  0.94506000  0.44837000  0.84349000  1.0
  N  N40  1  0.35236000  0.47627000  0.15406000  1.0
  N  N41  1  0.64763000  0.52373000  0.65406000  1.0
  N  N42  1  0.60625000  0.12816000  0.02184000  1.0
  N  N43  1  0.39377000  0.87184000  0.52184000  1.0
  N  N44  1  0.74162000  0.79139000  0.16756000  1.0
  N  N45  1  0.25838000  0.20861000  0.66755000  1.0
  N  N46  1  0.42155000  0.96829000  0.32567000  1.0
  N  N47  1  0.57846000  0.03171000  0.82567000  1.0
  N  N48  1  0.93280000  0.10069000  0.44321000  1.0
  N  N49  1  0.06721000  0.89932000  0.94322000  1.0
  N  N50  1  0.75843000  0.73454000  0.39592000  1.0
  N  N51  1  0.24158000  0.26546000  0.89592000  1.0
  O  O52  1  0.06274000  0.53365000  0.05247000  1.0
  O  O53  1  0.93726000  0.46635000  0.55247000  1.0
  O  O54  1  0.54819000  0.34076000  0.25414000  1.0
  O  O55  1  0.45180000  0.65924000  0.75413000  1.0
