# generated using pymatgen
data_Cd3H60(C11O3)8
_symmetry_space_group_name_H-M   'P 1'
_cell_length_a   15.32620000
_cell_length_b   15.52950000
_cell_length_c   17.24660000
_cell_angle_alpha   67.20140000
_cell_angle_beta   83.23850000
_cell_angle_gamma   64.22320000
_symmetry_Int_Tables_number   1
_chemical_formula_structural   Cd3H60(C11O3)8
_chemical_formula_sum   'Cd3 H60 C88 O24'
_cell_volume   3401.21340802
_cell_formula_units_Z   1
loop_
 _symmetry_equiv_pos_site_id
 _symmetry_equiv_pos_as_xyz
  1  'x, y, z'
loop_
 _atom_site_type_symbol
 _atom_site_label
 _atom_site_symmetry_multiplicity
 _atom_site_fract_x
 _atom_site_fract_y
 _atom_site_fract_z
 _atom_site_occupancy
  Cd  Cd0  1  0.99999000  0.00000000  0.00001000  1.0
  Cd  Cd1  1  0.85078000  0.19036000  0.09464000  1.0
  Cd  Cd2  1  0.14923000  0.80964000  0.90538000  1.0
  H  H3  1  0.59653000  0.28696000  0.95796000  1.0
  H  H4  1  0.40343000  0.71310000  0.04205000  1.0
  H  H5  1  0.44525000  0.34252000  0.87516000  1.0
  H  H6  1  0.55473000  0.65752000  0.12483000  1.0
  H  H7  1  0.61872000  0.21366000  0.69808000  1.0
  H  H8  1  0.38130000  0.78632000  0.30196000  1.0
  H  H9  1  0.76854000  0.15174000  0.78515000  1.0
  H  H10  1  0.23147000  0.84826000  0.21491000  1.0
  H  H11  1  0.36878000  0.25150000  0.85219000  1.0
  H  H12  1  0.63124000  0.74849000  0.14781000  1.0
  H  H13  1  0.08775000  0.44094000  0.75720000  1.0
  H  H14  1  0.91224000  0.55906000  0.24277000  1.0
  H  H15  1  0.97193000  0.40778000  0.86788000  1.0
  H  H16  1  0.02806000  0.59223000  0.13209000  1.0
  H  H17  1  0.17279000  0.08817000  0.97486000  1.0
  H  H18  1  0.82722000  0.91184000  0.02516000  1.0
  H  H19  1  0.29151000  0.12213000  0.86876000  1.0
  H  H20  1  0.70849000  0.87787000  0.13125000  1.0
  H  H21  1  0.28754000  0.55639000  0.27166000  1.0
  H  H22  1  0.71247000  0.44360000  0.72835000  1.0
  H  H23  1  0.47041000  0.21515000  0.38600000  1.0
  H  H24  1  0.52954000  0.78486000  0.61396000  1.0
  H  H25  1  0.60350000  0.15004000  0.29783000  1.0
  H  H26  1  0.39648000  0.84996000  0.70215000  1.0
  H  H27  1  0.57010000  0.45929000  0.15217000  1.0
  H  H28  1  0.42996000  0.54068000  0.84785000  1.0
  H  H29  1  0.43396000  0.52636000  0.23592000  1.0
  H  H30  1  0.56608000  0.47363000  0.76408000  1.0
  H  H31  1  0.51479000  0.44365000  0.66979000  1.0
  H  H32  1  0.48523000  0.55632000  0.33023000  1.0
  H  H33  1  0.43909000  0.53518000  0.57580000  1.0
  H  H34  1  0.56091000  0.46480000  0.42423000  1.0
  H  H35  1  0.56547000  0.45940000  0.56907000  1.0
  H  H36  1  0.43453000  0.54059000  0.43094000  1.0
  H  H37  1  0.09871000  0.30031000  0.59006000  1.0
  H  H38  1  0.90127000  0.69968000  0.40995000  1.0
  H  H39  1  0.11244000  0.26970000  0.70037000  1.0
  H  H40  1  0.88762000  0.73024000  0.29964000  1.0
  H  H41  1  0.21216000  0.20556000  0.64745000  1.0
  H  H42  1  0.78786000  0.79443000  0.35250000  1.0
  H  H43  1  0.05359000  0.59596000  0.58387000  1.0
  H  H44  1  0.94641000  0.40407000  0.41612000  1.0
  H  H45  1  0.06144000  0.54686000  0.50368000  1.0
  H  H46  1  0.93858000  0.45312000  0.49634000  1.0
  H  H47  1  0.04636000  0.67744000  0.47499000  1.0
  H  H48  1  0.95363000  0.32256000  0.52499000  1.0
  H  H49  1  0.49056000  0.11934000  0.55800000  1.0
  H  H50  1  0.50942000  0.88065000  0.44197000  1.0
  H  H51  1  0.36962000  0.20065000  0.57484000  1.0
  H  H52  1  0.63033000  0.79936000  0.42511000  1.0
  H  H53  1  0.47235000  0.18711000  0.62654000  1.0
  H  H54  1  0.52760000  0.81284000  0.37348000  1.0
  H  H55  1  0.06292000  0.91977000  0.33672000  1.0
  H  H56  1  0.93709000  0.08023000  0.66327000  1.0
  H  H57  1  0.18045000  0.73997000  0.42210000  1.0
  H  H58  1  0.81954000  0.26002000  0.57789000  1.0
  H  H59  1  0.11346000  0.62984000  0.25268000  1.0
  H  H60  1  0.88654000  0.37015000  0.74731000  1.0
  H  H61  1  0.99575000  0.80856000  0.17017000  1.0
  H  H62  1  0.00427000  0.19145000  0.82980000  1.0
  C  C63  1  0.69136000  0.21554000  0.87668000  1.0
  C  C64  1  0.30862000  0.78451000  0.12333000  1.0
  C  C65  1  0.60011000  0.27037000  0.90145000  1.0
  C  C66  1  0.39987000  0.72968000  0.09855000  1.0
  C  C67  1  0.51620000  0.30118000  0.85507000  1.0
  C  C68  1  0.48378000  0.69886000  0.14493000  1.0
  C  C69  1  0.52142000  0.28117000  0.78125000  1.0
  C  C70  1  0.47859000  0.71886000  0.21876000  1.0
  C  C71  1  0.61357000  0.22932000  0.75525000  1.0
  C  C72  1  0.38643000  0.77069000  0.24478000  1.0
  C  C73  1  0.69736000  0.19531000  0.80328000  1.0
  C  C74  1  0.30263000  0.80472000  0.19675000  1.0
  C  C75  1  0.43112000  0.30859000  0.73641000  1.0
  C  C76  1  0.56888000  0.69142000  0.26360000  1.0
  C  C77  1  0.41402000  0.35506000  0.64773000  1.0
  C  C78  1  0.58598000  0.64494000  0.35228000  1.0
  C  C79  1  0.32938000  0.37171000  0.60907000  1.0
  C  C80  1  0.67062000  0.62829000  0.39093000  1.0
  C  C81  1  0.25861000  0.34495000  0.65926000  1.0
  C  C82  1  0.74140000  0.65504000  0.34075000  1.0
  C  C83  1  0.27106000  0.30443000  0.74790000  1.0
  C  C84  1  0.72894000  0.69557000  0.25209000  1.0
  C  C85  1  0.35790000  0.28574000  0.78365000  1.0
  C  C86  1  0.64210000  0.71426000  0.21634000  1.0
  C  C87  1  0.19735000  0.28362000  0.80633000  1.0
  C  C88  1  0.80265000  0.71637000  0.19365000  1.0
  C  C89  1  0.10621000  0.36381000  0.80509000  1.0
  C  C90  1  0.89378000  0.63617000  0.19489000  1.0
  C  C91  1  0.04167000  0.34574000  0.86636000  1.0
  C  C92  1  0.95831000  0.65426000  0.13362000  1.0
  C  C93  1  0.06579000  0.24647000  0.92777000  1.0
  C  C94  1  0.93420000  0.75353000  0.07222000  1.0
  C  C95  1  0.15558000  0.16551000  0.92793000  1.0
  C  C96  1  0.84440000  0.83450000  0.07206000  1.0
  C  C97  1  0.22123000  0.18459000  0.86846000  1.0
  C  C98  1  0.77877000  0.81541000  0.13153000  1.0
  C  C99  1  0.31587000  0.41705000  0.51568000  1.0
  C  C100  1  0.68414000  0.58296000  0.48431000  1.0
  C  C101  1  0.37913000  0.36726000  0.46468000  1.0
  C  C102  1  0.62088000  0.63273000  0.53531000  1.0
  C  C103  1  0.37122000  0.41809000  0.37479000  1.0
  C  C104  1  0.62879000  0.58189000  0.62522000  1.0
  C  C105  1  0.29483000  0.51603000  0.33988000  1.0
  C  C106  1  0.70517000  0.48397000  0.66012000  1.0
  C  C107  1  0.22864000  0.56702000  0.38785000  1.0
  C  C108  1  0.77137000  0.43297000  0.61214000  1.0
  C  C109  1  0.24011000  0.51590000  0.47697000  1.0
  C  C110  1  0.75990000  0.48410000  0.52304000  1.0
  C  C111  1  0.44415000  0.37540000  0.32024000  1.0
  C  C112  1  0.55585000  0.62460000  0.67975000  1.0
  C  C113  1  0.49225000  0.26886000  0.33540000  1.0
  C  C114  1  0.50772000  0.73114000  0.66458000  1.0
  C  C115  1  0.56653000  0.23214000  0.28622000  1.0
  C  C116  1  0.43345000  0.76785000  0.71376000  1.0
  C  C117  1  0.59694000  0.30011000  0.22135000  1.0
  C  C118  1  0.40309000  0.69987000  0.77865000  1.0
  C  C119  1  0.54675000  0.40664000  0.20285000  1.0
  C  C120  1  0.45330000  0.59334000  0.79717000  1.0
  C  C121  1  0.47067000  0.44354000  0.25048000  1.0
  C  C122  1  0.52936000  0.55645000  0.74953000  1.0
  C  C123  1  0.50092000  0.45950000  0.60372000  1.0
  C  C124  1  0.49908000  0.54050000  0.39629000  1.0
  C  C125  1  0.14928000  0.27877000  0.64128000  1.0
  C  C126  1  0.85074000  0.72122000  0.35871000  1.0
  C  C127  1  0.07956000  0.59811000  0.52144000  1.0
  C  C128  1  0.92045000  0.40189000  0.47856000  1.0
  C  C129  1  0.44520000  0.19070000  0.56873000  1.0
  C  C130  1  0.55476000  0.80929000  0.43125000  1.0
  C  C131  1  0.78103000  0.17787000  0.93009000  1.0
  C  C132  1  0.21896000  0.82218000  0.06993000  1.0
  C  C133  1  0.99587000  0.22520000  0.99190000  1.0
  C  C134  1  0.00412000  0.77482000  0.00809000  1.0
  C  C135  1  0.02262000  0.87467000  0.24834000  1.0
  C  C136  1  0.97737000  0.12534000  0.75166000  1.0
  C  C137  1  0.07407000  0.85499000  0.31997000  1.0
  C  C138  1  0.92593000  0.14500000  0.68002000  1.0
  C  C139  1  0.13929000  0.75493000  0.36723000  1.0
  C  C140  1  0.86070000  0.24506000  0.63276000  1.0
  C  C141  1  0.15499000  0.67249000  0.34326000  1.0
  C  C142  1  0.84500000  0.32749000  0.65673000  1.0
  C  C143  1  0.10275000  0.69304000  0.27152000  1.0
  C  C144  1  0.89725000  0.30696000  0.72847000  1.0
  C  C145  1  0.03683000  0.79267000  0.22524000  1.0
  C  C146  1  0.96318000  0.20734000  0.77474000  1.0
  C  C147  1  0.68305000  0.25889000  0.17442000  1.0
  C  C148  1  0.31697000  0.74106000  0.82561000  1.0
  C  C149  1  0.95583000  0.98218000  0.19429000  1.0
  C  C150  1  0.04417000  0.01781000  0.80571000  1.0
  O  O151  1  0.48160000  0.38027000  0.59576000  1.0
  O  O152  1  0.51841000  0.61973000  0.40424000  1.0
  O  O153  1  0.17921000  0.36144000  0.61654000  1.0
  O  O154  1  0.82080000  0.63855000  0.38346000  1.0
  O  O155  1  0.18354000  0.56023000  0.53044000  1.0
  O  O156  1  0.81647000  0.43979000  0.46955000  1.0
  O  O157  1  0.45350000  0.27189000  0.49571000  1.0
  O  O158  1  0.54650000  0.72810000  0.50431000  1.0
  O  O159  1  0.85332000  0.09727000  0.92777000  1.0
  O  O160  1  0.14667000  0.90280000  0.07224000  1.0
  O  O161  1  0.77517000  0.23121000  0.97229000  1.0
  O  O162  1  0.22481000  0.76882000  0.02774000  1.0
  O  O163  1  0.70055000  0.17775000  0.16193000  1.0
  O  O164  1  0.29945000  0.82222000  0.83809000  1.0
  O  O165  1  0.73750000  0.30669000  0.14934000  1.0
  O  O166  1  0.26255000  0.69324000  0.85072000  1.0
  O  O167  1  0.91807000  0.99632000  0.12518000  1.0
  O  O168  1  0.08192000  0.00368000  0.87482000  1.0
  O  O169  1  0.00614000  0.13157000  0.02830000  1.0
  O  O170  1  0.99384000  0.86845000  0.97171000  1.0
  O  O171  1  0.92886000  0.29791000  0.00951000  1.0
  O  O172  1  0.07112000  0.70213000  0.99047000  1.0
  O  O173  1  0.93899000  0.05550000  0.21802000  1.0
  O  O174  1  0.06102000  0.94449000  0.78198000  1.0
