# generated using pymatgen
data_CuP2H16C10BrO7
_symmetry_space_group_name_H-M   'P 1'
_cell_length_a   10.07760000
_cell_length_b   10.81570000
_cell_length_c   16.34100000
_cell_angle_alpha   90.00000000
_cell_angle_beta   89.99990000
_cell_angle_gamma   98.42730000
_symmetry_Int_Tables_number   1
_chemical_formula_structural   CuP2H16C10BrO7
_chemical_formula_sum   'Cu4 P8 H64 C40 Br4 O28'
_cell_volume   1761.87719791
_cell_formula_units_Z   4
loop_
 _symmetry_equiv_pos_site_id
 _symmetry_equiv_pos_as_xyz
  1  'x, y, z'
loop_
 _atom_site_type_symbol
 _atom_site_label
 _atom_site_symmetry_multiplicity
 _atom_site_fract_x
 _atom_site_fract_y
 _atom_site_fract_z
 _atom_site_occupancy
  Cu  Cu0  1  0.42517000  0.46659000  0.92741000  1.0
  Cu  Cu1  1  0.42517000  0.96659000  0.57259000  1.0
  Cu  Cu2  1  0.57483000  0.53341000  0.07259000  1.0
  Cu  Cu3  1  0.57483000  0.03341000  0.42741000  1.0
  P  P4  1  0.51188000  0.48974000  0.80516000  1.0
  P  P5  1  0.51188000  0.98975000  0.69483000  1.0
  P  P6  1  0.48812000  0.51025000  0.19483000  1.0
  P  P7  1  0.48813000  0.01026000  0.30516000  1.0
  P  P8  1  0.22364000  0.86862000  0.54792000  1.0
  P  P9  1  0.22364000  0.36862000  0.95208000  1.0
  P  P10  1  0.77636000  0.13138000  0.45208000  1.0
  P  P11  1  0.77636000  0.63138000  0.04792000  1.0
  H  H12  1  0.39994000  0.51159000  0.61965000  1.0
  H  H13  1  0.39994000  0.01159000  0.88035000  1.0
  H  H14  1  0.60006000  0.48840000  0.38035000  1.0
  H  H15  1  0.60006000  0.98841000  0.11965000  1.0
  H  H16  1  0.45364000  0.35956000  0.61877000  1.0
  H  H17  1  0.45365000  0.85955000  0.88123000  1.0
  H  H18  1  0.54635000  0.64044000  0.38123000  1.0
  H  H19  1  0.54636000  0.14045000  0.11877000  1.0
  H  H20  1  0.67832000  0.33571000  0.67968000  1.0
  H  H21  1  0.67832000  0.83571000  0.82032000  1.0
  H  H22  1  0.32168000  0.66429000  0.32032000  1.0
  H  H23  1  0.32168000  0.16429000  0.17968000  1.0
  H  H24  1  0.79906000  0.47177000  0.70199000  1.0
  H  H25  1  0.79907000  0.97177000  0.79801000  1.0
  H  H26  1  0.20093000  0.52823000  0.29801000  1.0
  H  H27  1  0.20094000  0.02823000  0.20199000  1.0
  H  H28  1  0.72073000  0.68711000  0.69998000  1.0
  H  H29  1  0.72073000  0.18711000  0.80002000  1.0
  H  H30  1  0.27927000  0.31289000  0.30002000  1.0
  H  H31  1  0.27927000  0.81289000  0.19998000  1.0
  H  H32  1  0.56369000  0.70437000  0.65454000  1.0
  H  H33  1  0.56369000  0.20437000  0.84546000  1.0
  H  H34  1  0.43631000  0.29563000  0.34546000  1.0
  H  H35  1  0.43631000  0.79563000  0.15454000  1.0
  H  H36  1  0.65907000  0.43681000  0.53367000  1.0
  H  H37  1  0.65907000  0.93681000  0.96633000  1.0
  H  H38  1  0.34093000  0.56319000  0.46633000  1.0
  H  H39  1  0.34093000  0.06319000  0.03367000  1.0
  H  H40  1  0.60158000  0.58627000  0.52911000  1.0
  H  H41  1  0.60158000  0.08627000  0.97089000  1.0
  H  H42  1  0.39842000  0.41373000  0.47089000  1.0
  H  H43  1  0.39842000  0.91373000  0.02911000  1.0
  H  H44  1  0.77157000  0.72340000  0.47853000  1.0
  H  H45  1  0.77157000  0.22340000  0.02147000  1.0
  H  H46  1  0.22843000  0.27660000  0.52147000  1.0
  H  H47  1  0.22843000  0.77660000  0.97853000  1.0
  H  H48  1  0.85222000  0.59654000  0.44302000  1.0
  H  H49  1  0.85222000  0.09654000  0.05698000  1.0
  H  H50  1  0.14778000  0.40346000  0.55699000  1.0
  H  H51  1  0.14778000  0.90346000  0.94302000  1.0
  H  H52  1  0.89135000  0.88764000  0.57175000  1.0
  H  H53  1  0.89135000  0.38763000  0.92825000  1.0
  H  H54  1  0.10865000  0.11236000  0.42825000  1.0
  H  H55  1  0.10865000  0.61237000  0.07175000  1.0
  H  H56  1  0.94333000  0.77771000  0.64254000  1.0
  H  H57  1  0.94333000  0.27771000  0.85746000  1.0
  H  H58  1  0.05667000  0.22228000  0.35746000  1.0
  H  H59  1  0.05667000  0.72229000  0.14254000  1.0
  H  H60  1  0.03776000  0.74841000  0.38537000  1.0
  H  H61  1  0.03776000  0.24841000  0.11463000  1.0
  H  H62  1  0.96224000  0.25159000  0.61463000  1.0
  H  H63  1  0.96224000  0.75159000  0.88537000  1.0
  H  H64  1  0.97406000  0.88391000  0.42339000  1.0
  H  H65  1  0.97406000  0.38391000  0.07661000  1.0
  H  H66  1  0.02594000  0.11609000  0.57661000  1.0
  H  H67  1  0.02594000  0.61609000  0.92339000  1.0
  H  H68  1  0.04044000  0.58710000  0.58928000  1.0
  H  H69  1  0.04044000  0.08710000  0.91072000  1.0
  H  H70  1  0.95956000  0.41290000  0.41072000  1.0
  H  H71  1  0.95956000  0.91290000  0.08928000  1.0
  H  H72  1  0.10239000  0.59115000  0.48605000  1.0
  H  H73  1  0.10238000  0.09115000  0.01395000  1.0
  H  H74  1  0.89762000  0.40885000  0.51395000  1.0
  H  H75  1  0.89762000  0.90885000  0.98605000  1.0
  C  C76  1  0.46351000  0.45061000  0.64984000  1.0
  C  C77  1  0.46352000  0.95061000  0.85016000  1.0
  C  C78  1  0.53648000  0.54939000  0.35016000  1.0
  C  C79  1  0.53649000  0.04939000  0.14984000  1.0
  C  C80  1  0.69216000  0.43254000  0.70250000  1.0
  C  C81  1  0.69216000  0.93255000  0.79750000  1.0
  C  C82  1  0.30784000  0.56745000  0.29750000  1.0
  C  C83  1  0.30784000  0.06746000  0.20250000  1.0
  C  C84  1  0.61652000  0.64256000  0.69174000  1.0
  C  C85  1  0.61652000  0.14256000  0.80826000  1.0
  C  C86  1  0.38347000  0.35744000  0.30826000  1.0
  C  C87  1  0.38348000  0.85745000  0.19174000  1.0
  C  C88  1  0.61050000  0.51357000  0.65133000  1.0
  C  C89  1  0.61050000  0.01357000  0.84867000  1.0
  C  C90  1  0.38950000  0.48642000  0.34867000  1.0
  C  C91  1  0.38950000  0.98643000  0.15133000  1.0
  C  C92  1  0.66389000  0.52889000  0.56391000  1.0
  C  C93  1  0.66389000  0.02889000  0.93609000  1.0
  C  C94  1  0.33611000  0.47111000  0.43609000  1.0
  C  C95  1  0.33611000  0.97111000  0.06391000  1.0
  C  C96  1  0.84361000  0.65996000  0.49528000  1.0
  C  C97  1  0.84361000  0.15996000  0.00472000  1.0
  C  C98  1  0.15639000  0.34004000  0.50472000  1.0
  C  C99  1  0.15639000  0.84004000  0.99528000  1.0
  C  C100  1  0.97999000  0.73577000  0.51437000  1.0
  C  C101  1  0.97999000  0.23577000  0.98563000  1.0
  C  C102  1  0.02001000  0.26422000  0.48563000  1.0
  C  C103  1  0.02001000  0.76423000  0.01437000  1.0
  C  C104  1  0.96821000  0.82795000  0.58484000  1.0
  C  C105  1  0.96821000  0.32795000  0.91516000  1.0
  C  C106  1  0.03179000  0.17205000  0.41516000  1.0
  C  C107  1  0.03179000  0.67205000  0.08484000  1.0
  C  C108  1  0.03484000  0.81046000  0.43856000  1.0
  C  C109  1  0.03484000  0.31046000  0.06144000  1.0
  C  C110  1  0.96516000  0.18954000  0.56144000  1.0
  C  C111  1  0.96516000  0.68954000  0.93856000  1.0
  C  C112  1  0.08035000  0.64835000  0.53873000  1.0
  C  C113  1  0.08035000  0.14835000  0.96127000  1.0
  C  C114  1  0.91965000  0.35165000  0.46127000  1.0
  C  C115  1  0.91965000  0.85166000  0.03873000  1.0
  Br  Br116  1  0.44685000  0.67425000  0.99241000  1.0
  Br  Br117  1  0.44683000  0.17425000  0.50758000  1.0
  Br  Br118  1  0.55315000  0.32575000  0.00759000  1.0
  Br  Br119  1  0.55315000  0.82575000  0.49240000  1.0
  O  O120  1  0.41304000  0.42708000  0.73290000  1.0
  O  O121  1  0.41305000  0.92708000  0.76710000  1.0
  O  O122  1  0.58695000  0.57291000  0.26710000  1.0
  O  O123  1  0.58696000  0.07292000  0.23290000  1.0
  O  O124  1  0.64870000  0.43006000  0.78789000  1.0
  O  O125  1  0.64871000  0.93007000  0.71211000  1.0
  O  O126  1  0.35129000  0.56994000  0.21211000  1.0
  O  O127  1  0.35130000  0.06994000  0.28789000  1.0
  O  O128  1  0.55275000  0.63212000  0.77231000  1.0
  O  O129  1  0.55275000  0.13211000  0.72769000  1.0
  O  O130  1  0.44724000  0.36789000  0.22769000  1.0
  O  O131  1  0.44725000  0.86789000  0.27231000  1.0
  O  O132  1  0.79948000  0.59093000  0.56725000  1.0
  O  O133  1  0.79948000  0.09093000  0.93275000  1.0
  O  O134  1  0.20052000  0.40907000  0.43275000  1.0
  O  O135  1  0.20052000  0.90907000  0.06726000  1.0
  O  O136  1  0.09565000  0.91042000  0.59654000  1.0
  O  O137  1  0.09565000  0.41041000  0.90345000  1.0
  O  O138  1  0.90435000  0.08958000  0.40346000  1.0
  O  O139  1  0.90435000  0.58959000  0.09655000  1.0
  O  O140  1  0.17249000  0.87008000  0.45307000  1.0
  O  O141  1  0.17249000  0.37008000  0.04693000  1.0
  O  O142  1  0.82751000  0.12992000  0.54693000  1.0
  O  O143  1  0.82751000  0.62992000  0.95307000  1.0
  O  O144  1  0.20618000  0.71899000  0.56706000  1.0
  O  O145  1  0.20618000  0.21899000  0.93294000  1.0
  O  O146  1  0.79382000  0.28100000  0.43294000  1.0
  O  O147  1  0.79382000  0.78101000  0.06706000  1.0
