# generated using pymatgen
data_Gd2H11C11NO16
_symmetry_space_group_name_H-M   'P 1'
_cell_length_a   7.88230000
_cell_length_b   10.81650000
_cell_length_c   12.54700000
_cell_angle_alpha   93.97940000
_cell_angle_beta   105.17600000
_cell_angle_gamma   107.71500000
_symmetry_Int_Tables_number   1
_chemical_formula_structural   Gd2H11C11NO16
_chemical_formula_sum   'Gd4 H22 C22 N2 O32'
_cell_volume   970.46941319
_cell_formula_units_Z   2
loop_
 _symmetry_equiv_pos_site_id
 _symmetry_equiv_pos_as_xyz
  1  'x, y, z'
loop_
 _atom_site_type_symbol
 _atom_site_label
 _atom_site_symmetry_multiplicity
 _atom_site_fract_x
 _atom_site_fract_y
 _atom_site_fract_z
 _atom_site_occupancy
  Gd  Gd0  1  0.27158000  0.17903000  0.39892000  1.0
  Gd  Gd1  1  0.72842000  0.82097000  0.60107000  1.0
  Gd  Gd2  1  0.81726000  0.53605000  0.19002000  1.0
  Gd  Gd3  1  0.18274000  0.46395000  0.80998000  1.0
  H  H4  1  0.39564000  0.14943000  0.98067000  1.0
  H  H5  1  0.60437000  0.85057000  0.01933000  1.0
  H  H6  1  0.22242000  0.90672000  0.91474000  1.0
  H  H7  1  0.77756000  0.09328000  0.08525000  1.0
  H  H8  1  0.06201000  0.77669000  0.03991000  1.0
  H  H9  1  0.93796000  0.22331000  0.96008000  1.0
  H  H10  1  0.90379000  0.10899000  0.43776000  1.0
  H  H11  1  0.09622000  0.89101000  0.56224000  1.0
  H  H12  1  0.01967000  0.12477000  0.56112000  1.0
  H  H13  1  0.98032000  0.87524000  0.43888000  1.0
  H  H14  1  0.60460000  0.42686000  0.53963000  1.0
  H  H15  1  0.39541000  0.57313000  0.46037000  1.0
  H  H16  1  0.63339000  0.30451000  0.58749000  1.0
  H  H17  1  0.36662000  0.69548000  0.41252000  1.0
  H  H18  1  0.42154000  0.52797000  0.67222000  1.0
  H  H19  1  0.57847000  0.47203000  0.32778000  1.0
  H  H20  1  0.25014000  0.41966000  0.58135000  1.0
  H  H21  1  0.74987000  0.58034000  0.41865000  1.0
  H  H22  1  0.41225000  0.35351000  0.98071000  1.0
  H  H23  1  0.58775000  0.64649000  0.01929000  1.0
  H  H24  1  0.53522000  0.40723000  0.90715000  1.0
  H  H25  1  0.46478000  0.59276000  0.09284000  1.0
  C  C26  1  0.32261000  0.14566000  0.13526000  1.0
  C  C27  1  0.67739000  0.85434000  0.86474000  1.0
  C  C28  1  0.32256000  0.08923000  0.03157000  1.0
  C  C29  1  0.67745000  0.91077000  0.96843000  1.0
  C  C30  1  0.22763000  0.95469000  0.99545000  1.0
  C  C31  1  0.77236000  0.04532000  0.00455000  1.0
  C  C32  1  0.13718000  0.88179000  0.06412000  1.0
  C  C33  1  0.86280000  0.11821000  0.93588000  1.0
  C  C34  1  0.14538000  0.94602000  0.16690000  1.0
  C  C35  1  0.85459000  0.05398000  0.83310000  1.0
  C  C36  1  0.42353000  0.28796000  0.18528000  1.0
  C  C37  1  0.57649000  0.71204000  0.81472000  1.0
  C  C38  1  0.05773000  0.87737000  0.24928000  1.0
  C  C39  1  0.94225000  0.12263000  0.75072000  1.0
  C  C40  1  0.96631000  0.30244000  0.26568000  1.0
  C  C41  1  0.03369000  0.69756000  0.73432000  1.0
  C  C42  1  0.09475000  0.42173000  0.35794000  1.0
  C  C43  1  0.90526000  0.57828000  0.64206000  1.0
  C  C44  1  0.55156000  0.01144000  0.45448000  1.0
  C  C45  1  0.44844000  0.98855000  0.54552000  1.0
  C  C46  1  0.09662000  0.52013000  0.04469000  1.0
  C  C47  1  0.90338000  0.47988000  0.95532000  1.0
  N  N48  1  0.23621000  0.07486000  0.20099000  1.0
  N  N49  1  0.76379000  0.92514000  0.79901000  1.0
  O  O50  1  0.42451000  0.32187000  0.28497000  1.0
  O  O51  1  0.57551000  0.67813000  0.71503000  1.0
  O  O52  1  0.50325000  0.36628000  0.12863000  1.0
  O  O53  1  0.49676000  0.63371000  0.87138000  1.0
  O  O54  1  0.07284000  0.94912000  0.33836000  1.0
  O  O55  1  0.92713000  0.05089000  0.66163000  1.0
  O  O56  1  0.97804000  0.75453000  0.22678000  1.0
  O  O57  1  0.02196000  0.24548000  0.77322000  1.0
  O  O58  1  0.00116000  0.19618000  0.26846000  1.0
  O  O59  1  0.99884000  0.80383000  0.73155000  1.0
  O  O60  1  0.83630000  0.32202000  0.19242000  1.0
  O  O61  1  0.16371000  0.67799000  0.80758000  1.0
  O  O62  1  0.23432000  0.40572000  0.42785000  1.0
  O  O63  1  0.76568000  0.59429000  0.57215000  1.0
  O  O64  1  0.05594000  0.52630000  0.35543000  1.0
  O  O65  1  0.94409000  0.47371000  0.64456000  1.0
  O  O66  1  0.52077000  0.09430000  0.39247000  1.0
  O  O67  1  0.47922000  0.90569000  0.60752000  1.0
  O  O68  1  0.65926000  0.94579000  0.45046000  1.0
  O  O69  1  0.34073000  0.05420000  0.54953000  1.0
  O  O70  1  0.89360000  0.44492000  0.85581000  1.0
  O  O71  1  0.10640000  0.55509000  0.14418000  1.0
  O  O72  1  0.23088000  0.51367000  0.00830000  1.0
  O  O73  1  0.76913000  0.48632000  0.99169000  1.0
  O  O74  1  0.02858000  0.15582000  0.48914000  1.0
  O  O75  1  0.97143000  0.84418000  0.51086000  1.0
  O  O76  1  0.53831000  0.33265000  0.53923000  1.0
  O  O77  1  0.46169000  0.66733000  0.46077000  1.0
  O  O78  1  0.30897000  0.44837000  0.66234000  1.0
  O  O79  1  0.69104000  0.55162000  0.33766000  1.0
  O  O80  1  0.40250000  0.36079000  0.90115000  1.0
  O  O81  1  0.59750000  0.63920000  0.09885000  1.0
