# generated using pymatgen
data_CdPH13C19NO6
_symmetry_space_group_name_H-M   'P 1'
_cell_length_a   9.71287000
_cell_length_b   9.72896000
_cell_length_c   10.04460000
_cell_angle_alpha   74.79110000
_cell_angle_beta   87.86690000
_cell_angle_gamma   76.96760000
_symmetry_Int_Tables_number   1
_chemical_formula_structural   CdPH13C19NO6
_chemical_formula_sum   'Cd2 P2 H26 C38 N2 O12'
_cell_volume   892.09671154
_cell_formula_units_Z   2
loop_
 _symmetry_equiv_pos_site_id
 _symmetry_equiv_pos_as_xyz
  1  'x, y, z'
loop_
 _atom_site_type_symbol
 _atom_site_label
 _atom_site_symmetry_multiplicity
 _atom_site_fract_x
 _atom_site_fract_y
 _atom_site_fract_z
 _atom_site_occupancy
  Cd  Cd0  1  0.27290000  0.04668000  0.89736000  1.0
  Cd  Cd1  1  0.72710000  0.95332000  0.10264000  1.0
  P  P2  1  0.07840000  0.76891000  0.12311000  1.0
  P  P3  1  0.92160000  0.23109000  0.87689000  1.0
  H  H4  1  0.14786000  0.81359000  0.87667000  1.0
  H  H5  1  0.85214000  0.18641000  0.12333000  1.0
  H  H6  1  0.01698000  0.62482000  0.39964000  1.0
  H  H7  1  0.98302000  0.37518000  0.60036000  1.0
  H  H8  1  0.04981000  0.66820000  0.62855000  1.0
  H  H9  1  0.95020000  0.33180000  0.37145000  1.0
  H  H10  1  0.22872000  0.03530000  0.43267000  1.0
  H  H11  1  0.77128000  0.96470000  0.56733000  1.0
  H  H12  1  0.20406000  0.98844000  0.20391000  1.0
  H  H13  1  0.79594000  0.01156000  0.79609000  1.0
  H  H14  1  0.99681000  0.48919000  0.14253000  1.0
  H  H15  1  0.00318000  0.51081000  0.85747000  1.0
  H  H16  1  0.13990000  0.24487000  0.13443000  1.0
  H  H17  1  0.86010000  0.75513000  0.86557000  1.0
  H  H18  1  0.52078000  0.40101000  0.12675000  1.0
  H  H19  1  0.47922000  0.59899000  0.87325000  1.0
  H  H20  1  0.37817000  0.64901000  0.12768000  1.0
  H  H21  1  0.62183000  0.35099000  0.87233000  1.0
  H  H22  1  0.45614000  0.08337000  0.62505000  1.0
  H  H23  1  0.54386000  0.91663000  0.37495000  1.0
  H  H24  1  0.55392000  0.26674000  0.45197000  1.0
  H  H25  1  0.44607000  0.73326000  0.54803000  1.0
  H  H26  1  0.35915000  0.58375000  0.67504000  1.0
  H  H27  1  0.64085000  0.41625000  0.32496000  1.0
  H  H28  1  0.26554000  0.38778000  0.83404000  1.0
  H  H29  1  0.73446000  0.61222000  0.16596000  1.0
  C  C30  1  0.10813000  0.80401000  0.28676000  1.0
  C  C31  1  0.89188000  0.19599000  0.71323000  1.0
  C  C32  1  0.06562000  0.71339000  0.40701000  1.0
  C  C33  1  0.93438000  0.28661000  0.59299000  1.0
  C  C34  1  0.08369000  0.73716000  0.53510000  1.0
  C  C35  1  0.91631000  0.26284000  0.46490000  1.0
  C  C36  1  0.14347000  0.85325000  0.54391000  1.0
  C  C37  1  0.85653000  0.14675000  0.45610000  1.0
  C  C38  1  0.18441000  0.94445000  0.42390000  1.0
  C  C39  1  0.81559000  0.05554000  0.57610000  1.0
  C  C40  1  0.16818000  0.91921000  0.29587000  1.0
  C  C41  1  0.83182000  0.08080000  0.70413000  1.0
  C  C42  1  0.16227000  0.88381000  0.67857000  1.0
  C  C43  1  0.83773000  0.11619000  0.32144000  1.0
  C  C44  1  0.17806000  0.58435000  0.13635000  1.0
  C  C45  1  0.82194000  0.41565000  0.86365000  1.0
  C  C46  1  0.11185000  0.46931000  0.14103000  1.0
  C  C47  1  0.88815000  0.53069000  0.85897000  1.0
  C  C48  1  0.19211000  0.33205000  0.13702000  1.0
  C  C49  1  0.80789000  0.66795000  0.86298000  1.0
  C  C50  1  0.33974000  0.30813000  0.13077000  1.0
  C  C51  1  0.66026000  0.69187000  0.86923000  1.0
  C  C52  1  0.40603000  0.42194000  0.13188000  1.0
  C  C53  1  0.59397000  0.57806000  0.86812000  1.0
  C  C54  1  0.32622000  0.55932000  0.13329000  1.0
  C  C55  1  0.67379000  0.44068000  0.86671000  1.0
  C  C56  1  0.42943000  0.16494000  0.11638000  1.0
  C  C57  1  0.57057000  0.83506000  0.88362000  1.0
  C  C58  1  0.43735000  0.19628000  0.63147000  1.0
  C  C59  1  0.56265000  0.80372000  0.36853000  1.0
  C  C60  1  0.49224000  0.30014000  0.53525000  1.0
  C  C61  1  0.50776000  0.69986000  0.46475000  1.0
  C  C62  1  0.46912000  0.44376000  0.54833000  1.0
  C  C63  1  0.53088000  0.55624000  0.45167000  1.0
  C  C64  1  0.38474000  0.47514000  0.65802000  1.0
  C  C65  1  0.61526000  0.52486000  0.34198000  1.0
  C  C66  1  0.33195000  0.36572000  0.74868000  1.0
  C  C67  1  0.66805000  0.63428000  0.25132000  1.0
  N  N68  1  0.35917000  0.22761000  0.73715000  1.0
  N  N69  1  0.64083000  0.77239000  0.26285000  1.0
  O  O70  1  0.19530000  0.99798000  0.68538000  1.0
  O  O71  1  0.80470000  0.00202000  0.31462000  1.0
  O  O72  1  0.14106000  0.78011000  0.78766000  1.0
  O  O73  1  0.85894000  0.21989000  0.21234000  1.0
  O  O74  1  0.56235000  0.14875000  0.13097000  1.0
  O  O75  1  0.43765000  0.85125000  0.86903000  1.0
  O  O76  1  0.37028000  0.06971000  0.09194000  1.0
  O  O77  1  0.62972000  0.93029000  0.90806000  1.0
  O  O78  1  0.92274000  0.77257000  0.10614000  1.0
  O  O79  1  0.07726000  0.22743000  0.89387000  1.0
  O  O80  1  0.14566000  0.86803000  0.00674000  1.0
  O  O81  1  0.85434000  0.13197000  0.99326000  1.0
