# generated using pymatgen
data_Zn2H13C22Br3(NO4)2
_symmetry_space_group_name_H-M   'P 1'
_cell_length_a   9.70691000
_cell_length_b   11.12250000
_cell_length_c   11.26230000
_cell_angle_alpha   87.76570000
_cell_angle_beta   72.06700000
_cell_angle_gamma   89.05350000
_symmetry_Int_Tables_number   1
_chemical_formula_structural   Zn2H13C22Br3(NO4)2
_chemical_formula_sum   'Zn2 H13 C22 Br3 N2 O8'
_cell_volume   1155.96936536
_cell_formula_units_Z   1
loop_
 _symmetry_equiv_pos_site_id
 _symmetry_equiv_pos_as_xyz
  1  'x, y, z'
loop_
 _atom_site_type_symbol
 _atom_site_label
 _atom_site_symmetry_multiplicity
 _atom_site_fract_x
 _atom_site_fract_y
 _atom_site_fract_z
 _atom_site_occupancy
  Zn  Zn0  1  0.64298000  0.50551000  0.48035000  1.0
  Zn  Zn1  1  0.34435000  0.50716000  0.52700000  1.0
  H  H2  1  0.37591000  0.50949000  0.12228000  1.0
  H  H3  1  0.30152000  0.11782000  0.65157000  1.0
  H  H4  1  0.29527000  0.89499000  0.65144000  1.0
  H  H5  1  0.83464000  0.89408000  0.32432000  1.0
  H  H6  1  0.72287000  0.89365000  0.22413000  1.0
  H  H7  1  0.72074000  0.12099000  0.22017000  1.0
  H  H8  1  0.14826000  0.67934000  0.43782000  1.0
  H  H9  1  0.89506000  0.67701000  0.41911000  1.0
  H  H10  1  0.85139000  0.22374000  0.54842000  1.0
  H  H11  1  0.04136000  0.28417000  0.71434000  1.0
  H  H12  1  0.10810000  0.22556000  0.56081000  1.0
  H  H13  1  0.69577000  0.57704000  0.07252000  1.0
  H  H14  1  0.30783000  0.47816000  0.94503000  1.0
  C  C15  1  0.50060000  0.27117000  0.50298000  1.0
  C  C16  1  0.07762000  0.60186000  0.47073000  1.0
  C  C17  1  0.93786000  0.60048000  0.46033000  1.0
  C  C18  1  0.42095000  0.50812000  0.74683000  1.0
  C  C19  1  0.90264000  0.41588000  0.55376000  1.0
  C  C20  1  0.87380000  0.28944000  0.60997000  1.0
  C  C21  1  0.03364000  0.29067000  0.61918000  1.0
  C  C22  1  0.49343000  0.74280000  0.50121000  1.0
  C  C23  1  0.55692000  0.52757000  0.26044000  1.0
  C  C24  1  0.40936000  0.51273000  0.88079000  1.0
  C  C25  1  0.50793000  0.55213000  0.93321000  1.0
  C  C26  1  0.50104000  0.13684000  0.50153000  1.0
  C  C27  1  0.58501000  0.55209000  0.12486000  1.0
  C  C28  1  0.48443000  0.53884000  0.06655000  1.0
  C  C29  1  0.60958000  0.06976000  0.41927000  1.0
  C  C30  1  0.38809000  0.06935000  0.58479000  1.0
  C  C31  1  0.38444000  0.94366000  0.58469000  1.0
  C  C32  1  0.49410000  0.87706000  0.50095000  1.0
  C  C33  1  0.60583000  0.94424000  0.41928000  1.0
  C  C34  1  0.73889000  0.93449000  0.30623000  1.0
  C  C35  1  0.73847000  0.07604000  0.30254000  1.0
  C  C36  1  0.04295000  0.41639000  0.56222000  1.0
  Br  Br37  1  0.72277000  0.27033000  0.77023000  1.0
  Br  Br38  1  0.68439000  0.62809000  0.83783000  1.0
  Br  Br39  1  0.92152000  0.14651000  0.31011000  1.0
  N  N40  1  0.13380000  0.50752000  0.52096000  1.0
  N  N41  1  0.84758000  0.50525000  0.50057000  1.0
  O  O42  1  0.62297000  0.32154000  0.48053000  1.0
  O  O43  1  0.37796000  0.32378000  0.52644000  1.0
  O  O44  1  0.54725000  0.50942000  0.66832000  1.0
  O  O45  1  0.30294000  0.50035000  0.71995000  1.0
  O  O46  1  0.61715000  0.69196000  0.47290000  1.0
  O  O47  1  0.37097000  0.69069000  0.52939000  1.0
  O  O48  1  0.67048000  0.51639000  0.29479000  1.0
  O  O49  1  0.42636000  0.51987000  0.33162000  1.0
