# generated using pymatgen
data_H15PbC20N3O5
_symmetry_space_group_name_H-M   'P 1'
_cell_length_a   8.22418000
_cell_length_b   9.91015000
_cell_length_c   11.66030000
_cell_angle_alpha   95.84070000
_cell_angle_beta   101.93700000
_cell_angle_gamma   96.48580000
_symmetry_Int_Tables_number   1
_chemical_formula_structural   H15PbC20N3O5
_chemical_formula_sum   'H30 Pb2 C40 N6 O10'
_cell_volume   916.16126446
_cell_formula_units_Z   2
loop_
 _symmetry_equiv_pos_site_id
 _symmetry_equiv_pos_as_xyz
  1  'x, y, z'
loop_
 _atom_site_type_symbol
 _atom_site_label
 _atom_site_symmetry_multiplicity
 _atom_site_fract_x
 _atom_site_fract_y
 _atom_site_fract_z
 _atom_site_occupancy
  H  H0  1  0.98457000  0.85007000  0.65109000  1.0
  H  H1  1  0.01543000  0.14993000  0.34891000  1.0
  H  H2  1  0.97458000  0.09401000  0.72465000  1.0
  H  H3  1  0.02542000  0.90599000  0.27535000  1.0
  H  H4  1  0.18838000  0.27798000  0.69148000  1.0
  H  H5  1  0.81162000  0.72202000  0.30851000  1.0
  H  H6  1  0.40634000  0.21636000  0.58326000  1.0
  H  H7  1  0.59367000  0.78364000  0.41674000  1.0
  H  H8  1  0.63777000  0.78173000  0.68552000  1.0
  H  H9  1  0.36223000  0.21827000  0.31448000  1.0
  H  H10  1  0.85821000  0.93051000  0.83954000  1.0
  H  H11  1  0.14178000  0.06950000  0.16046000  1.0
  H  H12  1  0.91105000  0.88095000  0.04805000  1.0
  H  H13  1  0.08894000  0.11905000  0.95195000  1.0
  H  H14  1  0.74201000  0.68014000  0.10196000  1.0
  H  H15  1  0.25799000  0.31986000  0.89803000  1.0
  H  H16  1  0.92134000  0.48551000  0.26572000  1.0
  H  H17  1  0.07866000  0.51449000  0.73428000  1.0
  H  H18  1  0.07487000  0.55153000  0.20864000  1.0
  H  H19  1  0.92513000  0.44847000  0.79135000  1.0
  H  H20  1  0.29970000  0.75982000  0.29568000  1.0
  H  H21  1  0.70029000  0.24018000  0.70432000  1.0
  H  H22  1  0.46487000  0.93238000  0.21324000  1.0
  H  H23  1  0.53513000  0.06762000  0.78677000  1.0
  H  H24  1  0.20240000  0.73815000  0.86387000  1.0
  H  H25  1  0.79760000  0.26185000  0.13613000  1.0
  H  H26  1  0.04158000  0.57832000  0.96057000  1.0
  H  H27  1  0.95843000  0.42168000  0.03943000  1.0
  H  H28  1  0.40336000  0.93407000  0.87546000  1.0
  H  H29  1  0.59664000  0.06594000  0.12455000  1.0
  Pb  Pb30  1  0.23133000  0.46175000  0.45400000  1.0
  Pb  Pb31  1  0.76868000  0.53825000  0.54600000  1.0
  C  C32  1  0.19739000  0.74929000  0.53001000  1.0
  C  C33  1  0.80261000  0.25071000  0.46999000  1.0
  C  C34  1  0.19556000  0.89601000  0.57372000  1.0
  C  C35  1  0.80445000  0.10399000  0.42628000  1.0
  C  C36  1  0.07561000  0.93166000  0.63649000  1.0
  C  C37  1  0.92440000  0.06834000  0.36351000  1.0
  C  C38  1  0.07191000  0.06776000  0.67887000  1.0
  C  C39  1  0.92809000  0.93224000  0.32113000  1.0
  C  C40  1  0.19068000  0.17085000  0.66015000  1.0
  C  C41  1  0.80932000  0.82915000  0.33985000  1.0
  C  C42  1  0.31258000  0.13757000  0.59919000  1.0
  C  C43  1  0.68742000  0.86243000  0.40082000  1.0
  C  C44  1  0.31503000  0.00080000  0.55526000  1.0
  C  C45  1  0.68497000  0.99919000  0.44474000  1.0
  C  C46  1  0.44818000  0.54774000  0.71163000  1.0
  C  C47  1  0.55182000  0.45226000  0.28837000  1.0
  C  C48  1  0.57188000  0.64429000  0.80594000  1.0
  C  C49  1  0.42811000  0.35571000  0.19406000  1.0
  C  C50  1  0.66402000  0.75839000  0.77657000  1.0
  C  C51  1  0.33599000  0.24162000  0.22343000  1.0
  C  C52  1  0.78559000  0.84295000  0.86335000  1.0
  C  C53  1  0.21440000  0.15704000  0.13664000  1.0
  C  C54  1  0.81472000  0.81550000  0.98067000  1.0
  C  C55  1  0.18528000  0.18450000  0.01934000  1.0
  C  C56  1  0.72166000  0.70453000  0.01156000  1.0
  C  C57  1  0.27834000  0.29547000  0.98845000  1.0
  C  C58  1  0.59955000  0.61881000  0.92443000  1.0
  C  C59  1  0.40044000  0.38119000  0.07557000  1.0
  C  C60  1  0.27984000  0.75885000  0.20003000  1.0
  C  C61  1  0.72016000  0.24114000  0.79996000  1.0
  C  C62  1  0.37325000  0.85554000  0.15305000  1.0
  C  C63  1  0.62674000  0.14446000  0.84695000  1.0
  C  C64  1  0.34828000  0.85198000  0.02954000  1.0
  C  C65  1  0.65171000  0.14802000  0.97046000  1.0
  C  C66  1  0.22701000  0.74827000  0.96012000  1.0
  C  C67  1  0.77299000  0.25173000  0.03988000  1.0
  C  C68  1  0.13784000  0.65665000  0.01469000  1.0
  C  C69  1  0.86216000  0.34334000  0.98531000  1.0
  C  C70  1  0.43935000  0.94877000  0.97199000  1.0
  C  C71  1  0.56065000  0.05124000  0.02801000  1.0
  N  N72  1  0.42574000  0.97112000  0.48067000  1.0
  N  N73  1  0.57427000  0.02888000  0.51933000  1.0
  N  N74  1  0.50599000  0.49980000  0.94686000  1.0
  N  N75  1  0.49401000  0.50020000  0.05314000  1.0
  N  N76  1  0.16219000  0.66059000  0.13260000  1.0
  N  N77  1  0.83781000  0.33941000  0.86740000  1.0
  O  O78  1  0.06521000  0.66354000  0.51809000  1.0
  O  O79  1  0.93480000  0.33646000  0.48192000  1.0
  O  O80  1  0.33193000  0.71321000  0.50522000  1.0
  O  O81  1  0.66807000  0.28679000  0.49478000  1.0
  O  O82  1  0.29360000  0.53321000  0.71054000  1.0
  O  O83  1  0.70640000  0.46679000  0.28945000  1.0
  O  O84  1  0.50976000  0.48549000  0.63175000  1.0
  O  O85  1  0.49023000  0.51451000  0.36825000  1.0
  O  O86  1  0.03861000  0.48128000  0.26026000  1.0
  O  O87  1  0.96139000  0.51872000  0.73975000  1.0
