# generated using pymatgen
data_GdH6C7SO8
_symmetry_space_group_name_H-M   'P 1'
_cell_length_a   9.72902000
_cell_length_b   10.91850000
_cell_length_c   12.49660000
_cell_angle_alpha   105.64700000
_cell_angle_beta   89.99830000
_cell_angle_gamma   116.45800000
_symmetry_Int_Tables_number   1
_chemical_formula_structural   GdH6C7SO8
_chemical_formula_sum   'Gd4 H24 C28 S4 O32'
_cell_volume   1133.22232918
_cell_formula_units_Z   4
loop_
 _symmetry_equiv_pos_site_id
 _symmetry_equiv_pos_as_xyz
  1  'x, y, z'
loop_
 _atom_site_type_symbol
 _atom_site_label
 _atom_site_symmetry_multiplicity
 _atom_site_fract_x
 _atom_site_fract_y
 _atom_site_fract_z
 _atom_site_occupancy
  Gd  Gd0  1  0.97679000  0.99999000  0.75000000  1.0
  Gd  Gd1  1  0.02321000  0.00001000  0.25000000  1.0
  Gd  Gd2  1  0.47968000  0.00005000  0.75004000  1.0
  Gd  Gd3  1  0.52032000  0.99995000  0.24996000  1.0
  H  H4  1  0.17643000  0.42089000  0.90747000  1.0
  H  H5  1  0.75549000  0.57927000  0.59262000  1.0
  H  H6  1  0.82357000  0.57911000  0.09253000  1.0
  H  H7  1  0.24451000  0.42073000  0.40738000  1.0
  H  H8  1  0.31694000  0.69402000  0.90696000  1.0
  H  H9  1  0.62305000  0.30615000  0.59315000  1.0
  H  H10  1  0.68307000  0.30599000  0.09304000  1.0
  H  H11  1  0.37695000  0.69385000  0.40686000  1.0
  H  H12  1  0.62538000  0.05803000  0.99456000  1.0
  H  H13  1  0.56736000  0.94202000  0.50550000  1.0
  H  H14  1  0.37462000  0.94197000  0.00544000  1.0
  H  H15  1  0.43264000  0.05798000  0.49450000  1.0
  H  H16  1  0.67611000  0.95717000  0.90849000  1.0
  H  H17  1  0.71896000  0.04293000  0.59156000  1.0
  H  H18  1  0.32389000  0.04283000  0.09151000  1.0
  H  H19  1  0.28104000  0.95707000  0.40844000  1.0
  H  H20  1  0.34713000  0.16749000  0.91866000  1.0
  H  H21  1  0.17973000  0.83259000  0.58138000  1.0
  H  H22  1  0.65287000  0.83252000  0.08134000  1.0
  H  H23  1  0.82027000  0.16741000  0.41862000  1.0
  H  H24  1  0.51273000  0.28306000  0.90293000  1.0
  H  H25  1  0.22969000  0.71699000  0.59712000  1.0
  H  H26  1  0.48727000  0.71694000  0.09707000  1.0
  H  H27  1  0.77032000  0.28302000  0.40288000  1.0
  C  C28  1  0.85121000  0.25674000  0.82179000  1.0
  C  C29  1  0.59440000  0.74333000  0.67828000  1.0
  C  C30  1  0.14878000  0.74327000  0.17821000  1.0
  C  C31  1  0.40559000  0.25667000  0.32172000  1.0
  C  C32  1  0.96270000  0.40941000  0.84288000  1.0
  C  C33  1  0.55325000  0.59067000  0.65726000  1.0
  C  C34  1  0.03730000  0.59059000  0.15712000  1.0
  C  C35  1  0.44674000  0.40933000  0.34274000  1.0
  C  C36  1  0.11973000  0.47728000  0.88277000  1.0
  C  C37  1  0.64244000  0.52284000  0.61735000  1.0
  C  C38  1  0.88027000  0.52272000  0.11723000  1.0
  C  C39  1  0.35756000  0.47716000  0.38265000  1.0
  C  C40  1  0.19346000  0.62132000  0.88253000  1.0
  C  C41  1  0.57224000  0.37883000  0.61763000  1.0
  C  C42  1  0.80655000  0.37868000  0.11746000  1.0
  C  C43  1  0.42776000  0.62117000  0.38237000  1.0
  C  C44  1  0.09142000  0.66086000  0.84169000  1.0
  C  C45  1  0.43065000  0.33925000  0.65849000  1.0
  C  C46  1  0.90858000  0.33914000  0.15831000  1.0
  C  C47  1  0.56934000  0.66075000  0.34151000  1.0
  C  C48  1  0.13084000  0.79688000  0.81792000  1.0
  C  C49  1  0.33404000  0.20320000  0.68218000  1.0
  C  C50  1  0.86917000  0.20313000  0.18208000  1.0
  C  C51  1  0.66596000  0.79680000  0.31782000  1.0
  C  C52  1  0.91128000  0.94853000  0.99173000  1.0
  C  C53  1  0.96273000  0.05146000  0.50827000  1.0
  C  C54  1  0.08873000  0.05146000  0.00828000  1.0
  C  C55  1  0.03727000  0.94854000  0.49173000  1.0
  S  S56  1  0.90528000  0.52236000  0.80644000  1.0
  S  S57  1  0.38295000  0.47771000  0.69375000  1.0
  S  S58  1  0.09473000  0.47765000  0.19356000  1.0
  S  S59  1  0.61705000  0.52229000  0.30626000  1.0
  O  O60  1  0.70907000  0.21856000  0.79208000  1.0
  O  O61  1  0.49035000  0.78145000  0.70793000  1.0
  O  O62  1  0.29093000  0.78144000  0.20792000  1.0
  O  O63  1  0.50964000  0.21855000  0.29206000  1.0
  O  O64  1  0.90388000  0.17225000  0.83227000  1.0
  O  O65  1  0.73152000  0.82785000  0.66782000  1.0
  O  O66  1  0.09611000  0.82775000  0.16773000  1.0
  O  O67  1  0.26848000  0.17215000  0.33218000  1.0
  O  O68  1  0.02484000  0.81106000  0.77148000  1.0
  O  O69  1  0.21379000  0.18895000  0.72855000  1.0
  O  O70  1  0.97516000  0.18894000  0.22852000  1.0
  O  O71  1  0.78620000  0.81105000  0.27145000  1.0
  O  O72  1  0.27306000  0.89305000  0.84432000  1.0
  O  O73  1  0.38009000  0.10702000  0.65576000  1.0
  O  O74  1  0.72693000  0.10695000  0.15568000  1.0
  O  O75  1  0.61991000  0.89298000  0.34424000  1.0
  O  O76  1  0.85682000  0.89943000  0.07177000  1.0
  O  O77  1  0.95737000  0.10056000  0.42822000  1.0
  O  O78  1  0.14318000  0.10057000  0.92822000  1.0
  O  O79  1  0.04263000  0.89944000  0.57179000  1.0
  O  O80  1  0.83435000  0.92261000  0.89981000  1.0
  O  O81  1  0.91175000  0.07743000  0.60019000  1.0
  O  O82  1  0.16564000  0.07739000  0.10019000  1.0
  O  O83  1  0.08825000  0.92257000  0.39981000  1.0
  O  O84  1  0.60148000  0.99683000  0.91649000  1.0
  O  O85  1  0.60468000  0.00325000  0.58357000  1.0
  O  O86  1  0.39852000  0.00317000  0.08351000  1.0
  O  O87  1  0.39533000  0.99675000  0.41643000  1.0
  O  O88  1  0.45416000  0.18493000  0.90495000  1.0
  O  O89  1  0.26929000  0.81512000  0.59508000  1.0
  O  O90  1  0.54585000  0.81507000  0.09505000  1.0
  O  O91  1  0.73071000  0.18489000  0.40492000  1.0
