# generated using pymatgen
data_ZnBH9C2N11Cl
_symmetry_space_group_name_H-M   'P 1'
_cell_length_a   4.64927000
_cell_length_b   9.78546000
_cell_length_c   11.71160000
_cell_angle_alpha   90.00000000
_cell_angle_beta   90.00030000
_cell_angle_gamma   89.99980000
_symmetry_Int_Tables_number   1
_chemical_formula_structural   ZnBH9C2N11Cl
_chemical_formula_sum   'Zn2 B2 H18 C4 N22 Cl2'
_cell_volume   532.82211852
_cell_formula_units_Z   2
loop_
 _symmetry_equiv_pos_site_id
 _symmetry_equiv_pos_as_xyz
  1  'x, y, z'
loop_
 _atom_site_type_symbol
 _atom_site_label
 _atom_site_symmetry_multiplicity
 _atom_site_fract_x
 _atom_site_fract_y
 _atom_site_fract_z
 _atom_site_occupancy
  Zn  Zn0  1  0.02002000  0.50000000  0.25679000  1.0
  Zn  Zn1  1  0.97998000  0.50000000  0.75678000  1.0
  B  B2  1  0.46128000  0.00000000  0.36154000  1.0
  B  B3  1  0.53872000  0.99999000  0.86153000  1.0
  H  H4  1  0.36025000  0.58402000  0.09926000  1.0
  H  H5  1  0.63975000  0.41598000  0.59926000  1.0
  H  H6  1  0.36025000  0.41598000  0.09927000  1.0
  H  H7  1  0.63974000  0.58402000  0.59926000  1.0
  H  H8  1  0.20299000  0.00000000  0.35093000  1.0
  H  H9  1  0.79701000  0.00000000  0.85092000  1.0
  H  H10  1  0.53468000  0.00001000  0.46099000  1.0
  H  H11  1  0.46532000  0.00000000  0.96099000  1.0
  H  H12  1  0.06033000  0.71258000  0.46342000  1.0
  H  H13  1  0.93968000  0.28742000  0.96341000  1.0
  H  H14  1  0.06032000  0.28743000  0.46342000  1.0
  H  H15  1  0.93968000  0.71257000  0.96341000  1.0
  H  H16  1  0.84254000  0.85009000  0.50297000  1.0
  H  H17  1  0.15746000  0.14991000  0.00297000  1.0
  H  H18  1  0.84254000  0.14992000  0.50297000  1.0
  H  H19  1  0.15745000  0.85008000  0.00297000  1.0
  H  H20  1  0.08885000  0.50000000  0.03979000  1.0
  H  H21  1  0.91115000  0.50000000  0.53979000  1.0
  C  C22  1  0.76886000  0.77404000  0.34422000  1.0
  C  C23  1  0.23115000  0.22596000  0.84422000  1.0
  C  C24  1  0.76886000  0.22597000  0.34422000  1.0
  C  C25  1  0.23115000  0.77403000  0.84422000  1.0
  N  N26  1  0.51286000  0.83299000  0.19447000  1.0
  N  N27  1  0.48713000  0.16701000  0.69447000  1.0
  N  N28  1  0.51287000  0.16702000  0.19447000  1.0
  N  N29  1  0.48714000  0.83298000  0.69447000  1.0
  N  N30  1  0.88181000  0.77065000  0.44962000  1.0
  N  N31  1  0.11818000  0.22935000  0.94963000  1.0
  N  N32  1  0.88181000  0.22936000  0.44963000  1.0
  N  N33  1  0.11819000  0.77065000  0.94963000  1.0
  N  N34  1  0.22902000  0.50000000  0.10757000  1.0
  N  N35  1  0.77097000  0.50000000  0.60757000  1.0
  N  N36  1  0.58518000  0.86994000  0.30328000  1.0
  N  N37  1  0.41481000  0.13006000  0.80328000  1.0
  N  N38  1  0.58519000  0.13006000  0.30328000  1.0
  N  N39  1  0.41482000  0.86994000  0.80327000  1.0
  N  N40  1  0.80853000  0.68006000  0.26136000  1.0
  N  N41  1  0.19146000  0.31994000  0.76136000  1.0
  N  N42  1  0.80853000  0.31995000  0.26136000  1.0
  N  N43  1  0.19147000  0.68005000  0.76135000  1.0
  N  N44  1  0.64809000  0.72193000  0.16997000  1.0
  N  N45  1  0.35191000  0.27807000  0.66997000  1.0
  N  N46  1  0.64809000  0.27808000  0.16997000  1.0
  N  N47  1  0.35191000  0.72192000  0.66997000  1.0
  Cl  Cl48  1  0.29988000  0.50000000  0.41398000  1.0
  Cl  Cl49  1  0.70012000  0.50000000  0.91397000  1.0
