# generated using pymatgen
data_AlH8C14O9
_symmetry_space_group_name_H-M   'P 1'
_cell_length_a   6.64246000
_cell_length_b   11.04500000
_cell_length_c   17.77000000
_cell_angle_alpha   82.48320000
_cell_angle_beta   79.27300000
_cell_angle_gamma   72.65210000
_symmetry_Int_Tables_number   1
_chemical_formula_structural   AlH8C14O9
_chemical_formula_sum   'Al2 H16 C28 O18'
_cell_volume   1218.71461615
_cell_formula_units_Z   2
loop_
 _symmetry_equiv_pos_site_id
 _symmetry_equiv_pos_as_xyz
  1  'x, y, z'
loop_
 _atom_site_type_symbol
 _atom_site_label
 _atom_site_symmetry_multiplicity
 _atom_site_fract_x
 _atom_site_fract_y
 _atom_site_fract_z
 _atom_site_occupancy
  Al  Al0  1  0.50793000  0.48623000  0.51582000  1.0
  Al  Al1  1  0.00645000  0.48876000  0.51423000  1.0
  H  H2  1  0.26989000  0.37299000  0.59672000  1.0
  H  H3  1  0.72125000  0.62259000  0.44372000  1.0
  H  H4  1  0.71367000  0.43248000  0.28445000  1.0
  H  H5  1  0.78479000  0.43820000  0.14169000  1.0
  H  H6  1  0.10486000  0.58525000  0.13678000  1.0
  H  H7  1  0.90221000  0.49464000  0.88702000  1.0
  H  H8  1  0.30511000  0.51621000  0.74885000  1.0
  H  H9  1  0.23583000  0.52670000  0.88995000  1.0
  H  H10  1  0.99641000  0.56477000  0.33891000  1.0
  H  H11  1  0.00360000  0.48176000  0.68524000  1.0
  H  H12  1  0.77855000  0.77551000  0.54379000  1.0
  H  H13  1  0.57314000  0.20348000  0.53382000  1.0
  H  H14  1  0.43292000  0.69925000  0.42163000  1.0
  H  H15  1  0.72073000  0.79204000  0.29142000  1.0
  H  H16  1  0.46683000  0.23412000  0.27725000  1.0
  H  H17  1  0.13727000  0.30531000  0.40179000  1.0
  C  C18  1  0.88355000  0.26022000  0.49380000  1.0
  C  C19  1  0.67659000  0.49032000  0.65418000  1.0
  C  C20  1  0.13641000  0.72236000  0.50356000  1.0
  C  C21  1  0.33706000  0.49511000  0.37513000  1.0
  C  C22  1  0.37181000  0.50222000  0.29126000  1.0
  C  C23  1  0.58229000  0.46512000  0.25131000  1.0
  C  C24  1  0.62227000  0.46889000  0.17212000  1.0
  C  C25  1  0.44934000  0.51210000  0.12981000  1.0
  C  C26  1  0.23911000  0.55116000  0.16852000  1.0
  C  C27  1  0.19847000  0.54599000  0.24869000  1.0
  C  C28  1  0.48891000  0.51409000  0.04874000  1.0
  C  C29  1  0.52595000  0.51336000  0.97886000  1.0
  C  C30  1  0.56487000  0.51054000  0.89807000  1.0
  C  C31  1  0.77080000  0.49942000  0.85713000  1.0
  C  C32  1  0.80999000  0.49389000  0.77745000  1.0
  C  C33  1  0.64095000  0.49906000  0.73729000  1.0
  C  C34  1  0.43470000  0.51201000  0.77931000  1.0
  C  C35  1  0.39549000  0.51768000  0.85795000  1.0
  C  C36  1  0.93949000  0.12968000  0.47181000  1.0
  C  C37  1  0.13987000  0.06625000  0.42594000  1.0
  C  C38  1  0.79250000  0.06003000  0.50284000  1.0
  C  C39  1  0.25649000  0.13469000  0.37117000  1.0
  C  C40  1  0.44477000  0.07507000  0.32432000  1.0
  C  C41  1  0.07240000  0.85787000  0.47798000  1.0
  C  C42  1  0.85904000  0.92384000  0.50563000  1.0
  C  C43  1  0.21170000  0.92819000  0.43022000  1.0
  C  C44  1  0.40178000  0.87154000  0.38078000  1.0
  C  C45  1  0.51937000  0.94231000  0.32970000  1.0
  O  O46  1  0.68583000  0.31491000  0.52065000  1.0
  O  O47  1  0.87231000  0.47077000  0.61824000  1.0
  O  O48  1  0.99128000  0.66365000  0.52860000  1.0
  O  O49  1  0.49535000  0.46876000  0.41105000  1.0
  O  O50  1  0.33561000  0.66149000  0.50321000  1.0
  O  O51  1  0.14045000  0.51773000  0.41053000  1.0
  O  O52  1  0.02799000  0.31780000  0.49137000  1.0
  O  O53  1  0.51911000  0.50061000  0.62007000  1.0
  O  O54  1  0.26885000  0.42600000  0.54871000  1.0
  O  O55  1  0.74371000  0.54918000  0.48125000  1.0
  O  O56  1  0.99219000  0.58373000  0.28275000  1.0
  O  O57  1  0.01077000  0.48394000  0.74070000  1.0
  O  O58  1  0.70917000  0.86958000  0.54271000  1.0
  O  O59  1  0.59295000  0.10949000  0.53776000  1.0
  O  O60  1  0.48485000  0.74299000  0.37250000  1.0
  O  O61  1  0.69920000  0.88431000  0.28274000  1.0
  O  O62  1  0.55008000  0.14487000  0.27194000  1.0
  O  O63  1  0.19025000  0.26405000  0.35288000  1.0
