# generated using pymatgen
data_ZnH14C15NO5
_symmetry_space_group_name_H-M   'P 1'
_cell_length_a   9.60114000
_cell_length_b   11.23370000
_cell_length_c   12.57186685
_cell_angle_alpha   89.81112293
_cell_angle_beta   74.63084569
_cell_angle_gamma   81.86930000
_symmetry_Int_Tables_number   1
_chemical_formula_structural   ZnH14C15NO5
_chemical_formula_sum   'Zn2 H28 C30 N2 O10'
_cell_volume   1293.49096456
_cell_formula_units_Z   2
loop_
 _symmetry_equiv_pos_site_id
 _symmetry_equiv_pos_as_xyz
  1  'x, y, z'
loop_
 _atom_site_type_symbol
 _atom_site_label
 _atom_site_symmetry_multiplicity
 _atom_site_fract_x
 _atom_site_fract_y
 _atom_site_fract_z
 _atom_site_occupancy
  Zn  Zn0  1  0.86243000  0.51714000  0.47828000  1.0
  Zn  Zn1  1  0.12780000  0.48989000  0.53102000  1.0
  H  H2  1  0.96493000  0.60051000  0.88229000  1.0
  H  H3  1  0.00994000  0.44127000  0.13156000  1.0
  H  H4  1  0.40493000  0.41974000  0.86900000  1.0
  H  H5  1  0.14863000  0.38911000  0.93489000  1.0
  H  H6  1  0.33965000  0.61416000  0.29006000  1.0
  H  H7  1  0.18474000  0.86608000  0.50917000  1.0
  H  H8  1  0.62007000  0.98901000  0.55416000  1.0
  H  H9  1  0.67159000  0.83232000  0.57281000  1.0
  H  H10  1  0.74645000  0.95957000  0.35272000  1.0
  H  H11  1  0.78983000  0.80330000  0.37042000  1.0
  H  H12  1  0.52113000  0.78539000  0.43490000  1.0
  H  H13  1  0.19523000  0.08160000  0.52086000  1.0
  H  H14  1  0.56252000  0.84823000  0.30251000  1.0
  H  H15  1  0.47589000  0.94220000  0.42107000  1.0
  H  H16  1  0.28155000  0.82017000  0.68336000  1.0
  H  H17  1  0.46285000  0.74243000  0.65748000  1.0
  H  H18  1  0.20979000  0.71923000  0.86244000  1.0
  H  H19  1  0.38427000  0.63365000  0.83601000  1.0
  H  H20  1  0.49919000  0.81996000  0.84330000  1.0
  H  H21  1  0.36277000  0.80536000  0.96705000  1.0
  H  H22  1  0.32470000  0.91016000  0.86879000  1.0
  H  H23  1  0.88603000  0.12431000  0.48880000  1.0
  H  H24  1  0.58896000  0.55472000  0.64592000  1.0
  H  H25  1  0.60378000  0.54037000  0.41095000  1.0
  H  H26  1  0.41592000  0.41713000  0.48915000  1.0
  H  H27  1  0.59212000  0.65860000  0.22253000  1.0
  H  H28  1  0.82170000  0.64540000  0.07894000  1.0
  H  H29  1  0.60421000  0.46270000  0.81361000  1.0
  C  C30  1  0.00417000  0.27301000  0.49613000  1.0
  C  C31  1  0.18944000  0.50407000  0.17342000  1.0
  C  C32  1  0.08487000  0.92787000  0.51434000  1.0
  C  C33  1  0.10853000  0.51355000  0.29345000  1.0
  C  C34  1  0.96426000  0.87290000  0.52139000  1.0
  C  C35  1  0.09279000  0.05486000  0.51328000  1.0
  C  C36  1  0.98838000  0.14446000  0.50049000  1.0
  C  C37  1  0.54807000  0.55369000  0.57214000  1.0
  C  C38  1  0.38855000  0.55803000  0.58607000  1.0
  C  C39  1  0.97881000  0.73748000  0.51883000  1.0
  C  C40  1  0.87021000  0.51056000  0.71787000  1.0
  C  C41  1  0.41496000  0.50023000  0.02329000  1.0
  C  C42  1  0.77363000  0.60585000  0.02040000  1.0
  C  C43  1  0.78904000  0.53111000  0.83729000  1.0
  C  C44  1  0.12251000  0.45778000  0.10074000  1.0
  C  C45  1  0.20090000  0.42815000  0.99076000  1.0
  C  C46  1  0.34503000  0.44679000  0.95380000  1.0
  C  C47  1  0.70104000  0.90918000  0.52194000  1.0
  C  C48  1  0.70866000  0.88324000  0.40168000  1.0
  C  C49  1  0.55924000  0.86374000  0.38938000  1.0
  C  C50  1  0.34784000  0.73842000  0.70115000  1.0
  C  C51  1  0.32633000  0.72198000  0.82369000  1.0
  C  C52  1  0.33552000  0.52982000  0.13557000  1.0
  C  C53  1  0.38129000  0.82025000  0.87836000  1.0
  C  C54  1  0.56376000  0.52688000  0.98392000  1.0
  C  C55  1  0.62825000  0.58121000  0.05806000  1.0
  C  C56  1  0.54312000  0.61214000  0.16864000  1.0
  C  C57  1  0.40308000  0.58825000  0.20591000  1.0
  C  C58  1  0.64769000  0.50390000  0.87379000  1.0
  C  C59  1  0.85340000  0.58114000  0.91212000  1.0
  N  N60  1  0.64410000  0.54125000  0.47898000  1.0
  N  N61  1  0.33780000  0.47991000  0.53753000  1.0
  O  O62  1  0.91146000  0.33873000  0.45516000  1.0
  O  O63  1  0.29569000  0.63991000  0.65457000  1.0
  O  O64  1  0.10216000  0.31149000  0.53281000  1.0
  O  O65  1  0.97147000  0.55133000  0.31976000  1.0
  O  O66  1  0.18317000  0.47671000  0.35990000  1.0
  O  O67  1  0.86211000  0.69058000  0.52997000  1.0
  O  O68  1  0.10550000  0.67893000  0.50526000  1.0
  O  O69  1  0.79810000  0.48479000  0.65144000  1.0
  O  O70  1  0.00493000  0.52266000  0.69042000  1.0
  O  O71  1  0.83373000  0.94438000  0.53682000  1.0
