# generated using pymatgen
data_CoH16C18(O3F)2
_symmetry_space_group_name_H-M   'P 1'
_cell_length_a   5.36809000
_cell_length_b   8.92612000
_cell_length_c   18.17310000
_cell_angle_alpha   82.84760000
_cell_angle_beta   89.99940000
_cell_angle_gamma   89.99840000
_symmetry_Int_Tables_number   1
_chemical_formula_structural   CoH16C18(O3F)2
_chemical_formula_sum   'Co2 H32 C36 O12 F4'
_cell_volume   864.01013819
_cell_formula_units_Z   2
loop_
 _symmetry_equiv_pos_site_id
 _symmetry_equiv_pos_as_xyz
  1  'x, y, z'
loop_
 _atom_site_type_symbol
 _atom_site_label
 _atom_site_symmetry_multiplicity
 _atom_site_fract_x
 _atom_site_fract_y
 _atom_site_fract_z
 _atom_site_occupancy
  Co  Co0  1  0.00000000  0.00000000  0.50000000  1.0
  Co  Co1  1  0.50000000  0.50000000  0.50000000  1.0
  H  H2  1  0.16936000  0.40616000  0.17921000  1.0
  H  H3  1  0.66931000  0.09381000  0.82081000  1.0
  H  H4  1  0.83065000  0.59383000  0.82079000  1.0
  H  H5  1  0.33068000  0.90619000  0.17919000  1.0
  H  H6  1  0.58623000  0.72555000  0.03144000  1.0
  H  H7  1  0.08625000  0.77442000  0.96856000  1.0
  H  H8  1  0.41376000  0.27444000  0.96856000  1.0
  H  H9  1  0.91374000  0.22557000  0.03143000  1.0
  H  H10  1  0.88823000  0.75836000  0.13325000  1.0
  H  H11  1  0.38826000  0.74165000  0.86674000  1.0
  H  H12  1  0.11178000  0.24164000  0.86674000  1.0
  H  H13  1  0.61173000  0.25835000  0.13326000  1.0
  H  H14  1  0.83170000  0.61435000  0.25823000  1.0
  H  H15  1  0.33165000  0.88568000  0.74176000  1.0
  H  H16  1  0.16834000  0.38565000  0.74176000  1.0
  H  H17  1  0.66834000  0.11433000  0.25824000  1.0
  H  H18  1  0.61574000  0.44190000  0.34276000  1.0
  H  H19  1  0.11567000  0.05810000  0.65724000  1.0
  H  H20  1  0.38429000  0.55810000  0.65724000  1.0
  H  H21  1  0.88431000  0.94191000  0.34276000  1.0
  H  H22  1  0.13256000  0.29867000  0.29136000  1.0
  H  H23  1  0.63247000  0.20130000  0.70865000  1.0
  H  H24  1  0.86749000  0.70130000  0.70864000  1.0
  H  H25  1  0.36752000  0.79870000  0.29135000  1.0
  H  H26  1  0.48662000  0.99275000  0.56156000  1.0
  H  H27  1  0.98664000  0.50724000  0.43844000  1.0
  H  H28  1  0.51336000  0.00726000  0.43844000  1.0
  H  H29  1  0.01336000  0.49276000  0.56156000  1.0
  H  H30  1  0.36841000  0.15159000  0.52814000  1.0
  H  H31  1  0.86844000  0.34840000  0.47187000  1.0
  H  H32  1  0.63158000  0.84842000  0.47186000  1.0
  H  H33  1  0.13155000  0.65160000  0.52814000  1.0
  C  C34  1  0.32874000  0.48201000  0.17107000  1.0
  C  C35  1  0.82869000  0.01798000  0.82894000  1.0
  C  C36  1  0.67130000  0.51799000  0.82893000  1.0
  C  C37  1  0.17130000  0.98203000  0.17105000  1.0
  C  C38  1  0.36774000  0.56305000  0.10205000  1.0
  C  C39  1  0.86776000  0.93692000  0.89797000  1.0
  C  C40  1  0.63225000  0.43694000  0.89796000  1.0
  C  C41  1  0.13223000  0.06308000  0.10203000  1.0
  C  C42  1  0.56511000  0.66333000  0.08653000  1.0
  C  C43  1  0.06513000  0.83667000  0.91347000  1.0
  C  C44  1  0.43489000  0.33667000  0.91347000  1.0
  C  C45  1  0.93484000  0.16333000  0.08652000  1.0
  C  C46  1  0.73215000  0.68062000  0.14372000  1.0
  C  C47  1  0.23217000  0.81937000  0.85628000  1.0
  C  C48  1  0.26785000  0.31937000  0.85628000  1.0
  C  C49  1  0.76782000  0.18063000  0.14371000  1.0
  C  C50  1  0.70018000  0.59973000  0.21388000  1.0
  C  C51  1  0.20014000  0.90027000  0.78612000  1.0
  C  C52  1  0.29985000  0.40027000  0.78612000  1.0
  C  C53  1  0.79985000  0.09973000  0.21388000  1.0
  C  C54  1  0.49777000  0.49997000  0.22877000  1.0
  C  C55  1  0.99772000  0.00002000  0.77123000  1.0
  C  C56  1  0.50226000  0.50002000  0.77123000  1.0
  C  C57  1  0.00227000  0.99998000  0.22877000  1.0
  C  C58  1  0.46944000  0.42146000  0.30354000  1.0
  C  C59  1  0.96935000  0.07852000  0.69647000  1.0
  C  C60  1  0.53060000  0.57853000  0.69646000  1.0
  C  C61  1  0.03063000  0.92148000  0.30353000  1.0
  C  C62  1  0.28078000  0.32857000  0.32796000  1.0
  C  C63  1  0.78068000  0.17141000  0.67204000  1.0
  C  C64  1  0.71925000  0.67142000  0.67204000  1.0
  C  C65  1  0.21929000  0.82859000  0.32795000  1.0
  C  C66  1  0.26274000  0.25126000  0.40408000  1.0
  C  C67  1  0.76269000  0.24874000  0.59593000  1.0
  C  C68  1  0.73727000  0.74875000  0.59593000  1.0
  C  C69  1  0.23729000  0.75126000  0.40406000  1.0
  O  O70  1  0.13198000  0.13005000  0.41103000  1.0
  O  O71  1  0.63193000  0.36995000  0.58898000  1.0
  O  O72  1  0.86803000  0.86995000  0.58898000  1.0
  O  O73  1  0.36806000  0.63005000  0.41101000  1.0
  O  O74  1  0.37199000  0.29759000  0.46014000  1.0
  O  O75  1  0.87196000  0.20241000  0.53987000  1.0
  O  O76  1  0.62802000  0.70241000  0.53986000  1.0
  O  O77  1  0.12804000  0.79759000  0.46013000  1.0
  O  O78  1  0.33151000  0.05043000  0.55748000  1.0
  O  O79  1  0.83154000  0.44956000  0.44253000  1.0
  O  O80  1  0.66848000  0.94957000  0.44252000  1.0
  O  O81  1  0.16846000  0.55045000  0.55748000  1.0
  F  F82  1  0.20400000  0.54384000  0.04619000  1.0
  F  F83  1  0.70402000  0.95613000  0.95383000  1.0
  F  F84  1  0.79599000  0.45617000  0.95382000  1.0
  F  F85  1  0.29596000  0.04387000  0.04617000  1.0
