# generated using pymatgen
data_ZnH11C11N3O5
_symmetry_space_group_name_H-M   'P 1'
_cell_length_a   9.06282000
_cell_length_b   9.76159000
_cell_length_c   10.70430000
_cell_angle_alpha   92.34270000
_cell_angle_beta   102.95700000
_cell_angle_gamma   101.00200000
_symmetry_Int_Tables_number   1
_chemical_formula_structural   ZnH11C11N3O5
_chemical_formula_sum   'Zn2 H22 C22 N6 O10'
_cell_volume   902.43814723
_cell_formula_units_Z   2
loop_
 _symmetry_equiv_pos_site_id
 _symmetry_equiv_pos_as_xyz
  1  'x, y, z'
loop_
 _atom_site_type_symbol
 _atom_site_label
 _atom_site_symmetry_multiplicity
 _atom_site_fract_x
 _atom_site_fract_y
 _atom_site_fract_z
 _atom_site_occupancy
  Zn  Zn0  1  0.53226000  0.66225000  0.51102000  1.0
  Zn  Zn1  1  0.49212000  0.35585000  0.49877000  1.0
  H  H2  1  0.59709000  0.32997000  0.14607000  1.0
  H  H3  1  0.68485000  0.15678000  0.04064000  1.0
  H  H4  1  0.22820000  0.69269000  0.98823000  1.0
  H  H5  1  0.11813000  0.48374000  0.11835000  1.0
  H  H6  1  0.07546000  0.65451000  0.12629000  1.0
  H  H7  1  0.22334000  0.61165000  0.24750000  1.0
  H  H8  1  0.80039000  0.98116000  0.40146000  1.0
  H  H9  1  0.62504000  0.98206000  0.19052000  1.0
  H  H10  1  0.53456000  0.80753000  0.21160000  1.0
  H  H11  1  0.72962000  0.84313000  0.19840000  1.0
  H  H12  1  0.28822000  0.20432000  0.61619000  1.0
  H  H13  1  0.36580000  0.64820000  0.84991000  1.0
  H  H14  1  0.12321000  0.97152000  0.68241000  1.0
  H  H15  1  0.21631000  0.11642000  0.79801000  1.0
  H  H16  1  0.30633000  0.97119000  0.78663000  1.0
  H  H17  1  0.62595000  0.16635000  0.37908000  1.0
  H  H18  1  0.36723000  0.84151000  0.63263000  1.0
  H  H19  1  0.86325000  0.30857000  0.33324000  1.0
  H  H20  1  0.05360000  0.77285000  0.53336000  1.0
  H  H21  1  0.67937000  0.32812000  0.82502000  1.0
  H  H22  1  0.84022000  0.30590000  0.08491000  1.0
  H  H23  1  0.82611000  0.18980000  0.94815000  1.0
  C  C24  1  0.54036000  0.51943000  0.74512000  1.0
  C  C25  1  0.41807000  0.58004000  0.91696000  1.0
  C  C26  1  0.45416000  0.48191000  0.12057000  1.0
  C  C27  1  0.51495000  0.50171000  0.87562000  1.0
  C  C28  1  0.56936000  0.09358000  0.43657000  1.0
  C  C29  1  0.42566000  0.91637000  0.57771000  1.0
  C  C30  1  0.59411000  0.95751000  0.44084000  1.0
  C  C31  1  0.40453000  0.05740000  0.57609000  1.0
  C  C32  1  0.94066000  0.30336000  0.42903000  1.0
  C  C33  1  0.06759000  0.68360000  0.59368000  1.0
  C  C34  1  0.75843000  0.24014000  0.00210000  1.0
  C  C35  1  0.45414000  0.48212000  0.26001000  1.0
  C  C36  1  0.16949000  0.59648000  0.14411000  1.0
  C  C37  1  0.64332000  0.88529000  0.23696000  1.0
  C  C38  1  0.23583000  0.03758000  0.73096000  1.0
  C  C39  1  0.20879000  0.46790000  0.50007000  1.0
  C  C40  1  0.80436000  0.52860000  0.51758000  1.0
  C  C41  1  0.03701000  0.44156000  0.49124000  1.0
  C  C42  1  0.97443000  0.54410000  0.53255000  1.0
  C  C43  1  0.57880000  0.40382000  0.95617000  1.0
  C  C44  1  0.38184000  0.57113000  0.03714000  1.0
  C  C45  1  0.54701000  0.39892000  0.07884000  1.0
  N  N46  1  0.51794000  0.87026000  0.51194000  1.0
  N  N47  1  0.48003000  0.14404000  0.50333000  1.0
  N  N48  1  0.66974000  0.32134000  0.91754000  1.0
  N  N49  1  0.27905000  0.65025000  0.06762000  1.0
  N  N50  1  0.69800000  0.90903000  0.37817000  1.0
  N  N51  1  0.31481000  0.11018000  0.64152000  1.0
  O  O52  1  0.51572000  0.63086000  0.69310000  1.0
  O  O53  1  0.14698000  0.70142000  0.70395000  1.0
  O  O54  1  0.42526000  0.36489000  0.30711000  1.0
  O  O55  1  0.58287000  0.41968000  0.68832000  1.0
  O  O56  1  0.49256000  0.60194000  0.32347000  1.0
  O  O57  1  0.27054000  0.58863000  0.47815000  1.0
  O  O58  1  0.72055000  0.40837000  0.47554000  1.0
  O  O59  1  0.27469000  0.36480000  0.52651000  1.0
  O  O60  1  0.76041000  0.63905000  0.54719000  1.0
  O  O61  1  0.95345000  0.19106000  0.47302000  1.0
