# generated using pymatgen
data_CuH16C24(NO2)2
_symmetry_space_group_name_H-M   'P 1'
_cell_length_a   9.42228000
_cell_length_b   11.16450000
_cell_length_c   11.41840000
_cell_angle_alpha   115.71900000
_cell_angle_beta   90.03080000
_cell_angle_gamma   114.95800000
_symmetry_Int_Tables_number   1
_chemical_formula_structural   CuH16C24(NO2)2
_chemical_formula_sum   'Cu2 H32 C48 N4 O8'
_cell_volume   955.98864663
_cell_formula_units_Z   2
loop_
 _symmetry_equiv_pos_site_id
 _symmetry_equiv_pos_as_xyz
  1  'x, y, z'
loop_
 _atom_site_type_symbol
 _atom_site_label
 _atom_site_symmetry_multiplicity
 _atom_site_fract_x
 _atom_site_fract_y
 _atom_site_fract_z
 _atom_site_occupancy
  Cu  Cu0  1  0.00000000  0.99999000  0.00000000  1.0
  Cu  Cu1  1  0.00000000  0.00000000  0.50000000  1.0
  H  H2  1  0.91543000  0.88281000  0.19719000  1.0
  H  H3  1  0.03228000  0.11713000  0.30295000  1.0
  H  H4  1  0.08457000  0.11719000  0.80281000  1.0
  H  H5  1  0.96772000  0.88288000  0.69706000  1.0
  H  H6  1  0.47069000  0.52190000  0.80366000  1.0
  H  H7  1  0.94875000  0.47812000  0.69634000  1.0
  H  H8  1  0.52930000  0.47810000  0.19634000  1.0
  H  H9  1  0.05125000  0.52189000  0.30366000  1.0
  H  H10  1  0.59381000  0.32906000  0.69678000  1.0
  H  H11  1  0.26458000  0.67115000  0.80330000  1.0
  H  H12  1  0.40620000  0.67094000  0.30323000  1.0
  H  H13  1  0.73542000  0.32884000  0.19669000  1.0
  H  H14  1  0.69871000  0.66788000  0.20535000  1.0
  H  H15  1  0.03057000  0.33205000  0.29476000  1.0
  H  H16  1  0.30128000  0.33211000  0.79464000  1.0
  H  H17  1  0.96943000  0.66796000  0.70525000  1.0
  H  H18  1  0.81778000  0.51428000  0.90222000  1.0
  H  H19  1  0.30306000  0.48579000  0.59791000  1.0
  H  H20  1  0.18223000  0.48572000  0.09779000  1.0
  H  H21  1  0.69695000  0.51421000  0.40209000  1.0
  H  H22  1  0.68790000  0.75587000  0.82111000  1.0
  H  H23  1  0.93195000  0.24415000  0.67892000  1.0
  H  H24  1  0.31209000  0.24413000  0.17889000  1.0
  H  H25  1  0.06805000  0.75586000  0.32108000  1.0
  H  H26  1  0.91480000  0.41803000  0.02828000  1.0
  H  H27  1  0.49624000  0.58184000  0.47185000  1.0
  H  H28  1  0.08521000  0.58196000  0.97172000  1.0
  H  H29  1  0.50377000  0.41816000  0.52815000  1.0
  H  H30  1  0.48065000  0.05750000  0.62017000  1.0
  H  H31  1  0.42329000  0.94267000  0.87976000  1.0
  H  H32  1  0.51936000  0.94251000  0.37983000  1.0
  H  H33  1  0.57670000  0.05733000  0.12023000  1.0
  C  C34  1  0.56354000  0.56940000  0.00258000  1.0
  C  C35  1  0.99400000  0.43058000  0.49743000  1.0
  C  C36  1  0.43645000  0.43060000  0.99741000  1.0
  C  C37  1  0.00600000  0.56943000  0.50258000  1.0
  C  C38  1  0.63981000  0.08246000  0.77422000  1.0
  C  C39  1  0.55735000  0.91752000  0.72580000  1.0
  C  C40  1  0.36019000  0.91754000  0.22578000  1.0
  C  C41  1  0.44265000  0.08247000  0.27420000  1.0
  C  C42  1  0.81187000  0.80219000  0.11348000  1.0
  C  C43  1  0.00942000  0.19776000  0.38661000  1.0
  C  C44  1  0.18813000  0.19781000  0.88652000  1.0
  C  C45  1  0.99058000  0.80225000  0.61339000  1.0
  C  C46  1  0.56402000  0.59925000  0.89503000  1.0
  C  C47  1  0.96455000  0.40071000  0.60496000  1.0
  C  C48  1  0.43597000  0.40074000  0.10497000  1.0
  C  C49  1  0.03545000  0.59930000  0.39505000  1.0
  C  C50  1  0.84695000  0.14312000  0.96519000  1.0
  C  C51  1  0.70350000  0.85663000  0.53473000  1.0
  C  C52  1  0.15305000  0.85688000  0.03481000  1.0
  C  C53  1  0.29649000  0.14337000  0.46527000  1.0
  C  C54  1  0.76342000  0.18625000  0.89043000  1.0
  C  C55  1  0.57704000  0.81369000  0.60967000  1.0
  C  C56  1  0.23658000  0.81375000  0.10958000  1.0
  C  C57  1  0.42296000  0.18631000  0.39033000  1.0
  C  C58  1  0.64333000  0.29117000  0.75175000  1.0
  C  C59  1  0.35201000  0.70894000  0.74832000  1.0
  C  C60  1  0.35668000  0.70884000  0.24825000  1.0
  C  C61  1  0.64799000  0.29106000  0.25167000  1.0
  C  C62  1  0.69097000  0.67713000  0.11484000  1.0
  C  C63  1  0.01357000  0.32282000  0.38524000  1.0
  C  C64  1  0.30903000  0.32288000  0.88515000  1.0
  C  C65  1  0.98643000  0.67719000  0.61477000  1.0
  C  C66  1  0.76575000  0.39367000  0.86697000  1.0
  C  C67  1  0.37179000  0.60638000  0.63317000  1.0
  C  C68  1  0.23426000  0.60633000  0.13304000  1.0
  C  C69  1  0.62822000  0.39361000  0.36682000  1.0
  C  C70  1  0.68699000  0.72916000  0.90232000  1.0
  C  C71  1  0.95765000  0.27082000  0.59769000  1.0
  C  C72  1  0.31301000  0.27084000  0.09768000  1.0
  C  C73  1  0.04235000  0.72918000  0.40231000  1.0
  C  C74  1  0.82191000  0.34072000  0.93670000  1.0
  C  C75  1  0.48089000  0.65924000  0.56344000  1.0
  C  C76  1  0.17810000  0.65928000  0.06331000  1.0
  C  C77  1  0.51911000  0.34076000  0.43656000  1.0
  C  C78  1  0.57989000  0.13736000  0.70766000  1.0
  C  C79  1  0.44254000  0.86271000  0.79236000  1.0
  C  C80  1  0.42012000  0.86264000  0.29234000  1.0
  C  C81  1  0.55745000  0.13728000  0.20764000  1.0
  N  N82  1  0.81105000  0.82895000  0.00924000  1.0
  N  N83  1  0.98192000  0.17103000  0.49087000  1.0
  N  N84  1  0.18895000  0.17104000  0.99076000  1.0
  N  N85  1  0.01808000  0.82898000  0.50914000  1.0
  O  O86  1  0.84977000  0.01622000  0.89587000  1.0
  O  O87  1  0.83337000  0.98351000  0.60387000  1.0
  O  O88  1  0.15023000  0.98377000  0.10413000  1.0
  O  O89  1  0.16662000  0.01649000  0.39612000  1.0
  O  O90  1  0.91696000  0.23158000  0.08560000  1.0
  O  O91  1  0.68466000  0.76800000  0.41434000  1.0
  O  O92  1  0.08304000  0.76841000  0.91441000  1.0
  O  O93  1  0.31534000  0.23200000  0.58566000  1.0
