# generated using pymatgen
data_CoH20C32Br4(NO)8
_symmetry_space_group_name_H-M   'P 1'
_cell_length_a   8.60871000
_cell_length_b   8.74964000
_cell_length_c   11.15750000
_cell_angle_alpha   88.87050000
_cell_angle_beta   86.97570000
_cell_angle_gamma   83.60800000
_symmetry_Int_Tables_number   1
_chemical_formula_structural   CoH20C32Br4(NO)8
_chemical_formula_sum   'Co1 H20 C32 Br4 N8 O8'
_cell_volume   833.94885038
_cell_formula_units_Z   1
loop_
 _symmetry_equiv_pos_site_id
 _symmetry_equiv_pos_as_xyz
  1  'x, y, z'
loop_
 _atom_site_type_symbol
 _atom_site_label
 _atom_site_symmetry_multiplicity
 _atom_site_fract_x
 _atom_site_fract_y
 _atom_site_fract_z
 _atom_site_occupancy
  Co  Co0  1  0.00000000  0.00000000  0.00000000  1.0
  H  H1  1  0.25209000  0.85714000  0.07756000  1.0
  H  H2  1  0.74791000  0.14286000  0.92245000  1.0
  H  H3  1  0.32917000  0.88878000  0.94823000  1.0
  H  H4  1  0.67083000  0.11122000  0.05178000  1.0
  H  H5  1  0.64084000  0.02420000  0.35025000  1.0
  H  H6  1  0.35916000  0.97579000  0.64975000  1.0
  H  H7  1  0.24340000  0.12862000  0.84435000  1.0
  H  H8  1  0.75661000  0.87138000  0.15565000  1.0
  H  H9  1  0.97040000  0.26414000  0.14858000  1.0
  H  H10  1  0.02960000  0.73586000  0.85143000  1.0
  H  H11  1  0.09367000  0.50681000  0.16155000  1.0
  H  H12  1  0.90633000  0.49319000  0.83845000  1.0
  H  H13  1  0.30200000  0.56278000  0.00517000  1.0
  H  H14  1  0.69800000  0.43722000  0.99483000  1.0
  H  H15  1  0.53994000  0.09203000  0.56132000  1.0
  H  H16  1  0.46006000  0.90797000  0.43868000  1.0
  H  H17  1  0.77532000  0.21566000  0.22909000  1.0
  H  H18  1  0.22468000  0.78434000  0.77091000  1.0
  H  H19  1  0.73118000  0.52388000  0.50863000  1.0
  H  H20  1  0.26881000  0.47612000  0.49137000  1.0
  C  C21  1  0.65574000  0.13490000  0.38861000  1.0
  C  C22  1  0.34426000  0.86510000  0.61139000  1.0
  C  C23  1  0.21677000  0.21382000  0.91427000  1.0
  C  C24  1  0.78323000  0.78618000  0.08573000  1.0
  C  C25  1  0.06186000  0.29112000  0.08372000  1.0
  C  C26  1  0.93814000  0.70887000  0.91628000  1.0
  C  C27  1  0.13135000  0.42637000  0.08990000  1.0
  C  C28  1  0.86865000  0.57363000  0.91010000  1.0
  C  C29  1  0.24758000  0.45651000  0.00519000  1.0
  C  C30  1  0.75242000  0.54349000  0.99481000  1.0
  C  C31  1  0.29191000  0.34767000  0.91524000  1.0
  C  C32  1  0.70809000  0.65233000  0.08476000  1.0
  C  C33  1  0.41242000  0.38249000  0.82627000  1.0
  C  C34  1  0.58758000  0.61751000  0.17373000  1.0
  C  C35  1  0.56131000  0.36879000  0.66553000  1.0
  C  C36  1  0.43869000  0.63121000  0.33447000  1.0
  C  C37  1  0.62375000  0.31550000  0.54895000  1.0
  C  C38  1  0.37625000  0.68450000  0.45105000  1.0
  C  C39  1  0.59976000  0.17195000  0.50468000  1.0
  C  C40  1  0.40023000  0.82805000  0.49532000  1.0
  C  C41  1  0.73375000  0.24135000  0.32111000  1.0
  C  C42  1  0.26624000  0.75865000  0.67889000  1.0
  C  C43  1  0.70816000  0.41279000  0.47524000  1.0
  C  C44  1  0.29183000  0.58721000  0.52476000  1.0
  C  C45  1  0.10047000  0.94724000  0.24686000  1.0
  C  C46  1  0.89954000  0.05276000  0.75314000  1.0
  C  C47  1  0.05237000  0.97305000  0.37878000  1.0
  C  C48  1  0.94764000  0.02695000  0.62122000  1.0
  C  C49  1  0.08651000  0.10459000  0.43758000  1.0
  C  C50  1  0.91349000  0.89541000  0.56242000  1.0
  C  C51  1  0.03213000  0.13231000  0.55693000  1.0
  C  C52  1  0.96787000  0.86769000  0.44307000  1.0
  Br  Br53  1  0.21304000  0.24139000  0.35592000  1.0
  Br  Br54  1  0.78696000  0.75861000  0.64408000  1.0
  Br  Br55  1  0.06938000  0.31571000  0.63321000  1.0
  Br  Br56  1  0.93062000  0.68429000  0.36679000  1.0
  N  N57  1  0.10323000  0.18561000  0.99772000  1.0
  N  N58  1  0.89678000  0.81439000  0.00228000  1.0
  N  N59  1  0.49453000  0.50011000  0.82627000  1.0
  N  N60  1  0.50547000  0.49989000  0.17373000  1.0
  N  N61  1  0.59029000  0.49141000  0.72269000  1.0
  N  N62  1  0.40970000  0.50859000  0.27731000  1.0
  N  N63  1  0.76251000  0.37744000  0.36376000  1.0
  N  N64  1  0.23748000  0.62255000  0.63624000  1.0
  O  O65  1  0.44963000  0.29296000  0.72708000  1.0
  O  O66  1  0.55037000  0.70704000  0.27292000  1.0
  O  O67  1  0.99196000  0.99634000  0.17580000  1.0
  O  O68  1  0.00804000  0.00366000  0.82420000  1.0
  O  O69  1  0.23474000  0.88361000  0.21853000  1.0
  O  O70  1  0.76527000  0.11639000  0.78147000  1.0
  O  O71  1  0.24007000  0.84619000  0.98808000  1.0
  O  O72  1  0.75993000  0.15381000  0.01193000  1.0
