# generated using pymatgen
data_ZnH22C29N3O4
_symmetry_space_group_name_H-M   'P 1'
_cell_length_a   15.29260000
_cell_length_b   18.24880000
_cell_length_c   19.65200000
_cell_angle_alpha   90.00030000
_cell_angle_beta   90.36360000
_cell_angle_gamma   89.99970000
_symmetry_Int_Tables_number   1
_chemical_formula_structural   ZnH22C29N3O4
_chemical_formula_sum   'Zn2 H44 C58 N6 O8'
_cell_volume   5484.20462942
_cell_formula_units_Z   2
loop_
 _symmetry_equiv_pos_site_id
 _symmetry_equiv_pos_as_xyz
  1  'x, y, z'
loop_
 _atom_site_type_symbol
 _atom_site_label
 _atom_site_symmetry_multiplicity
 _atom_site_fract_x
 _atom_site_fract_y
 _atom_site_fract_z
 _atom_site_occupancy
  Zn  Zn0  1  0.50000000  0.42455000  0.50000000  1.0
  Zn  Zn1  1  0.50000000  0.57532000  0.50000000  1.0
  H  H2  1  0.63967000  0.06744000  0.51554000  1.0
  H  H3  1  0.55504000  0.39096000  0.71653000  1.0
  H  H4  1  0.44759000  0.60768000  0.71523000  1.0
  H  H5  1  0.44496000  0.39096000  0.28347000  1.0
  H  H6  1  0.64013000  0.50126000  0.06465000  1.0
  H  H7  1  0.35987000  0.50127000  0.93535000  1.0
  H  H8  1  0.64089000  0.49811000  0.93794000  1.0
  H  H9  1  0.35910000  0.49811000  0.06206000  1.0
  H  H10  1  0.40233000  0.30789000  0.42699000  1.0
  H  H11  1  0.59766000  0.69203000  0.57308000  1.0
  H  H12  1  0.59767000  0.30789000  0.57300000  1.0
  H  H13  1  0.36035000  0.93245000  0.48438000  1.0
  H  H14  1  0.40233000  0.69202000  0.42692000  1.0
  H  H15  1  0.39809000  0.17064000  0.42324000  1.0
  H  H16  1  0.60117000  0.82925000  0.57739000  1.0
  H  H17  1  0.60191000  0.17064000  0.57676000  1.0
  H  H18  1  0.39883000  0.82924000  0.42261000  1.0
  H  H19  1  0.22240000  0.38305000  0.50231000  1.0
  H  H20  1  0.77782000  0.61777000  0.50267000  1.0
  H  H21  1  0.91895000  0.68690000  0.50066000  1.0
  H  H22  1  0.08100000  0.31382000  0.50061000  1.0
  H  H23  1  0.59141000  0.65762000  0.18511000  1.0
  H  H24  1  0.36033000  0.06744000  0.48446000  1.0
  H  H25  1  0.53513000  0.71265000  0.08604000  1.0
  H  H26  1  0.44404000  0.68676000  0.13781000  1.0
  H  H27  1  0.47513000  0.63196000  0.06691000  1.0
  H  H28  1  0.59328000  0.34141000  0.81684000  1.0
  H  H29  1  0.53501000  0.28637000  0.91443000  1.0
  H  H30  1  0.44489000  0.31317000  0.86113000  1.0
  H  H31  1  0.47555000  0.36737000  0.93286000  1.0
  H  H32  1  0.40859000  0.65762000  0.81489000  1.0
  H  H33  1  0.46488000  0.71265000  0.91396000  1.0
  H  H34  1  0.55596000  0.68676000  0.86219000  1.0
  H  H35  1  0.63965000  0.93245000  0.51562000  1.0
  H  H36  1  0.52488000  0.63196000  0.93309000  1.0
  H  H37  1  0.40672000  0.34141000  0.18317000  1.0
  H  H38  1  0.46499000  0.28637000  0.08557000  1.0
  H  H39  1  0.55510000  0.31317000  0.13887000  1.0
  H  H40  1  0.52444000  0.36737000  0.06714000  1.0
  H  H41  1  0.22218000  0.61778000  0.49731000  1.0
  H  H42  1  0.77760000  0.38305000  0.49771000  1.0
  H  H43  1  0.08105000  0.68690000  0.49927000  1.0
  H  H44  1  0.91901000  0.31382000  0.49943000  1.0
  H  H45  1  0.55240000  0.60768000  0.28477000  1.0
  C  C46  1  0.50160000  0.49909000  0.63260000  1.0
  C  C47  1  0.53209000  0.43794000  0.81609000  1.0
  C  C48  1  0.47012000  0.56123000  0.81542000  1.0
  C  C49  1  0.46791000  0.43794000  0.18392000  1.0
  C  C50  1  0.49906000  0.49965000  0.14765000  1.0
  C  C51  1  0.50094000  0.49966000  0.85236000  1.0
  C  C52  1  0.49841000  0.49937000  0.29122000  1.0
  C  C53  1  0.50159000  0.49937000  0.70878000  1.0
  C  C54  1  0.57866000  0.50029000  0.03620000  1.0
  C  C55  1  0.42134000  0.50029000  0.96380000  1.0
  C  C56  1  0.57907000  0.49911000  0.96525000  1.0
  C  C57  1  0.49840000  0.49910000  0.36741000  1.0
  C  C58  1  0.42093000  0.49911000  0.03475000  1.0
  C  C59  1  0.50045000  0.49970000  0.92797000  1.0
  C  C60  1  0.49955000  0.49970000  0.07203000  1.0
  C  C61  1  0.44487000  0.27460000  0.45931000  1.0
  C  C62  1  0.55487000  0.72528000  0.54093000  1.0
  C  C63  1  0.55512000  0.27460000  0.54068000  1.0
  C  C64  1  0.44513000  0.72528000  0.45907000  1.0
  C  C65  1  0.44280000  0.19851000  0.45798000  1.0
  C  C66  1  0.55679000  0.80138000  0.54236000  1.0
  C  C67  1  0.55719000  0.19851000  0.54201000  1.0
  C  C68  1  0.95535000  0.63542000  0.50039000  1.0
  C  C69  1  0.44321000  0.80138000  0.45764000  1.0
  C  C70  1  0.50000000  0.15843000  0.50000000  1.0
  C  C71  1  0.50000000  0.84146000  0.50000000  1.0
  C  C72  1  0.67102000  0.50064000  0.50075000  1.0
  C  C73  1  0.32898000  0.50064000  0.49926000  1.0
  C  C74  1  0.57795000  0.03805000  0.50977000  1.0
  C  C75  1  0.42205000  0.96183000  0.49020000  1.0
  C  C76  1  0.42205000  0.03805000  0.49022000  1.0
  C  C77  1  0.57795000  0.96183000  0.50980000  1.0
  C  C78  1  0.50000000  0.92230000  0.50000000  1.0
  C  C79  1  0.04467000  0.36533000  0.50031000  1.0
  C  C80  1  0.50000000  0.07760000  0.50000000  1.0
  C  C81  1  0.18515000  0.43401000  0.50084000  1.0
  C  C82  1  0.81498000  0.56678000  0.50160000  1.0
  C  C83  1  0.23080000  0.50044000  0.49942000  1.0
  C  C84  1  0.76920000  0.50044000  0.50058000  1.0
  C  C85  1  0.18503000  0.56678000  0.49839000  1.0
  C  C86  1  0.81485000  0.43401000  0.49918000  1.0
  C  C87  1  0.09334000  0.56820000  0.49931000  1.0
  C  C88  1  0.90658000  0.43254000  0.49968000  1.0
  C  C89  1  0.04647000  0.50037000  0.49989000  1.0
  C  C90  1  0.52942000  0.56030000  0.25590000  1.0
  C  C91  1  0.95353000  0.50037000  0.50010000  1.0
  C  C92  1  0.09343000  0.43254000  0.50034000  1.0
  C  C93  1  0.90666000  0.56820000  0.50068000  1.0
  C  C94  1  0.04465000  0.63542000  0.49958000  1.0
  C  C95  1  0.95534000  0.36533000  0.49972000  1.0
  C  C96  1  0.50046000  0.66595000  0.10852000  1.0
  C  C97  1  0.50105000  0.33340000  0.89157000  1.0
  C  C98  1  0.49954000  0.66595000  0.89148000  1.0
  C  C99  1  0.49895000  0.33339000  0.10843000  1.0
  C  C100  1  0.53230000  0.43863000  0.74481000  1.0
  C  C101  1  0.47058000  0.56030000  0.74410000  1.0
  C  C102  1  0.46770000  0.43863000  0.25519000  1.0
  C  C103  1  0.52988000  0.56123000  0.18458000  1.0
  N  N104  1  0.50000000  0.31200000  0.50000000  1.0
  N  N105  1  0.50000000  0.68790000  0.50000000  1.0
  N  N106  1  0.56199000  0.62394000  0.15059000  1.0
  N  N107  1  0.56358000  0.37524000  0.85080000  1.0
  N  N108  1  0.43800000  0.62394000  0.84940000  1.0
  N  N109  1  0.43641000  0.37524000  0.14921000  1.0
  O  O110  1  0.52064000  0.43902000  0.60296000  1.0
  O  O111  1  0.51756000  0.55905000  0.39738000  1.0
  O  O112  1  0.47936000  0.43902000  0.39704000  1.0
  O  O113  1  0.48244000  0.55905000  0.60262000  1.0
  O  O114  1  0.63286000  0.44026000  0.48725000  1.0
  O  O115  1  0.36663000  0.56119000  0.48575000  1.0
  O  O116  1  0.36714000  0.44026000  0.51275000  1.0
  O  O117  1  0.63337000  0.56119000  0.51425000  1.0
