# generated using pymatgen
data_CdH24C24(N2O3)2
_symmetry_space_group_name_H-M   'P 1'
_cell_length_a   10.20760000
_cell_length_b   11.53980000
_cell_length_c   12.11841358
_cell_angle_alpha   118.43224536
_cell_angle_beta   114.90297971
_cell_angle_gamma   90.00020000
_symmetry_Int_Tables_number   1
_chemical_formula_structural   CdH24C24(N2O3)2
_chemical_formula_sum   'Cd2 H48 C48 N8 O12'
_cell_volume   1102.02179408
_cell_formula_units_Z   2
loop_
 _symmetry_equiv_pos_site_id
 _symmetry_equiv_pos_as_xyz
  1  'x, y, z'
loop_
 _atom_site_type_symbol
 _atom_site_label
 _atom_site_symmetry_multiplicity
 _atom_site_fract_x
 _atom_site_fract_y
 _atom_site_fract_z
 _atom_site_occupancy
  Cd  Cd0  1  0.10077000  0.50000000  0.00007000  1.0
  Cd  Cd1  1  0.60077000  0.50007000  0.00007000  1.0
  H  H2  1  0.41569000  0.87607000  0.37251000  1.0
  H  H3  1  0.04259000  0.12371000  0.62721000  1.0
  H  H4  1  0.91569000  0.49644000  0.37251000  1.0
  H  H5  1  0.54259000  0.50349000  0.62720000  1.0
  H  H6  1  0.75873000  0.65922000  0.38882000  1.0
  H  H7  1  0.36945000  0.34063000  0.61112000  1.0
  H  H8  1  0.25874000  0.72960000  0.38882000  1.0
  H  H9  1  0.86945000  0.27049000  0.61112000  1.0
  H  H10  1  0.94772000  0.87205000  0.60117000  1.0
  H  H11  1  0.34632000  0.12781000  0.39887000  1.0
  H  H12  1  0.44772000  0.72911000  0.60117000  1.0
  H  H13  1  0.84632000  0.27107000  0.39887000  1.0
  H  H14  1  0.60405000  0.09026000  0.58147000  1.0
  H  H15  1  0.02212000  0.90961000  0.41836000  1.0
  H  H16  1  0.10404000  0.49121000  0.58147000  1.0
  H  H17  1  0.52212000  0.50875000  0.41836000  1.0
  H  H18  1  0.85215000  0.70223000  0.98908000  1.0
  H  H19  1  0.86321000  0.29736000  0.01080000  1.0
  H  H20  1  0.35215000  0.28686000  0.98908000  1.0
  H  H21  1  0.36321000  0.71344000  0.01080000  1.0
  H  H22  1  0.12576000  0.59846000  0.79387000  1.0
  H  H23  1  0.33196000  0.40180000  0.20639000  1.0
  H  H24  1  0.62576000  0.19541000  0.79387000  1.0
  H  H25  1  0.83196000  0.80459000  0.20638000  1.0
  H  H26  1  0.93566000  0.73978000  0.69203000  1.0
  H  H27  1  0.24392000  0.26056000  0.30842000  1.0
  H  H28  1  0.43566000  0.95224000  0.69203000  1.0
  H  H29  1  0.74392000  0.04786000  0.30842000  1.0
  H  H30  1  0.66751000  0.78837000  0.84079000  1.0
  H  H31  1  0.82688000  0.21145000  0.15918000  1.0
  H  H32  1  0.16751000  0.05242000  0.84079000  1.0
  H  H33  1  0.32688000  0.94773000  0.15918000  1.0
  H  H34  1  0.69658000  0.79581000  0.70931000  1.0
  H  H35  1  0.98736000  0.20420000  0.29085000  1.0
  H  H36  1  0.19658000  0.91349000  0.70931000  1.0
  H  H37  1  0.48736000  0.08665000  0.29085000  1.0
  H  H38  1  0.72581000  0.02571000  0.89869000  1.0
  H  H39  1  0.82747000  0.97424000  0.10169000  1.0
  H  H40  1  0.22581000  0.87298000  0.89869000  1.0
  H  H41  1  0.32747000  0.12744000  0.10169000  1.0
  H  H42  1  0.89414000  0.00907000  0.89225000  1.0
  H  H43  1  0.00208000  0.99074000  0.10779000  1.0
  H  H44  1  0.39414000  0.88319000  0.89226000  1.0
  H  H45  1  0.50208000  0.11705000  0.10779000  1.0
  H  H46  1  0.85940000  0.19248000  0.75064000  1.0
  H  H47  1  0.10866000  0.80733000  0.24922000  1.0
  H  H48  1  0.35940000  0.55815000  0.75064000  1.0
  H  H49  1  0.60866000  0.44190000  0.24923000  1.0
  C  C50  1  0.45769000  0.62786000  0.23769000  1.0
  C  C51  1  0.21961000  0.37201000  0.76224000  1.0
  C  C52  1  0.95770000  0.60983000  0.23769000  1.0
  C  C53  1  0.71961000  0.39023000  0.76224000  1.0
  C  C54  1  0.57309000  0.75234000  0.36919000  1.0
  C  C55  1  0.20331000  0.24751000  0.63061000  1.0
  C  C56  1  0.07310000  0.61684000  0.36919000  1.0
  C  C57  1  0.70332000  0.38310000  0.63061000  1.0
  C  C58  1  0.53226000  0.87552000  0.42528000  1.0
  C  C59  1  0.10643000  0.12431000  0.57448000  1.0
  C  C60  1  0.03227000  0.54976000  0.42528000  1.0
  C  C61  1  0.60643000  0.45017000  0.57448000  1.0
  C  C62  1  0.72399000  0.75244000  0.43424000  1.0
  C  C63  1  0.28920000  0.24743000  0.56559000  1.0
  C  C64  1  0.22399000  0.68181000  0.43424000  1.0
  C  C65  1  0.78920000  0.31816000  0.56559000  1.0
  C  C66  1  0.83012000  0.87131000  0.55268000  1.0
  C  C67  1  0.27699000  0.12857000  0.44718000  1.0
  C  C68  1  0.33013000  0.68137000  0.55268000  1.0
  C  C69  1  0.77700000  0.31861000  0.44718000  1.0
  C  C70  1  0.63775000  0.99528000  0.54245000  1.0
  C  C71  1  0.09481000  0.00455000  0.45728000  1.0
  C  C72  1  0.13775000  0.54717000  0.54245000  1.0
  C  C73  1  0.59481000  0.45273000  0.45728000  1.0
  C  C74  1  0.78856000  0.99441000  0.60884000  1.0
  C  C75  1  0.17934000  0.00541000  0.39095000  1.0
  C  C76  1  0.28856000  0.61443000  0.60884000  1.0
  C  C77  1  0.67934000  0.38554000  0.39095000  1.0
  C  C78  1  0.90321000  0.69506000  0.92458000  1.0
  C  C79  1  0.97877000  0.30467000  0.07538000  1.0
  C  C80  1  0.40321000  0.22952000  0.92458000  1.0
  C  C81  1  0.47877000  0.77071000  0.07538000  1.0
  C  C82  1  0.04178000  0.64307000  0.81984000  1.0
  C  C83  1  0.22205000  0.35699000  0.18033000  1.0
  C  C84  1  0.54178000  0.17677000  0.81984000  1.0
  C  C85  1  0.72205000  0.82334000  0.18033000  1.0
  C  C86  1  0.95000000  0.71312000  0.77007000  1.0
  C  C87  1  0.18015000  0.28703000  0.23023000  1.0
  C  C88  1  0.45000000  0.05694000  0.77006000  1.0
  C  C89  1  0.68014000  0.94319000  0.23022000  1.0
  C  C90  1  0.75126000  0.82316000  0.82128000  1.0
  C  C91  1  0.93019000  0.17674000  0.17885000  1.0
  C  C92  1  0.25126000  0.99812000  0.82128000  1.0
  C  C93  1  0.43019000  0.00212000  0.17885000  1.0
  C  C94  1  0.81826000  0.97678000  0.92099000  1.0
  C  C95  1  0.89748000  0.02309000  0.07920000  1.0
  C  C96  1  0.31826000  0.94421000  0.92099000  1.0
  C  C97  1  0.39748000  0.05611000  0.07920000  1.0
  N  N98  1  0.01163000  0.63298000  0.91623000  1.0
  N  N99  1  0.09550000  0.36685000  0.08377000  1.0
  N  N100  1  0.51163000  0.28325000  0.91623000  1.0
  N  N101  1  0.59550000  0.71692000  0.08377000  1.0
  N  N102  1  0.86301000  0.74497000  0.83731000  1.0
  N  N103  1  0.02591000  0.25492000  0.16281000  1.0
  N  N104  1  0.36301000  0.09233000  0.83730000  1.0
  N  N105  1  0.52591000  0.90789000  0.16281000  1.0
  O  O106  1  0.49522000  0.51643000  0.18128000  1.0
  O  O107  1  0.31341000  0.48348000  0.81853000  1.0
  O  O108  1  0.99522000  0.66486000  0.18128000  1.0
  O  O109  1  0.81341000  0.33505000  0.81853000  1.0
  O  O110  1  0.32510000  0.64104000  0.18665000  1.0
  O  O111  1  0.13830000  0.35872000  0.81347000  1.0
  O  O112  1  0.82510000  0.54561000  0.18665000  1.0
  O  O113  1  0.63831000  0.45474000  0.81347000  1.0
  O  O114  1  0.89681000  0.10671000  0.72380000  1.0
  O  O115  1  0.17287000  0.89319000  0.27611000  1.0
  O  O116  1  0.39681000  0.61709000  0.72380000  1.0
  O  O117  1  0.67287000  0.38292000  0.27611000  1.0
