# generated using pymatgen
data_LaH10C6O11
_symmetry_space_group_name_H-M   'P 1'
_cell_length_a   6.23533000
_cell_length_b   7.35094000
_cell_length_c   12.32210000
_cell_angle_alpha   73.84300000
_cell_angle_beta   88.15510000
_cell_angle_gamma   89.41250000
_symmetry_Int_Tables_number   1
_chemical_formula_structural   LaH10C6O11
_chemical_formula_sum   'La2 H20 C12 O22'
_cell_volume   542.20074283
_cell_formula_units_Z   2
loop_
 _symmetry_equiv_pos_site_id
 _symmetry_equiv_pos_as_xyz
  1  'x, y, z'
loop_
 _atom_site_type_symbol
 _atom_site_label
 _atom_site_symmetry_multiplicity
 _atom_site_fract_x
 _atom_site_fract_y
 _atom_site_fract_z
 _atom_site_occupancy
  La  La0  1  0.59563000  0.07597000  0.55988000  1.0
  La  La1  1  0.75122000  0.76392000  0.13863000  1.0
  H  H2  1  0.14062000  0.60310000  0.40821000  1.0
  H  H3  1  0.02287000  0.59936000  0.59018000  1.0
  H  H4  1  0.22263000  0.15640000  0.29328000  1.0
  H  H5  1  0.32502000  0.32947000  0.10806000  1.0
  H  H6  1  0.32278000  0.63430000  0.92923000  1.0
  H  H7  1  0.04902000  0.63136000  0.77003000  1.0
  H  H8  1  0.86505000  0.92503000  0.33366000  1.0
  H  H9  1  0.68391000  0.65281000  0.61715000  1.0
  H  H10  1  0.49368000  0.41217000  0.36466000  1.0
  H  H11  1  0.68046000  0.38605000  0.09052000  1.0
  H  H12  1  0.55768000  0.35438000  0.93978000  1.0
  H  H13  1  0.15235000  0.24354000  0.86287000  1.0
  H  H14  1  0.23082000  0.30060000  0.68121000  1.0
  H  H15  1  0.15612000  0.19197000  0.59312000  1.0
  H  H16  1  0.62593000  0.29937000  0.74466000  1.0
  H  H17  1  0.84760000  0.20724000  0.75981000  1.0
  H  H18  1  0.43844000  0.02448000  0.97177000  1.0
  H  H19  1  0.62146000  0.02400000  0.88111000  1.0
  H  H20  1  0.00641000  0.14060000  0.04911000  1.0
  H  H21  1  0.16954000  0.97102000  0.11236000  1.0
  C  C22  1  0.80416000  0.53042000  0.41745000  1.0
  C  C23  1  0.98516000  0.67315000  0.41252000  1.0
  C  C24  1  0.96286000  0.72409000  0.52582000  1.0
  C  C25  1  0.09695000  0.89409000  0.53244000  1.0
  C  C26  1  0.56022000  0.09741000  0.28028000  1.0
  C  C27  1  0.37542000  0.23317000  0.28632000  1.0
  C  C28  1  0.38709000  0.38909000  0.17325000  1.0
  C  C29  1  0.25116000  0.56274000  0.17457000  1.0
  C  C30  1  0.46577000  0.63528000  0.76948000  1.0
  C  C31  1  0.32654000  0.53881000  0.87428000  1.0
  C  C32  1  0.09341000  0.51097000  0.84098000  1.0
  C  C33  1  0.93102000  0.50945000  0.93871000  1.0
  O  O34  1  0.79605000  0.38227000  0.49921000  1.0
  O  O35  1  0.66688000  0.57414000  0.33951000  1.0
  O  O36  1  0.97078000  0.83117000  0.31492000  1.0
  O  O37  1  0.74394000  0.75756000  0.55002000  1.0
  O  O38  1  0.99710000  0.02241000  0.56648000  1.0
  O  O39  1  0.29436000  0.89463000  0.50801000  1.0
  O  O40  1  0.69480000  0.06602000  0.35929000  1.0
  O  O41  1  0.57405000  0.03097000  0.19607000  1.0
  O  O42  1  0.38897000  0.30138000  0.38311000  1.0
  O  O43  1  0.60316000  0.44906000  0.14367000  1.0
  O  O44  1  0.34666000  0.72055000  0.15777000  1.0
  O  O45  1  0.05111000  0.53598000  0.18977000  1.0
  O  O46  1  0.45641000  0.81324000  0.73395000  1.0
  O  O47  1  0.58130000  0.52806000  0.72525000  1.0
  O  O48  1  0.40058000  0.35365000  0.93117000  1.0
  O  O49  1  0.08390000  0.34277000  0.80354000  1.0
  O  O50  1  0.90054000  0.66510000  0.96025000  1.0
  O  O51  1  0.83843000  0.35163000  0.98944000  1.0
  O  O52  1  0.28138000  0.25389000  0.61742000  1.0
  O  O53  1  0.69900000  0.17509000  0.74788000  1.0
  O  O54  1  0.57056000  0.95973000  0.95982000  1.0
  O  O55  1  0.05843000  0.01050000  0.05543000  1.0
