# generated using pymatgen
data_CuH22C16N2O7
_symmetry_space_group_name_H-M   'P 1'
_cell_length_a   8.79334000
_cell_length_b   9.94121000
_cell_length_c   10.44690000
_cell_angle_alpha   75.15540000
_cell_angle_beta   81.51060000
_cell_angle_gamma   85.96210000
_symmetry_Int_Tables_number   1
_chemical_formula_structural   CuH22C16N2O7
_chemical_formula_sum   'Cu2 H44 C32 N4 O14'
_cell_volume   872.57133587
_cell_formula_units_Z   2
loop_
 _symmetry_equiv_pos_site_id
 _symmetry_equiv_pos_as_xyz
  1  'x, y, z'
loop_
 _atom_site_type_symbol
 _atom_site_label
 _atom_site_symmetry_multiplicity
 _atom_site_fract_x
 _atom_site_fract_y
 _atom_site_fract_z
 _atom_site_occupancy
  Cu  Cu0  1  0.44240000  0.90577000  0.45892000  1.0
  Cu  Cu1  1  0.55760000  0.09424000  0.54108000  1.0
  H  H2  1  0.42564000  0.58878000  0.49836000  1.0
  H  H3  1  0.57437000  0.41122000  0.50163000  1.0
  H  H4  1  0.32764000  0.41860000  0.39154000  1.0
  H  H5  1  0.67236000  0.58141000  0.60846000  1.0
  H  H6  1  0.14831000  0.77346000  0.11188000  1.0
  H  H7  1  0.85169000  0.22655000  0.88812000  1.0
  H  H8  1  0.26171000  0.92604000  0.22857000  1.0
  H  H9  1  0.73829000  0.07396000  0.77143000  1.0
  H  H10  1  0.02893000  0.37252000  0.03115000  1.0
  H  H11  1  0.97107000  0.62748000  0.96885000  1.0
  H  H12  1  0.88112000  0.30838000  0.16487000  1.0
  H  H13  1  0.11888000  0.69162000  0.83513000  1.0
  H  H14  1  0.98662000  0.50935000  0.37529000  1.0
  H  H15  1  0.01338000  0.49065000  0.62471000  1.0
  H  H16  1  0.87887000  0.36283000  0.38041000  1.0
  H  H17  1  0.12113000  0.63717000  0.61959000  1.0
  H  H18  1  0.74006000  0.50424000  0.19596000  1.0
  H  H19  1  0.25994000  0.49576000  0.80404000  1.0
  H  H20  1  0.71579000  0.57410000  0.33935000  1.0
  H  H21  1  0.28421000  0.42590000  0.66065000  1.0
  H  H22  1  0.65394000  0.79519000  0.18401000  1.0
  H  H23  1  0.34606000  0.20481000  0.81599000  1.0
  H  H24  1  0.69607000  0.71031000  0.05026000  1.0
  H  H25  1  0.30393000  0.28969000  0.94974000  1.0
  H  H26  1  0.92987000  0.71265000  0.47390000  1.0
  H  H27  1  0.07012000  0.28734000  0.52610000  1.0
  H  H28  1  0.01631000  0.87383000  0.46839000  1.0
  H  H29  1  0.98368000  0.12616000  0.53160000  1.0
  H  H30  1  0.95420000  0.84228000  0.32307000  1.0
  H  H31  1  0.04580000  0.15771000  0.67693000  1.0
  H  H32  1  0.32291000  0.69916000  0.90385000  1.0
  H  H33  1  0.67709000  0.30084000  0.09615000  1.0
  H  H34  1  0.44346000  0.81143000  0.95101000  1.0
  H  H35  1  0.55654000  0.18857000  0.04898000  1.0
  H  H36  1  0.52243000  0.66596000  0.88965000  1.0
  H  H37  1  0.47757000  0.33404000  0.11035000  1.0
  H  H38  1  0.21772000  0.20167000  0.16379000  1.0
  H  H39  1  0.78229000  0.79832000  0.83621000  1.0
  H  H40  1  0.05454000  0.12501000  0.27304000  1.0
  H  H41  1  0.94547000  0.87499000  0.72696000  1.0
  H  H42  1  0.86110000  0.96091000  0.08441000  1.0
  H  H43  1  0.13890000  0.03909000  0.91559000  1.0
  H  H44  1  0.71413000  0.96705000  0.98170000  1.0
  H  H45  1  0.28587000  0.03294000  0.01830000  1.0
  C  C46  1  0.36569000  0.62412000  0.41087000  1.0
  C  C47  1  0.63431000  0.37588000  0.58913000  1.0
  C  C48  1  0.30925000  0.53046000  0.35208000  1.0
  C  C49  1  0.69075000  0.46955000  0.64792000  1.0
  C  C50  1  0.22979000  0.58371000  0.24206000  1.0
  C  C51  1  0.77021000  0.41630000  0.75794000  1.0
  C  C52  1  0.21206000  0.72814000  0.19539000  1.0
  C  C53  1  0.78794000  0.27187000  0.80461000  1.0
  C  C54  1  0.27347000  0.81305000  0.26043000  1.0
  C  C55  1  0.72653000  0.18696000  0.73957000  1.0
  C  C56  1  0.17923000  0.48801000  0.16735000  1.0
  C  C57  1  0.82077000  0.51200000  0.83265000  1.0
  C  C58  1  0.00486000  0.32534000  0.13888000  1.0
  C  C59  1  0.99515000  0.67465000  0.86112000  1.0
  C  C60  1  0.92928000  0.45848000  0.31473000  1.0
  C  C61  1  0.07072000  0.54151000  0.68528000  1.0
  C  C62  1  0.80036000  0.55405000  0.25643000  1.0
  C  C63  1  0.19964000  0.44595000  0.74357000  1.0
  C  C64  1  0.74649000  0.76828000  0.10982000  1.0
  C  C65  1  0.25352000  0.23172000  0.89019000  1.0
  C  C66  1  0.76998000  0.88687000  0.46314000  1.0
  C  C67  1  0.23001000  0.11313000  0.53686000  1.0
  C  C68  1  0.92873000  0.82568000  0.43199000  1.0
  C  C69  1  0.07126000  0.17430000  0.56801000  1.0
  C  C70  1  0.45337000  0.84005000  0.73862000  1.0
  C  C71  1  0.54663000  0.15996000  0.26138000  1.0
  C  C72  1  0.43344000  0.75013000  0.87953000  1.0
  C  C73  1  0.56655000  0.24987000  0.12047000  1.0
  C  C74  1  0.09399000  0.18523000  0.17085000  1.0
  C  C75  1  0.90602000  0.81477000  0.82915000  1.0
  C  C76  1  0.81205000  0.90381000  0.02398000  1.0
  C  C77  1  0.18795000  0.09619000  0.97602000  1.0
  N  N78  1  0.34866000  0.76266000  0.36660000  1.0
  N  N79  1  0.65134000  0.23734000  0.63340000  1.0
  N  N80  1  0.04539000  0.42119000  0.21305000  1.0
  N  N81  1  0.95461000  0.57881000  0.78696000  1.0
  O  O82  1  0.65780000  0.82469000  0.44144000  1.0
  O  O83  1  0.34219000  0.17530000  0.55855000  1.0
  O  O84  1  0.76048000  0.99675000  0.50574000  1.0
  O  O85  1  0.23951000  0.00325000  0.49425000  1.0
  O  O86  1  0.41071000  0.79084000  0.64851000  1.0
  O  O87  1  0.58928000  0.20917000  0.35149000  1.0
  O  O88  1  0.26650000  0.47000000  0.06724000  1.0
  O  O89  1  0.73350000  0.53001000  0.93276000  1.0
  O  O90  1  0.86261000  0.68158000  0.17665000  1.0
  O  O91  1  0.13739000  0.31841000  0.82335000  1.0
  O  O92  1  0.06515000  0.10568000  0.08100000  1.0
  O  O93  1  0.93486000  0.89431000  0.91900000  1.0
  O  O94  1  0.51343000  0.95792000  0.71986000  1.0
  O  O95  1  0.48657000  0.04209000  0.28014000  1.0
