# generated using pymatgen
data_CdP2H12C10(NO4)2
_symmetry_space_group_name_H-M   'P 1'
_cell_length_a   10.85830000
_cell_length_b   10.85830000
_cell_length_c   13.73060000
_cell_angle_alpha   98.83160000
_cell_angle_beta   98.83150000
_cell_angle_gamma   111.51300000
_symmetry_Int_Tables_number   1
_chemical_formula_structural   CdP2H12C10(NO4)2
_chemical_formula_sum   'Cd4 P8 H48 C40 N8 O32'
_cell_volume   1448.95263596
_cell_formula_units_Z   4
loop_
 _symmetry_equiv_pos_site_id
 _symmetry_equiv_pos_as_xyz
  1  'x, y, z'
loop_
 _atom_site_type_symbol
 _atom_site_label
 _atom_site_symmetry_multiplicity
 _atom_site_fract_x
 _atom_site_fract_y
 _atom_site_fract_z
 _atom_site_occupancy
  Cd  Cd0  1  0.63941000  0.56318000  0.37908000  1.0
  Cd  Cd1  1  0.56318000  0.63941000  0.87908000  1.0
  Cd  Cd2  1  0.36059000  0.43682000  0.62092000  1.0
  Cd  Cd3  1  0.43682000  0.36059000  0.12092000  1.0
  P  P4  1  0.68280000  0.64943000  0.64527000  1.0
  P  P5  1  0.64943000  0.68280000  0.14527000  1.0
  P  P6  1  0.31720000  0.35057000  0.35473000  1.0
  P  P7  1  0.35057000  0.31720000  0.85473000  1.0
  P  P8  1  0.49129000  0.80452000  0.43081000  1.0
  P  P9  1  0.80452000  0.49129000  0.93080000  1.0
  P  P10  1  0.50871000  0.19547000  0.56919000  1.0
  P  P11  1  0.19548000  0.50871000  0.06920000  1.0
  H  H12  1  0.35210000  0.59541000  0.43531000  1.0
  H  H13  1  0.59541000  0.35210000  0.93531000  1.0
  H  H14  1  0.64790000  0.40459000  0.56469000  1.0
  H  H15  1  0.40459000  0.64790000  0.06469000  1.0
  H  H16  1  0.45580000  0.99005000  0.40746000  1.0
  H  H17  1  0.99005000  0.45580000  0.90746000  1.0
  H  H18  1  0.54420000  0.00995000  0.59254000  1.0
  H  H19  1  0.00995000  0.54420000  0.09254000  1.0
  H  H20  1  0.65879000  0.82629000  0.59280000  1.0
  H  H21  1  0.82629000  0.65879000  0.09281000  1.0
  H  H22  1  0.34121000  0.17371000  0.40719000  1.0
  H  H23  1  0.17371000  0.34121000  0.90720000  1.0
  H  H24  1  0.78886000  0.62187000  0.78488000  1.0
  H  H25  1  0.62187000  0.78885000  0.28488000  1.0
  H  H26  1  0.21115000  0.37813000  0.21512000  1.0
  H  H27  1  0.37813000  0.21115000  0.71512000  1.0
  H  H28  1  0.83465000  0.88186000  0.41322000  1.0
  H  H29  1  0.88187000  0.83465000  0.91322000  1.0
  H  H30  1  0.16535000  0.11814000  0.58678000  1.0
  H  H31  1  0.11814000  0.16535000  0.08678000  1.0
  H  H32  1  0.06704000  0.02425000  0.38930000  1.0
  H  H33  1  0.02424000  0.06704000  0.88930000  1.0
  H  H34  1  0.93296000  0.97575000  0.61070000  1.0
  H  H35  1  0.97576000  0.93296000  0.11071000  1.0
  H  H36  1  0.21972000  0.90686000  0.35138000  1.0
  H  H37  1  0.90686000  0.21971000  0.85138000  1.0
  H  H38  1  0.78029000  0.09314000  0.64862000  1.0
  H  H39  1  0.09314000  0.78029000  0.14863000  1.0
  H  H40  1  0.14006000  0.65925000  0.33699000  1.0
  H  H41  1  0.65925000  0.14006000  0.83699000  1.0
  H  H42  1  0.85994000  0.34075000  0.66301000  1.0
  H  H43  1  0.34075000  0.85994000  0.16301000  1.0
  H  H44  1  0.08875000  0.47456000  0.37667000  1.0
  H  H45  1  0.47456000  0.08875000  0.87667000  1.0
  H  H46  1  0.91125000  0.52544000  0.62333000  1.0
  H  H47  1  0.52544000  0.91125000  0.12333000  1.0
  H  H48  1  0.99578000  0.23150000  0.37935000  1.0
  H  H49  1  0.23150000  0.99578000  0.87935000  1.0
  H  H50  1  0.00422000  0.76850000  0.62065000  1.0
  H  H51  1  0.76850000  0.00422000  0.12065000  1.0
  H  H52  1  0.74509000  0.11216000  0.37510000  1.0
  H  H53  1  0.11216000  0.74509000  0.87510000  1.0
  H  H54  1  0.25491000  0.88784000  0.62490000  1.0
  H  H55  1  0.88784000  0.25491000  0.12490000  1.0
  H  H56  1  0.60231000  0.24740000  0.36611000  1.0
  H  H57  1  0.24740000  0.60231000  0.86611000  1.0
  H  H58  1  0.39769000  0.75260000  0.63389000  1.0
  H  H59  1  0.75260000  0.39769000  0.13389000  1.0
  C  C60  1  0.90662000  0.83751000  0.39721000  1.0
  C  C61  1  0.83750000  0.90662000  0.89721000  1.0
  C  C62  1  0.09337000  0.16250000  0.60279000  1.0
  C  C63  1  0.16250000  0.09338000  0.10279000  1.0
  C  C64  1  0.03441000  0.91550000  0.38414000  1.0
  C  C65  1  0.91551000  0.03441000  0.88413000  1.0
  C  C66  1  0.96559000  0.08450000  0.61586000  1.0
  C  C67  1  0.08450000  0.96559000  0.11587000  1.0
  C  C68  1  0.11918000  0.84998000  0.36252000  1.0
  C  C69  1  0.84998000  0.11917000  0.86252000  1.0
  C  C70  1  0.88082000  0.15002000  0.63748000  1.0
  C  C71  1  0.15003000  0.88083000  0.13748000  1.0
  C  C72  1  0.07446000  0.71046000  0.35482000  1.0
  C  C73  1  0.71046000  0.07446000  0.85482000  1.0
  C  C74  1  0.92554000  0.28954000  0.64518000  1.0
  C  C75  1  0.28954000  0.92554000  0.14518000  1.0
  C  C76  1  0.94572000  0.63899000  0.37080000  1.0
  C  C77  1  0.63898000  0.94572000  0.87080000  1.0
  C  C78  1  0.05428000  0.36102000  0.62920000  1.0
  C  C79  1  0.36102000  0.05428000  0.12920000  1.0
  C  C80  1  0.89478000  0.49138000  0.36958000  1.0
  C  C81  1  0.49138000  0.89478000  0.86958000  1.0
  C  C82  1  0.10522000  0.50862000  0.63042000  1.0
  C  C83  1  0.50862000  0.10522000  0.13042000  1.0
  C  C84  1  0.98138000  0.42263000  0.37421000  1.0
  C  C85  1  0.42262000  0.98138000  0.87421000  1.0
  C  C86  1  0.01862000  0.57737000  0.62579000  1.0
  C  C87  1  0.57737000  0.01862000  0.12579000  1.0
  C  C88  1  0.92866000  0.28539000  0.37633000  1.0
  C  C89  1  0.28539000  0.92867000  0.87634000  1.0
  C  C90  1  0.07134000  0.71461000  0.62366000  1.0
  C  C91  1  0.71461000  0.07133000  0.12366000  1.0
  C  C92  1  0.79105000  0.21940000  0.37401000  1.0
  C  C93  1  0.21940000  0.79105000  0.87401000  1.0
  C  C94  1  0.20895000  0.78060000  0.62599000  1.0
  C  C95  1  0.78060000  0.20895000  0.12599000  1.0
  C  C96  1  0.71071000  0.29404000  0.36881000  1.0
  C  C97  1  0.29404000  0.71071000  0.86881000  1.0
  C  C98  1  0.28929000  0.70596000  0.63119000  1.0
  C  C99  1  0.70596000  0.28929000  0.13119000  1.0
  N  N100  1  0.86391000  0.70345000  0.39084000  1.0
  N  N101  1  0.70345000  0.86391000  0.89084000  1.0
  N  N102  1  0.13609000  0.29655000  0.60916000  1.0
  N  N103  1  0.29655000  0.13609000  0.10916000  1.0
  N  N104  1  0.76150000  0.42597000  0.36681000  1.0
  N  N105  1  0.42597000  0.76150000  0.86681000  1.0
  N  N106  1  0.23850000  0.57403000  0.63319000  1.0
  N  N107  1  0.57403000  0.23850000  0.13319000  1.0
  O  O108  1  0.58372000  0.74953000  0.38124000  1.0
  O  O109  1  0.74953000  0.58372000  0.88123000  1.0
  O  O110  1  0.41628000  0.25047000  0.61876000  1.0
  O  O111  1  0.25047000  0.41628000  0.11876000  1.0
  O  O112  1  0.65511000  0.54428000  0.54697000  1.0
  O  O113  1  0.54428000  0.65511000  0.04697000  1.0
  O  O114  1  0.34489000  0.45572000  0.45303000  1.0
  O  O115  1  0.45572000  0.34489000  0.95303000  1.0
  O  O116  1  0.55948000  0.61675000  0.69365000  1.0
  O  O117  1  0.61675000  0.55948000  0.19365000  1.0
  O  O118  1  0.44052000  0.38324000  0.30635000  1.0
  O  O119  1  0.38324000  0.44052000  0.80635000  1.0
  O  O120  1  0.34966000  0.68441000  0.41995000  1.0
  O  O121  1  0.68441000  0.34966000  0.91995000  1.0
  O  O122  1  0.65034000  0.31559000  0.58005000  1.0
  O  O123  1  0.31559000  0.65034000  0.08005000  1.0
  O  O124  1  0.45849000  0.90283000  0.36817000  1.0
  O  O125  1  0.90283000  0.45849000  0.86817000  1.0
  O  O126  1  0.54151000  0.09717000  0.63183000  1.0
  O  O127  1  0.09717000  0.54151000  0.13183000  1.0
  O  O128  1  0.73218000  0.79723000  0.62555000  1.0
  O  O129  1  0.79722000  0.73218000  0.12555000  1.0
  O  O130  1  0.26782000  0.20277000  0.37445000  1.0
  O  O131  1  0.20277000  0.26782000  0.87445000  1.0
  O  O132  1  0.81043000  0.65581000  0.72121000  1.0
  O  O133  1  0.65581000  0.81043000  0.22121000  1.0
  O  O134  1  0.18957000  0.34419000  0.27879000  1.0
  O  O135  1  0.34419000  0.18957000  0.77879000  1.0
  O  O136  1  0.55594000  0.87848000  0.54236000  1.0
  O  O137  1  0.87848000  0.55594000  0.04236000  1.0
  O  O138  1  0.44406000  0.12152000  0.45764000  1.0
  O  O139  1  0.12152000  0.44406000  0.95764000  1.0
