# generated using pymatgen
data_ZnH9C15N3O4
_symmetry_space_group_name_H-M   'P 1'
_cell_length_a   8.37648000
_cell_length_b   10.97990000
_cell_length_c   14.77120000
_cell_angle_alpha   90.00010000
_cell_angle_beta   90.05650000
_cell_angle_gamma   89.99990000
_symmetry_Int_Tables_number   1
_chemical_formula_structural   ZnH9C15N3O4
_chemical_formula_sum   'Zn4 H36 C60 N12 O16'
_cell_volume   1358.54962830
_cell_formula_units_Z   4
loop_
 _symmetry_equiv_pos_site_id
 _symmetry_equiv_pos_as_xyz
  1  'x, y, z'
loop_
 _atom_site_type_symbol
 _atom_site_label
 _atom_site_symmetry_multiplicity
 _atom_site_fract_x
 _atom_site_fract_y
 _atom_site_fract_z
 _atom_site_occupancy
  Zn  Zn0  1  0.60060000  0.65064000  0.51928000  1.0
  Zn  Zn1  1  0.89940000  0.15064000  0.98072000  1.0
  Zn  Zn2  1  0.39940000  0.34936000  0.48072000  1.0
  Zn  Zn3  1  0.10060000  0.84936000  0.01928000  1.0
  H  H4  1  0.33080000  0.90861000  0.33065000  1.0
  H  H5  1  0.16921000  0.40861000  0.16935000  1.0
  H  H6  1  0.66920000  0.09139000  0.66935000  1.0
  H  H7  1  0.83080000  0.59138000  0.83065000  1.0
  H  H8  1  0.78901000  0.79755000  0.23048000  1.0
  H  H9  1  0.71100000  0.29755000  0.26952000  1.0
  H  H10  1  0.21099000  0.20245000  0.76951000  1.0
  H  H11  1  0.28901000  0.70245000  0.73048000  1.0
  H  H12  1  0.51179000  0.05907000  0.08101000  1.0
  H  H13  1  0.98821000  0.55907000  0.41899000  1.0
  H  H14  1  0.48821000  0.94093000  0.91899000  1.0
  H  H15  1  0.01179000  0.44093000  0.58101000  1.0
  H  H16  1  0.27124000  0.14185000  0.14428000  1.0
  H  H17  1  0.22877000  0.64185000  0.35572000  1.0
  H  H18  1  0.72877000  0.85815000  0.85572000  1.0
  H  H19  1  0.77123000  0.35815000  0.64428000  1.0
  H  H20  1  0.15109000  0.01820000  0.17741000  1.0
  H  H21  1  0.34891000  0.51820000  0.32259000  1.0
  H  H22  1  0.84891000  0.98180000  0.82259000  1.0
  H  H23  1  0.65109000  0.48180000  0.67741000  1.0
  H  H24  1  0.92306000  0.99213000  0.26583000  1.0
  H  H25  1  0.57694000  0.49213000  0.23417000  1.0
  H  H26  1  0.07694000  0.00787000  0.73417000  1.0
  H  H27  1  0.42306000  0.50787000  0.76583000  1.0
  H  H28  1  0.72010000  0.01400000  0.38821000  1.0
  H  H29  1  0.77990000  0.51400000  0.11179000  1.0
  H  H30  1  0.27990000  0.98600000  0.61179000  1.0
  H  H31  1  0.22009000  0.48600000  0.88821000  1.0
  H  H32  1  0.76946000  0.14230000  0.52237000  1.0
  H  H33  1  0.73054000  0.64230000  0.97763000  1.0
  H  H34  1  0.23054000  0.85770000  0.47763000  1.0
  H  H35  1  0.26946000  0.35770000  0.02237000  1.0
  H  H36  1  0.03153000  0.25034000  0.54335000  1.0
  H  H37  1  0.46847000  0.75034000  0.95665000  1.0
  H  H38  1  0.96847000  0.74966000  0.45665000  1.0
  H  H39  1  0.53153000  0.24966000  0.04335000  1.0
  C  C40  1  0.40371000  0.99223000  0.20416000  1.0
  C  C41  1  0.09629000  0.49222000  0.29584000  1.0
  C  C42  1  0.59629000  0.00778000  0.79584000  1.0
  C  C43  1  0.90372000  0.50777000  0.70416000  1.0
  C  C44  1  0.42231000  0.91411000  0.27830000  1.0
  C  C45  1  0.07769000  0.41411000  0.22170000  1.0
  C  C46  1  0.57769000  0.08589000  0.72169000  1.0
  C  C47  1  0.92232000  0.58589000  0.77830000  1.0
  C  C48  1  0.56075000  0.84405000  0.28782000  1.0
  C  C49  1  0.93925000  0.34405000  0.21218000  1.0
  C  C50  1  0.43925000  0.15595000  0.71218000  1.0
  C  C51  1  0.06075000  0.65594000  0.78781000  1.0
  C  C52  1  0.68076000  0.85131000  0.22228000  1.0
  C  C53  1  0.81925000  0.35131000  0.27772000  1.0
  C  C54  1  0.31924000  0.14869000  0.77772000  1.0
  C  C55  1  0.18076000  0.64869000  0.72228000  1.0
  C  C56  1  0.66255000  0.92854000  0.14794000  1.0
  C  C57  1  0.83746000  0.42854000  0.35207000  1.0
  C  C58  1  0.33745000  0.07146000  0.85206000  1.0
  C  C59  1  0.16255000  0.57146000  0.64794000  1.0
  C  C60  1  0.52354000  0.99846000  0.13886000  1.0
  C  C61  1  0.97646000  0.49846000  0.36114000  1.0
  C  C62  1  0.47646000  0.00154000  0.86114000  1.0
  C  C63  1  0.02355000  0.50153000  0.63886000  1.0
  C  C64  1  0.25704000  0.07146000  0.19625000  1.0
  C  C65  1  0.24296000  0.57146000  0.30375000  1.0
  C  C66  1  0.74296000  0.92854000  0.80375000  1.0
  C  C67  1  0.75704000  0.42853000  0.69625000  1.0
  C  C68  1  0.11743000  0.18766000  0.41286000  1.0
  C  C69  1  0.38257000  0.68766000  0.08715000  1.0
  C  C70  1  0.88257000  0.81234000  0.58715000  1.0
  C  C71  1  0.61743000  0.31234000  0.91285000  1.0
  C  C72  1  0.08679000  0.11473000  0.33597000  1.0
  C  C73  1  0.41321000  0.61472000  0.16403000  1.0
  C  C74  1  0.91322000  0.88528000  0.66403000  1.0
  C  C75  1  0.58678000  0.38528000  0.83597000  1.0
  C  C76  1  0.94496000  0.04873000  0.32512000  1.0
  C  C77  1  0.55504000  0.54873000  0.17488000  1.0
  C  C78  1  0.05504000  0.95127000  0.67488000  1.0
  C  C79  1  0.44495000  0.45127000  0.82511000  1.0
  C  C80  1  0.83386000  0.06140000  0.39401000  1.0
  C  C81  1  0.66614000  0.56140000  0.10599000  1.0
  C  C82  1  0.16614000  0.93860000  0.60599000  1.0
  C  C83  1  0.33385000  0.43860000  0.89401000  1.0
  C  C84  1  0.86309000  0.13425000  0.47148000  1.0
  C  C85  1  0.63691000  0.63425000  0.02852000  1.0
  C  C86  1  0.13692000  0.86575000  0.52852000  1.0
  C  C87  1  0.36308000  0.36575000  0.97148000  1.0
  C  C88  1  0.00514000  0.19716000  0.48304000  1.0
  C  C89  1  0.49485000  0.69716000  0.01697000  1.0
  C  C90  1  0.99486000  0.80284000  0.51697000  1.0
  C  C91  1  0.50514000  0.30284000  0.98303000  1.0
  C  C92  1  0.58905000  0.76603000  0.36907000  1.0
  C  C93  1  0.91095000  0.26603000  0.13093000  1.0
  C  C94  1  0.41095000  0.23397000  0.63093000  1.0
  C  C95  1  0.08905000  0.73397000  0.86907000  1.0
  C  C96  1  0.79704000  0.94335000  0.08279000  1.0
  C  C97  1  0.70297000  0.44335000  0.41721000  1.0
  C  C98  1  0.20296000  0.05665000  0.91721000  1.0
  C  C99  1  0.29704000  0.55665000  0.58279000  1.0
  N  N100  1  0.21918000  0.12992000  0.28259000  1.0
  N  N101  1  0.28082000  0.62993000  0.21741000  1.0
  N  N102  1  0.78082000  0.87008000  0.71741000  1.0
  N  N103  1  0.71918000  0.37008000  0.78259000  1.0
  N  N104  1  0.32468000  0.20524000  0.32136000  1.0
  N  N105  1  0.17532000  0.70524000  0.17864000  1.0
  N  N106  1  0.67532000  0.79476000  0.67864000  1.0
  N  N107  1  0.82468000  0.29476000  0.82136000  1.0
  N  N108  1  0.26508000  0.24046000  0.39962000  1.0
  N  N109  1  0.23492000  0.74046000  0.10038000  1.0
  N  N110  1  0.73492000  0.75954000  0.60038000  1.0
  N  N111  1  0.76507000  0.25954000  0.89962000  1.0
  O  O112  1  0.47385000  0.75010000  0.42661000  1.0
  O  O113  1  0.02615000  0.25010000  0.07339000  1.0
  O  O114  1  0.52615000  0.24990000  0.57339000  1.0
  O  O115  1  0.97385000  0.74989000  0.92661000  1.0
  O  O116  1  0.72458000  0.71901000  0.38127000  1.0
  O  O117  1  0.77543000  0.21901000  0.11873000  1.0
  O  O118  1  0.27542000  0.28099000  0.61873000  1.0
  O  O119  1  0.22458000  0.78099000  0.88127000  1.0
  O  O120  1  0.93231000  0.90042000  0.10751000  1.0
  O  O121  1  0.56769000  0.40042000  0.39249000  1.0
  O  O122  1  0.06769000  0.09958000  0.89249000  1.0
  O  O123  1  0.43231000  0.59958000  0.60751000  1.0
  O  O124  1  0.77231000  0.99946000  0.00836000  1.0
  O  O125  1  0.72769000  0.49946000  0.49164000  1.0
  O  O126  1  0.22769000  0.00054000  0.99164000  1.0
  O  O127  1  0.27231000  0.50054000  0.50836000  1.0
