# generated using pymatgen
data_MnH14C20(N2Cl)2
_symmetry_space_group_name_H-M   'P 1'
_cell_length_a   10.41660000
_cell_length_b   10.63260000
_cell_length_c   18.09350000
_cell_angle_alpha   103.93100000
_cell_angle_beta   89.99900000
_cell_angle_gamma   89.99210000
_symmetry_Int_Tables_number   1
_chemical_formula_structural   MnH14C20(N2Cl)2
_chemical_formula_sum   'Mn4 H56 C80 N16 Cl8'
_cell_volume   1945.01174786
_cell_formula_units_Z   4
loop_
 _symmetry_equiv_pos_site_id
 _symmetry_equiv_pos_as_xyz
  1  'x, y, z'
loop_
 _atom_site_type_symbol
 _atom_site_label
 _atom_site_symmetry_multiplicity
 _atom_site_fract_x
 _atom_site_fract_y
 _atom_site_fract_z
 _atom_site_occupancy
  Mn  Mn0  1  0.75315000  0.85776000  0.12471000  1.0
  Mn  Mn1  1  0.25313000  0.64229000  0.37534000  1.0
  Mn  Mn2  1  0.24683000  0.14223000  0.87529000  1.0
  Mn  Mn3  1  0.74688000  0.35779000  0.62469000  1.0
  H  H4  1  0.87160000  0.40757000  0.79007000  1.0
  H  H5  1  0.37154000  0.09238000  0.70985000  1.0
  H  H6  1  0.12842000  0.59243000  0.20993000  1.0
  H  H7  1  0.62840000  0.90759000  0.29011000  1.0
  H  H8  1  0.61757000  0.13137000  0.67429000  1.0
  H  H9  1  0.11756000  0.36867000  0.82570000  1.0
  H  H10  1  0.38243000  0.86862000  0.32572000  1.0
  H  H11  1  0.88245000  0.63132000  0.17430000  1.0
  H  H12  1  0.88104000  0.30847000  0.90041000  1.0
  H  H13  1  0.38100000  0.19156000  0.59954000  1.0
  H  H14  1  0.11900000  0.69154000  0.09959000  1.0
  H  H15  1  0.61893000  0.80845000  0.40044000  1.0
  H  H16  1  0.60702000  0.02290000  0.78059000  1.0
  H  H17  1  0.10703000  0.47721000  0.71943000  1.0
  H  H18  1  0.39301000  0.97710000  0.21942000  1.0
  H  H19  1  0.89301000  0.52285000  0.28059000  1.0
  H  H20  1  0.57780000  0.96996000  0.87603000  1.0
  H  H21  1  0.07769000  0.53008000  0.62395000  1.0
  H  H22  1  0.42223000  0.03003000  0.12397000  1.0
  H  H23  1  0.92229000  0.46994000  0.37604000  1.0
  H  H24  1  0.91239000  0.19102000  0.97205000  1.0
  H  H25  1  0.41236000  0.30897000  0.52796000  1.0
  H  H26  1  0.08764000  0.80897000  0.02796000  1.0
  H  H27  1  0.58763000  0.69106000  0.47204000  1.0
  H  H28  1  0.46574000  0.81241000  0.87918000  1.0
  H  H29  1  0.96565000  0.68755000  0.62081000  1.0
  H  H30  1  0.53433000  0.18755000  0.12080000  1.0
  H  H31  1  0.03439000  0.31242000  0.37918000  1.0
  H  H32  1  0.03400000  0.23468000  0.06404000  1.0
  H  H33  1  0.53404000  0.26533000  0.43596000  1.0
  H  H34  1  0.96595000  0.76531000  0.93597000  1.0
  H  H35  1  0.46584000  0.73471000  0.56404000  1.0
  H  H36  1  0.32260000  0.63606000  0.89953000  1.0
  H  H37  1  0.82247000  0.86394000  0.60044000  1.0
  H  H38  1  0.67745000  0.36391000  0.10044000  1.0
  H  H39  1  0.17757000  0.13604000  0.39958000  1.0
  H  H40  1  0.17693000  0.26918000  0.17729000  1.0
  H  H41  1  0.67690000  0.23080000  0.32272000  1.0
  H  H42  1  0.82306000  0.73082000  0.82272000  1.0
  H  H43  1  0.32304000  0.76923000  0.67730000  1.0
  H  H44  1  0.34800000  0.55455000  0.01769000  1.0
  H  H45  1  0.84791000  0.94542000  0.48228000  1.0
  H  H46  1  0.65204000  0.44540000  0.98228000  1.0
  H  H47  1  0.15203000  0.05451000  0.51771000  1.0
  H  H48  1  0.14856000  0.13101000  0.27027000  1.0
  H  H49  1  0.64863000  0.36904000  0.22976000  1.0
  H  H50  1  0.85142000  0.86896000  0.72973000  1.0
  H  H51  1  0.35131000  0.63099000  0.77025000  1.0
  H  H52  1  0.52145000  0.65258000  0.11064000  1.0
  H  H53  1  0.02142000  0.84736000  0.38934000  1.0
  H  H54  1  0.47857000  0.34737000  0.88935000  1.0
  H  H55  1  0.97853000  0.15261000  0.61063000  1.0
  H  H56  1  0.97737000  0.95948000  0.24484000  1.0
  H  H57  1  0.47735000  0.54063000  0.25521000  1.0
  H  H58  1  0.02262000  0.04050000  0.75516000  1.0
  H  H59  1  0.52262000  0.45942000  0.74480000  1.0
  C  C60  1  0.81608000  0.32076000  0.79058000  1.0
  C  C61  1  0.31605000  0.17922000  0.70938000  1.0
  C  C62  1  0.18393000  0.67923000  0.20942000  1.0
  C  C63  1  0.68392000  0.82076000  0.29059000  1.0
  C  C64  1  0.67307000  0.16740000  0.72626000  1.0
  C  C65  1  0.17306000  0.33264000  0.77373000  1.0
  C  C66  1  0.32693000  0.83259000  0.27375000  1.0
  C  C67  1  0.82694000  0.66735000  0.22627000  1.0
  C  C68  1  0.81891000  0.26486000  0.85256000  1.0
  C  C69  1  0.31889000  0.23516000  0.64742000  1.0
  C  C70  1  0.18111000  0.73512000  0.14745000  1.0
  C  C71  1  0.68109000  0.76484000  0.35257000  1.0
  C  C72  1  0.67002000  0.10636000  0.78592000  1.0
  C  C73  1  0.17000000  0.39373000  0.71410000  1.0
  C  C74  1  0.33000000  0.89363000  0.21409000  1.0
  C  C75  1  0.83002000  0.60631000  0.28592000  1.0
  C  C76  1  0.74468000  0.15408000  0.85133000  1.0
  C  C77  1  0.24465000  0.34599000  0.64868000  1.0
  C  C78  1  0.25534000  0.84591000  0.14867000  1.0
  C  C79  1  0.75536000  0.65404000  0.35133000  1.0
  C  C80  1  0.74548000  0.08888000  0.91502000  1.0
  C  C81  1  0.24548000  0.41116000  0.58498000  1.0
  C  C82  1  0.25453000  0.91111000  0.08498000  1.0
  C  C83  1  0.75453000  0.58889000  0.41503000  1.0
  C  C84  1  0.65450000  0.99284000  0.91816000  1.0
  C  C85  1  0.15445000  0.50721000  0.58182000  1.0
  C  C86  1  0.34552000  0.00717000  0.08184000  1.0
  C  C87  1  0.84554000  0.49285000  0.41817000  1.0
  C  C88  1  0.83768000  0.11956000  0.97315000  1.0
  C  C89  1  0.33768000  0.38046000  0.52685000  1.0
  C  C90  1  0.16234000  0.88043000  0.02685000  1.0
  C  C91  1  0.66232000  0.61959000  0.47315000  1.0
  C  C92  1  0.66055000  0.92888000  0.97712000  1.0
  C  C93  1  0.16051000  0.57114000  0.52290000  1.0
  C  C94  1  0.33947000  0.07112000  0.02288000  1.0
  C  C95  1  0.83948000  0.42888000  0.47711000  1.0
  C  C96  1  0.83590000  0.05365000  0.03148000  1.0
  C  C97  1  0.33591000  0.44636000  0.46855000  1.0
  C  C98  1  0.16411000  0.94633000  0.96852000  1.0
  C  C99  1  0.66409000  0.55367000  0.53147000  1.0
  C  C100  1  0.57108000  0.82394000  0.98428000  1.0
  C  C101  1  0.07103000  0.67607000  0.51573000  1.0
  C  C102  1  0.42895000  0.17603000  0.01572000  1.0
  C  C103  1  0.92898000  0.32393000  0.48426000  1.0
  C  C104  1  0.92754000  0.07971000  0.09601000  1.0
  C  C105  1  0.42755000  0.42031000  0.40401000  1.0
  C  C106  1  0.07246000  0.92025000  0.90400000  1.0
  C  C107  1  0.57242000  0.57975000  0.59599000  1.0
  C  C108  1  0.47805000  0.77332000  0.92926000  1.0
  C  C109  1  0.97799000  0.72667000  0.57075000  1.0
  C  C110  1  0.52200000  0.22665000  0.07073000  1.0
  C  C111  1  0.02204000  0.27332000  0.42924000  1.0
  C  C112  1  0.02176000  0.17612000  0.10550000  1.0
  C  C113  1  0.52177000  0.32388000  0.39451000  1.0
  C  C114  1  0.97822000  0.82385000  0.89451000  1.0
  C  C115  1  0.47817000  0.67616000  0.60551000  1.0
  C  C116  1  0.39711000  0.67561000  0.94097000  1.0
  C  C117  1  0.89701000  0.82440000  0.55903000  1.0
  C  C118  1  0.60294000  0.32436000  0.05901000  1.0
  C  C119  1  0.10300000  0.17560000  0.44097000  1.0
  C  C120  1  0.10319000  0.19462000  0.16821000  1.0
  C  C121  1  0.60319000  0.30536000  0.33180000  1.0
  C  C122  1  0.89680000  0.80536000  0.83180000  1.0
  C  C123  1  0.39676000  0.69467000  0.66822000  1.0
  C  C124  1  0.41084000  0.62984000  0.00656000  1.0
  C  C125  1  0.91078000  0.87015000  0.49344000  1.0
  C  C126  1  0.58920000  0.37012000  0.99343000  1.0
  C  C127  1  0.08919000  0.12982000  0.50656000  1.0
  C  C128  1  0.08733000  0.11814000  0.22028000  1.0
  C  C129  1  0.58735000  0.38188000  0.27973000  1.0
  C  C130  1  0.91266000  0.88183000  0.77972000  1.0
  C  C131  1  0.41260000  0.61817000  0.72028000  1.0
  C  C132  1  0.50639000  0.68484000  0.05834000  1.0
  C  C133  1  0.00635000  0.81513000  0.44167000  1.0
  C  C134  1  0.49364000  0.31511000  0.94165000  1.0
  C  C135  1  0.99363000  0.18484000  0.55833000  1.0
  C  C136  1  0.99243000  0.02328000  0.20645000  1.0
  C  C137  1  0.49244000  0.47676000  0.29358000  1.0
  C  C138  1  0.00755000  0.97669000  0.79355000  1.0
  C  C139  1  0.50753000  0.52329000  0.70644000  1.0
  N  N140  1  0.74521000  0.27343000  0.72741000  1.0
  N  N141  1  0.24517000  0.22658000  0.77254000  1.0
  N  N142  1  0.25479000  0.72658000  0.27259000  1.0
  N  N143  1  0.75480000  0.77339000  0.22743000  1.0
  N  N144  1  0.74968000  0.96010000  0.03207000  1.0
  N  N145  1  0.24967000  0.53992000  0.46795000  1.0
  N  N146  1  0.25033000  0.03988000  0.96793000  1.0
  N  N147  1  0.75032000  0.46010000  0.53206000  1.0
  N  N148  1  0.58433000  0.77916000  0.04798000  1.0
  N  N149  1  0.08430000  0.72082000  0.45204000  1.0
  N  N150  1  0.41569000  0.22081000  0.95202000  1.0
  N  N151  1  0.91570000  0.27917000  0.54795000  1.0
  N  N152  1  0.91490000  0.00339000  0.14566000  1.0
  N  N153  1  0.41488000  0.49666000  0.35437000  1.0
  N  N154  1  0.08511000  0.99658000  0.85434000  1.0
  N  N155  1  0.58510000  0.50341000  0.64565000  1.0
  Cl  Cl156  1  0.62043000  0.04313000  0.19876000  1.0
  Cl  Cl157  1  0.12038000  0.45683000  0.30127000  1.0
  Cl  Cl158  1  0.37959000  0.95691000  0.80124000  1.0
  Cl  Cl159  1  0.87962000  0.54322000  0.69874000  1.0
  Cl  Cl160  1  0.87827000  0.67661000  0.04644000  1.0
  Cl  Cl161  1  0.37821000  0.82341000  0.45363000  1.0
  Cl  Cl162  1  0.12178000  0.32336000  0.95355000  1.0
  Cl  Cl163  1  0.62180000  0.17666000  0.54636000  1.0
