# generated using pymatgen
data_MnH11C9N3(ClO)2
_symmetry_space_group_name_H-M   'P 1'
_cell_length_a   6.68405000
_cell_length_b   10.31760000
_cell_length_c   10.31770000
_cell_angle_alpha   60.50640000
_cell_angle_beta   73.58560000
_cell_angle_gamma   73.58460000
_symmetry_Int_Tables_number   1
_chemical_formula_structural   MnH11C9N3(ClO)2
_chemical_formula_sum   'Mn2 H22 C18 N6 Cl4 O4'
_cell_volume   585.25522482
_cell_formula_units_Z   2
loop_
 _symmetry_equiv_pos_site_id
 _symmetry_equiv_pos_as_xyz
  1  'x, y, z'
loop_
 _atom_site_type_symbol
 _atom_site_label
 _atom_site_symmetry_multiplicity
 _atom_site_fract_x
 _atom_site_fract_y
 _atom_site_fract_z
 _atom_site_occupancy
  Mn  Mn0  1  0.25000000  0.11107000  0.88893000  1.0
  Mn  Mn1  1  0.75000000  0.88893000  0.11107000  1.0
  H  H2  1  0.32688000  0.67172000  0.73259000  1.0
  H  H3  1  0.17313000  0.26741000  0.32828000  1.0
  H  H4  1  0.67313000  0.32828000  0.26741000  1.0
  H  H5  1  0.82688000  0.73259000  0.67172000  1.0
  H  H6  1  0.35348000  0.54906000  0.92517000  1.0
  H  H7  1  0.14653000  0.07482000  0.45095000  1.0
  H  H8  1  0.64652000  0.45094000  0.07482000  1.0
  H  H9  1  0.85348000  0.92518000  0.54906000  1.0
  H  H10  1  0.09940000  0.62614000  0.87435000  1.0
  H  H11  1  0.40060000  0.12565000  0.37387000  1.0
  H  H12  1  0.90060000  0.37386000  0.12565000  1.0
  H  H13  1  0.59940000  0.87435000  0.62613000  1.0
  H  H14  1  0.25560000  0.70139000  0.53786000  1.0
  H  H15  1  0.24439000  0.46215000  0.29861000  1.0
  H  H16  1  0.74440000  0.29860000  0.46215000  1.0
  H  H17  1  0.75561000  0.53785000  0.70139000  1.0
  H  H18  1  0.24999000  0.70164000  0.29837000  1.0
  H  H19  1  0.75001000  0.29837000  0.70163000  1.0
  H  H20  1  0.32233000  0.18353000  0.12276000  1.0
  H  H21  1  0.17768000  0.87724000  0.81647000  1.0
  H  H22  1  0.67767000  0.81647000  0.87724000  1.0
  H  H23  1  0.82233000  0.12276000  0.18352000  1.0
  C  C24  1  0.26819000  0.44694000  0.81635000  1.0
  C  C25  1  0.23181000  0.18366000  0.55305000  1.0
  C  C26  1  0.73181000  0.55305000  0.18365000  1.0
  C  C27  1  0.76819000  0.81635000  0.44694000  1.0
  C  C28  1  0.25520000  0.45955000  0.67021000  1.0
  C  C29  1  0.24479000  0.32980000  0.54046000  1.0
  C  C30  1  0.74479000  0.54046000  0.32980000  1.0
  C  C31  1  0.75520000  0.67020000  0.45954000  1.0
  C  C32  1  0.25250000  0.59664000  0.53766000  1.0
  C  C33  1  0.24748000  0.46235000  0.40336000  1.0
  C  C34  1  0.74749000  0.40336000  0.46234000  1.0
  C  C35  1  0.75252000  0.53766000  0.59664000  1.0
  C  C36  1  0.25000000  0.59682000  0.40318000  1.0
  C  C37  1  0.75000000  0.40318000  0.59682000  1.0
  C  C38  1  0.26311000  0.58076000  0.83732000  1.0
  C  C39  1  0.23689000  0.16268000  0.41924000  1.0
  C  C40  1  0.73689000  0.41924000  0.16268000  1.0
  C  C41  1  0.76311000  0.83732000  0.58076000  1.0
  N  N42  1  0.28463000  0.30977000  0.92410000  1.0
  N  N43  1  0.21538000  0.07591000  0.69022000  1.0
  N  N44  1  0.71537000  0.69022000  0.07590000  1.0
  N  N45  1  0.78462000  0.92410000  0.30977000  1.0
  N  N46  1  0.25000000  0.33014000  0.66987000  1.0
  N  N47  1  0.75000000  0.66986000  0.33013000  1.0
  Cl  Cl48  1  0.63795000  0.03078000  0.82023000  1.0
  Cl  Cl49  1  0.86206000  0.17977000  0.96922000  1.0
  Cl  Cl50  1  0.36205000  0.96922000  0.17977000  1.0
  Cl  Cl51  1  0.13794000  0.82022000  0.03078000  1.0
  O  O52  1  0.29262000  0.29712000  0.06136000  1.0
  O  O53  1  0.20739000  0.93864000  0.70288000  1.0
  O  O54  1  0.70738000  0.70287000  0.93864000  1.0
  O  O55  1  0.79262000  0.06136000  0.29712000  1.0
