# generated using pymatgen
data_LaH4C2SO8
_symmetry_space_group_name_H-M   'P 1'
_cell_length_a   6.54563000
_cell_length_b   9.72601000
_cell_length_c   10.93790000
_cell_angle_alpha   89.99980000
_cell_angle_beta   89.99950000
_cell_angle_gamma   97.41760000
_symmetry_Int_Tables_number   1
_chemical_formula_structural   LaH4C2SO8
_chemical_formula_sum   'La4 H16 C8 S4 O32'
_cell_volume   690.51075911
_cell_formula_units_Z   4
loop_
 _symmetry_equiv_pos_site_id
 _symmetry_equiv_pos_as_xyz
  1  'x, y, z'
loop_
 _atom_site_type_symbol
 _atom_site_label
 _atom_site_symmetry_multiplicity
 _atom_site_fract_x
 _atom_site_fract_y
 _atom_site_fract_z
 _atom_site_occupancy
  La  La0  1  0.33042000  0.89095000  0.84292000  1.0
  La  La1  1  0.16957000  0.60905000  0.34292000  1.0
  La  La2  1  0.66956000  0.10905000  0.15708000  1.0
  La  La3  1  0.83043000  0.39095000  0.65708000  1.0
  H  H4  1  0.20903000  0.18780000  0.80350000  1.0
  H  H5  1  0.29097000  0.31220000  0.30350000  1.0
  H  H6  1  0.79097000  0.81220000  0.19650000  1.0
  H  H7  1  0.70903000  0.68780000  0.69651000  1.0
  H  H8  1  0.37918000  0.19650000  0.90554000  1.0
  H  H9  1  0.12082000  0.30350000  0.40554000  1.0
  H  H10  1  0.62081000  0.80350000  0.09446000  1.0
  H  H11  1  0.87919000  0.69650000  0.59447000  1.0
  H  H12  1  0.99260000  0.63188000  0.89244000  1.0
  H  H13  1  0.50741000  0.86812000  0.39245000  1.0
  H  H14  1  0.00740000  0.36812000  0.10756000  1.0
  H  H15  1  0.49260000  0.13188000  0.60756000  1.0
  H  H16  1  0.11064000  0.65642000  0.01755000  1.0
  H  H17  1  0.38936000  0.84358000  0.51755000  1.0
  H  H18  1  0.88936000  0.34358000  0.98245000  1.0
  H  H19  1  0.61064000  0.15641000  0.48245000  1.0
  C  C20  1  0.52348000  0.60479000  0.97738000  1.0
  C  C21  1  0.97653000  0.89521000  0.47739000  1.0
  C  C22  1  0.47653000  0.39521000  0.02260000  1.0
  C  C23  1  0.02347000  0.10479000  0.52260000  1.0
  C  C24  1  0.62188000  0.48275000  0.94388000  1.0
  C  C25  1  0.87814000  0.01724000  0.44388000  1.0
  C  C26  1  0.37814000  0.51725000  0.05611000  1.0
  C  C27  1  0.12187000  0.98275000  0.55611000  1.0
  S  S28  1  0.80651000  0.03323000  0.82234000  1.0
  S  S29  1  0.69349000  0.46678000  0.32234000  1.0
  S  S30  1  0.19348000  0.96677000  0.17767000  1.0
  S  S31  1  0.30652000  0.53323000  0.67766000  1.0
  O  O32  1  0.66631000  0.96262000  0.72812000  1.0
  O  O33  1  0.83369000  0.53738000  0.22812000  1.0
  O  O34  1  0.33367000  0.03738000  0.27189000  1.0
  O  O35  1  0.16632000  0.46262000  0.77188000  1.0
  O  O36  1  0.67799000  0.03216000  0.93712000  1.0
  O  O37  1  0.82200000  0.46784000  0.43712000  1.0
  O  O38  1  0.32200000  0.96784000  0.06289000  1.0
  O  O39  1  0.17800000  0.53217000  0.56288000  1.0
  O  O40  1  0.98269000  0.95630000  0.84256000  1.0
  O  O41  1  0.51731000  0.54371000  0.34255000  1.0
  O  O42  1  0.01731000  0.04370000  0.15745000  1.0
  O  O43  1  0.48269000  0.45630000  0.65745000  1.0
  O  O44  1  0.88115000  0.17877000  0.78789000  1.0
  O  O45  1  0.61885000  0.32123000  0.28788000  1.0
  O  O46  1  0.11884000  0.82123000  0.21212000  1.0
  O  O47  1  0.38115000  0.67878000  0.71212000  1.0
  O  O48  1  0.55270000  0.73250000  0.95295000  1.0
  O  O49  1  0.94731000  0.76750000  0.45295000  1.0
  O  O50  1  0.44730000  0.26751000  0.04704000  1.0
  O  O51  1  0.05269000  0.23250000  0.54704000  1.0
  O  O52  1  0.77309000  0.45987000  0.87832000  1.0
  O  O53  1  0.72692000  0.04013000  0.37832000  1.0
  O  O54  1  0.22693000  0.54014000  0.12167000  1.0
  O  O55  1  0.27308000  0.95987000  0.62168000  1.0
  O  O56  1  0.34205000  0.15711000  0.82367000  1.0
  O  O57  1  0.15795000  0.34289000  0.32367000  1.0
  O  O58  1  0.65794000  0.84289000  0.17633000  1.0
  O  O59  1  0.84205000  0.65711000  0.67633000  1.0
  O  O60  1  0.07888000  0.70213000  0.94066000  1.0
  O  O61  1  0.42112000  0.79786000  0.44066000  1.0
  O  O62  1  0.92111000  0.29786000  0.05934000  1.0
  O  O63  1  0.57888000  0.20214000  0.55934000  1.0
