# generated using pymatgen
data_MnH4(CO)4
_symmetry_space_group_name_H-M   'P 1'
_cell_length_a   4.84398000
_cell_length_b   6.27910000
_cell_length_c   15.34950000
_cell_angle_alpha   81.27980000
_cell_angle_beta   80.93660000
_cell_angle_gamma   89.98120000
_symmetry_Int_Tables_number   1
_chemical_formula_structural   MnH4(CO)4
_chemical_formula_sum   'Mn4 H16 C16 O16'
_cell_volume   455.57675849
_cell_formula_units_Z   4
loop_
 _symmetry_equiv_pos_site_id
 _symmetry_equiv_pos_as_xyz
  1  'x, y, z'
loop_
 _atom_site_type_symbol
 _atom_site_label
 _atom_site_symmetry_multiplicity
 _atom_site_fract_x
 _atom_site_fract_y
 _atom_site_fract_z
 _atom_site_occupancy
  Mn  Mn0  1  0.68005000  0.74999000  0.99988000  1.0
  Mn  Mn1  1  0.31994000  0.25005000  0.00011000  1.0
  Mn  Mn2  1  0.00000000  0.99999000  0.50000000  1.0
  Mn  Mn3  1  0.49999000  0.49999000  0.50000000  1.0
  H  H4  1  0.29004000  0.63012000  0.73974000  1.0
  H  H5  1  0.03064000  0.87003000  0.26003000  1.0
  H  H6  1  0.70996000  0.36989000  0.26027000  1.0
  H  H7  1  0.96937000  0.12996000  0.73998000  1.0
  H  H8  1  0.08114000  0.84965000  0.71252000  1.0
  H  H9  1  0.79462000  0.65091000  0.28735000  1.0
  H  H10  1  0.91887000  0.15035000  0.28748000  1.0
  H  H11  1  0.20534000  0.34910000  0.71265000  1.0
  H  H12  1  0.62593000  0.85803000  0.79476000  1.0
  H  H13  1  0.42123000  0.64181000  0.20503000  1.0
  H  H14  1  0.37407000  0.14199000  0.20524000  1.0
  H  H15  1  0.57876000  0.35819000  0.79497000  1.0
  H  H16  1  0.45197000  0.08952000  0.75903000  1.0
  H  H17  1  0.21165000  0.41052000  0.24084000  1.0
  H  H18  1  0.54806000  0.91050000  0.24096000  1.0
  H  H19  1  0.78833000  0.58947000  0.75915000  1.0
  C  C20  1  0.29736000  0.80497000  0.71763000  1.0
  C  C21  1  0.01606000  0.69516000  0.28217000  1.0
  C  C22  1  0.70267000  0.19504000  0.28236000  1.0
  C  C23  1  0.98392000  0.30483000  0.71783000  1.0
  C  C24  1  0.24093000  0.90326000  0.87540000  1.0
  C  C25  1  0.11649000  0.59674000  0.12441000  1.0
  C  C26  1  0.75909000  0.09677000  0.12459000  1.0
  C  C27  1  0.88352000  0.40327000  0.87557000  1.0
  C  C28  1  0.41859000  0.91676000  0.78448000  1.0
  C  C29  1  0.20368000  0.58317000  0.21533000  1.0
  C  C30  1  0.58142000  0.08325000  0.21552000  1.0
  C  C31  1  0.79631000  0.41683000  0.78468000  1.0
  C  C32  1  0.46270000  0.83852000  0.62462000  1.0
  C  C33  1  0.08842000  0.66147000  0.37519000  1.0
  C  C34  1  0.53729000  0.16146000  0.37538000  1.0
  C  C35  1  0.91158000  0.33847000  0.62481000  1.0
  O  O36  1  0.71366000  0.90696000  0.61404000  1.0
  O  O37  1  0.32902000  0.59304000  0.38563000  1.0
  O  O38  1  0.28636000  0.09301000  0.38596000  1.0
  O  O39  1  0.67101000  0.40689000  0.61437000  1.0
  O  O40  1  0.98368000  0.85450000  0.88545000  1.0
  O  O41  1  0.86933000  0.64575000  0.11429000  1.0
  O  O42  1  0.01632000  0.14554000  0.11454000  1.0
  O  O43  1  0.13066000  0.35431000  0.88571000  1.0
  O  O44  1  0.34261000  0.78753000  0.56100000  1.0
  O  O45  1  0.90457000  0.71221000  0.43886000  1.0
  O  O46  1  0.65739000  0.21244000  0.43900000  1.0
  O  O47  1  0.09536000  0.28776000  0.56117000  1.0
  O  O48  1  0.36419000  0.94972000  0.93912000  1.0
  O  O49  1  0.30342000  0.55001000  0.06076000  1.0
  O  O50  1  0.63583000  0.05031000  0.06087000  1.0
  O  O51  1  0.69659000  0.45001000  0.93924000  1.0
