# generated using pymatgen
data_ZnSiH8C8(N2F3)2
_symmetry_space_group_name_H-M   'P 1'
_cell_length_a   7.16548000
_cell_length_b   7.16542000
_cell_length_c   7.67102000
_cell_angle_alpha   90.00000000
_cell_angle_beta   90.00000000
_cell_angle_gamma   89.99990000
_symmetry_Int_Tables_number   1
_chemical_formula_structural   ZnSiH8C8(N2F3)2
_chemical_formula_sum   'Zn1 Si1 H8 C8 N4 F6'
_cell_volume   393.85834784
_cell_formula_units_Z   1
loop_
 _symmetry_equiv_pos_site_id
 _symmetry_equiv_pos_as_xyz
  1  'x, y, z'
loop_
 _atom_site_type_symbol
 _atom_site_label
 _atom_site_symmetry_multiplicity
 _atom_site_fract_x
 _atom_site_fract_y
 _atom_site_fract_z
 _atom_site_occupancy
  Zn  Zn0  1  0.50000000  0.50000000  0.50000000  1.0
  Si  Si1  1  0.50000000  0.50000000  0.00000000  1.0
  H  H2  1  0.82523000  0.50000000  0.77217000  1.0
  H  H3  1  0.17477000  0.50000000  0.77217000  1.0
  H  H4  1  0.50000000  0.17477000  0.77217000  1.0
  H  H5  1  0.50000000  0.82523000  0.77217000  1.0
  H  H6  1  0.82523000  0.50000000  0.22783000  1.0
  H  H7  1  0.17477000  0.50000000  0.22783000  1.0
  H  H8  1  0.50000000  0.82523000  0.22783000  1.0
  H  H9  1  0.50000000  0.17477000  0.22783000  1.0
  C  C10  1  0.90276000  0.50000000  0.65007000  1.0
  C  C11  1  0.09724000  0.50000000  0.65006000  1.0
  C  C12  1  0.50000000  0.09724000  0.65007000  1.0
  C  C13  1  0.50000000  0.90276000  0.65007000  1.0
  C  C14  1  0.90276000  0.50000000  0.34993000  1.0
  C  C15  1  0.09724000  0.50000000  0.34993000  1.0
  C  C16  1  0.50000000  0.90276000  0.34993000  1.0
  C  C17  1  0.50000000  0.09724000  0.34993000  1.0
  N  N18  1  0.80546000  0.50000000  0.50000000  1.0
  N  N19  1  0.19454000  0.50000000  0.50000000  1.0
  N  N20  1  0.50000000  0.19454000  0.50000000  1.0
  N  N21  1  0.50000000  0.80546000  0.50000000  1.0
  F  F22  1  0.50000000  0.50000000  0.76981000  1.0
  F  F23  1  0.50000000  0.50000000  0.23019000  1.0
  F  F24  1  0.66724000  0.66725000  0.00000000  1.0
  F  F25  1  0.33276000  0.33276000  0.00000000  1.0
  F  F26  1  0.66724000  0.33276000  0.00000000  1.0
  F  F27  1  0.33276000  0.66725000  0.00000000  1.0
