# generated using pymatgen
data_Zn4H12C24N3O13
_symmetry_space_group_name_H-M   'P 1'
_cell_length_a   18.36950000
_cell_length_b   18.42460000
_cell_length_c   18.55300000
_cell_angle_alpha   90.96160000
_cell_angle_beta   119.37500000
_cell_angle_gamma   119.05100000
_symmetry_Int_Tables_number   1
_chemical_formula_structural   Zn4H12C24N3O13
_chemical_formula_sum   'Zn8 H24 C48 N6 O26'
_cell_volume   4507.60374596
_cell_formula_units_Z   2
loop_
 _symmetry_equiv_pos_site_id
 _symmetry_equiv_pos_as_xyz
  1  'x, y, z'
loop_
 _atom_site_type_symbol
 _atom_site_label
 _atom_site_symmetry_multiplicity
 _atom_site_fract_x
 _atom_site_fract_y
 _atom_site_fract_z
 _atom_site_occupancy
  Zn  Zn0  1  0.91225000  0.45175000  0.04520000  1.0
  Zn  Zn1  1  0.90738000  0.45751000  0.87118000  1.0
  Zn  Zn2  1  0.09087000  0.46601000  0.04685000  1.0
  Zn  Zn3  1  0.08282000  0.63222000  0.04272000  1.0
  Zn  Zn4  1  0.08965000  0.04485000  0.45496000  1.0
  Zn  Zn5  1  0.91392000  0.04359000  0.45423000  1.0
  Zn  Zn6  1  0.08835000  0.04598000  0.62437000  1.0
  Zn  Zn7  1  0.91285000  0.86906000  0.45346000  1.0
  H  H8  1  0.04544000  0.72195000  0.39205000  1.0
  H  H9  1  0.12952000  0.22336000  0.81139000  1.0
  H  H10  1  0.16637000  0.77190000  0.32325000  1.0
  H  H11  1  0.96197000  0.22978000  0.65433000  1.0
  H  H12  1  0.92956000  0.26402000  0.74663000  1.0
  H  H13  1  0.39553000  0.19538000  0.80282000  1.0
  H  H14  1  0.42345000  0.18245000  0.65337000  1.0
  H  H15  1  0.57650000  0.31315000  0.74718000  1.0
  H  H16  1  0.12195000  0.21047000  0.30892000  1.0
  H  H17  1  0.96441000  0.23062000  0.30788000  1.0
  H  H18  1  0.52315000  0.19225000  0.92577000  1.0
  H  H19  1  0.93817000  0.26746000  0.18992000  1.0
  H  H20  1  0.64842000  0.24178000  0.95249000  1.0
  H  H21  1  0.61427000  0.30837000  0.97574000  1.0
  H  H22  1  0.23846000  0.33616000  0.30297000  1.0
  H  H23  1  0.16991000  0.31097000  0.18707000  1.0
  H  H24  1  0.21165000  0.41021000  0.25330000  1.0
  H  H25  1  0.58899000  0.68879000  0.27009000  1.0
  H  H26  1  0.58398000  0.84823000  0.31294000  1.0
  H  H27  1  0.40373000  0.60001000  0.19853000  1.0
  H  H28  1  0.41894000  0.77379000  0.19264000  1.0
  H  H29  1  0.88491000  0.69714000  0.59972000  1.0
  H  H30  1  0.89686000  0.59771000  0.68611000  1.0
  H  H31  1  0.04287000  0.76593000  0.84792000  1.0
  C  C32  1  0.99140000  0.63643000  0.86134000  1.0
  C  C33  1  0.00653000  0.30383000  0.19080000  1.0
  C  C34  1  0.55355000  0.72332000  0.26655000  1.0
  C  C35  1  0.00544000  0.36148000  0.13713000  1.0
  C  C36  1  0.61453000  0.81034000  0.31225000  1.0
  C  C37  1  0.44366000  0.67148000  0.21479000  1.0
  C  C38  1  0.38638000  0.70399000  0.18392000  1.0
  C  C39  1  0.94927000  0.72566000  0.66844000  1.0
  C  C40  1  0.02405000  0.81211000  0.69389000  1.0
  C  C41  1  0.94633000  0.66867000  0.72104000  1.0
  C  C42  1  0.99617000  0.69656000  0.80924000  1.0
  C  C43  1  0.07092000  0.83312000  0.26636000  1.0
  C  C44  1  0.07647000  0.24226000  0.77903000  1.0
  C  C45  1  0.01257000  0.20958000  0.69091000  1.0
  C  C46  1  0.08096000  0.30312000  0.83564000  1.0
  C  C47  1  0.72188000  0.36454000  0.86811000  1.0
  C  C48  1  0.00037000  0.30716000  0.81089000  1.0
  C  C49  1  0.43971000  0.20922000  0.77520000  1.0
  C  C50  1  0.38725000  0.17679000  0.68712000  1.0
  C  C51  1  0.54959000  0.25861000  0.83817000  1.0
  C  C52  1  0.61053000  0.31016000  0.81349000  1.0
  C  C53  1  0.72615000  0.86188000  0.36409000  1.0
  C  C54  1  0.97345000  0.76178000  0.17286000  1.0
  C  C55  1  0.27589000  0.12953000  0.63094000  1.0
  C  C56  1  0.00810000  0.14568000  0.36877000  1.0
  C  C57  1  0.01111000  0.86409000  0.63266000  1.0
  C  C58  1  0.00735000  0.14510000  0.63651000  1.0
  C  C59  1  0.27481000  0.64648000  0.13450000  1.0
  C  C60  1  0.00234000  0.86236000  0.35940000  1.0
  C  C61  1  0.00006000  0.36656000  0.86515000  1.0
  C  C62  1  0.99686000  0.63307000  0.14283000  1.0
  C  C63  1  0.09212000  0.76100000  0.29232000  1.0
  C  C64  1  0.02601000  0.73318000  0.32945000  1.0
  C  C65  1  0.90641000  0.73370000  0.21070000  1.0
  C  C66  1  0.00402000  0.80417000  0.30369000  1.0
  C  C67  1  0.11792000  0.85969000  0.77825000  1.0
  C  C68  1  0.17634000  0.35677000  0.91940000  1.0
  C  C69  1  0.58540000  0.24911000  0.92757000  1.0
  C  C70  1  0.14424000  0.92110000  0.28016000  1.0
  C  C71  1  0.94443000  0.77454000  0.09012000  1.0
  C  C72  1  0.81049000  0.72146000  0.16927000  1.0
  C  C73  1  0.85438000  0.57374000  0.22210000  1.0
  C  C74  1  0.18153000  0.34072000  0.24689000  1.0
  C  C75  1  0.92905000  0.66169000  0.23727000  1.0
  C  C76  1  0.99631000  0.69059000  0.20033000  1.0
  C  C77  1  0.07356000  0.23460000  0.29090000  1.0
  C  C78  1  0.01290000  0.20801000  0.31943000  1.0
  C  C79  1  0.08364000  0.29437000  0.24026000  1.0
  N  N80  1  0.19660000  0.89878000  0.84617000  1.0
  N  N81  1  0.25788000  0.39722000  0.98432000  1.0
  N  N82  1  0.20571000  0.99208000  0.29077000  1.0
  N  N83  1  0.91961000  0.78395000  0.02174000  1.0
  N  N84  1  0.73239000  0.71243000  0.13625000  1.0
  N  N85  1  0.79291000  0.50272000  0.21140000  1.0
  O  O86  1  0.99711000  0.50286000  0.00078000  1.0
  O  O87  1  0.07474000  0.94712000  0.66908000  1.0
  O  O88  1  0.94609000  0.12313000  0.55372000  1.0
  O  O89  1  0.04353000  0.67532000  0.94393000  1.0
  O  O90  1  0.94946000  0.82174000  0.38855000  1.0
  O  O91  1  0.06289000  0.11703000  0.67572000  1.0
  O  O92  1  0.05229000  0.94382000  0.37078000  1.0
  O  O93  1  0.07184000  0.12510000  0.39269000  1.0
  O  O94  1  0.93866000  0.82156000  0.55185000  1.0
  O  O95  1  0.77128000  0.94546000  0.39253000  1.0
  O  O96  1  0.23103000  0.12288000  0.66816000  1.0
  O  O97  1  0.76843000  0.37946000  0.95103000  1.0
  O  O98  1  0.93948000  0.37921000  0.11565000  1.0
  O  O99  1  0.76392000  0.39363000  0.82714000  1.0
  O  O100  1  0.23311000  0.56424000  0.12337000  1.0
  O  O101  1  0.92604000  0.37469000  0.82465000  1.0
  O  O102  1  0.05976000  0.67572000  0.12350000  1.0
  O  O103  1  0.07231000  0.40331000  0.94632000  1.0
  O  O104  1  0.93666000  0.55061000  0.12086000  1.0
  O  O105  1  0.22862000  0.68481000  0.10717000  1.0
  O  O106  1  0.93848000  0.55367000  0.82167000  1.0
  O  O107  1  0.06795000  0.38895000  0.11526000  1.0
  O  O108  1  0.99981000  0.99807000  0.49536000  1.0
  O  O109  1  0.76867000  0.82068000  0.37692000  1.0
  O  O110  1  0.23275000  0.09900000  0.54814000  1.0
  O  O111  1  0.93937000  0.11736000  0.38339000  1.0
