# generated using pymatgen
data_ZnH7C10NO5
_symmetry_space_group_name_H-M   'P 1'
_cell_length_a   6.64871000
_cell_length_b   9.61440000
_cell_length_c   16.20800000
_cell_angle_alpha   95.03840000
_cell_angle_beta   90.00000000
_cell_angle_gamma   89.99950000
_symmetry_Int_Tables_number   1
_chemical_formula_structural   ZnH7C10NO5
_chemical_formula_sum   'Zn4 H28 C40 N4 O20'
_cell_volume   1032.06646773
_cell_formula_units_Z   4
loop_
 _symmetry_equiv_pos_site_id
 _symmetry_equiv_pos_as_xyz
  1  'x, y, z'
loop_
 _atom_site_type_symbol
 _atom_site_label
 _atom_site_symmetry_multiplicity
 _atom_site_fract_x
 _atom_site_fract_y
 _atom_site_fract_z
 _atom_site_occupancy
  Zn  Zn0  1  0.61875000  0.48303000  0.33957000  1.0
  Zn  Zn1  1  0.11875000  0.01697000  0.16043000  1.0
  Zn  Zn2  1  0.38125000  0.51697000  0.66042000  1.0
  Zn  Zn3  1  0.88125000  0.98303000  0.83958000  1.0
  H  H4  1  0.97330000  0.45625000  0.26676000  1.0
  H  H5  1  0.47330000  0.04375000  0.23324000  1.0
  H  H6  1  0.02670000  0.54375000  0.73324000  1.0
  H  H7  1  0.52670000  0.95625000  0.76676000  1.0
  H  H8  1  0.00925000  0.51657000  0.36199000  1.0
  H  H9  1  0.50926000  0.98343000  0.13801000  1.0
  H  H10  1  0.99074000  0.48343000  0.63800000  1.0
  H  H11  1  0.49074000  0.01657000  0.86199000  1.0
  H  H12  1  0.57591000  0.92602000  0.35353000  1.0
  H  H13  1  0.07590000  0.57398000  0.14647000  1.0
  H  H14  1  0.42409000  0.07397000  0.64647000  1.0
  H  H15  1  0.92409000  0.42602000  0.85353000  1.0
  H  H16  1  0.56189000  0.70019000  0.22725000  1.0
  H  H17  1  0.06188000  0.79981000  0.27275000  1.0
  H  H18  1  0.43812000  0.29981000  0.77274000  1.0
  H  H19  1  0.93812000  0.20019000  0.72726000  1.0
  H  H20  1  0.53168000  0.72138000  0.07735000  1.0
  H  H21  1  0.03168000  0.77861000  0.42264000  1.0
  H  H22  1  0.46833000  0.27862000  0.92264000  1.0
  H  H23  1  0.96833000  0.22138000  0.57736000  1.0
  H  H24  1  0.50489000  0.26981000  0.04244000  1.0
  H  H25  1  0.00489000  0.23019000  0.45757000  1.0
  H  H26  1  0.49510000  0.73019000  0.95756000  1.0
  H  H27  1  0.99510000  0.76981000  0.54244000  1.0
  H  H28  1  0.53787000  0.26892000  0.19481000  1.0
  H  H29  1  0.03787000  0.23108000  0.30519000  1.0
  H  H30  1  0.46212000  0.73108000  0.80518000  1.0
  H  H31  1  0.96212000  0.76892000  0.69482000  1.0
  C  C32  1  0.58224000  0.70949000  0.44271000  1.0
  C  C33  1  0.08224000  0.79051000  0.05728000  1.0
  C  C34  1  0.41776000  0.29051000  0.55728000  1.0
  C  C35  1  0.91776000  0.20949000  0.94272000  1.0
  C  C36  1  0.45315000  0.79743000  0.62148000  1.0
  C  C37  1  0.95314000  0.70257000  0.87852000  1.0
  C  C38  1  0.54685000  0.20257000  0.37852000  1.0
  C  C39  1  0.04685000  0.29743000  0.12148000  1.0
  C  C40  1  0.52825000  0.85667000  0.47462000  1.0
  C  C41  1  0.02825000  0.64333000  0.02538000  1.0
  C  C42  1  0.47175000  0.14333000  0.52538000  1.0
  C  C43  1  0.97174000  0.35667000  0.97462000  1.0
  C  C44  1  0.48559000  0.89981000  0.55808000  1.0
  C  C45  1  0.98559000  0.60019000  0.94192000  1.0
  C  C46  1  0.51441000  0.10018000  0.44192000  1.0
  C  C47  1  0.01441000  0.39981000  0.05808000  1.0
  C  C48  1  0.53985000  0.95797000  0.41798000  1.0
  C  C49  1  0.03984000  0.54203000  0.08201000  1.0
  C  C50  1  0.46016000  0.04203000  0.58201000  1.0
  C  C51  1  0.96015000  0.45797000  0.91798000  1.0
  C  C52  1  0.54971000  0.60741000  0.18383000  1.0
  C  C53  1  0.04971000  0.89259000  0.31617000  1.0
  C  C54  1  0.45030000  0.39259000  0.81616000  1.0
  C  C55  1  0.95030000  0.10741000  0.68384000  1.0
  C  C56  1  0.53234000  0.61801000  0.09940000  1.0
  C  C57  1  0.03233000  0.88199000  0.40060000  1.0
  C  C58  1  0.46767000  0.38200000  0.90059000  1.0
  C  C59  1  0.96767000  0.11800000  0.59940000  1.0
  C  C60  1  0.51167000  0.49676000  0.04509000  1.0
  C  C61  1  0.01167000  0.00324000  0.45491000  1.0
  C  C62  1  0.48834000  0.50324000  0.95491000  1.0
  C  C63  1  0.98833000  0.99676000  0.54509000  1.0
  C  C64  1  0.51372000  0.36861000  0.08019000  1.0
  C  C65  1  0.01372000  0.13139000  0.41981000  1.0
  C  C66  1  0.48627000  0.63140000  0.91981000  1.0
  C  C67  1  0.98627000  0.86860000  0.58019000  1.0
  C  C68  1  0.53427000  0.36594000  0.16504000  1.0
  C  C69  1  0.03427000  0.13406000  0.33496000  1.0
  C  C70  1  0.46572000  0.63406000  0.83496000  1.0
  C  C71  1  0.96572000  0.86595000  0.66504000  1.0
  N  N72  1  0.55109000  0.48311000  0.21661000  1.0
  N  N73  1  0.05110000  0.01689000  0.28339000  1.0
  N  N74  1  0.44891000  0.51689000  0.78339000  1.0
  N  N75  1  0.94891000  0.98311000  0.71662000  1.0
  O  O76  1  0.47371000  0.65607000  0.38126000  1.0
  O  O77  1  0.97371000  0.84393000  0.11874000  1.0
  O  O78  1  0.52631000  0.34393000  0.61874000  1.0
  O  O79  1  0.02629000  0.15607000  0.88126000  1.0
  O  O80  1  0.73454000  0.65126000  0.46922000  1.0
  O  O81  1  0.23454000  0.84874000  0.03077000  1.0
  O  O82  1  0.26546000  0.34874000  0.53077000  1.0
  O  O83  1  0.76546000  0.15126000  0.96923000  1.0
  O  O84  1  0.40577000  0.67289000  0.59237000  1.0
  O  O85  1  0.90578000  0.82712000  0.90764000  1.0
  O  O86  1  0.59422000  0.32711000  0.40763000  1.0
  O  O87  1  0.09422000  0.17289000  0.09237000  1.0
  O  O88  1  0.46564000  0.83567000  0.69772000  1.0
  O  O89  1  0.96564000  0.66433000  0.80228000  1.0
  O  O90  1  0.53436000  0.16433000  0.30228000  1.0
  O  O91  1  0.03436000  0.33567000  0.19772000  1.0
  O  O92  1  0.92021000  0.52065000  0.31462000  1.0
  O  O93  1  0.42021000  0.97935000  0.18538000  1.0
  O  O94  1  0.07978000  0.47935000  0.68538000  1.0
  O  O95  1  0.57979000  0.02065000  0.81462000  1.0
