# generated using pymatgen
data_FeH16(C12N5)2
_symmetry_space_group_name_H-M   'P 1'
_cell_length_a   11.79830000
_cell_length_b   18.96060000
_cell_length_c   18.96055491
_cell_angle_alpha   115.81192416
_cell_angle_beta   101.95278615
_cell_angle_gamma   101.96700000
_symmetry_Int_Tables_number   1
_chemical_formula_structural   FeH16(C12N5)2
_chemical_formula_sum   'Fe3 H48 C72 N30'
_cell_volume   3515.94036477
_cell_formula_units_Z   3
loop_
 _symmetry_equiv_pos_site_id
 _symmetry_equiv_pos_as_xyz
  1  'x, y, z'
loop_
 _atom_site_type_symbol
 _atom_site_label
 _atom_site_symmetry_multiplicity
 _atom_site_fract_x
 _atom_site_fract_y
 _atom_site_fract_z
 _atom_site_occupancy
  Fe  Fe0  1  0.50000000  0.00000000  0.50000000  1.0
  Fe  Fe1  1  0.00000000  0.50000000  0.50000000  1.0
  Fe  Fe2  1  0.50000000  0.50000000  0.00000000  1.0
  H  H3  1  0.76261000  0.92918000  0.68390000  1.0
  H  H4  1  0.07868000  0.31591000  0.24525000  1.0
  H  H5  1  0.83317000  0.75472000  0.07068000  1.0
  H  H6  1  0.23739000  0.07082000  0.31610000  1.0
  H  H7  1  0.92132000  0.68410000  0.75476000  1.0
  H  H8  1  0.16683000  0.24527000  0.92932000  1.0
  H  H9  1  0.96477000  0.03979000  0.72537000  1.0
  H  H10  1  0.23944000  0.27436000  0.31424000  1.0
  H  H11  1  0.92524000  0.68571000  0.96029000  1.0
  H  H12  1  0.03523000  0.96021000  0.27463000  1.0
  H  H13  1  0.76056000  0.72564000  0.68576000  1.0
  H  H14  1  0.07477000  0.31430000  0.03972000  1.0
  H  H15  1  0.96602000  0.13387000  0.66386000  1.0
  H  H16  1  0.30238000  0.33595000  0.46985000  1.0
  H  H17  1  0.83277000  0.53011000  0.86633000  1.0
  H  H18  1  0.03398000  0.86613000  0.33614000  1.0
  H  H19  1  0.69762000  0.66405000  0.53015000  1.0
  H  H20  1  0.16723000  0.46989000  0.13367000  1.0
  H  H21  1  0.76905000  0.11483000  0.56552000  1.0
  H  H22  1  0.20377000  0.43433000  0.54923000  1.0
  H  H23  1  0.65470000  0.45075000  0.88524000  1.0
  H  H24  1  0.23095000  0.88517000  0.43448000  1.0
  H  H25  1  0.79623000  0.56567000  0.45077000  1.0
  H  H26  1  0.34530000  0.54925000  0.11476000  1.0
  H  H27  1  0.13565000  0.75073000  0.46668000  1.0
  H  H28  1  0.66906000  0.53324000  0.28407000  1.0
  H  H29  1  0.38495000  0.71604000  0.24927000  1.0
  H  H30  1  0.86435000  0.24927000  0.53332000  1.0
  H  H31  1  0.33094000  0.46676000  0.71593000  1.0
  H  H32  1  0.61505000  0.28396000  0.75073000  1.0
  H  H33  1  0.98977000  0.62458000  0.44892000  1.0
  H  H34  1  0.54077000  0.55094000  0.17567000  1.0
  H  H35  1  0.36526000  0.82440000  0.37551000  1.0
  H  H36  1  0.01023000  0.37543000  0.55109000  1.0
  H  H37  1  0.45923000  0.44906000  0.82433000  1.0
  H  H38  1  0.63475000  0.17561000  0.62449000  1.0
  H  H39  1  0.26826000  0.58562000  0.58589000  1.0
  H  H40  1  0.68258000  0.41419000  0.99976000  1.0
  H  H41  1  0.68252000  0.00034000  0.41423000  1.0
  H  H42  1  0.73174000  0.41438000  0.41411000  1.0
  H  H43  1  0.31742000  0.58580000  0.00024000  1.0
  H  H44  1  0.31748000  0.99966000  0.58577000  1.0
  H  H45  1  0.42653000  0.71014000  0.60773000  1.0
  H  H46  1  0.81920000  0.39242000  0.10245000  1.0
  H  H47  1  0.71617000  0.89771000  0.28960000  1.0
  H  H48  1  0.57347000  0.28986000  0.39227000  1.0
  H  H49  1  0.18080000  0.60757000  0.89755000  1.0
  H  H50  1  0.28382000  0.10229000  0.71039000  1.0
  C  C51  1  0.54353000  0.90694000  0.57797000  1.0
  C  C52  1  0.96570000  0.42193000  0.32896000  1.0
  C  C53  1  0.63640000  0.67100000  0.09287000  1.0
  C  C54  1  0.45646000  0.09305000  0.42202000  1.0
  C  C55  1  0.03429000  0.57807000  0.67104000  1.0
  C  C56  1  0.36359000  0.32899000  0.90712000  1.0
  C  C57  1  0.38208000  0.81336000  0.54787000  1.0
  C  C58  1  0.83441000  0.45209000  0.26548000  1.0
  C  C59  1  0.56862000  0.73456000  0.18653000  1.0
  C  C60  1  0.61792000  0.18664000  0.45213000  1.0
  C  C61  1  0.16558000  0.54791000  0.73452000  1.0
  C  C62  1  0.43138000  0.26545000  0.81347000  1.0
  C  C63  1  0.66399000  0.96570000  0.60506000  1.0
  C  C64  1  0.05899000  0.39477000  0.36062000  1.0
  C  C65  1  0.69817000  0.63936000  0.03415000  1.0
  C  C66  1  0.33601000  0.03430000  0.39494000  1.0
  C  C67  1  0.94101000  0.60523000  0.63939000  1.0
  C  C68  1  0.30183000  0.36064000  0.96585000  1.0
  C  C69  1  0.77011000  0.97199000  0.65977000  1.0
  C  C70  1  0.11038000  0.34003000  0.31218000  1.0
  C  C71  1  0.79806000  0.68779000  0.02790000  1.0
  C  C72  1  0.22989000  0.02801000  0.34023000  1.0
  C  C73  1  0.88962000  0.65997000  0.68782000  1.0
  C  C74  1  0.20194000  0.31221000  0.97210000  1.0
  C  C75  1  0.88072000  0.03293000  0.68213000  1.0
  C  C76  1  0.19868000  0.31764000  0.35068000  1.0
  C  C77  1  0.84802000  0.64929000  0.96710000  1.0
  C  C78  1  0.11928000  0.96707000  0.31787000  1.0
  C  C79  1  0.80132000  0.68236000  0.64932000  1.0
  C  C80  1  0.15198000  0.35071000  0.03290000  1.0
  C  C81  1  0.88170000  0.08521000  0.64815000  1.0
  C  C82  1  0.23372000  0.35166000  0.43694000  1.0
  C  C83  1  0.79692000  0.56304000  0.91491000  1.0
  C  C84  1  0.11830000  0.91479000  0.35185000  1.0
  C  C85  1  0.76628000  0.64834000  0.56306000  1.0
  C  C86  1  0.20309000  0.43697000  0.08509000  1.0
  C  C87  1  0.77267000  0.07538000  0.59355000  1.0
  C  C88  1  0.17927000  0.40629000  0.48175000  1.0
  C  C89  1  0.69761000  0.51823000  0.92468000  1.0
  C  C90  1  0.22733000  0.92462000  0.40645000  1.0
  C  C91  1  0.82074000  0.59372000  0.51826000  1.0
  C  C92  1  0.30240000  0.48177000  0.07532000  1.0
  C  C93  1  0.29446000  0.74134000  0.53887000  1.0
  C  C94  1  0.75581000  0.46117000  0.20250000  1.0
  C  C95  1  0.55304000  0.79762000  0.25856000  1.0
  C  C96  1  0.70554000  0.25866000  0.46113000  1.0
  C  C97  1  0.24419000  0.53883000  0.79750000  1.0
  C  C98  1  0.44696000  0.20238000  0.74144000  1.0
  C  C99  1  0.16874000  0.71577000  0.49411000  1.0
  C  C100  1  0.67477000  0.50586000  0.22170000  1.0
  C  C101  1  0.45296000  0.77843000  0.28421000  1.0
  C  C102  1  0.83125000  0.28423000  0.50589000  1.0
  C  C103  1  0.32522000  0.49413000  0.77829000  1.0
  C  C104  1  0.54704000  0.22157000  0.71579000  1.0
  C  C105  1  0.08702000  0.64572000  0.48437000  1.0
  C  C106  1  0.60269000  0.51556000  0.16138000  1.0
  C  C107  1  0.44131000  0.83871000  0.35429000  1.0
  C  C108  1  0.91297000  0.35428000  0.51563000  1.0
  C  C109  1  0.39731000  0.48444000  0.83862000  1.0
  C  C110  1  0.55869000  0.16129000  0.64571000  1.0
  C  C111  1  0.24281000  0.62368000  0.56011000  1.0
  C  C112  1  0.68295000  0.43995000  0.06361000  1.0
  C  C113  1  0.61904000  0.93651000  0.37619000  1.0
  C  C114  1  0.75719000  0.37632000  0.43989000  1.0
  C  C115  1  0.31705000  0.56005000  0.93639000  1.0
  C  C116  1  0.38097000  0.06350000  0.62381000  1.0
  C  C117  1  0.33030000  0.69310000  0.57241000  1.0
  C  C118  1  0.75821000  0.42770000  0.12075000  1.0
  C  C119  1  0.63704000  0.87941000  0.30672000  1.0
  C  C120  1  0.66970000  0.30690000  0.42759000  1.0
  C  C121  1  0.24178000  0.57229000  0.87925000  1.0
  C  C122  1  0.36295000  0.12059000  0.69327000  1.0
  N  N123  1  0.45107000  0.91520000  0.52912000  1.0
  N  N124  1  0.92206000  0.47082000  0.38605000  1.0
  N  N125  1  0.53577000  0.61393000  0.08475000  1.0
  N  N126  1  0.54893000  0.08480000  0.47088000  1.0
  N  N127  1  0.07793000  0.52918000  0.61395000  1.0
  N  N128  1  0.46423000  0.38608000  0.91525000  1.0
  N  N129  1  0.34674000  0.85557000  0.50972000  1.0
  N  N130  1  0.83718000  0.49026000  0.34584000  1.0
  N  N131  1  0.49109000  0.65420000  0.14441000  1.0
  N  N132  1  0.65326000  0.14443000  0.49028000  1.0
  N  N133  1  0.16282000  0.50974000  0.65416000  1.0
  N  N134  1  0.50891000  0.34581000  0.85559000  1.0
  N  N135  1  0.50450000  0.84363000  0.59135000  1.0
  N  N136  1  0.91332000  0.40858000  0.25227000  1.0
  N  N137  1  0.66069000  0.74771000  0.15616000  1.0
  N  N138  1  0.49551000  0.15637000  0.40865000  1.0
  N  N139  1  0.08668000  0.59142000  0.74773000  1.0
  N  N140  1  0.33931000  0.25229000  0.84384000  1.0
  N  N141  1  0.66441000  0.01726000  0.57205000  1.0
  N  N142  1  0.09244000  0.42780000  0.44519000  1.0
  N  N143  1  0.64716000  0.55477000  0.98265000  1.0
  N  N144  1  0.33559000  0.98274000  0.42795000  1.0
  N  N145  1  0.90756000  0.57221000  0.55482000  1.0
  N  N146  1  0.35285000  0.44523000  0.01735000  1.0
  N  N147  1  0.12196000  0.59911000  0.51645000  1.0
  N  N148  1  0.60564000  0.48353000  0.08274000  1.0
  N  N149  1  0.52284000  0.91738000  0.40086000  1.0
  N  N150  1  0.87805000  0.40090000  0.48356000  1.0
  N  N151  1  0.39436000  0.51647000  0.91726000  1.0
  N  N152  1  0.47716000  0.08262000  0.59914000  1.0
