# generated using pymatgen
data_ZnH7C9NO5
_symmetry_space_group_name_H-M   'P 1'
_cell_length_a   9.24058000
_cell_length_b   13.94648352
_cell_length_c   16.84900000
_cell_angle_alpha   83.36478650
_cell_angle_beta   89.98470000
_cell_angle_gamma   70.65319279
_symmetry_Int_Tables_number   1
_chemical_formula_structural   ZnH7C9NO5
_chemical_formula_sum   'Zn8 H56 C72 N8 O40'
_cell_volume   2033.37677292
_cell_formula_units_Z   8
loop_
 _symmetry_equiv_pos_site_id
 _symmetry_equiv_pos_as_xyz
  1  'x, y, z'
loop_
 _atom_site_type_symbol
 _atom_site_label
 _atom_site_symmetry_multiplicity
 _atom_site_fract_x
 _atom_site_fract_y
 _atom_site_fract_z
 _atom_site_occupancy
  Zn  Zn0  1  0.97768000  0.65848000  0.34549000  1.0
  Zn  Zn1  1  0.63636000  0.34146000  0.15444000  1.0
  Zn  Zn2  1  0.02231000  0.34152000  0.65451000  1.0
  Zn  Zn3  1  0.36364000  0.65853000  0.84556000  1.0
  Zn  Zn4  1  0.55287000  0.66010000  0.55066000  1.0
  Zn  Zn5  1  0.21272000  0.33990000  0.94953000  1.0
  Zn  Zn6  1  0.44712000  0.33991000  0.44934000  1.0
  Zn  Zn7  1  0.78728000  0.66010000  0.05047000  1.0
  H  H8  1  0.14283000  0.76423000  0.34957000  1.0
  H  H9  1  0.90726000  0.23594000  0.15011000  1.0
  H  H10  1  0.85718000  0.23576000  0.65043000  1.0
  H  H11  1  0.09274000  0.76406000  0.84989000  1.0
  H  H12  1  0.11106000  0.74856000  0.44449000  1.0
  H  H13  1  0.85980000  0.25178000  0.05518000  1.0
  H  H14  1  0.88894000  0.25144000  0.55551000  1.0
  H  H15  1  0.14019000  0.74823000  0.94482000  1.0
  H  H16  1  0.68288000  0.51885000  0.32172000  1.0
  H  H17  1  0.20224000  0.48054000  0.17865000  1.0
  H  H18  1  0.31712000  0.48114000  0.67827000  1.0
  H  H19  1  0.79775000  0.51946000  0.82135000  1.0
  H  H20  1  0.91950000  0.40135000  0.45375000  1.0
  H  H21  1  0.32062000  0.59815000  0.04630000  1.0
  H  H22  1  0.08050000  0.59866000  0.54626000  1.0
  H  H23  1  0.67936000  0.40186000  0.95370000  1.0
  H  H24  1  0.06595000  0.28554000  0.36760000  1.0
  H  H25  1  0.35132000  0.71422000  0.13215000  1.0
  H  H26  1  0.93406000  0.71446000  0.63240000  1.0
  H  H27  1  0.64867000  0.28578000  0.86786000  1.0
  H  H28  1  0.07097000  0.43385000  0.24758000  1.0
  H  H29  1  0.50535000  0.56612000  0.25216000  1.0
  H  H30  1  0.92903000  0.56615000  0.75242000  1.0
  H  H31  1  0.49465000  0.43388000  0.74784000  1.0
  H  H32  1  0.62201000  0.72739000  0.28556000  1.0
  H  H33  1  0.34958000  0.27226000  0.21455000  1.0
  H  H34  1  0.37800000  0.27260000  0.71443000  1.0
  H  H35  1  0.65041000  0.72774000  0.78545000  1.0
  H  H36  1  0.44520000  0.86567000  0.19404000  1.0
  H  H37  1  0.31140000  0.13403000  0.30633000  1.0
  H  H38  1  0.55482000  0.13433000  0.80595000  1.0
  H  H39  1  0.68861000  0.86596000  0.69367000  1.0
  H  H40  1  0.81902000  0.98539000  0.14819000  1.0
  H  H41  1  0.80508000  0.01457000  0.35171000  1.0
  H  H42  1  0.18100000  0.01461000  0.85181000  1.0
  H  H43  1  0.19491000  0.98542000  0.64829000  1.0
  H  H44  1  0.98184000  0.83919000  0.24040000  1.0
  H  H45  1  0.82132000  0.16071000  0.25922000  1.0
  H  H46  1  0.01818000  0.16080000  0.75960000  1.0
  H  H47  1  0.17868000  0.83928000  0.74078000  1.0
  H  H48  1  0.14217000  0.16962000  0.05515000  1.0
  H  H49  1  0.31306000  0.82994000  0.44505000  1.0
  H  H50  1  0.85785000  0.83037000  0.94485000  1.0
  H  H51  1  0.68696000  0.17005000  0.55495000  1.0
  H  H52  1  0.29783000  0.02175000  0.15212000  1.0
  H  H53  1  0.32085000  0.97775000  0.34799000  1.0
  H  H54  1  0.70219000  0.97824000  0.84788000  1.0
  H  H55  1  0.67915000  0.02225000  0.65201000  1.0
  H  H56  1  0.70350000  0.06094000  0.04428000  1.0
  H  H57  1  0.76528000  0.93912000  0.45591000  1.0
  H  H58  1  0.29652000  0.93906000  0.95572000  1.0
  H  H59  1  0.23471000  0.06089000  0.54409000  1.0
  H  H60  1  0.53053000  0.20955000  0.95681000  1.0
  H  H61  1  0.74110000  0.79051000  0.54345000  1.0
  H  H62  1  0.46946000  0.79046000  0.04319000  1.0
  H  H63  1  0.25891000  0.20949000  0.45655000  1.0
  C  C64  1  0.78435000  0.51248000  0.35836000  1.0
  C  C65  1  0.29708000  0.48709000  0.14188000  1.0
  C  C66  1  0.21564000  0.48752000  0.64164000  1.0
  C  C67  1  0.70292000  0.51291000  0.85812000  1.0
  C  C68  1  0.85379000  0.40199000  0.39896000  1.0
  C  C69  1  0.25579000  0.59755000  0.10119000  1.0
  C  C70  1  0.14621000  0.59801000  0.60104000  1.0
  C  C71  1  0.74420000  0.40245000  0.89881000  1.0
  C  C72  1  0.97148000  0.35044000  0.33843000  1.0
  C  C73  1  0.32194000  0.64932000  0.16148000  1.0
  C  C74  1  0.02852000  0.64956000  0.66157000  1.0
  C  C75  1  0.67807000  0.35067000  0.83853000  1.0
  C  C76  1  0.03032000  0.43882000  0.30869000  1.0
  C  C77  1  0.46927000  0.56104000  0.19116000  1.0
  C  C78  1  0.96967000  0.56118000  0.69131000  1.0
  C  C79  1  0.53073000  0.43895000  0.80884000  1.0
  C  C80  1  0.73843000  0.58920000  0.41884000  1.0
  C  C81  1  0.32787000  0.41047000  0.08133000  1.0
  C  C82  1  0.26156000  0.41080000  0.58115000  1.0
  C  C83  1  0.67212000  0.58953000  0.91867000  1.0
  C  C84  1  0.73960000  0.34798000  0.42500000  1.0
  C  C85  1  0.08761000  0.65149000  0.07528000  1.0
  C  C86  1  0.26041000  0.65202000  0.57501000  1.0
  C  C87  1  0.91238000  0.34852000  0.92472000  1.0
  C  C88  1  0.90781000  0.31511000  0.26741000  1.0
  C  C89  1  0.22297000  0.68478000  0.23251000  1.0
  C  C90  1  0.09219000  0.68490000  0.73258000  1.0
  C  C91  1  0.77702000  0.31521000  0.76750000  1.0
  C  C92  1  0.16023000  0.44154000  0.36444000  1.0
  C  C93  1  0.60158000  0.55840000  0.13517000  1.0
  C  C94  1  0.83977000  0.55847000  0.63556000  1.0
  C  C95  1  0.39841000  0.44160000  0.86482000  1.0
  C  C96  1  0.66241000  0.78577000  0.25401000  1.0
  C  C97  1  0.44848000  0.21392000  0.24603000  1.0
  C  C98  1  0.33761000  0.21422000  0.74598000  1.0
  C  C99  1  0.55151000  0.78609000  0.75397000  1.0
  C  C100  1  0.56241000  0.86518000  0.20231000  1.0
  C  C101  1  0.42805000  0.13459000  0.29791000  1.0
  C  C102  1  0.43760000  0.13482000  0.79769000  1.0
  C  C103  1  0.57194000  0.86542000  0.70208000  1.0
  C  C104  1  0.61570000  0.93980000  0.16183000  1.0
  C  C105  1  0.55616000  0.06004000  0.33828000  1.0
  C  C106  1  0.38431000  0.06019000  0.83817000  1.0
  C  C107  1  0.44384000  0.93997000  0.66171000  1.0
  C  C108  1  0.77018000  0.92924000  0.17591000  1.0
  C  C109  1  0.70004000  0.07066000  0.32403000  1.0
  C  C110  1  0.22983000  0.07076000  0.82409000  1.0
  C  C111  1  0.29996000  0.92933000  0.67597000  1.0
  C  C112  1  0.86204000  0.84793000  0.22828000  1.0
  C  C113  1  0.71035000  0.15189000  0.27149000  1.0
  C  C114  1  0.13798000  0.15206000  0.77172000  1.0
  C  C115  1  0.28965000  0.84811000  0.72851000  1.0
  C  C116  1  0.26717000  0.14200000  0.05603000  1.0
  C  C117  1  0.41031000  0.85772000  0.44422000  1.0
  C  C118  1  0.73284000  0.85799000  0.94398000  1.0
  C  C119  1  0.58971000  0.14228000  0.55578000  1.0
  C  C120  1  0.35548000  0.05914000  0.10872000  1.0
  C  C121  1  0.41575000  0.94052000  0.39146000  1.0
  C  C122  1  0.64453000  0.94086000  0.89128000  1.0
  C  C123  1  0.58426000  0.05948000  0.60853000  1.0
  C  C124  1  0.51632000  0.02670000  0.10670000  1.0
  C  C125  1  0.54395000  0.97311000  0.39348000  1.0
  C  C126  1  0.48370000  0.97330000  0.89330000  1.0
  C  C127  1  0.45604000  0.02690000  0.60652000  1.0
  C  C128  1  0.58005000  0.08130000  0.04999000  1.0
  C  C129  1  0.66233000  0.91863000  0.45019000  1.0
  C  C130  1  0.41995000  0.91871000  0.95001000  1.0
  C  C131  1  0.33766000  0.08137000  0.54981000  1.0
  C  C132  1  0.48465000  0.16405000  0.00008000  1.0
  C  C133  1  0.64968000  0.83590000  0.50018000  1.0
  C  C134  1  0.51536000  0.83595000  0.99992000  1.0
  C  C135  1  0.35033000  0.16409000  0.49983000  1.0
  N  N136  1  0.80969000  0.77694000  0.26741000  1.0
  N  N137  1  0.58688000  0.22278000  0.23241000  1.0
  N  N138  1  0.19032000  0.22306000  0.73259000  1.0
  N  N139  1  0.41312000  0.77722000  0.76759000  1.0
  N  N140  1  0.33068000  0.19411000  0.00253000  1.0
  N  N141  1  0.52583000  0.80578000  0.49777000  1.0
  N  N142  1  0.66933000  0.80588000  0.99747000  1.0
  N  N143  1  0.47418000  0.19422000  0.50223000  1.0
  O  O144  1  0.89946000  0.53103000  0.30633000  1.0
  O  O145  1  0.43078000  0.46877000  0.19377000  1.0
  O  O146  1  0.10053000  0.46898000  0.69367000  1.0
  O  O147  1  0.56921000  0.53123000  0.80623000  1.0
  O  O148  1  0.06066000  0.76465000  0.38948000  1.0
  O  O149  1  0.82557000  0.23555000  0.11019000  1.0
  O  O150  1  0.93935000  0.23534000  0.61052000  1.0
  O  O151  1  0.17442000  0.76446000  0.88981000  1.0
  O  O152  1  0.81551000  0.64740000  0.42883000  1.0
  O  O153  1  0.46319000  0.35248000  0.07114000  1.0
  O  O154  1  0.18446000  0.35261000  0.57117000  1.0
  O  O155  1  0.53680000  0.64751000  0.92886000  1.0
  O  O156  1  0.61998000  0.58693000  0.45642000  1.0
  O  O157  1  0.20704000  0.41279000  0.04388000  1.0
  O  O158  1  0.37999000  0.41308000  0.54358000  1.0
  O  O159  1  0.79295000  0.58722000  0.95611000  1.0
  O  O160  1  0.60033000  0.38993000  0.39849000  1.0
  O  O161  1  0.99027000  0.60943000  0.10162000  1.0
  O  O162  1  0.39967000  0.61007000  0.60151000  1.0
  O  O163  1  0.00973000  0.39057000  0.89838000  1.0
  O  O164  1  0.78864000  0.26553000  0.47177000  1.0
  O  O165  1  0.05409000  0.73411000  0.02867000  1.0
  O  O166  1  0.21137000  0.73447000  0.52823000  1.0
  O  O167  1  0.94590000  0.26591000  0.97135000  1.0
  O  O168  1  0.76587000  0.36012000  0.24888000  1.0
  O  O169  1  0.12593000  0.63986000  0.25105000  1.0
  O  O170  1  0.23412000  0.63989000  0.75112000  1.0
  O  O171  1  0.87406000  0.36013000  0.74895000  1.0
  O  O172  1  0.00097000  0.24546000  0.23229000  1.0
  O  O173  1  0.24647000  0.75446000  0.26761000  1.0
  O  O174  1  0.99903000  0.75454000  0.76771000  1.0
  O  O175  1  0.75354000  0.24552000  0.73240000  1.0
  O  O176  1  0.27659000  0.35899000  0.37141000  1.0
  O  O177  1  0.63505000  0.64108000  0.12800000  1.0
  O  O178  1  0.72342000  0.64102000  0.62858000  1.0
  O  O179  1  0.36494000  0.35891000  0.87199000  1.0
  O  O180  1  0.14581000  0.51893000  0.39924000  1.0
  O  O181  1  0.66472000  0.48093000  0.10046000  1.0
  O  O182  1  0.85418000  0.48108000  0.60076000  1.0
  O  O183  1  0.33526000  0.51907000  0.89953000  1.0
