# generated using pymatgen
data_H16PbC24(NO2)2
_symmetry_space_group_name_H-M   'P 1'
_cell_length_a   7.18901000
_cell_length_b   8.33669667
_cell_length_c   9.44632000
_cell_angle_alpha   104.27764601
_cell_angle_beta   90.06720000
_cell_angle_gamma   115.50916723
_symmetry_Int_Tables_number   1
_chemical_formula_structural   H16PbC24(NO2)2
_chemical_formula_sum   'H16 Pb1 C24 N2 O4'
_cell_volume   491.42453296
_cell_formula_units_Z   1
loop_
 _symmetry_equiv_pos_site_id
 _symmetry_equiv_pos_as_xyz
  1  'x, y, z'
loop_
 _atom_site_type_symbol
 _atom_site_label
 _atom_site_symmetry_multiplicity
 _atom_site_fract_x
 _atom_site_fract_y
 _atom_site_fract_z
 _atom_site_occupancy
  H  H0  1  0.37617000  0.42827000  0.53010000  1.0
  H  H1  1  0.94971000  0.57187000  0.47003000  1.0
  H  H2  1  0.11862000  0.52787000  0.64195000  1.0
  H  H3  1  0.59241000  0.47251000  0.35838000  1.0
  H  H4  1  0.97923000  0.44518000  0.86789000  1.0
  H  H5  1  0.53470000  0.55499000  0.13234000  1.0
  H  H6  1  0.37964000  0.18223000  0.87743000  1.0
  H  H7  1  0.19771000  0.81726000  0.12245000  1.0
  H  H8  1  0.78842000  0.25347000  0.98178000  1.0
  H  H9  1  0.53513000  0.74615000  0.01797000  1.0
  H  H10  1  0.66231000  0.16404000  0.21050000  1.0
  H  H11  1  0.49773000  0.83559000  0.78923000  1.0
  H  H12  1  0.20910000  0.14981000  0.32720000  1.0
  H  H13  1  0.05871000  0.85057000  0.67305000  1.0
  H  H14  1  0.35842000  0.23835000  0.10732000  1.0
  H  H15  1  0.12022000  0.76197000  0.89289000  1.0
  Pb  Pb16  1  0.74786000  0.00068000  0.50042000  1.0
  C  C17  1  0.54098000  0.22755000  0.63153000  1.0
  C  C18  1  0.31490000  0.77262000  0.36824000  1.0
  C  C19  1  0.39221000  0.29808000  0.69830000  1.0
  C  C20  1  0.09531000  0.70163000  0.30163000  1.0
  C  C21  1  0.31777000  0.39414000  0.63032000  1.0
  C  C22  1  0.92513000  0.60586000  0.36973000  1.0
  C  C23  1  0.17132000  0.44861000  0.69319000  1.0
  C  C24  1  0.72407000  0.55151000  0.30696000  1.0
  C  C25  1  0.09632000  0.40505000  0.82166000  1.0
  C  C26  1  0.69202000  0.59483000  0.17838000  1.0
  C  C27  1  0.16997000  0.30951000  0.89174000  1.0
  C  C28  1  0.86090000  0.69015000  0.10818000  1.0
  C  C29  1  0.32041000  0.25944000  0.82910000  1.0
  C  C30  1  0.06151000  0.74015000  0.17080000  1.0
  C  C31  1  0.08775000  0.25822000  0.02534000  1.0
  C  C32  1  0.82965000  0.74149000  0.97458000  1.0
  C  C33  1  0.88903000  0.23659000  0.05733000  1.0
  C  C34  1  0.65243000  0.76305000  0.94250000  1.0
  C  C35  1  0.81720000  0.18506000  0.18353000  1.0
  C  C36  1  0.63171000  0.81465000  0.81633000  1.0
  C  C37  1  0.11997000  0.17521000  0.24882000  1.0
  C  C38  1  0.94428000  0.82488000  0.75126000  1.0
  C  C39  1  0.20328000  0.22479000  0.12487000  1.0
  C  C40  1  0.97845000  0.77530000  0.87520000  1.0
  N  N41  1  0.92987000  0.15554000  0.27863000  1.0
  N  N42  1  0.77367000  0.84437000  0.72133000  1.0
  O  O43  1  0.62615000  0.16818000  0.71193000  1.0
  O  O44  1  0.45898000  0.83225000  0.28780000  1.0
  O  O45  1  0.57102000  0.22256000  0.49798000  1.0
  O  O46  1  0.35064000  0.77790000  0.50186000  1.0
