# generated using pymatgen
data_CuP2H27C35NCl
_symmetry_space_group_name_H-M   'P 1'
_cell_length_a   18.38070356
_cell_length_b   18.38520000
_cell_length_c   21.19220000
_cell_angle_alpha   90.01230000
_cell_angle_beta   89.99999993
_cell_angle_gamma   119.99226998
_symmetry_Int_Tables_number   1
_chemical_formula_structural   CuP2H27C35NCl
_chemical_formula_sum   'Cu6 P12 H162 C210 N6 Cl6'
_cell_volume   6202.56001207
_cell_formula_units_Z   6
loop_
 _symmetry_equiv_pos_site_id
 _symmetry_equiv_pos_as_xyz
  1  'x, y, z'
loop_
 _atom_site_type_symbol
 _atom_site_label
 _atom_site_symmetry_multiplicity
 _atom_site_fract_x
 _atom_site_fract_y
 _atom_site_fract_z
 _atom_site_occupancy
  Cu  Cu0  1  0.50681000  0.66632000  0.65711000  1.0
  Cu  Cu1  1  0.15925000  0.49305000  0.99046000  1.0
  Cu  Cu2  1  0.33371000  0.84055000  0.32383000  1.0
  Cu  Cu3  1  0.84049000  0.33368000  0.34289000  1.0
  Cu  Cu4  1  0.66620000  0.50695000  0.00954000  1.0
  Cu  Cu5  1  0.49316000  0.15945000  0.67617000  1.0
  P  P6  1  0.38234000  0.64603000  0.69138000  1.0
  P  P7  1  0.26344000  0.61743000  0.02474000  1.0
  P  P8  1  0.35401000  0.73639000  0.35804000  1.0
  P  P9  1  0.73631000  0.35397000  0.30862000  1.0
  P  P10  1  0.64602000  0.38257000  0.97526000  1.0
  P  P11  1  0.61762000  0.26361000  0.64195000  1.0
  P  P12  1  0.14158000  0.47179000  0.88614000  1.0
  P  P13  1  0.33002000  0.85807000  0.21953000  1.0
  P  P14  1  0.52817000  0.66988000  0.55282000  1.0
  P  P15  1  0.66979000  0.52821000  0.11386000  1.0
  P  P16  1  0.47195000  0.14193000  0.78047000  1.0
  P  P17  1  0.85829000  0.33012000  0.44718000  1.0
  H  H18  1  0.66153000  0.64071000  0.93662000  1.0
  H  H19  1  0.97909000  0.33832000  0.27017000  1.0
  H  H20  1  0.35928000  0.02074000  0.60343000  1.0
  H  H21  1  0.02082000  0.35929000  0.06338000  1.0
  H  H22  1  0.64077000  0.66169000  0.72983000  1.0
  H  H23  1  0.33854000  0.97925000  0.39657000  1.0
  H  H24  1  0.55667000  0.66207000  0.87584000  1.0
  H  H25  1  0.10518000  0.44299000  0.20923000  1.0
  H  H26  1  0.33810000  0.89478000  0.54244000  1.0
  H  H27  1  0.89460000  0.33793000  0.12416000  1.0
  H  H28  1  0.66219000  0.55701000  0.79077000  1.0
  H  H29  1  0.44332000  0.10522000  0.45756000  1.0
  H  H30  1  0.36642000  0.41466000  0.93748000  1.0
  H  H31  1  0.04809000  0.63334000  0.27090000  1.0
  H  H32  1  0.58564000  0.95207000  0.60409000  1.0
  H  H33  1  0.95176000  0.58534000  0.06253000  1.0
  H  H34  1  0.41475000  0.36666000  0.72910000  1.0
  H  H35  1  0.63357000  0.04793000  0.39591000  1.0
  H  H36  1  0.47815000  0.40628000  0.99773000  1.0
  H  H37  1  0.92795000  0.52173000  0.33115000  1.0
  H  H38  1  0.59393000  0.07208000  0.66441000  1.0
  H  H39  1  0.07187000  0.59371000  0.00227000  1.0
  H  H40  1  0.40621000  0.47826000  0.66885000  1.0
  H  H41  1  0.52185000  0.92792000  0.33559000  1.0
  H  H42  1  0.47505000  0.62068000  0.78907000  1.0
  H  H43  1  0.14547000  0.52468000  0.12242000  1.0
  H  H44  1  0.37956000  0.85461000  0.45562000  1.0
  H  H45  1  0.85437000  0.37933000  0.21093000  1.0
  H  H46  1  0.62079000  0.47532000  0.87758000  1.0
  H  H47  1  0.52495000  0.14538000  0.54438000  1.0
  H  H48  1  0.21978000  0.56444000  0.76390000  1.0
  H  H49  1  0.34443000  0.77986000  0.09732000  1.0
  H  H50  1  0.43558000  0.65546000  0.43058000  1.0
  H  H51  1  0.65534000  0.43556000  0.23609000  1.0
  H  H52  1  0.56457000  0.22014000  0.90268000  1.0
  H  H53  1  0.78012000  0.34455000  0.56942000  1.0
  H  H54  1  0.28745000  0.47694000  0.92990000  1.0
  H  H55  1  0.18920000  0.71224000  0.26329000  1.0
  H  H56  1  0.52330000  0.81082000  0.59650000  1.0
  H  H57  1  0.81051000  0.52306000  0.07010000  1.0
  H  H58  1  0.47696000  0.28775000  0.73672000  1.0
  H  H59  1  0.71248000  0.18917000  0.40350000  1.0
  H  H60  1  0.50095000  0.81473000  0.72479000  1.0
  H  H61  1  0.31357000  0.49879000  0.05815000  1.0
  H  H62  1  0.18528000  0.68623000  0.39161000  1.0
  H  H63  1  0.68622000  0.18527000  0.27521000  1.0
  H  H64  1  0.81478000  0.50121000  0.94186000  1.0
  H  H65  1  0.49905000  0.31376000  0.60839000  1.0
  H  H66  1  0.48840000  0.93987000  0.75261000  1.0
  H  H67  1  0.45124000  0.51131000  0.08607000  1.0
  H  H68  1  0.06013000  0.54856000  0.41930000  1.0
  H  H69  1  0.54853000  0.06013000  0.24740000  1.0
  H  H70  1  0.93993000  0.48869000  0.91393000  1.0
  H  H71  1  0.51157000  0.45144000  0.58070000  1.0
  H  H72  1  0.35079000  0.93388000  0.74309000  1.0
  H  H73  1  0.58289000  0.64888000  0.07652000  1.0
  H  H74  1  0.06606000  0.41694000  0.40954000  1.0
  H  H75  1  0.41691000  0.06612000  0.25692000  1.0
  H  H76  1  0.93401000  0.35112000  0.92348000  1.0
  H  H77  1  0.64912000  0.58306000  0.59046000  1.0
  H  H78  1  0.22384000  0.80116000  0.70979000  1.0
  H  H79  1  0.57704000  0.77581000  0.04328000  1.0
  H  H80  1  0.19891000  0.42282000  0.37632000  1.0
  H  H81  1  0.42268000  0.19884000  0.29021000  1.0
  H  H82  1  0.80123000  0.22419000  0.95672000  1.0
  H  H83  1  0.77609000  0.57718000  0.62368000  1.0
  H  H84  1  0.23474000  0.67534000  0.68486000  1.0
  H  H85  1  0.44032000  0.76493000  0.01840000  1.0
  H  H86  1  0.32476000  0.55953000  0.35161000  1.0
  H  H87  1  0.55940000  0.32466000  0.31514000  1.0
  H  H88  1  0.67539000  0.23506000  0.98160000  1.0
  H  H89  1  0.76523000  0.44047000  0.64839000  1.0
  H  H90  1  0.31190000  0.67400000  0.57673000  1.0
  H  H91  1  0.36214000  0.68816000  0.91038000  1.0
  H  H92  1  0.32593000  0.63788000  0.24348000  1.0
  H  H93  1  0.63790000  0.32600000  0.42327000  1.0
  H  H94  1  0.67398000  0.31184000  0.08962000  1.0
  H  H95  1  0.68805000  0.36212000  0.75652000  1.0
  H  H96  1  0.20565000  0.57788000  0.50064000  1.0
  H  H97  1  0.37237000  0.79444000  0.83432000  1.0
  H  H98  1  0.42199000  0.62774000  0.16732000  1.0
  H  H99  1  0.62777000  0.42212000  0.49936000  1.0
  H  H100  1  0.57793000  0.20556000  0.16568000  1.0
  H  H101  1  0.79425000  0.37226000  0.83268000  1.0
  H  H102  1  0.12775000  0.42383000  0.51989000  1.0
  H  H103  1  0.29605000  0.87225000  0.85349000  1.0
  H  H104  1  0.57610000  0.70389000  0.18652000  1.0
  H  H105  1  0.70392000  0.57618000  0.48010000  1.0
  H  H106  1  0.42380000  0.12775000  0.14651000  1.0
  H  H107  1  0.87221000  0.29611000  0.81348000  1.0
  H  H108  1  0.15627000  0.36622000  0.61728000  1.0
  H  H109  1  0.20968000  0.84361000  0.95079000  1.0
  H  H110  1  0.63385000  0.79002000  0.28389000  1.0
  H  H111  1  0.79005000  0.63378000  0.38272000  1.0
  H  H112  1  0.36607000  0.15639000  0.04921000  1.0
  H  H113  1  0.84383000  0.20998000  0.71611000  1.0
  H  H114  1  0.26305000  0.46213000  0.69407000  1.0
  H  H115  1  0.19865000  0.73674000  0.02749000  1.0
  H  H116  1  0.53802000  0.80099000  0.36071000  1.0
  H  H117  1  0.80092000  0.53787000  0.30593000  1.0
  H  H118  1  0.46191000  0.26326000  0.97251000  1.0
  H  H119  1  0.73703000  0.19901000  0.63929000  1.0
  H  H120  1  0.14059000  0.39070000  0.76361000  1.0
  H  H121  1  0.25008000  0.85930000  0.09686000  1.0
  H  H122  1  0.60921000  0.74980000  0.43024000  1.0
  H  H123  1  0.74989000  0.60930000  0.23639000  1.0
  H  H124  1  0.39078000  0.14070000  0.90315000  1.0
  H  H125  1  0.85941000  0.25021000  0.56976000  1.0
  H  H126  1  0.06023000  0.24286000  0.72726000  1.0
  H  H127  1  0.18283000  0.93994000  0.06060000  1.0
  H  H128  1  0.75708000  0.81717000  0.39392000  1.0
  H  H129  1  0.81737000  0.75714000  0.27274000  1.0
  H  H130  1  0.24289000  0.06007000  0.93940000  1.0
  H  H131  1  0.93991000  0.18283000  0.60608000  1.0
  H  H132  1  0.96272000  0.13049000  0.80096000  1.0
  H  H133  1  0.16807000  0.03743000  0.13441000  1.0
  H  H134  1  0.86947000  0.83208000  0.46764000  1.0
  H  H135  1  0.83223000  0.86951000  0.19904000  1.0
  H  H136  1  0.13064000  0.96257000  0.86559000  1.0
  H  H137  1  0.03738000  0.16791000  0.53236000  1.0
  H  H138  1  0.94948000  0.16657000  0.91210000  1.0
  H  H139  1  0.21731000  0.05050000  0.24554000  1.0
  H  H140  1  0.83344000  0.78286000  0.57879000  1.0
  H  H141  1  0.78291000  0.83343000  0.08790000  1.0
  H  H142  1  0.16681000  0.94950000  0.75446000  1.0
  H  H143  1  0.05057000  0.21713000  0.42121000  1.0
  H  H144  1  0.03316000  0.31454000  0.94923000  1.0
  H  H145  1  0.28139000  0.96653000  0.28258000  1.0
  H  H146  1  0.68539000  0.71860000  0.61588000  1.0
  H  H147  1  0.71862000  0.68546000  0.05078000  1.0
  H  H148  1  0.31486000  0.03347000  0.71742000  1.0
  H  H149  1  0.96679000  0.28140000  0.38412000  1.0
  H  H150  1  0.01259000  0.41264000  0.78041000  1.0
  H  H151  1  0.39985000  0.98699000  0.11391000  1.0
  H  H152  1  0.58731000  0.59999000  0.44714000  1.0
  H  H153  1  0.59995000  0.58737000  0.21959000  1.0
  H  H154  1  0.41286000  0.01301000  0.88609000  1.0
  H  H155  1  0.98732000  0.40001000  0.55286000  1.0
  H  H156  1  0.94959000  0.48463000  0.72344000  1.0
  H  H157  1  0.53486000  0.05013000  0.05702000  1.0
  H  H158  1  0.51538000  0.46498000  0.39023000  1.0
  H  H159  1  0.46496000  0.51537000  0.27656000  1.0
  H  H160  1  0.48473000  0.94987000  0.94298000  1.0
  H  H161  1  0.05040000  0.53502000  0.60977000  1.0
  H  H162  1  0.99158000  0.63277000  0.74987000  1.0
  H  H163  1  0.64116000  0.00832000  0.08346000  1.0
  H  H164  1  0.36729000  0.35874000  0.41676000  1.0
  H  H165  1  0.35881000  0.36723000  0.25012000  1.0
  H  H166  1  0.63284000  0.99167000  0.91654000  1.0
  H  H167  1  0.00855000  0.64126000  0.58324000  1.0
  H  H168  1  0.09676000  0.70737000  0.83547000  1.0
  H  H169  1  0.61075000  0.90325000  0.16904000  1.0
  H  H170  1  0.29271000  0.38926000  0.50239000  1.0
  H  H171  1  0.38939000  0.29263000  0.16453000  1.0
  H  H172  1  0.70750000  0.09675000  0.83096000  1.0
  H  H173  1  0.90345000  0.61074000  0.49761000  1.0
  H  H174  1  0.15819000  0.63452000  0.89358000  1.0
  H  H175  1  0.47638000  0.84158000  0.22707000  1.0
  H  H176  1  0.36544000  0.52364000  0.56037000  1.0
  H  H177  1  0.52367000  0.36549000  0.10642000  1.0
  H  H178  1  0.63481000  0.15843000  0.77293000  1.0
  H  H179  1  0.84180000  0.47636000  0.43963000  1.0
  C  C180  1  0.59484000  0.59331000  0.93598000  1.0
  C  C181  1  0.99834000  0.40498000  0.26947000  1.0
  C  C182  1  0.40680000  0.00160000  0.60270000  1.0
  C  C183  1  0.00153000  0.40669000  0.06402000  1.0
  C  C184  1  0.59336000  0.59502000  0.73053000  1.0
  C  C185  1  0.40520000  0.99840000  0.39730000  1.0
  C  C186  1  0.53652000  0.60374000  0.90160000  1.0
  C  C187  1  0.06704000  0.46322000  0.23502000  1.0
  C  C188  1  0.39646000  0.93298000  0.56821000  1.0
  C  C189  1  0.93278000  0.39626000  0.09840000  1.0
  C  C190  1  0.60381000  0.53677000  0.76498000  1.0
  C  C191  1  0.46348000  0.06702000  0.43179000  1.0
  C  C192  1  0.45227000  0.53936000  0.90070000  1.0
  C  C193  1  0.08690000  0.54746000  0.23410000  1.0
  C  C194  1  0.46091000  0.91318000  0.56726000  1.0
  C  C195  1  0.91291000  0.46064000  0.09930000  1.0
  C  C196  1  0.53944000  0.45254000  0.76590000  1.0
  C  C197  1  0.54772000  0.08681000  0.43274000  1.0
  C  C198  1  0.43087000  0.46691000  0.93617000  1.0
  C  C199  1  0.03587000  0.56890000  0.26959000  1.0
  C  C200  1  0.53335000  0.96424000  0.60278000  1.0
  C  C201  1  0.96396000  0.53309000  0.06383000  1.0
  C  C202  1  0.46697000  0.43110000  0.73041000  1.0
  C  C203  1  0.56911000  0.03575000  0.39722000  1.0
  C  C204  1  0.49291000  0.46171000  0.96964000  1.0
  C  C205  1  0.96863000  0.50692000  0.30308000  1.0
  C  C206  1  0.53849000  0.03139000  0.63632000  1.0
  C  C207  1  0.03120000  0.53829000  0.03036000  1.0
  C  C208  1  0.46171000  0.49307000  0.69692000  1.0
  C  C209  1  0.50710000  0.96861000  0.36368000  1.0
  C  C210  1  0.38880000  0.54704000  0.86366000  1.0
  C  C211  1  0.15801000  0.61090000  0.19704000  1.0
  C  C212  1  0.45324000  0.84206000  0.53021000  1.0
  C  C213  1  0.84176000  0.45296000  0.13634000  1.0
  C  C214  1  0.54711000  0.38910000  0.80296000  1.0
  C  C215  1  0.61118000  0.15794000  0.46979000  1.0
  C  C216  1  0.41062000  0.59114000  0.80620000  1.0
  C  C217  1  0.18031000  0.58909000  0.13957000  1.0
  C  C218  1  0.40910000  0.81974000  0.47277000  1.0
  C  C219  1  0.81948000  0.40886000  0.19380000  1.0
  C  C220  1  0.59122000  0.41091000  0.86043000  1.0
  C  C221  1  0.58936000  0.18026000  0.52723000  1.0
  C  C222  1  0.35005000  0.59521000  0.76913000  1.0
  C  C223  1  0.24493000  0.64964000  0.10252000  1.0
  C  C224  1  0.40493000  0.75503000  0.43575000  1.0
  C  C225  1  0.75484000  0.40479000  0.23087000  1.0
  C  C226  1  0.59529000  0.35036000  0.89749000  1.0
  C  C227  1  0.64990000  0.24497000  0.56425000  1.0
  C  C228  1  0.26715000  0.55937000  0.79147000  1.0
  C  C229  1  0.29200000  0.73251000  0.12488000  1.0
  C  C230  1  0.44071000  0.70794000  0.45812000  1.0
  C  C231  1  0.70778000  0.44063000  0.20853000  1.0
  C  C232  1  0.55949000  0.26749000  0.87512000  1.0
  C  C233  1  0.73277000  0.29206000  0.54188000  1.0
  C  C234  1  0.24521000  0.51714000  0.84928000  1.0
  C  C235  1  0.27170000  0.75445000  0.18269000  1.0
  C  C236  1  0.48295000  0.72824000  0.51592000  1.0
  C  C237  1  0.72807000  0.48286000  0.15073000  1.0
  C  C238  1  0.51725000  0.24555000  0.81731000  1.0
  C  C239  1  0.75471000  0.27176000  0.48408000  1.0
  C  C240  1  0.30570000  0.50973000  0.88458000  1.0
  C  C241  1  0.20379000  0.69399000  0.21797000  1.0
  C  C242  1  0.49048000  0.79622000  0.55118000  1.0
  C  C243  1  0.79597000  0.49027000  0.11542000  1.0
  C  C244  1  0.50980000  0.30601000  0.78203000  1.0
  C  C245  1  0.69426000  0.20378000  0.44882000  1.0
  C  C246  1  0.36879000  0.73716000  0.70302000  1.0
  C  C247  1  0.36813000  0.63091000  0.03640000  1.0
  C  C248  1  0.26290000  0.63171000  0.36975000  1.0
  C  C249  1  0.63163000  0.26284000  0.29698000  1.0
  C  C250  1  0.73722000  0.36909000  0.96360000  1.0
  C  C251  1  0.63119000  0.36829000  0.63025000  1.0
  C  C252  1  0.44017000  0.81202000  0.72187000  1.0
  C  C253  1  0.37162000  0.55955000  0.05525000  1.0
  C  C254  1  0.18801000  0.62820000  0.38862000  1.0
  C  C255  1  0.62815000  0.18798000  0.27813000  1.0
  C  C256  1  0.81208000  0.44046000  0.94475000  1.0
  C  C257  1  0.55981000  0.37180000  0.61137000  1.0
  C  C258  1  0.43320000  0.88230000  0.73677000  1.0
  C  C259  1  0.44888000  0.56650000  0.07021000  1.0
  C  C260  1  0.11771000  0.55094000  0.40345000  1.0
  C  C261  1  0.55090000  0.11770000  0.26323000  1.0
  C  C262  1  0.88238000  0.43350000  0.92979000  1.0
  C  C263  1  0.56677000  0.44906000  0.59655000  1.0
  C  C264  1  0.35583000  0.87880000  0.73176000  1.0
  C  C265  1  0.52275000  0.64384000  0.06519000  1.0
  C  C266  1  0.12120000  0.47709000  0.39832000  1.0
  C  C267  1  0.47702000  0.12119000  0.26824000  1.0
  C  C268  1  0.87891000  0.35616000  0.93481000  1.0
  C  C269  1  0.64411000  0.52291000  0.60168000  1.0
  C  C270  1  0.28464000  0.80434000  0.71294000  1.0
  C  C271  1  0.51945000  0.71501000  0.04640000  1.0
  C  C272  1  0.19570000  0.48040000  0.37954000  1.0
  C  C273  1  0.48030000  0.19566000  0.28706000  1.0
  C  C274  1  0.80444000  0.28498000  0.95360000  1.0
  C  C275  1  0.71530000  0.51960000  0.62046000  1.0
  C  C276  1  0.29072000  0.73344000  0.69896000  1.0
  C  C277  1  0.44248000  0.70897000  0.03242000  1.0
  C  C278  1  0.26663000  0.55739000  0.36567000  1.0
  C  C279  1  0.55728000  0.26656000  0.30103000  1.0
  C  C280  1  0.73351000  0.29103000  0.96758000  1.0
  C  C281  1  0.70924000  0.44261000  0.63433000  1.0
  C  C282  1  0.29435000  0.57517000  0.64145000  1.0
  C  C283  1  0.28058000  0.70552000  0.97493000  1.0
  C  C284  1  0.42487000  0.71923000  0.30812000  1.0
  C  C285  1  0.71918000  0.42483000  0.35856000  1.0
  C  C286  1  0.57506000  0.29448000  0.02507000  1.0
  C  C287  1  0.70564000  0.28077000  0.69188000  1.0
  C  C288  1  0.27756000  0.60668000  0.58627000  1.0
  C  C289  1  0.32906000  0.72244000  0.91986000  1.0
  C  C290  1  0.39329000  0.67089000  0.25298000  1.0
  C  C291  1  0.67088000  0.39332000  0.41373000  1.0
  C  C292  1  0.60662000  0.27756000  0.08014000  1.0
  C  C293  1  0.72240000  0.32911000  0.74702000  1.0
  C  C294  1  0.21785000  0.55244000  0.54313000  1.0
  C  C295  1  0.33462000  0.78219000  0.87674000  1.0
  C  C296  1  0.44748000  0.66540000  0.20980000  1.0
  C  C297  1  0.66541000  0.44756000  0.45687000  1.0
  C  C298  1  0.55243000  0.21781000  0.12326000  1.0
  C  C299  1  0.78208000  0.33460000  0.79020000  1.0
  C  C300  1  0.17403000  0.46589000  0.55404000  1.0
  C  C301  1  0.29180000  0.82596000  0.88763000  1.0
  C  C302  1  0.53408000  0.70814000  0.22069000  1.0
  C  C303  1  0.70813000  0.53410000  0.44596000  1.0
  C  C304  1  0.46584000  0.17404000  0.11237000  1.0
  C  C305  1  0.82594000  0.29187000  0.77931000  1.0
  C  C306  1  0.19031000  0.43378000  0.60854000  1.0
  C  C307  1  0.24324000  0.80957000  0.94206000  1.0
  C  C308  1  0.56625000  0.75654000  0.27519000  1.0
  C  C309  1  0.75653000  0.56622000  0.39146000  1.0
  C  C310  1  0.43367000  0.19043000  0.05793000  1.0
  C  C311  1  0.80971000  0.24346000  0.72481000  1.0
  C  C312  1  0.25030000  0.48794000  0.65189000  1.0
  C  C313  1  0.23731000  0.74952000  0.98537000  1.0
  C  C314  1  0.51215000  0.76242000  0.31855000  1.0
  C  C315  1  0.76236000  0.51206000  0.34811000  1.0
  C  C316  1  0.48779000  0.25048000  0.01463000  1.0
  C  C317  1  0.74973000  0.23758000  0.68145000  1.0
  C  C318  1  0.08920000  0.36283000  0.85823000  1.0
  C  C319  1  0.27360000  0.91057000  0.19154000  1.0
  C  C320  1  0.63710000  0.72631000  0.52488000  1.0
  C  C321  1  0.72637000  0.63717000  0.14177000  1.0
  C  C322  1  0.36303000  0.08943000  0.80846000  1.0
  C  C323  1  0.91079000  0.27369000  0.47512000  1.0
  C  C324  1  0.09823000  0.34176000  0.79614000  1.0
  C  C325  1  0.24357000  0.90167000  0.12944000  1.0
  C  C326  1  0.65817000  0.75637000  0.46278000  1.0
  C  C327  1  0.75647000  0.65824000  0.20386000  1.0
  C  C328  1  0.34190000  0.09833000  0.87056000  1.0
  C  C329  1  0.90180000  0.24363000  0.53722000  1.0
  C  C330  1  0.05286000  0.25857000  0.77563000  1.0
  C  C331  1  0.20588000  0.94722000  0.10898000  1.0
  C  C332  1  0.74138000  0.79413000  0.44229000  1.0
  C  C333  1  0.79429000  0.74144000  0.22437000  1.0
  C  C334  1  0.25866000  0.05278000  0.89102000  1.0
  C  C335  1  0.94724000  0.20586000  0.55771000  1.0
  C  C336  1  0.99824000  0.19551000  0.81701000  1.0
  C  C337  1  0.19750000  0.00183000  0.15040000  1.0
  C  C338  1  0.80445000  0.80262000  0.48368000  1.0
  C  C339  1  0.80273000  0.80449000  0.18299000  1.0
  C  C340  1  0.19567000  0.99817000  0.84960000  1.0
  C  C341  1  0.00183000  0.19738000  0.51631000  1.0
  C  C342  1  0.99050000  0.21579000  0.87924000  1.0
  C  C343  1  0.22547000  0.00947000  0.21264000  1.0
  C  C344  1  0.78421000  0.77465000  0.54591000  1.0
  C  C345  1  0.77471000  0.78421000  0.12076000  1.0
  C  C346  1  0.21600000  0.99054000  0.78736000  1.0
  C  C347  1  0.00955000  0.22535000  0.45408000  1.0
  C  C348  1  0.03626000  0.29897000  0.89999000  1.0
  C  C349  1  0.26275000  0.96356000  0.23334000  1.0
  C  C350  1  0.70101000  0.73727000  0.56665000  1.0
  C  C351  1  0.73730000  0.70104000  0.10001000  1.0
  C  C352  1  0.29919000  0.03644000  0.76666000  1.0
  C  C353  1  0.96374000  0.26273000  0.43335000  1.0
  C  C354  1  0.09058000  0.51870000  0.84068000  1.0
  C  C355  1  0.42799000  0.90902000  0.17414000  1.0
  C  C356  1  0.48124000  0.57192000  0.50743000  1.0
  C  C357  1  0.57188000  0.48130000  0.15931000  1.0
  C  C358  1  0.51897000  0.09098000  0.82586000  1.0
  C  C359  1  0.90932000  0.42808000  0.49257000  1.0
  C  C360  1  0.03147000  0.47723000  0.79268000  1.0
  C  C361  1  0.44561000  0.96815000  0.12618000  1.0
  C  C362  1  0.52273000  0.55426000  0.45944000  1.0
  C  C363  1  0.55424000  0.52277000  0.20732000  1.0
  C  C364  1  0.47746000  0.03185000  0.87383000  1.0
  C  C365  1  0.96847000  0.44574000  0.54056000  1.0
  C  C366  1  0.99599000  0.51815000  0.76025000  1.0
  C  C367  1  0.52203000  0.00373000  0.09380000  1.0
  C  C368  1  0.48185000  0.47782000  0.42707000  1.0
  C  C369  1  0.47784000  0.48185000  0.23974000  1.0
  C  C370  1  0.51830000  0.99627000  0.90620000  1.0
  C  C371  1  0.00403000  0.52218000  0.57293000  1.0
  C  C372  1  0.01945000  0.60100000  0.77515000  1.0
  C  C373  1  0.58152000  0.98037000  0.10870000  1.0
  C  C374  1  0.39902000  0.41838000  0.44201000  1.0
  C  C375  1  0.41845000  0.39900000  0.22485000  1.0
  C  C376  1  0.60115000  0.01963000  0.89130000  1.0
  C  C377  1  0.98064000  0.58162000  0.55799000  1.0
  C  C378  1  0.07807000  0.64275000  0.82313000  1.0
  C  C379  1  0.56471000  0.92179000  0.15668000  1.0
  C  C380  1  0.35728000  0.43525000  0.49001000  1.0
  C  C381  1  0.43532000  0.35725000  0.17687000  1.0
  C  C382  1  0.64292000  0.07821000  0.84332000  1.0
  C  C383  1  0.92203000  0.56475000  0.50999000  1.0
  C  C384  1  0.11285000  0.60174000  0.85600000  1.0
  C  C385  1  0.48888000  0.88689000  0.18949000  1.0
  C  C386  1  0.39823000  0.51108000  0.52280000  1.0
  C  C387  1  0.51111000  0.39826000  0.14400000  1.0
  C  C388  1  0.60199000  0.11311000  0.81051000  1.0
  C  C389  1  0.88715000  0.48892000  0.47720000  1.0
  N  N390  1  0.57400000  0.52321000  0.96942000  1.0
  N  N391  1  0.94906000  0.42587000  0.30288000  1.0
  N  N392  1  0.47691000  0.05090000  0.63616000  1.0
  N  N393  1  0.05079000  0.47679000  0.03058000  1.0
  N  N394  1  0.52319000  0.57413000  0.69712000  1.0
  N  N395  1  0.42601000  0.94910000  0.36384000  1.0
  Cl  Cl396  1  0.61722000  0.78679000  0.69988000  1.0
  Cl  Cl397  1  0.16944000  0.38271000  0.03318000  1.0
  Cl  Cl398  1  0.21325000  0.83045000  0.36665000  1.0
  Cl  Cl399  1  0.83043000  0.21321000  0.30012000  1.0
  Cl  Cl400  1  0.78673000  0.61729000  0.96681000  1.0
  Cl  Cl401  1  0.38280000  0.16955000  0.63335000  1.0
