# generated using pymatgen
data_AlH15(C8O3)3
_symmetry_space_group_name_H-M   'P 1'
_cell_length_a   3.97927000
_cell_length_b   28.51350000
_cell_length_c   28.51345000
_cell_angle_alpha   59.99982598
_cell_angle_beta   89.99870000
_cell_angle_gamma   89.99890000
_symmetry_Int_Tables_number   1
_chemical_formula_structural   AlH15(C8O3)3
_chemical_formula_sum   'Al2 H30 C48 O18'
_cell_volume   2801.77706358
_cell_formula_units_Z   2
loop_
 _symmetry_equiv_pos_site_id
 _symmetry_equiv_pos_as_xyz
  1  'x, y, z'
loop_
 _atom_site_type_symbol
 _atom_site_label
 _atom_site_symmetry_multiplicity
 _atom_site_fract_x
 _atom_site_fract_y
 _atom_site_fract_z
 _atom_site_occupancy
  Al  Al0  1  0.97703000  0.00000000  0.50000000  1.0
  Al  Al1  1  0.97707000  0.66666000  0.16667000  1.0
  H  H2  1  0.18700000  0.51255000  0.29955000  1.0
  H  H3  1  0.18637000  0.41212000  0.34520000  1.0
  H  H4  1  0.74981000  0.42155000  0.21100000  1.0
  H  H5  1  0.74973000  0.24512000  0.45566000  1.0
  H  H6  1  0.18636000  0.25455000  0.32146000  1.0
  H  H7  1  0.18696000  0.15412000  0.36711000  1.0
  H  H8  1  0.48836000  0.33489000  0.27866000  1.0
  H  H9  1  0.48832000  0.33178000  0.38800000  1.0
  H  H10  1  0.18699000  0.79955000  0.18790000  1.0
  H  H11  1  0.18637000  0.84520000  0.24268000  1.0
  H  H12  1  0.74978000  0.71100000  0.36745000  1.0
  H  H13  1  0.74974000  0.95566000  0.29922000  1.0
  H  H14  1  0.18634000  0.82147000  0.42399000  1.0
  H  H15  1  0.18697000  0.86711000  0.47877000  1.0
  H  H16  1  0.48835000  0.77866000  0.38645000  1.0
  H  H17  1  0.48832000  0.88800000  0.28022000  1.0
  H  H18  1  0.18702000  0.68790000  0.01255000  1.0
  H  H19  1  0.18640000  0.74267000  0.91213000  1.0
  H  H20  1  0.74979000  0.86745000  0.92155000  1.0
  H  H21  1  0.74973000  0.79921000  0.74512000  1.0
  H  H22  1  0.18633000  0.92398000  0.75455000  1.0
  H  H23  1  0.18696000  0.97877000  0.65412000  1.0
  H  H24  1  0.48834000  0.88644000  0.83489000  1.0
  H  H25  1  0.48834000  0.78022000  0.83178000  1.0
  H  H26  1  0.82402000  0.56287000  0.15098000  1.0
  H  H27  1  0.82395000  0.10380000  0.51569000  1.0
  H  H28  1  0.82400000  0.65097000  0.28616000  1.0
  H  H29  1  0.82397000  0.01569000  0.38051000  1.0
  H  H30  1  0.82401000  0.78615000  0.06287000  1.0
  H  H31  1  0.82395000  0.88051000  0.60380000  1.0
  C  C32  1  0.47306000  0.95435000  0.58402000  1.0
  C  C33  1  0.47306000  0.08402000  0.46163000  1.0
  C  C34  1  0.47309000  0.96163000  0.45435000  1.0
  C  C35  1  0.47312000  0.58265000  0.20503000  1.0
  C  C36  1  0.47310000  0.70503000  0.21232000  1.0
  C  C37  1  0.47312000  0.71232000  0.08265000  1.0
  C  C38  1  0.48330000  0.52355000  0.23171000  1.0
  C  C39  1  0.31735000  0.49180000  0.28155000  1.0
  C  C40  1  0.31897000  0.43595000  0.30699000  1.0
  C  C41  1  0.47206000  0.40969000  0.28149000  1.0
  C  C42  1  0.62753000  0.44086000  0.23120000  1.0
  C  C43  1  0.64812000  0.49723000  0.20697000  1.0
  C  C44  1  0.47131000  0.35089000  0.30638000  1.0
  C  C45  1  0.47130000  0.31578000  0.36028000  1.0
  C  C46  1  0.62747000  0.22581000  0.43546000  1.0
  C  C47  1  0.47202000  0.25699000  0.38517000  1.0
  C  C48  1  0.31893000  0.23071000  0.35968000  1.0
  C  C49  1  0.31731000  0.17487000  0.38512000  1.0
  C  C50  1  0.48324000  0.14311000  0.43496000  1.0
  C  C51  1  0.64806000  0.16944000  0.45969000  1.0
  C  C52  1  0.48328000  0.73170000  0.24474000  1.0
  C  C53  1  0.31734000  0.78154000  0.22666000  1.0
  C  C54  1  0.31895000  0.80699000  0.25706000  1.0
  C  C55  1  0.47205000  0.78148000  0.30883000  1.0
  C  C56  1  0.62752000  0.73121000  0.32794000  1.0
  C  C57  1  0.64811000  0.70698000  0.29580000  1.0
  C  C58  1  0.47130000  0.80639000  0.34273000  1.0
  C  C59  1  0.47128000  0.86028000  0.32394000  1.0
  C  C60  1  0.62749000  0.93546000  0.33872000  1.0
  C  C61  1  0.47203000  0.88518000  0.35784000  1.0
  C  C62  1  0.31893000  0.85968000  0.40961000  1.0
  C  C63  1  0.31732000  0.88511000  0.44002000  1.0
  C  C64  1  0.48326000  0.93496000  0.42193000  1.0
  C  C65  1  0.64809000  0.95969000  0.37087000  1.0
  C  C66  1  0.48330000  0.74473000  0.02356000  1.0
  C  C67  1  0.31736000  0.72665000  0.99180000  1.0
  C  C68  1  0.31897000  0.75705000  0.93596000  1.0
  C  C69  1  0.47207000  0.80882000  0.90969000  1.0
  C  C70  1  0.62752000  0.82793000  0.94086000  1.0
  C  C71  1  0.64812000  0.79580000  0.99722000  1.0
  C  C72  1  0.47130000  0.84273000  0.85088000  1.0
  C  C73  1  0.47129000  0.82393000  0.81579000  1.0
  C  C74  1  0.62747000  0.83872000  0.72581000  1.0
  C  C75  1  0.47202000  0.85784000  0.75698000  1.0
  C  C76  1  0.31892000  0.90960000  0.73072000  1.0
  C  C77  1  0.31731000  0.94001000  0.67487000  1.0
  C  C78  1  0.48323000  0.92193000  0.64311000  1.0
  C  C79  1  0.64806000  0.87086000  0.66944000  1.0
  O  O80  1  0.70437000  0.99744000  0.44545000  1.0
  O  O81  1  0.70435000  0.94545000  0.55711000  1.0
  O  O82  1  0.70434000  0.05711000  0.49744000  1.0
  O  O83  1  0.23864000  0.94999000  0.48909000  1.0
  O  O84  1  0.23862000  0.06092000  0.44999000  1.0
  O  O85  1  0.23862000  0.98908000  0.56093000  1.0
  O  O86  1  0.70437000  0.72121000  0.10956000  1.0
  O  O87  1  0.70438000  0.60955000  0.16923000  1.0
  O  O88  1  0.70436000  0.66922000  0.22122000  1.0
  O  O89  1  0.23866000  0.67757000  0.10575000  1.0
  O  O90  1  0.23865000  0.71668000  0.17758000  1.0
  O  O91  1  0.23865000  0.60574000  0.21668000  1.0
  O  O92  1  0.81777000  0.52442000  0.15983000  1.0
  O  O93  1  0.81768000  0.14224000  0.50684000  1.0
  O  O94  1  0.81775000  0.65983000  0.31575000  1.0
  O  O95  1  0.81770000  0.00683000  0.35092000  1.0
  O  O96  1  0.81775000  0.81575000  0.02442000  1.0
  O  O97  1  0.81767000  0.85092000  0.64224000  1.0
