# generated using pymatgen
data_LaH10C9O11F12
_symmetry_space_group_name_H-M   'P 1'
_cell_length_a   9.71919000
_cell_length_b   10.48540000
_cell_length_c   10.80620000
_cell_angle_alpha   84.54640000
_cell_angle_beta   87.93970000
_cell_angle_gamma   69.72740000
_symmetry_Int_Tables_number   1
_chemical_formula_structural   LaH10C9O11F12
_chemical_formula_sum   'La2 H20 C18 O22 F24'
_cell_volume   1028.35646864
_cell_formula_units_Z   2
loop_
 _symmetry_equiv_pos_site_id
 _symmetry_equiv_pos_as_xyz
  1  'x, y, z'
loop_
 _atom_site_type_symbol
 _atom_site_label
 _atom_site_symmetry_multiplicity
 _atom_site_fract_x
 _atom_site_fract_y
 _atom_site_fract_z
 _atom_site_occupancy
  La  La0  1  0.38818000  0.27881000  0.47029000  1.0
  La  La1  1  0.61183000  0.72119000  0.52972000  1.0
  H  H2  1  0.42985000  0.18711000  0.74885000  1.0
  H  H3  1  0.57015000  0.81289000  0.25115000  1.0
  H  H4  1  0.26965000  0.18127000  0.74379000  1.0
  H  H5  1  0.73035000  0.81873000  0.25621000  1.0
  H  H6  1  0.61102000  0.15786000  0.26591000  1.0
  H  H7  1  0.38898000  0.84214000  0.73409000  1.0
  H  H8  1  0.56859000  0.02610000  0.30319000  1.0
  H  H9  1  0.43140000  0.97390000  0.69682000  1.0
  H  H10  1  0.06491000  0.37024000  0.61197000  1.0
  H  H11  1  0.93509000  0.62976000  0.38803000  1.0
  H  H12  1  0.05413000  0.34873000  0.47034000  1.0
  H  H13  1  0.94587000  0.65127000  0.52966000  1.0
  H  H14  1  0.35811000  0.58238000  0.40194000  1.0
  H  H15  1  0.64189000  0.41763000  0.59807000  1.0
  H  H16  1  0.20261000  0.58285000  0.36162000  1.0
  H  H17  1  0.79739000  0.41715000  0.63838000  1.0
  H  H18  1  0.16765000  0.44086000  0.24686000  1.0
  H  H19  1  0.83235000  0.55914000  0.75314000  1.0
  H  H20  1  0.24342000  0.29102000  0.20424000  1.0
  H  H21  1  0.75658000  0.70898000  0.79575000  1.0
  C  C22  1  0.39264000  0.53127000  0.67312000  1.0
  C  C23  1  0.60735000  0.46874000  0.32687000  1.0
  C  C24  1  0.25429000  0.55082000  0.75778000  1.0
  C  C25  1  0.74571000  0.44919000  0.24222000  1.0
  C  C26  1  0.25073000  0.63511000  0.87058000  1.0
  C  C27  1  0.74927000  0.36490000  0.12942000  1.0
  C  C28  1  0.13217000  0.63346000  0.97246000  1.0
  C  C29  1  0.86783000  0.36655000  0.02754000  1.0
  C  C30  1  0.11573000  0.72709000  0.08003000  1.0
  C  C31  1  0.88428000  0.27291000  0.91997000  1.0
  C  C32  1  0.99897000  0.71286000  0.18025000  1.0
  C  C33  1  0.00104000  0.28714000  0.81975000  1.0
  C  C34  1  0.28862000  0.97764000  0.42181000  1.0
  C  C35  1  0.71138000  0.02235000  0.57818000  1.0
  C  C36  1  0.13821000  0.00802000  0.35670000  1.0
  C  C37  1  0.86179000  0.99198000  0.64330000  1.0
  C  C38  1  0.01992000  0.96767000  0.43690000  1.0
  C  C39  1  0.98008000  0.03233000  0.56311000  1.0
  O  O40  1  0.45405000  0.41398000  0.63579000  1.0
  O  O41  1  0.54594000  0.58603000  0.36421000  1.0
  O  O42  1  0.42674000  0.63582000  0.64937000  1.0
  O  O43  1  0.57325000  0.36419000  0.35063000  1.0
  O  O44  1  0.87400000  0.79976000  0.16827000  1.0
  O  O45  1  0.12600000  0.20024000  0.83174000  1.0
  O  O46  1  0.04563000  0.61360000  0.26436000  1.0
  O  O47  1  0.95438000  0.38639000  0.73564000  1.0
  O  O48  1  0.31577000  0.07833000  0.45385000  1.0
  O  O49  1  0.68422000  0.92167000  0.54614000  1.0
  O  O50  1  0.36736000  0.85357000  0.43358000  1.0
  O  O51  1  0.63264000  0.14643000  0.56642000  1.0
  O  O52  1  0.36732000  0.15761000  0.69820000  1.0
  O  O53  1  0.63268000  0.84239000  0.30180000  1.0
  O  O54  1  0.53153000  0.12744000  0.29810000  1.0
  O  O55  1  0.46847000  0.87257000  0.70190000  1.0
  O  O56  1  0.12054000  0.35831000  0.53119000  1.0
  O  O57  1  0.87946000  0.64169000  0.46880000  1.0
  O  O58  1  0.28175000  0.54168000  0.42317000  1.0
  O  O59  1  0.71825000  0.45832000  0.57683000  1.0
  O  O60  1  0.23894000  0.34880000  0.27037000  1.0
  O  O61  1  0.76106000  0.65119000  0.72963000  1.0
  F  F62  1  0.24828000  0.42621000  0.80345000  1.0
  F  F63  1  0.75173000  0.57378000  0.19656000  1.0
  F  F64  1  0.13195000  0.61537000  0.68573000  1.0
  F  F65  1  0.86804000  0.38462000  0.31427000  1.0
  F  F66  1  0.38657000  0.58161000  0.92432000  1.0
  F  F67  1  0.61343000  0.41840000  0.07567000  1.0
  F  F68  1  0.22684000  0.76827000  0.82785000  1.0
  F  F69  1  0.77316000  0.23173000  0.17215000  1.0
  F  F70  1  0.16564000  0.50205000  0.02519000  1.0
  F  F71  1  0.83437000  0.49795000  0.97481000  1.0
  F  F72  1  0.99883000  0.67126000  0.91493000  1.0
  F  F73  1  0.00117000  0.32874000  0.08507000  1.0
  F  F74  1  0.25121000  0.69044000  0.13573000  1.0
  F  F75  1  0.74881000  0.30955000  0.86426000  1.0
  F  F76  1  0.07746000  0.85898000  0.03087000  1.0
  F  F77  1  0.92255000  0.14102000  0.96913000  1.0
  F  F78  1  0.07902000  0.14353000  0.31661000  1.0
  F  F79  1  0.92097000  0.85647000  0.68339000  1.0
  F  F80  1  0.16095000  0.93631000  0.25339000  1.0
  F  F81  1  0.83904000  0.06368000  0.74662000  1.0
  F  F82  1  0.89402000  0.00567000  0.36778000  1.0
  F  F83  1  0.10598000  0.99433000  0.63222000  1.0
  F  F84  1  0.06969000  0.82873000  0.45997000  1.0
  F  F85  1  0.93032000  0.17126000  0.54003000  1.0
