# generated using pymatgen
data_ZnH26C22(NO2)4
_symmetry_space_group_name_H-M   'P 1'
_cell_length_a   5.38317000
_cell_length_b   7.55183000
_cell_length_c   13.56257405
_cell_angle_alpha   82.24722460
_cell_angle_beta   78.58070058
_cell_angle_gamma   89.99420000
_symmetry_Int_Tables_number   1
_chemical_formula_structural   ZnH26C22(NO2)4
_chemical_formula_sum   'Zn1 H26 C22 N4 O8'
_cell_volume   535.30108705
_cell_formula_units_Z   1
loop_
 _symmetry_equiv_pos_site_id
 _symmetry_equiv_pos_as_xyz
  1  'x, y, z'
loop_
 _atom_site_type_symbol
 _atom_site_label
 _atom_site_symmetry_multiplicity
 _atom_site_fract_x
 _atom_site_fract_y
 _atom_site_fract_z
 _atom_site_occupancy
  Zn  Zn0  1  0.34068000  0.50009000  0.00005000  1.0
  H  H1  1  0.37514000  0.83156000  0.72917000  1.0
  H  H2  1  0.10456000  0.16850000  0.27068000  1.0
  H  H3  1  0.69637000  0.43262000  0.09901000  1.0
  H  H4  1  0.79516000  0.56723000  0.90098000  1.0
  H  H5  1  0.43079000  0.35757000  0.17547000  1.0
  H  H6  1  0.60605000  0.64247000  0.82452000  1.0
  H  H7  1  0.61940000  0.84854000  0.15660000  1.0
  H  H8  1  0.77631000  0.15121000  0.84343000  1.0
  H  H9  1  0.69422000  0.17291000  0.01024000  1.0
  H  H10  1  0.70512000  0.82695000  0.98972000  1.0
  H  H11  1  0.42215000  0.09297000  0.10241000  1.0
  H  H12  1  0.52487000  0.90716000  0.89760000  1.0
  H  H13  1  0.07225000  0.89230000  0.24826000  1.0
  H  H14  1  0.32059000  0.10773000  0.75165000  1.0
  H  H15  1  0.07814000  0.58749000  0.45008000  1.0
  H  H16  1  0.52735000  0.41299000  0.55011000  1.0
  H  H17  1  0.95236000  0.54294000  0.30003000  1.0
  H  H18  1  0.25177000  0.45715000  0.70011000  1.0
  H  H19  1  0.65700000  0.60833000  0.27176000  1.0
  H  H20  1  0.92834000  0.39150000  0.72835000  1.0
  H  H21  1  0.96173000  0.66094000  0.62573000  1.0
  H  H22  1  0.58692000  0.33963000  0.37447000  1.0
  H  H23  1  0.29020000  0.91387000  0.55577000  1.0
  H  H24  1  0.84610000  0.08606000  0.44406000  1.0
  H  H25  1  0.40760000  0.84469000  0.38010000  1.0
  H  H26  1  0.78748000  0.15507000  0.61978000  1.0
  C  C27  1  0.13814000  0.71913000  0.13438000  1.0
  C  C28  1  0.27299000  0.28077000  0.86566000  1.0
  C  C29  1  0.77719000  0.09489000  0.15558000  1.0
  C  C30  1  0.93291000  0.90488000  0.84431000  1.0
  C  C31  1  0.75089000  0.70897000  0.40196000  1.0
  C  C32  1  0.15230000  0.29108000  0.59809000  1.0
  C  C33  1  0.59686000  0.17482000  0.08923000  1.0
  C  C34  1  0.68636000  0.82513000  0.91073000  1.0
  C  C35  1  0.95648000  0.80682000  0.21488000  1.0
  C  C36  1  0.17150000  0.19311000  0.78513000  1.0
  C  C37  1  0.61577000  0.78617000  0.60281000  1.0
  C  C38  1  0.21844000  0.21399000  0.39717000  1.0
  C  C39  1  0.90586000  0.66042000  0.47235000  1.0
  C  C40  1  0.37762000  0.33977000  0.52781000  1.0
  C  C41  1  0.82367000  0.65584000  0.29723000  1.0
  C  C42  1  0.12050000  0.34413000  0.70285000  1.0
  C  C43  1  0.84071000  0.69889000  0.57141000  1.0
  C  C44  1  0.41169000  0.30142000  0.42872000  1.0
  C  C45  1  0.46207000  0.84096000  0.53288000  1.0
  C  C46  1  0.99495000  0.15900000  0.46704000  1.0
  C  C47  1  0.53055000  0.80223000  0.43338000  1.0
  C  C48  1  0.96363000  0.19772000  0.56656000  1.0
  N  N49  1  0.53213000  0.36013000  0.10250000  1.0
  N  N50  1  0.63454000  0.63988000  0.89750000  1.0
  N  N51  1  0.77147000  0.91574000  0.17213000  1.0
  N  N52  1  0.94395000  0.08404000  0.82788000  1.0
  O  O53  1  0.04513000  0.63663000  0.07224000  1.0
  O  O54  1  0.11782000  0.36312000  0.92783000  1.0
  O  O55  1  0.37125000  0.72114000  0.13617000  1.0
  O  O56  1  0.50788000  0.27889000  0.86379000  1.0
  O  O57  1  0.92675000  0.19480000  0.18424000  1.0
  O  O58  1  0.11079000  0.80480000  0.81548000  1.0
  O  O59  1  0.56042000  0.81724000  0.70190000  1.0
  O  O60  1  0.26241000  0.18300000  0.29807000  1.0
