# generated using pymatgen
data_GdH26C35N7Cl3
_symmetry_space_group_name_H-M   'P 1'
_cell_length_a   11.75730000
_cell_length_b   13.05880000
_cell_length_c   16.87230000
_cell_angle_alpha   82.11710000
_cell_angle_beta   72.26200000
_cell_angle_gamma   63.24560000
_symmetry_Int_Tables_number   1
_chemical_formula_structural   GdH26C35N7Cl3
_chemical_formula_sum   'Gd2 H52 C70 N14 Cl6'
_cell_volume   2203.21125892
_cell_formula_units_Z   2
loop_
 _symmetry_equiv_pos_site_id
 _symmetry_equiv_pos_as_xyz
  1  'x, y, z'
loop_
 _atom_site_type_symbol
 _atom_site_label
 _atom_site_symmetry_multiplicity
 _atom_site_fract_x
 _atom_site_fract_y
 _atom_site_fract_z
 _atom_site_occupancy
  Gd  Gd0  1  0.93588000  0.99999000  0.13856000  1.0
  Gd  Gd1  1  0.06412000  0.00001000  0.86144000  1.0
  H  H2  1  0.40291000  0.91366000  0.21277000  1.0
  H  H3  1  0.68310000  0.91396000  0.78725000  1.0
  H  H4  1  0.59709000  0.08634000  0.78723000  1.0
  H  H5  1  0.31690000  0.08603000  0.21274000  1.0
  H  H6  1  0.82751000  0.82281000  0.08000000  1.0
  H  H7  1  0.34922000  0.82309000  0.92018000  1.0
  H  H8  1  0.17249000  0.17718000  0.92000000  1.0
  H  H9  1  0.65078000  0.17691000  0.07982000  1.0
  H  H10  1  0.38168000  0.60921000  0.15843000  1.0
  H  H11  1  0.00852000  0.60931000  0.84173000  1.0
  H  H12  1  0.61832000  0.39079000  0.84157000  1.0
  H  H13  1  0.99147000  0.39069000  0.15827000  1.0
  H  H14  1  0.66171000  0.81408000  0.02347000  1.0
  H  H15  1  0.52389000  0.81422000  0.97662000  1.0
  H  H16  1  0.33829000  0.18592000  0.97653000  1.0
  H  H17  1  0.47611000  0.18578000  0.02338000  1.0
  H  H18  1  0.07983000  0.81411000  0.44402000  1.0
  H  H19  1  0.10625000  0.81409000  0.55588000  1.0
  H  H20  1  0.92017000  0.18590000  0.55599000  1.0
  H  H21  1  0.89376000  0.18592000  0.44412000  1.0
  H  H22  1  0.04201000  0.82305000  0.30688000  1.0
  H  H23  1  0.13516000  0.82298000  0.69303000  1.0
  H  H24  1  0.95799000  0.17695000  0.69312000  1.0
  H  H25  1  0.86485000  0.17702000  0.30697000  1.0
  H  H26  1  0.51434000  0.51793000  0.21943000  1.0
  H  H27  1  0.96743000  0.51831000  0.78032000  1.0
  H  H28  1  0.48566000  0.48207000  0.78056000  1.0
  H  H29  1  0.03257000  0.48169000  0.21968000  1.0
  H  H30  1  0.73232000  0.39674000  0.24412000  1.0
  H  H31  1  0.87089000  0.39704000  0.75542000  1.0
  H  H32  1  0.26768000  0.60326000  0.75588000  1.0
  H  H33  1  0.12912000  0.60296000  0.24458000  1.0
  H  H34  1  0.80791000  0.67865000  0.24307000  1.0
  H  H35  1  0.51305000  0.67872000  0.75685000  1.0
  H  H36  1  0.19209000  0.32135000  0.75693000  1.0
  H  H37  1  0.48694000  0.32128000  0.24315000  1.0
  H  H38  1  0.59742000  0.81098000  0.21318000  1.0
  H  H39  1  0.59092000  0.81112000  0.78701000  1.0
  H  H40  1  0.40258000  0.18902000  0.78682000  1.0
  H  H41  1  0.40908000  0.18888000  0.21299000  1.0
  H  H42  1  0.17276000  0.73624000  0.12298000  1.0
  H  H43  1  0.09082000  0.73620000  0.87691000  1.0
  H  H44  1  0.82724000  0.26376000  0.87702000  1.0
  H  H45  1  0.90918000  0.26380000  0.12309000  1.0
  H  H46  1  0.62410000  0.99984000  0.25014000  1.0
  H  H47  1  0.37590000  0.00016000  0.74986000  1.0
  H  H48  1  0.67359000  0.00007000  0.38002000  1.0
  H  H49  1  0.32641000  0.99993000  0.61998000  1.0
  H  H50  1  0.29299000  0.99996000  0.51038000  1.0
  H  H51  1  0.70701000  0.00004000  0.48962000  1.0
  H  H52  1  0.26028000  0.99973000  0.37287000  1.0
  H  H53  1  0.73972000  0.00027000  0.62713000  1.0
  C  C54  1  0.35622000  0.87085000  0.19164000  1.0
  C  C55  1  0.77261000  0.87107000  0.80839000  1.0
  C  C56  1  0.64377000  0.12915000  0.80836000  1.0
  C  C57  1  0.22739000  0.12893000  0.19160000  1.0
  C  C58  1  0.99048000  0.00001000  0.45856000  1.0
  C  C59  1  0.00951000  0.99999000  0.54144000  1.0
  C  C60  1  0.74782000  0.90136000  0.06605000  1.0
  C  C61  1  0.35053000  0.90160000  0.93404000  1.0
  C  C62  1  0.25218000  0.09863000  0.93395000  1.0
  C  C63  1  0.64947000  0.09840000  0.06596000  1.0
  C  C64  1  0.34550000  0.70158000  0.16190000  1.0
  C  C65  1  0.95245000  0.70170000  0.83817000  1.0
  C  C66  1  0.65450000  0.29841000  0.83810000  1.0
  C  C67  1  0.04755000  0.29830000  0.16183000  1.0
  C  C68  1  0.65341000  0.89773000  0.03437000  1.0
  C  C69  1  0.44861000  0.89788000  0.96571000  1.0
  C  C70  1  0.34659000  0.10227000  0.96563000  1.0
  C  C71  1  0.55139000  0.10212000  0.03429000  1.0
  C  C72  1  0.23754000  0.93634000  0.17008000  1.0
  C  C73  1  0.82599000  0.93644000  0.82992000  1.0
  C  C74  1  0.76246000  0.06366000  0.82992000  1.0
  C  C75  1  0.17401000  0.06356000  0.17008000  1.0
  C  C76  1  0.53700000  0.67647000  0.21074000  1.0
  C  C77  1  0.78602000  0.67674000  0.78928000  1.0
  C  C78  1  0.46300000  0.32353000  0.78926000  1.0
  C  C79  1  0.21398000  0.32326000  0.21072000  1.0
  C  C80  1  0.03194000  0.89779000  0.41700000  1.0
  C  C81  1  0.07036000  0.89774000  0.58297000  1.0
  C  C82  1  0.96805000  0.10222000  0.58300000  1.0
  C  C83  1  0.92964000  0.10226000  0.41704000  1.0
  C  C84  1  0.55101000  0.99995000  0.01720000  1.0
  C  C85  1  0.44899000  0.00005000  0.98280000  1.0
  C  C86  1  0.01226000  0.90172000  0.33919000  1.0
  C  C87  1  0.08614000  0.90164000  0.66077000  1.0
  C  C88  1  0.98774000  0.09828000  0.66081000  1.0
  C  C89  1  0.91386000  0.09836000  0.33923000  1.0
  C  C90  1  0.57730000  0.55766000  0.22190000  1.0
  C  C91  1  0.86470000  0.55797000  0.77793000  1.0
  C  C92  1  0.42270000  0.44234000  0.77810000  1.0
  C  C93  1  0.13530000  0.44202000  0.22207000  1.0
  C  C94  1  0.69944000  0.48950000  0.23751000  1.0
  C  C95  1  0.81087000  0.48977000  0.76218000  1.0
  C  C96  1  0.30056000  0.51050000  0.76249000  1.0
  C  C97  1  0.18913000  0.51023000  0.23782000  1.0
  C  C98  1  0.74148000  0.64476000  0.23670000  1.0
  C  C99  1  0.61340000  0.64490000  0.76321000  1.0
  C  C100  1  0.25852000  0.35524000  0.76330000  1.0
  C  C101  1  0.38660000  0.35509000  0.23679000  1.0
  C  C102  1  0.62192000  0.71989000  0.21980000  1.0
  C  C103  1  0.65768000  0.72006000  0.78026000  1.0
  C  C104  1  0.37808000  0.28012000  0.78020000  1.0
  C  C105  1  0.34232000  0.27994000  0.21975000  1.0
  C  C106  1  0.22758000  0.77202000  0.14255000  1.0
  C  C107  1  0.00015000  0.77205000  0.85741000  1.0
  C  C108  1  0.77242000  0.22798000  0.85745000  1.0
  C  C109  1  0.99985000  0.22795000  0.14259000  1.0
  C  C110  1  0.41212000  0.75055000  0.18856000  1.0
  C  C111  1  0.83685000  0.75077000  0.81151000  1.0
  C  C112  1  0.58788000  0.24945000  0.81144000  1.0
  C  C113  1  0.16315000  0.24923000  0.18849000  1.0
  C  C114  1  0.48761000  0.99997000  0.45947000  1.0
  C  C115  1  0.51240000  0.00004000  0.54053000  1.0
  C  C116  1  0.55207000  0.99983000  0.30894000  1.0
  C  C117  1  0.44793000  0.00017000  0.69106000  1.0
  C  C118  1  0.57970000  0.99994000  0.38350000  1.0
  C  C119  1  0.42030000  0.00006000  0.61650000  1.0
  C  C120  1  0.37013000  0.99987000  0.45466000  1.0
  C  C121  1  0.62987000  0.00013000  0.54533000  1.0
  C  C122  1  0.35127000  0.99977000  0.37724000  1.0
  C  C123  1  0.64873000  0.00024000  0.62276000  1.0
  N  N124  1  0.17296000  0.88683000  0.14711000  1.0
  N  N125  1  0.94012000  0.88685000  0.85283000  1.0
  N  N126  1  0.82704000  0.11317000  0.85289000  1.0
  N  N127  1  0.05988000  0.11315000  0.14717000  1.0
  N  N128  1  0.74704000  0.99986000  0.08220000  1.0
  N  N129  1  0.25296000  0.00014000  0.91780000  1.0
  N  N130  1  0.78236000  0.53071000  0.24421000  1.0
  N  N131  1  0.68674000  0.53090000  0.75551000  1.0
  N  N132  1  0.21764000  0.46929000  0.75579000  1.0
  N  N133  1  0.31326000  0.46910000  0.24449000  1.0
  N  N134  1  0.95431000  0.00005000  0.29973000  1.0
  N  N135  1  0.04569000  0.99995000  0.70028000  1.0
  N  N136  1  0.43999000  0.99970000  0.30470000  1.0
  N  N137  1  0.56001000  0.00030000  0.69529000  1.0
  Cl  Cl138  1  0.07171000  0.85653000  0.99998000  1.0
  Cl  Cl139  1  0.92829000  0.14347000  0.00002000  1.0
  Cl  Cl140  1  0.72369000  0.17964000  0.21571000  1.0
  Cl  Cl141  1  0.09672000  0.17964000  0.78425000  1.0
  Cl  Cl142  1  0.27631000  0.82036000  0.78430000  1.0
  Cl  Cl143  1  0.90328000  0.82035000  0.21575000  1.0
