# generated using pymatgen
data_ZnH14C11(NO2)2
_symmetry_space_group_name_H-M   'P 1'
_cell_length_a   8.62286000
_cell_length_b   8.62284000
_cell_length_c   17.43580000
_cell_angle_alpha   88.83710000
_cell_angle_beta   88.83700000
_cell_angle_gamma   73.04160000
_symmetry_Int_Tables_number   1
_chemical_formula_structural   ZnH14C11(NO2)2
_chemical_formula_sum   'Zn4 H56 C44 N8 O16'
_cell_volume   1239.64573976
_cell_formula_units_Z   4
loop_
 _symmetry_equiv_pos_site_id
 _symmetry_equiv_pos_as_xyz
  1  'x, y, z'
loop_
 _atom_site_type_symbol
 _atom_site_label
 _atom_site_symmetry_multiplicity
 _atom_site_fract_x
 _atom_site_fract_y
 _atom_site_fract_z
 _atom_site_occupancy
  Zn  Zn0  1  0.02655000  0.43296000  0.92433000  1.0
  Zn  Zn1  1  0.56704000  0.97345000  0.57567000  1.0
  Zn  Zn2  1  0.97345000  0.56704000  0.07567000  1.0
  Zn  Zn3  1  0.43296000  0.02655000  0.42433000  1.0
  H  H4  1  0.39425000  0.70061000  0.03508000  1.0
  H  H5  1  0.29939000  0.60575000  0.46492000  1.0
  H  H6  1  0.60576000  0.29939000  0.96492000  1.0
  H  H7  1  0.70061000  0.39425000  0.53508000  1.0
  H  H8  1  0.48134000  0.85699000  0.05414000  1.0
  H  H9  1  0.14301000  0.51866000  0.44586000  1.0
  H  H10  1  0.51866000  0.14301000  0.94586000  1.0
  H  H11  1  0.85699000  0.48134000  0.55414000  1.0
  H  H12  1  0.22327000  0.77801000  0.81021000  1.0
  H  H13  1  0.22199000  0.77673000  0.68979000  1.0
  H  H14  1  0.77673000  0.22199000  0.18979000  1.0
  H  H15  1  0.77801000  0.22326000  0.31022000  1.0
  H  H16  1  0.31443000  0.93220000  0.82954000  1.0
  H  H17  1  0.06780000  0.68557000  0.67046000  1.0
  H  H18  1  0.68557000  0.06780000  0.17046000  1.0
  H  H19  1  0.93220000  0.31443000  0.32954000  1.0
  H  H20  1  0.06884000  0.98069000  0.90722000  1.0
  H  H21  1  0.01931000  0.93115000  0.59278000  1.0
  H  H22  1  0.93116000  0.01931000  0.09278000  1.0
  H  H23  1  0.98069000  0.06884000  0.40722000  1.0
  H  H24  1  0.41638000  0.58614000  0.89784000  1.0
  H  H25  1  0.41386000  0.58362000  0.60216000  1.0
  H  H26  1  0.58362000  0.41386000  0.10216000  1.0
  H  H27  1  0.58614000  0.41638000  0.39784000  1.0
  H  H28  1  0.52325000  0.66198000  0.82592000  1.0
  H  H29  1  0.33802000  0.47675000  0.67409000  1.0
  H  H30  1  0.47675000  0.33802000  0.17409000  1.0
  H  H31  1  0.66198000  0.52325000  0.32591000  1.0
  H  H32  1  0.55450000  0.87227000  0.91582000  1.0
  H  H33  1  0.12773000  0.44550000  0.58418000  1.0
  H  H34  1  0.44550000  0.12773000  0.08418000  1.0
  H  H35  1  0.87227000  0.55450000  0.41582000  1.0
  H  H36  1  0.30572000  0.18923000  0.67610000  1.0
  H  H37  1  0.81076000  0.69428000  0.82390000  1.0
  H  H38  1  0.69428000  0.81077000  0.32390000  1.0
  H  H39  1  0.18924000  0.30572000  0.17610000  1.0
  H  H40  1  0.33208000  0.31532000  0.80557000  1.0
  H  H41  1  0.68468000  0.66792000  0.69443000  1.0
  H  H42  1  0.66792000  0.68468000  0.19443000  1.0
  H  H43  1  0.31532000  0.33208000  0.30557000  1.0
  H  H44  1  0.85598000  0.27999000  0.79615000  1.0
  H  H45  1  0.72001000  0.14402000  0.70385000  1.0
  H  H46  1  0.14402000  0.72001000  0.20385000  1.0
  H  H47  1  0.27999000  0.85598000  0.29615000  1.0
  H  H48  1  0.02781000  0.14159000  0.66421000  1.0
  H  H49  1  0.85840000  0.97219000  0.83579000  1.0
  H  H50  1  0.97219000  0.85841000  0.33579000  1.0
  H  H51  1  0.14159000  0.02781000  0.16421000  1.0
  H  H52  1  0.28305000  0.04870000  0.96922000  1.0
  H  H53  1  0.95130000  0.71694000  0.53078000  1.0
  H  H54  1  0.71695000  0.95130000  0.03078000  1.0
  H  H55  1  0.04870000  0.28305000  0.46922000  1.0
  H  H56  1  0.17901000  0.96437000  0.03902000  1.0
  H  H57  1  0.03563000  0.82099000  0.46098000  1.0
  H  H58  1  0.82099000  0.03563000  0.96098000  1.0
  H  H59  1  0.96437000  0.17901000  0.53902000  1.0
  C  C60  1  0.69766000  0.64969000  0.95833000  1.0
  C  C61  1  0.35031000  0.30234000  0.54166000  1.0
  C  C62  1  0.30234000  0.35031000  0.04166000  1.0
  C  C63  1  0.64969000  0.69766000  0.45834000  1.0
  C  C64  1  0.09933000  0.74301000  0.95064000  1.0
  C  C65  1  0.25699000  0.90067000  0.54936000  1.0
  C  C66  1  0.90068000  0.25699000  0.04936000  1.0
  C  C67  1  0.74301000  0.09932000  0.45064000  1.0
  C  C68  1  0.41899000  0.80958000  0.00997000  1.0
  C  C69  1  0.19042000  0.58101000  0.49003000  1.0
  C  C70  1  0.58101000  0.19042000  0.99003000  1.0
  C  C71  1  0.80958000  0.41899000  0.50997000  1.0
  C  C72  1  0.28586000  0.82487000  0.85427000  1.0
  C  C73  1  0.17513000  0.71414000  0.64573000  1.0
  C  C74  1  0.71414000  0.17513000  0.14573000  1.0
  C  C75  1  0.82487000  0.28586000  0.35427000  1.0
  C  C76  1  0.17286000  0.87730000  0.92413000  1.0
  C  C77  1  0.12271000  0.82714000  0.57587000  1.0
  C  C78  1  0.82714000  0.12270000  0.07587000  1.0
  C  C79  1  0.87729000  0.17286000  0.42413000  1.0
  C  C80  1  0.44347000  0.69686000  0.87642000  1.0
  C  C81  1  0.30314000  0.55653000  0.62358000  1.0
  C  C82  1  0.55653000  0.30314000  0.12358000  1.0
  C  C83  1  0.69686000  0.44347000  0.37642000  1.0
  C  C84  1  0.52972000  0.76106000  0.93921000  1.0
  C  C85  1  0.23894000  0.47028000  0.56078000  1.0
  C  C86  1  0.47028000  0.23894000  0.06078000  1.0
  C  C87  1  0.76106000  0.52972000  0.43922000  1.0
  C  C88  1  0.22495000  0.28810000  0.78546000  1.0
  C  C89  1  0.71190000  0.77505000  0.71454000  1.0
  C  C90  1  0.77505000  0.71190000  0.21454000  1.0
  C  C91  1  0.28810000  0.22495000  0.28546000  1.0
  C  C92  1  0.98006000  0.26649000  0.77791000  1.0
  C  C93  1  0.73351000  0.01994000  0.72209000  1.0
  C  C94  1  0.01994000  0.73351000  0.22209000  1.0
  C  C95  1  0.26649000  0.98005000  0.27791000  1.0
  C  C96  1  0.06310000  0.19892000  0.71279000  1.0
  C  C97  1  0.80108000  0.93690000  0.78721000  1.0
  C  C98  1  0.93690000  0.80108000  0.28721000  1.0
  C  C99  1  0.19892000  0.06310000  0.21279000  1.0
  C  C100  1  0.25971000  0.93521000  0.98861000  1.0
  C  C101  1  0.06479000  0.74028000  0.51139000  1.0
  C  C102  1  0.74029000  0.06479000  0.01139000  1.0
  C  C103  1  0.93521000  0.25972000  0.48861000  1.0
  N  N104  1  0.08272000  0.32147000  0.82274000  1.0
  N  N105  1  0.67853000  0.91728000  0.67726000  1.0
  N  N106  1  0.91728000  0.67853000  0.17726000  1.0
  N  N107  1  0.32147000  0.08272000  0.32274000  1.0
  N  N108  1  0.21706000  0.21355000  0.71892000  1.0
  N  N109  1  0.78645000  0.78294000  0.78108000  1.0
  N  N110  1  0.78294000  0.78645000  0.28108000  1.0
  N  N111  1  0.21355000  0.21706000  0.21892000  1.0
  O  O112  1  0.07652000  0.64870000  0.89959000  1.0
  O  O113  1  0.35130000  0.92348000  0.60041000  1.0
  O  O114  1  0.92348000  0.35130000  0.10041000  1.0
  O  O115  1  0.64870000  0.07652000  0.39959000  1.0
  O  O116  1  0.74488000  0.64766000  0.02681000  1.0
  O  O117  1  0.35234000  0.25512000  0.47319000  1.0
  O  O118  1  0.25512000  0.35234000  0.97320000  1.0
  O  O119  1  0.64766000  0.74488000  0.52681000  1.0
  O  O120  1  0.78385000  0.56977000  0.90329000  1.0
  O  O121  1  0.43023000  0.21615000  0.59670000  1.0
  O  O122  1  0.21615000  0.43023000  0.09671000  1.0
  O  O123  1  0.56977000  0.78385000  0.40329000  1.0
  O  O124  1  0.06277000  0.73599000  0.02152000  1.0
  O  O125  1  0.26401000  0.93723000  0.47848000  1.0
  O  O126  1  0.93723000  0.26401000  0.97849000  1.0
  O  O127  1  0.73599000  0.06277000  0.52152000  1.0
