# generated using pymatgen
data_CuH8C9NClO4
_symmetry_space_group_name_H-M   'P 1'
_cell_length_a   6.41938000
_cell_length_b   8.27003000
_cell_length_c   19.05550000
_cell_angle_alpha   89.99970000
_cell_angle_beta   94.33150000
_cell_angle_gamma   89.99970000
_symmetry_Int_Tables_number   1
_chemical_formula_structural   CuH8C9NClO4
_chemical_formula_sum   'Cu4 H32 C36 N4 Cl4 O16'
_cell_volume   1008.73779915
_cell_formula_units_Z   4
loop_
 _symmetry_equiv_pos_site_id
 _symmetry_equiv_pos_as_xyz
  1  'x, y, z'
loop_
 _atom_site_type_symbol
 _atom_site_label
 _atom_site_symmetry_multiplicity
 _atom_site_fract_x
 _atom_site_fract_y
 _atom_site_fract_z
 _atom_site_occupancy
  Cu  Cu0  1  0.28213000  0.30863000  0.20201000  1.0
  Cu  Cu1  1  0.28214000  0.19136000  0.70201000  1.0
  Cu  Cu2  1  0.71787000  0.69136000  0.79799000  1.0
  Cu  Cu3  1  0.71786000  0.80863000  0.29799000  1.0
  H  H4  1  0.61674000  0.47084000  0.16766000  1.0
  H  H5  1  0.61674000  0.02916000  0.66765000  1.0
  H  H6  1  0.38326000  0.52915000  0.83235000  1.0
  H  H7  1  0.38325000  0.97084000  0.33235000  1.0
  H  H8  1  0.11719000  0.37777000  0.92615000  1.0
  H  H9  1  0.11719000  0.12223000  0.42615000  1.0
  H  H10  1  0.88279000  0.62224000  0.07385000  1.0
  H  H11  1  0.88280000  0.87778000  0.57385000  1.0
  H  H12  1  0.78481000  0.25448000  0.87884000  1.0
  H  H13  1  0.78481000  0.24553000  0.37884000  1.0
  H  H14  1  0.21516000  0.74555000  0.12116000  1.0
  H  H15  1  0.21518000  0.75448000  0.62116000  1.0
  H  H16  1  0.58360000  0.08131000  0.95627000  1.0
  H  H17  1  0.58360000  0.41870000  0.45627000  1.0
  H  H18  1  0.41637000  0.91871000  0.04373000  1.0
  H  H19  1  0.41639000  0.58131000  0.54373000  1.0
  H  H20  1  0.70844000  0.03942000  0.08107000  1.0
  H  H21  1  0.70844000  0.46058000  0.58107000  1.0
  H  H22  1  0.29155000  0.96058000  0.91893000  1.0
  H  H23  1  0.29156000  0.53942000  0.41893000  1.0
  H  H24  1  0.37205000  0.42362000  0.00845000  1.0
  H  H25  1  0.37206000  0.07639000  0.50845000  1.0
  H  H26  1  0.62795000  0.57638000  0.99155000  1.0
  H  H27  1  0.62794000  0.92362000  0.49155000  1.0
  H  H28  1  0.92308000  0.94950000  0.17505000  1.0
  H  H29  1  0.92308000  0.55049000  0.67505000  1.0
  H  H30  1  0.07694000  0.05049000  0.82495000  1.0
  H  H31  1  0.07695000  0.44950000  0.32496000  1.0
  H  H32  1  0.76993000  0.12844000  0.18678000  1.0
  H  H33  1  0.76994000  0.37154000  0.68678000  1.0
  H  H34  1  0.23007000  0.87153000  0.81322000  1.0
  H  H35  1  0.23007000  0.62846000  0.31322000  1.0
  C  C36  1  0.98304000  0.18721000  0.07468000  1.0
  C  C37  1  0.98305000  0.31279000  0.57468000  1.0
  C  C38  1  0.01696000  0.81279000  0.92532000  1.0
  C  C39  1  0.01696000  0.68721000  0.42532000  1.0
  C  C40  1  0.10318000  0.28269000  0.03114000  1.0
  C  C41  1  0.10319000  0.21731000  0.53114000  1.0
  C  C42  1  0.89681000  0.71731000  0.96886000  1.0
  C  C43  1  0.89681000  0.78269000  0.46886000  1.0
  C  C44  1  0.02767000  0.30354000  0.96030000  1.0
  C  C45  1  0.02768000  0.19647000  0.46030000  1.0
  C  C46  1  0.97232000  0.69647000  0.03970000  1.0
  C  C47  1  0.97233000  0.80354000  0.53970000  1.0
  C  C48  1  0.84133000  0.23437000  0.93341000  1.0
  C  C49  1  0.84133000  0.26564000  0.43341000  1.0
  C  C50  1  0.15865000  0.76565000  0.06659000  1.0
  C  C51  1  0.15867000  0.73437000  0.56659000  1.0
  C  C52  1  0.72788000  0.13880000  0.97720000  1.0
  C  C53  1  0.72788000  0.36120000  0.47720000  1.0
  C  C54  1  0.27210000  0.86121000  0.02280000  1.0
  C  C55  1  0.27211000  0.63881000  0.52280000  1.0
  C  C56  1  0.79767000  0.11508000  0.04760000  1.0
  C  C57  1  0.79767000  0.38492000  0.54759000  1.0
  C  C58  1  0.20232000  0.88492000  0.95240000  1.0
  C  C59  1  0.20233000  0.61508000  0.45241000  1.0
  C  C60  1  0.29779000  0.36416000  0.05132000  1.0
  C  C61  1  0.29779000  0.13585000  0.55132000  1.0
  C  C62  1  0.70221000  0.63584000  0.94868000  1.0
  C  C63  1  0.70221000  0.86416000  0.44868000  1.0
  C  C64  1  0.92909000  0.07777000  0.18977000  1.0
  C  C65  1  0.92910000  0.42221000  0.68977000  1.0
  C  C66  1  0.07092000  0.92221000  0.81023000  1.0
  C  C67  1  0.07092000  0.57778000  0.31023000  1.0
  C  C68  1  0.02014000  0.09653000  0.26502000  1.0
  C  C69  1  0.02015000  0.40346000  0.76502000  1.0
  C  C70  1  0.97987000  0.90346000  0.73498000  1.0
  C  C71  1  0.97987000  0.59653000  0.23498000  1.0
  N  N72  1  0.38979000  0.37738000  0.11388000  1.0
  N  N73  1  0.38980000  0.12262000  0.61388000  1.0
  N  N74  1  0.61021000  0.62262000  0.88612000  1.0
  N  N75  1  0.61020000  0.87738000  0.38612000  1.0
  Cl  Cl76  1  0.56940000  0.38625000  0.26935000  1.0
  Cl  Cl77  1  0.56941000  0.11374000  0.76935000  1.0
  Cl  Cl78  1  0.43060000  0.61374000  0.73065000  1.0
  Cl  Cl79  1  0.43060000  0.88626000  0.23065000  1.0
  O  O80  1  0.05761000  0.16567000  0.14370000  1.0
  O  O81  1  0.05762000  0.33433000  0.64370000  1.0
  O  O82  1  0.94239000  0.83432000  0.85629000  1.0
  O  O83  1  0.94239000  0.66567000  0.35630000  1.0
  O  O84  1  0.16040000  0.20538000  0.27980000  1.0
  O  O85  1  0.16041000  0.29462000  0.77980000  1.0
  O  O86  1  0.83959000  0.79462000  0.72020000  1.0
  O  O87  1  0.83959000  0.70537000  0.22020000  1.0
  O  O88  1  0.95212000  0.00818000  0.31141000  1.0
  O  O89  1  0.95211000  0.49181000  0.81141000  1.0
  O  O90  1  0.04790000  0.99180000  0.68859000  1.0
  O  O91  1  0.04790000  0.50819000  0.18859000  1.0
  O  O92  1  0.57263000  0.46601000  0.11613000  1.0
  O  O93  1  0.57263000  0.03399000  0.61613000  1.0
  O  O94  1  0.42737000  0.53398000  0.88387000  1.0
  O  O95  1  0.42736000  0.96601000  0.38387000  1.0
