# generated using pymatgen
data_Cu3H14C24N4(ClO)2
_symmetry_space_group_name_H-M   'P 1'
_cell_length_a   7.12018000
_cell_length_b   8.35901000
_cell_length_c   10.27150000
_cell_angle_alpha   111.54300000
_cell_angle_beta   98.04570000
_cell_angle_gamma   106.31300000
_symmetry_Int_Tables_number   1
_chemical_formula_structural   Cu3H14C24N4(ClO)2
_chemical_formula_sum   'Cu3 H14 C24 N4 Cl2 O2'
_cell_volume   525.11101356
_cell_formula_units_Z   1
loop_
 _symmetry_equiv_pos_site_id
 _symmetry_equiv_pos_as_xyz
  1  'x, y, z'
loop_
 _atom_site_type_symbol
 _atom_site_label
 _atom_site_symmetry_multiplicity
 _atom_site_fract_x
 _atom_site_fract_y
 _atom_site_fract_z
 _atom_site_occupancy
  Cu  Cu0  1  0.96846000  0.55854000  0.61831000  1.0
  Cu  Cu1  1  0.03153000  0.44145000  0.38168000  1.0
  Cu  Cu2  1  0.50000000  0.50000000  0.50000000  1.0
  H  H3  1  0.22582000  0.13909000  0.65046000  1.0
  H  H4  1  0.77417000  0.86090000  0.34955000  1.0
  H  H5  1  0.35375000  0.19577000  0.45351000  1.0
  H  H6  1  0.64625000  0.80423000  0.54650000  1.0
  H  H7  1  0.42951000  0.06170000  0.20686000  1.0
  H  H8  1  0.57050000  0.93831000  0.79315000  1.0
  H  H9  1  0.41061000  0.78559000  0.99192000  1.0
  H  H10  1  0.58940000  0.21442000  0.00809000  1.0
  H  H11  1  0.30498000  0.43384000  0.86393000  1.0
  H  H12  1  0.69503000  0.56617000  0.13607000  1.0
  H  H13  1  0.15754000  0.12914000  0.87346000  1.0
  H  H14  1  0.84246000  0.87087000  0.12654000  1.0
  H  H15  1  0.04134000  0.12478000  0.09412000  1.0
  H  H16  1  0.95866000  0.87522000  0.90587000  1.0
  C  C17  1  0.14149000  0.84133000  0.54289000  1.0
  C  C18  1  0.85850000  0.15866000  0.45710000  1.0
  C  C19  1  0.22255000  0.02492000  0.55363000  1.0
  C  C20  1  0.77744000  0.97508000  0.44637000  1.0
  C  C21  1  0.29336000  0.05521000  0.44424000  1.0
  C  C22  1  0.70664000  0.94479000  0.55576000  1.0
  C  C23  1  0.28922000  0.90552000  0.31833000  1.0
  C  C24  1  0.71077000  0.09448000  0.68167000  1.0
  C  C25  1  0.36319000  0.92317000  0.19996000  1.0
  C  C26  1  0.63681000  0.07683000  0.80004000  1.0
  C  C27  1  0.35431000  0.77137000  0.08197000  1.0
  C  C28  1  0.64571000  0.22863000  0.91803000  1.0
  C  C29  1  0.27057000  0.59022000  0.07442000  1.0
  C  C30  1  0.72944000  0.40978000  0.92558000  1.0
  C  C31  1  0.25338000  0.42564000  0.95724000  1.0
  C  C32  1  0.74663000  0.57437000  0.04276000  1.0
  C  C33  1  0.17189000  0.25767000  0.96240000  1.0
  C  C34  1  0.82811000  0.74233000  0.03760000  1.0
  C  C35  1  0.10521000  0.25298000  0.08404000  1.0
  C  C36  1  0.89479000  0.74702000  0.91595000  1.0
  C  C37  1  0.19829000  0.57086000  0.19163000  1.0
  C  C38  1  0.80171000  0.42915000  0.80837000  1.0
  C  C39  1  0.20824000  0.72894000  0.31407000  1.0
  C  C40  1  0.79176000  0.27106000  0.68593000  1.0
  N  N41  1  0.13741000  0.69884000  0.42292000  1.0
  N  N42  1  0.86258000  0.30116000  0.57708000  1.0
  N  N43  1  0.11640000  0.40462000  0.19428000  1.0
  N  N44  1  0.88360000  0.59538000  0.80571000  1.0
  Cl  Cl45  1  0.38880000  0.56547000  0.68533000  1.0
  Cl  Cl46  1  0.61119000  0.43454000  0.31467000  1.0
  O  O47  1  0.07102000  0.80936000  0.64404000  1.0
  O  O48  1  0.92897000  0.19062000  0.35595000  1.0
