# generated using pymatgen
data_Zn4H2C24S4Cl2O13F4
_symmetry_space_group_name_H-M   'P 1'
_cell_length_a   19.70090000
_cell_length_b   19.74910000
_cell_length_c   33.42340000
_cell_angle_alpha   79.01590000
_cell_angle_beta   79.15380000
_cell_angle_gamma   63.90850000
_symmetry_Int_Tables_number   1
_chemical_formula_structural   Zn4H2C24S4Cl2O13F4
_chemical_formula_sum   'Zn16 H8 C96 S16 Cl8 O52 F16'
_cell_volume   11384.40390662
_cell_formula_units_Z   4
loop_
 _symmetry_equiv_pos_site_id
 _symmetry_equiv_pos_as_xyz
  1  'x, y, z'
loop_
 _atom_site_type_symbol
 _atom_site_label
 _atom_site_symmetry_multiplicity
 _atom_site_fract_x
 _atom_site_fract_y
 _atom_site_fract_z
 _atom_site_occupancy
  Zn  Zn0  1  0.05451000  0.40095000  0.47789000  1.0
  Zn  Zn1  1  0.98497000  0.48379000  0.56059000  1.0
  Zn  Zn2  1  0.05936000  0.56031000  0.48213000  1.0
  Zn  Zn3  1  0.90075000  0.55571000  0.47955000  1.0
  Zn  Zn4  1  0.69505000  0.34877000  0.27233000  1.0
  Zn  Zn5  1  0.68990000  0.18907000  0.26601000  1.0
  Zn  Zn6  1  0.76833000  0.26724000  0.19014000  1.0
  Zn  Zn7  1  0.84835000  0.19391000  0.27146000  1.0
  Zn  Zn8  1  0.26561000  0.76567000  0.68944000  1.0
  Zn  Zn9  1  0.34926000  0.69667000  0.77181000  1.0
  Zn  Zn10  1  0.19292000  0.84890000  0.77088000  1.0
  Zn  Zn11  1  0.19112000  0.68917000  0.76793000  1.0
  Zn  Zn12  1  0.55941000  0.06164000  0.98409000  1.0
  Zn  Zn13  1  0.40169000  0.05366000  0.97715000  1.0
  Zn  Zn14  1  0.55720000  0.90133000  0.97907000  1.0
  Zn  Zn15  1  0.48134000  0.98314000  0.05990000  1.0
  H  H16  1  0.74999000  0.44855000  0.34903000  1.0
  H  H17  1  0.99927000  0.30232000  0.40091000  1.0
  H  H18  1  0.20054000  0.69999000  0.60186000  1.0
  H  H19  1  0.04935000  0.55019000  0.64817000  1.0
  H  H20  1  0.64796000  0.14869000  0.04970000  1.0
  H  H21  1  0.60232000  0.10111000  0.20036000  1.0
  H  H22  1  0.30340000  0.99867000  0.90111000  1.0
  H  H23  1  0.44740000  0.75047000  0.84888000  1.0
  C  C24  1  0.06163000  0.31671000  0.56143000  1.0
  C  C25  1  0.07006000  0.57070000  0.56796000  1.0
  C  C26  1  0.18329000  0.43889000  0.43836000  1.0
  C  C27  1  0.93708000  0.68381000  0.43866000  1.0
  C  C28  1  0.92919000  0.43225000  0.43105000  1.0
  C  C29  1  0.81724000  0.56121000  0.56246000  1.0
  C  C30  1  0.56650000  0.31028000  0.31113000  1.0
  C  C31  1  0.68261000  0.18114000  0.17992000  1.0
  C  C32  1  0.68951000  0.43355000  0.18886000  1.0
  C  C33  1  0.93469000  0.18839000  0.18918000  1.0
  C  C34  1  0.81995000  0.31830000  0.31918000  1.0
  C  C35  1  0.81144000  0.06585000  0.31099000  1.0
  C  C36  1  0.43291000  0.68932000  0.68825000  1.0
  C  C37  1  0.31682000  0.82159000  0.81899000  1.0
  C  C38  1  0.18817000  0.93299000  0.68791000  1.0
  C  C39  1  0.06575000  0.81040000  0.81120000  1.0
  C  C40  1  0.17996000  0.67938000  0.68205000  1.0
  C  C41  1  0.31371000  0.56677000  0.81173000  1.0
  C  C42  1  0.43774000  0.18350000  0.93862000  1.0
  C  C43  1  0.43400000  0.92774000  0.93083000  1.0
  C  C44  1  0.68396000  0.94079000  0.93934000  1.0
  C  C45  1  0.56110000  0.81653000  0.06185000  1.0
  C  C46  1  0.56746000  0.06889000  0.07013000  1.0
  C  C47  1  0.31511000  0.06124000  0.05996000  1.0
  C  C48  1  0.89828000  0.40602000  0.40220000  1.0
  C  C49  1  0.85092000  0.34482000  0.34783000  1.0
  C  C50  1  0.82686000  0.44770000  0.38717000  1.0
  C  C51  1  0.92244000  0.30317000  0.36279000  1.0
  C  C52  1  0.80496000  0.41648000  0.36059000  1.0
  C  C53  1  0.94428000  0.33440000  0.38939000  1.0
  C  C54  1  0.09972000  0.60017000  0.59579000  1.0
  C  C55  1  0.15016000  0.65002000  0.65423000  1.0
  C  C56  1  0.14312000  0.64314000  0.58271000  1.0
  C  C57  1  0.10677000  0.60704000  0.66732000  1.0
  C  C58  1  0.16714000  0.66692000  0.61192000  1.0
  C  C59  1  0.08271000  0.58330000  0.63811000  1.0
  C  C60  1  0.30441000  0.45217000  0.40062000  1.0
  C  C61  1  0.44566000  0.29668000  0.34926000  1.0
  C  C62  1  0.25818000  0.41375000  0.41376000  1.0
  C  C63  1  0.49188000  0.33507000  0.33604000  1.0
  C  C64  1  0.37727000  0.33874000  0.37287000  1.0
  C  C65  1  0.37293000  0.41000000  0.37715000  1.0
  C  C66  1  0.72500000  0.57642000  0.62949000  1.0
  C  C67  1  0.52520000  0.67299000  0.62120000  1.0
  C  C68  1  0.74255000  0.58557000  0.58719000  1.0
  C  C69  1  0.50767000  0.66414000  0.66355000  1.0
  C  C70  1  0.60423000  0.64124000  0.60843000  1.0
  C  C71  1  0.64596000  0.60805000  0.64224000  1.0
  C  C72  1  0.07738000  0.22454000  0.62857000  1.0
  C  C73  1  0.17343000  0.02508000  0.62078000  1.0
  C  C74  1  0.08659000  0.24201000  0.58622000  1.0
  C  C75  1  0.16400000  0.00760000  0.66311000  1.0
  C  C76  1  0.14207000  0.10395000  0.60785000  1.0
  C  C77  1  0.10878000  0.14566000  0.64152000  1.0
  C  C78  1  0.84404000  0.80135000  0.39742000  1.0
  C  C79  1  0.90398000  0.94875000  0.35269000  1.0
  C  C80  1  0.91224000  0.75836000  0.41388000  1.0
  C  C81  1  0.83586000  0.99158000  0.33607000  1.0
  C  C82  1  0.90765000  0.87921000  0.37505000  1.0
  C  C83  1  0.84045000  0.87078000  0.37498000  1.0
  C  C84  1  0.65463000  0.15362000  0.15024000  1.0
  C  C85  1  0.59560000  0.09623000  0.09982000  1.0
  C  C86  1  0.66750000  0.16706000  0.10700000  1.0
  C  C87  1  0.58274000  0.08278000  0.14307000  1.0
  C  C88  1  0.63802000  0.13835000  0.08298000  1.0
  C  C89  1  0.61226000  0.11146000  0.16709000  1.0
  C  C90  1  0.67332000  0.52526000  0.12163000  1.0
  C  C91  1  0.57632000  0.72477000  0.12903000  1.0
  C  C92  1  0.66404000  0.50811000  0.16400000  1.0
  C  C93  1  0.58585000  0.74196000  0.08669000  1.0
  C  C94  1  0.60801000  0.64598000  0.14210000  1.0
  C  C95  1  0.64160000  0.60406000  0.10852000  1.0
  C  C96  1  0.08119000  0.12456000  0.17662000  1.0
  C  C97  1  0.16856000  0.12572000  0.07259000  1.0
  C  C98  1  0.00901000  0.16369000  0.16417000  1.0
  C  C99  1  0.24077000  0.08654000  0.08496000  1.0
  C  C100  1  0.10997000  0.13998000  0.10573000  1.0
  C  C101  1  0.13983000  0.11049000  0.14349000  1.0
  C  C102  1  0.34395000  0.85179000  0.84777000  1.0
  C  C103  1  0.40687000  0.89738000  0.90216000  1.0
  C  C104  1  0.30297000  0.92290000  0.86289000  1.0
  C  C105  1  0.44783000  0.82625000  0.88707000  1.0
  C  C106  1  0.33496000  0.94394000  0.88948000  1.0
  C  C107  1  0.41583000  0.80521000  0.86048000  1.0
  C  C108  1  0.40652000  0.44838000  0.85292000  1.0
  C  C109  1  0.34542000  0.30145000  0.89699000  1.0
  C  C110  1  0.33857000  0.49190000  0.83630000  1.0
  C  C111  1  0.41331000  0.25809000  0.91373000  1.0
  C  C112  1  0.34230000  0.37092000  0.87474000  1.0
  C  C113  1  0.40968000  0.37885000  0.87508000  1.0
  C  C114  1  0.94470000  0.79753000  0.84950000  1.0
  C  C115  1  0.80469000  0.95393000  0.90062000  1.0
  C  C116  1  0.99114000  0.83560000  0.83598000  1.0
  C  C117  1  0.75822000  0.91593000  0.91419000  1.0
  C  C118  1  0.87274000  0.91137000  0.87697000  1.0
  C  C119  1  0.87650000  0.84015000  0.87306000  1.0
  S  S120  1  0.29883000  0.32412000  0.39728000  1.0
  S  S121  1  0.45135000  0.42461000  0.35269000  1.0
  S  S122  1  0.66114000  0.63364000  0.56211000  1.0
  S  S123  1  0.58909000  0.61599000  0.68858000  1.0
  S  S124  1  0.13465000  0.16069000  0.56141000  1.0
  S  S125  1  0.11594000  0.08893000  0.68795000  1.0
  S  S126  1  0.97373000  0.80318000  0.40194000  1.0
  S  S127  1  0.77455000  0.94659000  0.34792000  1.0
  S  S128  1  0.61544000  0.58958000  0.18863000  1.0
  S  S129  1  0.63447000  0.66052000  0.06201000  1.0
  S  S130  1  0.01210000  0.18411000  0.11097000  1.0
  S  S131  1  0.23774000  0.06641000  0.13820000  1.0
  S  S132  1  0.27675000  0.44738000  0.84778000  1.0
  S  S133  1  0.47508000  0.30261000  0.90222000  1.0
  S  S134  1  0.95120000  0.92545000  0.85214000  1.0
  S  S135  1  0.79800000  0.82616000  0.89790000  1.0
  Cl  Cl136  1  0.76270000  0.53672000  0.39926000  1.0
  Cl  Cl137  1  0.98677000  0.21438000  0.35053000  1.0
  Cl  Cl138  1  0.16984000  0.66908000  0.53210000  1.0
  Cl  Cl139  1  0.08027000  0.58088000  0.71794000  1.0
  Cl  Cl140  1  0.71802000  0.21770000  0.08070000  1.0
  Cl  Cl141  1  0.53209000  0.03228000  0.16934000  1.0
  Cl  Cl142  1  0.21404000  0.98786000  0.85069000  1.0
  Cl  Cl143  1  0.53689000  0.76143000  0.89920000  1.0
  O  O144  1  0.00045000  0.49904000  0.50015000  1.0
  O  O145  1  0.07708000  0.31579000  0.52247000  1.0
  O  O146  1  0.03354000  0.53111000  0.58548000  1.0
  O  O147  1  0.15541000  0.50524000  0.44924000  1.0
  O  O148  1  0.02732000  0.37483000  0.58067000  1.0
  O  O149  1  0.15314000  0.39133000  0.44644000  1.0
  O  O150  1  0.08322000  0.58716000  0.52953000  1.0
  O  O151  1  0.00458000  0.65630000  0.44876000  1.0
  O  O152  1  0.88740000  0.49655000  0.44336000  1.0
  O  O153  1  0.88997000  0.65352000  0.44784000  1.0
  O  O154  1  0.99549000  0.38729000  0.44097000  1.0
  O  O155  1  0.87598000  0.52654000  0.58142000  1.0
  O  O156  1  0.81564000  0.57774000  0.52355000  1.0
  O  O157  1  0.74909000  0.25047000  0.25030000  1.0
  O  O158  1  0.59664000  0.35785000  0.30357000  1.0
  O  O159  1  0.66492000  0.16384000  0.21805000  1.0
  O  O160  1  0.72582000  0.37560000  0.16959000  1.0
  O  O161  1  0.59407000  0.24457000  0.29946000  1.0
  O  O162  1  0.67271000  0.43419000  0.22778000  1.0
  O  O163  1  0.72133000  0.21917000  0.16507000  1.0
  O  O164  1  0.87689000  0.22522000  0.16925000  1.0
  O  O165  1  0.86137000  0.25354000  0.30740000  1.0
  O  O166  1  0.93421000  0.17120000  0.22792000  1.0
  O  O167  1  0.75390000  0.36344000  0.30892000  1.0
  O  O168  1  0.74517000  0.09251000  0.29932000  1.0
  O  O169  1  0.85805000  0.09670000  0.30313000  1.0
  O  O170  1  0.25042000  0.75005000  0.74988000  1.0
  O  O171  1  0.37451000  0.72323000  0.66898000  1.0
  O  O172  1  0.36264000  0.75652000  0.80807000  1.0
  O  O173  1  0.17115000  0.93424000  0.72680000  1.0
  O  O174  1  0.43406000  0.67439000  0.72722000  1.0
  O  O175  1  0.22326000  0.87461000  0.66892000  1.0
  O  O176  1  0.25116000  0.86243000  0.80783000  1.0
  O  O177  1  0.09482000  0.85887000  0.80234000  1.0
  O  O178  1  0.16604000  0.66369000  0.72049000  1.0
  O  O179  1  0.09462000  0.74355000  0.80091000  1.0
  O  O180  1  0.21732000  0.71814000  0.66451000  1.0
  O  O181  1  0.35979000  0.59828000  0.80351000  1.0
  O  O182  1  0.24683000  0.59323000  0.80091000  1.0
  O  O183  1  0.49996000  0.00048000  0.99973000  1.0
  O  O184  1  0.50361000  0.15761000  0.95067000  1.0
  O  O185  1  0.38892000  0.99365000  0.94087000  1.0
  O  O186  1  0.65466000  0.89251000  0.94751000  1.0
  O  O187  1  0.39195000  0.15174000  0.94585000  1.0
  O  O188  1  0.65575000  0.00684000  0.95064000  1.0
  O  O189  1  0.49888000  0.88622000  0.94283000  1.0
  O  O190  1  0.57991000  0.81562000  0.02305000  1.0
  O  O191  1  0.52885000  0.03074000  0.08496000  1.0
  O  O192  1  0.52358000  0.87472000  0.08084000  1.0
  O  O193  1  0.58493000  0.08645000  0.03199000  1.0
  O  O194  1  0.31589000  0.07624000  0.02112000  1.0
  O  O195  1  0.37271000  0.02590000  0.08016000  1.0
  F  F196  1  0.28736000  0.52215000  0.40887000  1.0
  F  F197  1  0.46263000  0.22674000  0.34095000  1.0
  F  F198  1  0.77658000  0.54145000  0.65628000  1.0
  F  F199  1  0.47363000  0.70803000  0.59440000  1.0
  F  F200  1  0.04239000  0.27601000  0.65525000  1.0
  F  F201  1  0.20844000  0.97353000  0.59415000  1.0
  F  F202  1  0.78650000  0.78049000  0.40178000  1.0
  F  F203  1  0.96142000  0.96967000  0.34845000  1.0
  F  F204  1  0.70856000  0.47358000  0.09507000  1.0
  F  F205  1  0.54111000  0.77644000  0.15558000  1.0
  F  F206  1  0.09551000  0.10185000  0.21582000  1.0
  F  F207  1  0.15416000  0.14840000  0.03340000  1.0
  F  F208  1  0.46423000  0.46890000  0.84891000  1.0
  F  F209  1  0.28761000  0.28107000  0.90110000  1.0
  F  F210  1  0.96131000  0.72751000  0.84147000  1.0
  F  F211  1  0.78819000  0.02388000  0.90872000  1.0
