# generated using pymatgen
data_AgH4C6NO3
_symmetry_space_group_name_H-M   'P 1'
_cell_length_a   5.73239000
_cell_length_b   8.95108000
_cell_length_c   12.50000000
_cell_angle_alpha   75.09200000
_cell_angle_beta   89.99960000
_cell_angle_gamma   89.99950000
_symmetry_Int_Tables_number   1
_chemical_formula_structural   AgH4C6NO3
_chemical_formula_sum   'Ag4 H16 C24 N4 O12'
_cell_volume   619.79948831
_cell_formula_units_Z   4
loop_
 _symmetry_equiv_pos_site_id
 _symmetry_equiv_pos_as_xyz
  1  'x, y, z'
loop_
 _atom_site_type_symbol
 _atom_site_label
 _atom_site_symmetry_multiplicity
 _atom_site_fract_x
 _atom_site_fract_y
 _atom_site_fract_z
 _atom_site_occupancy
  Ag  Ag0  1  0.51874000  0.04045000  0.33562000  1.0
  Ag  Ag1  1  0.01874000  0.95954000  0.16438000  1.0
  Ag  Ag2  1  0.48126000  0.95955000  0.66438000  1.0
  Ag  Ag3  1  0.98126000  0.04045000  0.83562000  1.0
  H  H4  1  0.14955000  0.39815000  0.51792000  1.0
  H  H5  1  0.64955000  0.60184000  0.98208000  1.0
  H  H6  1  0.85045000  0.60185000  0.48208000  1.0
  H  H7  1  0.35043000  0.39816000  0.01792000  1.0
  H  H8  1  0.48336000  0.49267000  0.39225000  1.0
  H  H9  1  0.98336000  0.50732000  0.10775000  1.0
  H  H10  1  0.51664000  0.50733000  0.60775000  1.0
  H  H11  1  0.01663000  0.49267000  0.89225000  1.0
  H  H12  1  0.53270000  0.39462000  0.22197000  1.0
  H  H13  1  0.03271000  0.60537000  0.27803000  1.0
  H  H14  1  0.46730000  0.60537000  0.77803000  1.0
  H  H15  1  0.96729000  0.39463000  0.72196000  1.0
  H  H16  1  0.24516000  0.21016000  0.18032000  1.0
  H  H17  1  0.74515000  0.78983000  0.31968000  1.0
  H  H18  1  0.75485000  0.78983000  0.81968000  1.0
  H  H19  1  0.25485000  0.21017000  0.68032000  1.0
  C  C20  1  0.04525000  0.18016000  0.33096000  1.0
  C  C21  1  0.54526000  0.81984000  0.16904000  1.0
  C  C22  1  0.95475000  0.81984000  0.66904000  1.0
  C  C23  1  0.45475000  0.18017000  0.83095000  1.0
  C  C24  1  0.02068000  0.24325000  0.42600000  1.0
  C  C25  1  0.52069000  0.75675000  0.07400000  1.0
  C  C26  1  0.97931000  0.75675000  0.57400000  1.0
  C  C27  1  0.47931000  0.24326000  0.92600000  1.0
  C  C28  1  0.17829000  0.35486000  0.44531000  1.0
  C  C29  1  0.67830000  0.64513000  0.05468000  1.0
  C  C30  1  0.82171000  0.64514000  0.55469000  1.0
  C  C31  1  0.32170000  0.35486000  0.94532000  1.0
  C  C32  1  0.36367000  0.40718000  0.37544000  1.0
  C  C33  1  0.86368000  0.59282000  0.12457000  1.0
  C  C34  1  0.63633000  0.59283000  0.62456000  1.0
  C  C35  1  0.13631000  0.40719000  0.87543000  1.0
  C  C36  1  0.39226000  0.35116000  0.28053000  1.0
  C  C37  1  0.89227000  0.64883000  0.21947000  1.0
  C  C38  1  0.60774000  0.64884000  0.71947000  1.0
  C  C39  1  0.10774000  0.35117000  0.78053000  1.0
  C  C40  1  0.23732000  0.24282000  0.25881000  1.0
  C  C41  1  0.73731000  0.75718000  0.24119000  1.0
  C  C42  1  0.76269000  0.75718000  0.74119000  1.0
  C  C43  1  0.26268000  0.24283000  0.75881000  1.0
  N  N44  1  0.83985000  0.19593000  0.50513000  1.0
  N  N45  1  0.33986000  0.80406000  0.99487000  1.0
  N  N46  1  0.16015000  0.80407000  0.49487000  1.0
  N  N47  1  0.66014000  0.19594000  0.00513000  1.0
  O  O48  1  0.91503000  0.07540000  0.30748000  1.0
  O  O49  1  0.41503000  0.92459000  0.19252000  1.0
  O  O50  1  0.08497000  0.92459000  0.69252000  1.0
  O  O51  1  0.58497000  0.07541000  0.80748000  1.0
  O  O52  1  0.71671000  0.07847000  0.50200000  1.0
  O  O53  1  0.21672000  0.92153000  0.99800000  1.0
  O  O54  1  0.28329000  0.92152000  0.49801000  1.0
  O  O55  1  0.78328000  0.07848000  0.00200000  1.0
  O  O56  1  0.80277000  0.26855000  0.57660000  1.0
  O  O57  1  0.30278000  0.73146000  0.92341000  1.0
  O  O58  1  0.19723000  0.73145000  0.42341000  1.0
  O  O59  1  0.69722000  0.26855000  0.07659000  1.0
