# generated using pymatgen
data_Zn4H12C27S4O15
_symmetry_space_group_name_H-M   'P 1'
_cell_length_a   19.63610000
_cell_length_b   19.64390000
_cell_length_c   33.27970000
_cell_angle_alpha   79.30540000
_cell_angle_beta   79.32170000
_cell_angle_gamma   64.04000000
_symmetry_Int_Tables_number   1
_chemical_formula_structural   Zn4H12C27S4O15
_chemical_formula_sum   'Zn16 H48 C108 S16 O60'
_cell_volume   11262.29281595
_cell_formula_units_Z   4
loop_
 _symmetry_equiv_pos_site_id
 _symmetry_equiv_pos_as_xyz
  1  'x, y, z'
loop_
 _atom_site_type_symbol
 _atom_site_label
 _atom_site_symmetry_multiplicity
 _atom_site_fract_x
 _atom_site_fract_y
 _atom_site_fract_z
 _atom_site_occupancy
  Zn  Zn0  1  0.05617000  0.40026000  0.47900000  1.0
  Zn  Zn1  1  0.98432000  0.48298000  0.55960000  1.0
  Zn  Zn2  1  0.05659000  0.56428000  0.48218000  1.0
  Zn  Zn3  1  0.90029000  0.55649000  0.47837000  1.0
  Zn  Zn4  1  0.69234000  0.35130000  0.27128000  1.0
  Zn  Zn5  1  0.68625000  0.19339000  0.26716000  1.0
  Zn  Zn6  1  0.76969000  0.26534000  0.18969000  1.0
  Zn  Zn7  1  0.84679000  0.19629000  0.27225000  1.0
  Zn  Zn8  1  0.26786000  0.76748000  0.68903000  1.0
  Zn  Zn9  1  0.34989000  0.69581000  0.77024000  1.0
  Zn  Zn10  1  0.19240000  0.84853000  0.77199000  1.0
  Zn  Zn11  1  0.19200000  0.68809000  0.76651000  1.0
  Zn  Zn12  1  0.56046000  0.06042000  0.98273000  1.0
  Zn  Zn13  1  0.40109000  0.05601000  0.97797000  1.0
  Zn  Zn14  1  0.55507000  0.90117000  0.97811000  1.0
  Zn  Zn15  1  0.48447000  0.98180000  0.06025000  1.0
  H  H16  1  0.95431000  0.25296000  0.34835000  1.0
  H  H17  1  0.74117000  0.45081000  0.35624000  1.0
  H  H18  1  0.00266000  0.30165000  0.39664000  1.0
  H  H19  1  0.09270000  0.60381000  0.69956000  1.0
  H  H20  1  0.21457000  0.68787000  0.59715000  1.0
  H  H21  1  0.04435000  0.55634000  0.65063000  1.0
  H  H22  1  0.46275000  0.24149000  0.34247000  1.0
  H  H23  1  0.48025000  0.69747000  0.59980000  1.0
  H  H24  1  0.20639000  0.97926000  0.60234000  1.0
  H  H25  1  0.94756000  0.97004000  0.34439000  1.0
  H  H26  1  0.55672000  0.04390000  0.15221000  1.0
  H  H27  1  0.63908000  0.16580000  0.04903000  1.0
  H  H28  1  0.60536000  0.09314000  0.20005000  1.0
  H  H29  1  0.54841000  0.76920000  0.14789000  1.0
  H  H30  1  0.16345000  0.14515000  0.04086000  1.0
  H  H31  1  0.49759000  0.79348000  0.90190000  1.0
  H  H32  1  0.30133000  0.00791000  0.89347000  1.0
  H  H33  1  0.44838000  0.74634000  0.85330000  1.0
  H  H34  1  0.30068000  0.28147000  0.90180000  1.0
  H  H35  1  0.78559000  0.01122000  0.90651000  1.0
  H  H36  1  0.78654000  0.57212000  0.35843000  1.0
  H  H37  1  0.11192000  0.74412000  0.53271000  1.0
  H  H38  1  0.78258000  0.15151000  0.07197000  1.0
  H  H39  1  0.17749000  0.96605000  0.88976000  1.0
  H  H40  1  0.23003000  0.57768000  0.40210000  1.0
  H  H41  1  0.32947000  0.55386000  0.39888000  1.0
  H  H42  1  0.27670000  0.53758000  0.44651000  1.0
  H  H43  1  0.82490000  0.47796000  0.65328000  1.0
  H  H44  1  0.75760000  0.53415000  0.69129000  1.0
  H  H45  1  0.82161000  0.56721000  0.65752000  1.0
  H  H46  1  0.06050000  0.32662000  0.65672000  1.0
  H  H47  1  0.03900000  0.25709000  0.69270000  1.0
  H  H48  1  0.97520000  0.31806000  0.65624000  1.0
  H  H49  1  0.79193000  0.72222000  0.39380000  1.0
  H  H50  1  0.72816000  0.82039000  0.38477000  1.0
  H  H51  1  0.75052000  0.77625000  0.43535000  1.0
  H  H52  1  0.77035000  0.42656000  0.09437000  1.0
  H  H53  1  0.71078000  0.49116000  0.05698000  1.0
  H  H54  1  0.68286000  0.42444000  0.09171000  1.0
  H  H55  1  0.07525000  0.14331000  0.24220000  1.0
  H  H56  1  0.16157000  0.06682000  0.22502000  1.0
  H  H57  1  0.07415000  0.05613000  0.23760000  1.0
  H  H58  1  0.49442000  0.48422000  0.81610000  1.0
  H  H59  1  0.52228000  0.42819000  0.86389000  1.0
  H  H60  1  0.45677000  0.52617000  0.86213000  1.0
  H  H61  1  0.97449000  0.70778000  0.80754000  1.0
  H  H62  1  0.91766000  0.69559000  0.85441000  1.0
  H  H63  1  0.01678000  0.67108000  0.85350000  1.0
  C  C64  1  0.06076000  0.31601000  0.56273000  1.0
  C  C65  1  0.06959000  0.56931000  0.56879000  1.0
  C  C66  1  0.18259000  0.44097000  0.43920000  1.0
  C  C67  1  0.93474000  0.68694000  0.43808000  1.0
  C  C68  1  0.93135000  0.43128000  0.43071000  1.0
  C  C69  1  0.81717000  0.56035000  0.56167000  1.0
  C  C70  1  0.56457000  0.31322000  0.31310000  1.0
  C  C71  1  0.68011000  0.18209000  0.18084000  1.0
  C  C72  1  0.68762000  0.43258000  0.18700000  1.0
  C  C73  1  0.93685000  0.19017000  0.19030000  1.0
  C  C74  1  0.81673000  0.32145000  0.32003000  1.0
  C  C75  1  0.80929000  0.06633000  0.30948000  1.0
  C  C76  1  0.43483000  0.68587000  0.68698000  1.0
  C  C77  1  0.31909000  0.81906000  0.81875000  1.0
  C  C78  1  0.19133000  0.93423000  0.68905000  1.0
  C  C79  1  0.06411000  0.80844000  0.80996000  1.0
  C  C80  1  0.18319000  0.67928000  0.67976000  1.0
  C  C81  1  0.31449000  0.56684000  0.81209000  1.0
  C  C82  1  0.43832000  0.18454000  0.93807000  1.0
  C  C83  1  0.43019000  0.93165000  0.92981000  1.0
  C  C84  1  0.68437000  0.93888000  0.93860000  1.0
  C  C85  1  0.56204000  0.81470000  0.06101000  1.0
  C  C86  1  0.56854000  0.07124000  0.06908000  1.0
  C  C87  1  0.31648000  0.06049000  0.06134000  1.0
  C  C88  1  0.89938000  0.40299000  0.40332000  1.0
  C  C89  1  0.84532000  0.34965000  0.34925000  1.0
  C  C90  1  0.82487000  0.44577000  0.39231000  1.0
  C  C91  1  0.91883000  0.30681000  0.36078000  1.0
  C  C92  1  0.79863000  0.41883000  0.36510000  1.0
  C  C93  1  0.94543000  0.33362000  0.38755000  1.0
  C  C94  1  0.10228000  0.59544000  0.59684000  1.0
  C  C95  1  0.15545000  0.64943000  0.65096000  1.0
  C  C96  1  0.15108000  0.63207000  0.58120000  1.0
  C  C97  1  0.10827000  0.61158000  0.66643000  1.0
  C  C98  1  0.17678000  0.65937000  0.60848000  1.0
  C  C99  1  0.08185000  0.58513000  0.63940000  1.0
  C  C100  1  0.30282000  0.45783000  0.40314000  1.0
  C  C101  1  0.44535000  0.29835000  0.35064000  1.0
  C  C102  1  0.25768000  0.41717000  0.41493000  1.0
  C  C103  1  0.49019000  0.33851000  0.33834000  1.0
  C  C104  1  0.37701000  0.34119000  0.37414000  1.0
  C  C105  1  0.37092000  0.41330000  0.37962000  1.0
  C  C106  1  0.72808000  0.57354000  0.62966000  1.0
  C  C107  1  0.52510000  0.66910000  0.61988000  1.0
  C  C108  1  0.74297000  0.58319000  0.58680000  1.0
  C  C109  1  0.50977000  0.66001000  0.66237000  1.0
  C  C110  1  0.60439000  0.63736000  0.60755000  1.0
  C  C111  1  0.64823000  0.60484000  0.64098000  1.0
  C  C112  1  0.07565000  0.22737000  0.63105000  1.0
  C  C113  1  0.17681000  0.02439000  0.62215000  1.0
  C  C114  1  0.08609000  0.24205000  0.58819000  1.0
  C  C115  1  0.16649000  0.00950000  0.66465000  1.0
  C  C116  1  0.14422000  0.10350000  0.60955000  1.0
  C  C117  1  0.10943000  0.14760000  0.64275000  1.0
  C  C118  1  0.83908000  0.80182000  0.39661000  1.0
  C  C119  1  0.90299000  0.94963000  0.34952000  1.0
  C  C120  1  0.90902000  0.76059000  0.41231000  1.0
  C  C121  1  0.83376000  0.99115000  0.33391000  1.0
  C  C122  1  0.90580000  0.88044000  0.37214000  1.0
  C  C123  1  0.83840000  0.87040000  0.37357000  1.0
  C  C124  1  0.64933000  0.15659000  0.15144000  1.0
  C  C125  1  0.59611000  0.10135000  0.09788000  1.0
  C  C126  1  0.65883000  0.17812000  0.10868000  1.0
  C  C127  1  0.58554000  0.08123000  0.14045000  1.0
  C  C128  1  0.63254000  0.14979000  0.08221000  1.0
  C  C129  1  0.61223000  0.10867000  0.16688000  1.0
  C  C130  1  0.67287000  0.52099000  0.11852000  1.0
  C  C131  1  0.57676000  0.72425000  0.12790000  1.0
  C  C132  1  0.66299000  0.50640000  0.16140000  1.0
  C  C133  1  0.58659000  0.73948000  0.08541000  1.0
  C  C134  1  0.60785000  0.64504000  0.14032000  1.0
  C  C135  1  0.64092000  0.60094000  0.10705000  1.0
  C  C136  1  0.08366000  0.12326000  0.17965000  1.0
  C  C137  1  0.17092000  0.12707000  0.07328000  1.0
  C  C138  1  0.01201000  0.16460000  0.16588000  1.0
  C  C139  1  0.24214000  0.08588000  0.08675000  1.0
  C  C140  1  0.11276000  0.14109000  0.10680000  1.0
  C  C141  1  0.14068000  0.11031000  0.14534000  1.0
  C  C142  1  0.34767000  0.85029000  0.84637000  1.0
  C  C143  1  0.40167000  0.90312000  0.90074000  1.0
  C  C144  1  0.30552000  0.92482000  0.85734000  1.0
  C  C145  1  0.44394000  0.82948000  0.88933000  1.0
  C  C146  1  0.33276000  0.95038000  0.88471000  1.0
  C  C147  1  0.41677000  0.80356000  0.86239000  1.0
  C  C148  1  0.40962000  0.45037000  0.85319000  1.0
  C  C149  1  0.34537000  0.30160000  0.89737000  1.0
  C  C150  1  0.34028000  0.49222000  0.83696000  1.0
  C  C151  1  0.41413000  0.25960000  0.91344000  1.0
  C  C152  1  0.34310000  0.37108000  0.87535000  1.0
  C  C153  1  0.41017000  0.38106000  0.87508000  1.0
  C  C154  1  0.94507000  0.79157000  0.84873000  1.0
  C  C155  1  0.80312000  0.95357000  0.89950000  1.0
  C  C156  1  0.98944000  0.83258000  0.83485000  1.0
  C  C157  1  0.75881000  0.91320000  0.91334000  1.0
  C  C158  1  0.87105000  0.90995000  0.87591000  1.0
  C  C159  1  0.87740000  0.83688000  0.87221000  1.0
  C  C160  1  0.76914000  0.51749000  0.41070000  1.0
  C  C161  1  0.18214000  0.63823000  0.53632000  1.0
  C  C162  1  0.69087000  0.23569000  0.09001000  1.0
  C  C163  1  0.23502000  0.98173000  0.83826000  1.0
  C  C164  1  0.28407000  0.53574000  0.41312000  1.0
  C  C165  1  0.78586000  0.53626000  0.65967000  1.0
  C  C166  1  0.03557000  0.28513000  0.66091000  1.0
  C  C167  1  0.77396000  0.77919000  0.40275000  1.0
  C  C168  1  0.71100000  0.46300000  0.08872000  1.0
  C  C169  1  0.09986000  0.09584000  0.22339000  1.0
  C  C170  1  0.47440000  0.47314000  0.84866000  1.0
  C  C171  1  0.96420000  0.71232000  0.84070000  1.0
  S  S172  1  0.29775000  0.32731000  0.39795000  1.0
  S  S173  1  0.44972000  0.42808000  0.35538000  1.0
  S  S174  1  0.66173000  0.62857000  0.56127000  1.0
  S  S175  1  0.59122000  0.61297000  0.68753000  1.0
  S  S176  1  0.13602000  0.16049000  0.56313000  1.0
  S  S177  1  0.11774000  0.09110000  0.68950000  1.0
  S  S178  1  0.97182000  0.80436000  0.39911000  1.0
  S  S179  1  0.77190000  0.94651000  0.34657000  1.0
  S  S180  1  0.61580000  0.58794000  0.18669000  1.0
  S  S181  1  0.63337000  0.65781000  0.06043000  1.0
  S  S182  1  0.01475000  0.18688000  0.11252000  1.0
  S  S183  1  0.23887000  0.06413000  0.14000000  1.0
  S  S184  1  0.27802000  0.44774000  0.84816000  1.0
  S  S185  1  0.47605000  0.30421000  0.90200000  1.0
  S  S186  1  0.94921000  0.92385000  0.85009000  1.0
  S  S187  1  0.79920000  0.82243000  0.89781000  1.0
  O  O188  1  0.99979000  0.50048000  0.49950000  1.0
  O  O189  1  0.08014000  0.31539000  0.52378000  1.0
  O  O190  1  0.04038000  0.52269000  0.58519000  1.0
  O  O191  1  0.15471000  0.50624000  0.45220000  1.0
  O  O192  1  0.02128000  0.37513000  0.58148000  1.0
  O  O193  1  0.15122000  0.39405000  0.44523000  1.0
  O  O194  1  0.07249000  0.59716000  0.53106000  1.0
  O  O195  1  0.00336000  0.65865000  0.44709000  1.0
  O  O196  1  0.89535000  0.50162000  0.43589000  1.0
  O  O197  1  0.88686000  0.65725000  0.44951000  1.0
  O  O198  1  0.99204000  0.38346000  0.44584000  1.0
  O  O199  1  0.87635000  0.53164000  0.58079000  1.0
  O  O200  1  0.81625000  0.57157000  0.52255000  1.0
  O  O201  1  0.74856000  0.25165000  0.25008000  1.0
  O  O202  1  0.59542000  0.36052000  0.30415000  1.0
  O  O203  1  0.65397000  0.17587000  0.21867000  1.0
  O  O204  1  0.72201000  0.37291000  0.16839000  1.0
  O  O205  1  0.59207000  0.24623000  0.30221000  1.0
  O  O206  1  0.67258000  0.43452000  0.22611000  1.0
  O  O207  1  0.73092000  0.20654000  0.16545000  1.0
  O  O208  1  0.87912000  0.22715000  0.17010000  1.0
  O  O209  1  0.86048000  0.25551000  0.30920000  1.0
  O  O210  1  0.93488000  0.17355000  0.22942000  1.0
  O  O211  1  0.75162000  0.36555000  0.30839000  1.0
  O  O212  1  0.74355000  0.09346000  0.29688000  1.0
  O  O213  1  0.85568000  0.09793000  0.30310000  1.0
  O  O214  1  0.25032000  0.75023000  0.74939000  1.0
  O  O215  1  0.37646000  0.72305000  0.66753000  1.0
  O  O216  1  0.36741000  0.75905000  0.80315000  1.0
  O  O217  1  0.17625000  0.93348000  0.72820000  1.0
  O  O218  1  0.43488000  0.66873000  0.72608000  1.0
  O  O219  1  0.22542000  0.87635000  0.66896000  1.0
  O  O220  1  0.24862000  0.85441000  0.81381000  1.0
  O  O221  1  0.09282000  0.85752000  0.80094000  1.0
  O  O222  1  0.16683000  0.66278000  0.71817000  1.0
  O  O223  1  0.09437000  0.74090000  0.79949000  1.0
  O  O224  1  0.22042000  0.71878000  0.66339000  1.0
  O  O225  1  0.35895000  0.60079000  0.80525000  1.0
  O  O226  1  0.24902000  0.59181000  0.79934000  1.0
  O  O227  1  0.49997000  0.00024000  0.99981000  1.0
  O  O228  1  0.50527000  0.15638000  0.94928000  1.0
  O  O229  1  0.38660000  0.99748000  0.94078000  1.0
  O  O230  1  0.65277000  0.89226000  0.94649000  1.0
  O  O231  1  0.39084000  0.15411000  0.94613000  1.0
  O  O232  1  0.65792000  0.00500000  0.95042000  1.0
  O  O233  1  0.49561000  0.88761000  0.94112000  1.0
  O  O234  1  0.57598000  0.81523000  0.02180000  1.0
  O  O235  1  0.53195000  0.03110000  0.08547000  1.0
  O  O236  1  0.52900000  0.87292000  0.08085000  1.0
  O  O237  1  0.58429000  0.08817000  0.03065000  1.0
  O  O238  1  0.31581000  0.07688000  0.02237000  1.0
  O  O239  1  0.37525000  0.02412000  0.08072000  1.0
  O  O240  1  0.75345000  0.58359000  0.38437000  1.0
  O  O241  1  0.73505000  0.51810000  0.44502000  1.0
  O  O242  1  0.15407000  0.70970000  0.51534000  1.0
  O  O243  1  0.23316000  0.58551000  0.51995000  1.0
  O  O244  1  0.76151000  0.20716000  0.06815000  1.0
  O  O245  1  0.65526000  0.30389000  0.09097000  1.0
  O  O246  1  0.16814000  0.99988000  0.86393000  1.0
  O  O247  1  0.23649000  0.01483000  0.80376000  1.0
