# generated using pymatgen
data_LaH12C18(NO2)3
_symmetry_space_group_name_H-M   'P 1'
_cell_length_a   7.78671000
_cell_length_b   11.00650000
_cell_length_c   11.38710000
_cell_angle_alpha   118.03000000
_cell_angle_beta   90.00000000
_cell_angle_gamma   90.00000000
_symmetry_Int_Tables_number   1
_chemical_formula_structural   LaH12C18(NO2)3
_chemical_formula_sum   'La2 H24 C36 N6 O12'
_cell_volume   861.45047537
_cell_formula_units_Z   2
loop_
 _symmetry_equiv_pos_site_id
 _symmetry_equiv_pos_as_xyz
  1  'x, y, z'
loop_
 _atom_site_type_symbol
 _atom_site_label
 _atom_site_symmetry_multiplicity
 _atom_site_fract_x
 _atom_site_fract_y
 _atom_site_fract_z
 _atom_site_occupancy
  La  La0  1  0.34040000  0.48480000  0.52956000  1.0
  La  La1  1  0.84040000  0.51520000  0.47044000  1.0
  H  H2  1  0.08104000  0.39495000  0.73065000  1.0
  H  H3  1  0.58104000  0.60505000  0.26935000  1.0
  H  H4  1  0.64224000  0.34619000  0.90231000  1.0
  H  H5  1  0.14224000  0.65381000  0.09768000  1.0
  H  H6  1  0.08703000  0.33313000  0.91478000  1.0
  H  H7  1  0.58702000  0.66686000  0.08523000  1.0
  H  H8  1  0.37312000  0.30844000  0.00560000  1.0
  H  H9  1  0.87311000  0.69156000  0.99440000  1.0
  H  H10  1  0.62896000  0.19580000  0.42186000  1.0
  H  H11  1  0.12897000  0.80420000  0.57814000  1.0
  H  H12  1  0.64462000  0.94792000  0.35350000  1.0
  H  H13  1  0.14462000  0.05208000  0.64650000  1.0
  H  H14  1  0.08802000  0.94121000  0.35062000  1.0
  H  H15  1  0.58803000  0.05879000  0.64938000  1.0
  H  H16  1  0.36771000  0.81348000  0.32039000  1.0
  H  H17  1  0.86772000  0.18652000  0.67962000  1.0
  H  H18  1  0.09251000  0.90078000  0.02850000  1.0
  H  H19  1  0.59251000  0.09922000  0.97150000  1.0
  H  H20  1  0.63037000  0.69920000  0.79183000  1.0
  H  H21  1  0.13037000  0.30080000  0.20817000  1.0
  H  H22  1  0.64827000  0.88921000  0.02149000  1.0
  H  H23  1  0.14827000  0.11079000  0.97851000  1.0
  H  H24  1  0.37426000  0.99989000  0.14368000  1.0
  H  H25  1  0.87427000  0.00011000  0.85632000  1.0
  C  C26  1  0.50051000  0.38925000  0.76483000  1.0
  C  C27  1  0.00051000  0.61075000  0.23517000  1.0
  C  C28  1  0.20316000  0.38218000  0.77072000  1.0
  C  C29  1  0.70316000  0.61782000  0.22928000  1.0
  C  C30  1  0.51466000  0.35478000  0.86782000  1.0
  C  C31  1  0.01466000  0.64522000  0.13218000  1.0
  C  C32  1  0.20725000  0.34777000  0.87411000  1.0
  C  C33  1  0.70725000  0.65222000  0.12590000  1.0
  C  C34  1  0.36557000  0.33394000  0.92396000  1.0
  C  C35  1  0.86557000  0.66606000  0.07604000  1.0
  C  C36  1  0.66012000  0.41497000  0.70364000  1.0
  C  C37  1  0.16012000  0.58503000  0.29636000  1.0
  C  C38  1  0.51092000  0.13694000  0.40594000  1.0
  C  C39  1  0.01093000  0.86306000  0.59406000  1.0
  C  C40  1  0.21404000  0.13284000  0.40346000  1.0
  C  C41  1  0.71405000  0.86716000  0.59653000  1.0
  C  C42  1  0.51916000  0.99656000  0.36763000  1.0
  C  C43  1  0.01917000  0.00344000  0.63237000  1.0
  C  C44  1  0.21171000  0.99248000  0.36578000  1.0
  C  C45  1  0.71172000  0.00752000  0.63422000  1.0
  C  C46  1  0.36694000  0.92295000  0.34882000  1.0
  C  C47  1  0.86695000  0.07705000  0.65118000  1.0
  C  C48  1  0.04815000  0.21075000  0.42128000  1.0
  C  C49  1  0.54816000  0.78925000  0.57872000  1.0
  C  C50  1  0.05050000  0.69870000  0.77578000  1.0
  C  C51  1  0.55050000  0.30130000  0.22422000  1.0
  C  C52  1  0.21668000  0.75294000  0.85030000  1.0
  C  C53  1  0.71668000  0.24706000  0.14970000  1.0
  C  C54  1  0.21531000  0.85977000  0.98070000  1.0
  C  C55  1  0.71531000  0.14023000  0.01930000  1.0
  C  C56  1  0.51307000  0.74548000  0.84676000  1.0
  C  C57  1  0.01307000  0.25452000  0.15325000  1.0
  C  C58  1  0.52273000  0.85297000  0.97653000  1.0
  C  C59  1  0.02273000  0.14703000  0.02347000  1.0
  C  C60  1  0.37120000  0.91262000  0.04431000  1.0
  C  C61  1  0.87120000  0.08738000  0.95569000  1.0
  N  N62  1  0.34696000  0.40275000  0.71724000  1.0
  N  N63  1  0.84697000  0.59725000  0.28276000  1.0
  N  N64  1  0.36151000  0.20475000  0.42484000  1.0
  N  N65  1  0.86152000  0.79525000  0.57516000  1.0
  N  N66  1  0.36326000  0.69676000  0.78378000  1.0
  N  N67  1  0.86326000  0.30324000  0.21622000  1.0
  O  O68  1  0.63264000  0.44997000  0.61045000  1.0
  O  O69  1  0.13264000  0.55003000  0.38956000  1.0
  O  O70  1  0.80366000  0.40250000  0.74417000  1.0
  O  O71  1  0.30366000  0.59751000  0.25583000  1.0
  O  O72  1  0.06674000  0.34268000  0.46331000  1.0
  O  O73  1  0.56675000  0.65732000  0.53669000  1.0
  O  O74  1  0.06804000  0.60436000  0.65282000  1.0
  O  O75  1  0.56804000  0.39564000  0.34718000  1.0
  O  O76  1  0.91087000  0.74579000  0.83170000  1.0
  O  O77  1  0.41087000  0.25421000  0.16830000  1.0
  O  O78  1  0.90873000  0.14906000  0.39557000  1.0
  O  O79  1  0.40873000  0.85094000  0.60443000  1.0
