# generated using pymatgen
data_CdNiH12(C7N4)2
_symmetry_space_group_name_H-M   'P 1'
_cell_length_a   7.33481000
_cell_length_b   7.36011000
_cell_length_c   8.79594000
_cell_angle_alpha   65.28000000
_cell_angle_beta   74.37300000
_cell_angle_gamma   89.97760000
_symmetry_Int_Tables_number   1
_chemical_formula_structural   CdNiH12(C7N4)2
_chemical_formula_sum   'Cd1 Ni1 H12 C14 N8'
_cell_volume   411.95645724
_cell_formula_units_Z   1
loop_
 _symmetry_equiv_pos_site_id
 _symmetry_equiv_pos_as_xyz
  1  'x, y, z'
loop_
 _atom_site_type_symbol
 _atom_site_label
 _atom_site_symmetry_multiplicity
 _atom_site_fract_x
 _atom_site_fract_y
 _atom_site_fract_z
 _atom_site_occupancy
  Cd  Cd0  1  0.50000000  0.00000000  1.00000000  1.0
  Ni  Ni1  1  0.00000000  0.50001000  0.00000000  1.0
  H  H2  1  0.17808000  0.11069000  0.77940000  1.0
  H  H3  1  0.82191000  0.88934000  0.22060000  1.0
  H  H4  1  0.48320000  0.38580000  0.22845000  1.0
  H  H5  1  0.51681000  0.61406000  0.77155000  1.0
  H  H6  1  0.78873000  0.34509000  0.30984000  1.0
  H  H7  1  0.21128000  0.65481000  0.69016000  1.0
  H  H8  1  0.77274000  0.18674000  0.62662000  1.0
  H  H9  1  0.22724000  0.81324000  0.37339000  1.0
  H  H10  1  0.11857000  0.41600000  0.38857000  1.0
  H  H11  1  0.88132000  0.80428000  0.61143000  1.0
  H  H12  1  0.88094000  0.58389000  0.61214000  1.0
  H  H13  1  0.11918000  0.19633000  0.38784000  1.0
  C  C14  1  0.31136000  0.16409000  0.67233000  1.0
  C  C15  1  0.68866000  0.83595000  0.32766000  1.0
  C  C16  1  0.30673000  0.25092000  0.49861000  1.0
  C  C17  1  0.69327000  0.74903000  0.50139000  1.0
  C  C18  1  0.48134000  0.31732000  0.36549000  1.0
  C  C19  1  0.51868000  0.68257000  0.63451000  1.0
  C  C20  1  0.65051000  0.29469000  0.41077000  1.0
  C  C21  1  0.34949000  0.70524000  0.58924000  1.0
  C  C22  1  0.64256000  0.20672000  0.58687000  1.0
  C  C23  1  0.35745000  0.79330000  0.41314000  1.0
  C  C24  1  0.84513000  0.35106000  0.94996000  1.0
  C  C25  1  0.15448000  0.30065000  0.05061000  1.0
  C  C26  1  0.15486000  0.64895000  0.05003000  1.0
  C  C27  1  0.84551000  0.69935000  0.94939000  1.0
  N  N28  1  0.47540000  0.14281000  0.71493000  1.0
  N  N29  1  0.52459000  0.85727000  0.28508000  1.0
  N  N30  1  0.74206000  0.26055000  0.91741000  1.0
  N  N31  1  0.25742000  0.17741000  0.08333000  1.0
  N  N32  1  0.25796000  0.73947000  0.08256000  1.0
  N  N33  1  0.74254000  0.82259000  0.91670000  1.0
  N  N34  1  0.12506000  0.26759000  0.46496000  1.0
  N  N35  1  0.87495000  0.73219000  0.53503000  1.0
