# generated using pymatgen
data_YH11C16(NO7)2
_symmetry_space_group_name_H-M   'P 1'
_cell_length_a   9.13340000
_cell_length_b   10.02170000
_cell_length_c   12.53238316
_cell_angle_alpha   96.11465450
_cell_angle_beta   108.35954276
_cell_angle_gamma   111.48700000
_symmetry_Int_Tables_number   1
_chemical_formula_structural   YH11C16(NO7)2
_chemical_formula_sum   'Y2 H22 C32 N4 O28'
_cell_volume   980.56311599
_cell_formula_units_Z   2
loop_
 _symmetry_equiv_pos_site_id
 _symmetry_equiv_pos_as_xyz
  1  'x, y, z'
loop_
 _atom_site_type_symbol
 _atom_site_label
 _atom_site_symmetry_multiplicity
 _atom_site_fract_x
 _atom_site_fract_y
 _atom_site_fract_z
 _atom_site_occupancy
  Y  Y0  1  0.26544000  0.02914000  0.46667000  1.0
  Y  Y1  1  0.73454000  0.97086000  0.53332000  1.0
  H  H2  1  0.36596000  0.28899000  0.24983000  1.0
  H  H3  1  0.63405000  0.71102000  0.75017000  1.0
  H  H4  1  0.66900000  0.48071000  0.15647000  1.0
  H  H5  1  0.33104000  0.51929000  0.84353000  1.0
  H  H6  1  0.70627000  0.41691000  0.82208000  1.0
  H  H7  1  0.29372000  0.58305000  0.17790000  1.0
  H  H8  1  0.28843000  0.09763000  0.88171000  1.0
  H  H9  1  0.71157000  0.90238000  0.11830000  1.0
  H  H10  1  0.92545000  0.36126000  0.64111000  1.0
  H  H11  1  0.07454000  0.63875000  0.35889000  1.0
  H  H12  1  0.36386000  0.50317000  0.54860000  1.0
  H  H13  1  0.63613000  0.49683000  0.45141000  1.0
  H  H14  1  0.22558000  0.82853000  0.69243000  1.0
  H  H15  1  0.77441000  0.17147000  0.30758000  1.0
  H  H16  1  0.13761000  0.81443000  0.23637000  1.0
  H  H17  1  0.86239000  0.18558000  0.76362000  1.0
  H  H18  1  0.32225000  0.81923000  0.31256000  1.0
  H  H19  1  0.67775000  0.18077000  0.68744000  1.0
  H  H20  1  0.92291000  0.97762000  0.30531000  1.0
  H  H21  1  0.07708000  0.02238000  0.69469000  1.0
  H  H22  1  0.04739000  0.08837000  0.25954000  1.0
  H  H23  1  0.95260000  0.91164000  0.74046000  1.0
  C  C24  1  0.46886000  0.28248000  0.02670000  1.0
  C  C25  1  0.53116000  0.71752000  0.97330000  1.0
  C  C26  1  0.61865000  0.41346000  0.06825000  1.0
  C  C27  1  0.38138000  0.58653000  0.93175000  1.0
  C  C28  1  0.70382000  0.45588000  0.99408000  1.0
  C  C29  1  0.29619000  0.54410000  0.00591000  1.0
  C  C30  1  0.64060000  0.37685000  0.87903000  1.0
  C  C31  1  0.35940000  0.62312000  0.12096000  1.0
  C  C32  1  0.48794000  0.24830000  0.83753000  1.0
  C  C33  1  0.51205000  0.75169000  0.16246000  1.0
  C  C34  1  0.40477000  0.19971000  0.91204000  1.0
  C  C35  1  0.59522000  0.80028000  0.08795000  1.0
  C  C36  1  0.37819000  0.22386000  0.10417000  1.0
  C  C37  1  0.62186000  0.77615000  0.89584000  1.0
  C  C38  1  0.41336000  0.16530000  0.71309000  1.0
  C  C39  1  0.58661000  0.83469000  0.28690000  1.0
  C  C40  1  0.03405000  0.44961000  0.63571000  1.0
  C  C41  1  0.96596000  0.55040000  0.36431000  1.0
  C  C42  1  0.14154000  0.41634000  0.59029000  1.0
  C  C43  1  0.85845000  0.58365000  0.40971000  1.0
  C  C44  1  0.28083000  0.53072000  0.58388000  1.0
  C  C45  1  0.71917000  0.46928000  0.41613000  1.0
  C  C46  1  0.30959000  0.67857000  0.61836000  1.0
  C  C47  1  0.69040000  0.32144000  0.38164000  1.0
  C  C48  1  0.20531000  0.71405000  0.66581000  1.0
  C  C49  1  0.79469000  0.28595000  0.33420000  1.0
  C  C50  1  0.07074000  0.59793000  0.67490000  1.0
  C  C51  1  0.92926000  0.40207000  0.32511000  1.0
  C  C52  1  0.10467000  0.25784000  0.54449000  1.0
  C  C53  1  0.89533000  0.74218000  0.45552000  1.0
  C  C54  1  0.44919000  0.79576000  0.59852000  1.0
  C  C55  1  0.55080000  0.20425000  0.40148000  1.0
  N  N56  1  0.86553000  0.58984000  0.03834000  1.0
  N  N57  1  0.13448000  0.41014000  0.96164000  1.0
  N  N58  1  0.95688000  0.63321000  0.72107000  1.0
  N  N59  1  0.04311000  0.36679000  0.27894000  1.0
  O  O60  1  0.26383000  0.05998000  0.66989000  1.0
  O  O61  1  0.73616000  0.94002000  0.33011000  1.0
  O  O62  1  0.49958000  0.20202000  0.64955000  1.0
  O  O63  1  0.50040000  0.79797000  0.35044000  1.0
  O  O64  1  0.94876000  0.61956000  0.97646000  1.0
  O  O65  1  0.05126000  0.38040000  0.02352000  1.0
  O  O66  1  0.91062000  0.66629000  0.13827000  1.0
  O  O67  1  0.08938000  0.33370000  0.86170000  1.0
  O  O68  1  0.40180000  0.33295000  0.18931000  1.0
  O  O69  1  0.59822000  0.66705000  0.81069000  1.0
  O  O70  1  0.29559000  0.09164000  0.09116000  1.0
  O  O71  1  0.70446000  0.90835000  0.90886000  1.0
  O  O72  1  0.21051000  0.23455000  0.50912000  1.0
  O  O73  1  0.78949000  0.76547000  0.49088000  1.0
  O  O74  1  0.96886000  0.15809000  0.54271000  1.0
  O  O75  1  0.03112000  0.84192000  0.45728000  1.0
  O  O76  1  0.81150000  0.53542000  0.69504000  1.0
  O  O77  1  0.18848000  0.46457000  0.30496000  1.0
  O  O78  1  0.01256000  0.76062000  0.78271000  1.0
  O  O79  1  0.98743000  0.23938000  0.21729000  1.0
  O  O80  1  0.42186000  0.89691000  0.55402000  1.0
  O  O81  1  0.57813000  0.10310000  0.44598000  1.0
  O  O82  1  0.59205000  0.78813000  0.62242000  1.0
  O  O83  1  0.40793000  0.21187000  0.37758000  1.0
  O  O84  1  0.23514000  0.85722000  0.31098000  1.0
  O  O85  1  0.76486000  0.14279000  0.68902000  1.0
  O  O86  1  0.03326000  0.00470000  0.29551000  1.0
  O  O87  1  0.96673000  0.99531000  0.70449000  1.0
