# generated using pymatgen
data_NaH5C3S(NO2)2
_symmetry_space_group_name_H-M   'P 1'
_cell_length_a   7.07103000
_cell_length_b   10.04260000
_cell_length_c   10.31650000
_cell_angle_alpha   115.80100000
_cell_angle_beta   90.00000000
_cell_angle_gamma   90.00000000
_symmetry_Int_Tables_number   1
_chemical_formula_structural   NaH5C3S(NO2)2
_chemical_formula_sum   'Na4 H20 C12 S4 N8 O16'
_cell_volume   659.55932990
_cell_formula_units_Z   4
loop_
 _symmetry_equiv_pos_site_id
 _symmetry_equiv_pos_as_xyz
  1  'x, y, z'
loop_
 _atom_site_type_symbol
 _atom_site_label
 _atom_site_symmetry_multiplicity
 _atom_site_fract_x
 _atom_site_fract_y
 _atom_site_fract_z
 _atom_site_occupancy
  Na  Na0  1  0.48153000  0.26610000  0.50650000  1.0
  Na  Na1  1  0.98153000  0.23390000  0.49350000  1.0
  Na  Na2  1  0.51847000  0.73390000  0.49350000  1.0
  Na  Na3  1  0.01847000  0.76610000  0.50650000  1.0
  H  H4  1  0.74134000  0.05827000  0.23716000  1.0
  H  H5  1  0.24134000  0.44173000  0.76284000  1.0
  H  H6  1  0.25866000  0.94173000  0.76284000  1.0
  H  H7  1  0.75866000  0.55827000  0.23716000  1.0
  H  H8  1  0.66988000  0.99604000  0.34461000  1.0
  H  H9  1  0.16988000  0.50396000  0.65539000  1.0
  H  H10  1  0.33011000  0.00396000  0.65539000  1.0
  H  H11  1  0.83012000  0.49604000  0.34461000  1.0
  H  H12  1  0.03580000  0.27348000  0.82472000  1.0
  H  H13  1  0.53580000  0.22652000  0.17528000  1.0
  H  H14  1  0.96420000  0.72652000  0.17528000  1.0
  H  H15  1  0.46420000  0.77348000  0.82472000  1.0
  H  H16  1  0.98328000  0.22706000  0.04407000  1.0
  H  H17  1  0.48328000  0.27294000  0.95593000  1.0
  H  H18  1  0.01672000  0.77294000  0.95593000  1.0
  H  H19  1  0.51672000  0.72706000  0.04407000  1.0
  H  H20  1  0.39215000  0.57649000  0.12553000  1.0
  H  H21  1  0.89215000  0.92351000  0.87447000  1.0
  H  H22  1  0.60785000  0.42351000  0.87448000  1.0
  H  H23  1  0.10785000  0.07649000  0.12552000  1.0
  C  C24  1  0.08214000  0.30748000  0.04040000  1.0
  C  C25  1  0.58214000  0.19252000  0.95960000  1.0
  C  C26  1  0.91786000  0.69252000  0.95960000  1.0
  C  C27  1  0.41786000  0.80748000  0.04041000  1.0
  C  C28  1  0.19944000  0.40821000  0.14577000  1.0
  C  C29  1  0.69944000  0.09180000  0.85422000  1.0
  C  C30  1  0.80056000  0.59180000  0.85423000  1.0
  C  C31  1  0.30056000  0.90821000  0.14578000  1.0
  C  C32  1  0.28991000  0.48768000  0.07928000  1.0
  C  C33  1  0.78991000  0.01232000  0.92072000  1.0
  C  C34  1  0.71009000  0.51232000  0.92072000  1.0
  C  C35  1  0.21009000  0.98768000  0.07928000  1.0
  S  S36  1  0.22516000  0.42152000  0.31981000  1.0
  S  S37  1  0.72517000  0.07848000  0.68019000  1.0
  S  S38  1  0.77483000  0.57848000  0.68019000  1.0
  S  S39  1  0.27484000  0.92152000  0.31981000  1.0
  N  N40  1  0.23346000  0.43740000  0.94164000  1.0
  N  N41  1  0.73346000  0.06260000  0.05836000  1.0
  N  N42  1  0.76654000  0.56260000  0.05836000  1.0
  N  N43  1  0.26654000  0.93740000  0.94163000  1.0
  N  N44  1  0.10824000  0.32778000  0.92122000  1.0
  N  N45  1  0.60824000  0.17222000  0.07878000  1.0
  N  N46  1  0.89176000  0.67222000  0.07878000  1.0
  N  N47  1  0.39176000  0.82778000  0.92122000  1.0
  O  O48  1  0.39180000  0.33241000  0.31896000  1.0
  O  O49  1  0.89181000  0.16759000  0.68104000  1.0
  O  O50  1  0.60819000  0.66759000  0.68104000  1.0
  O  O51  1  0.10820000  0.83241000  0.31895000  1.0
  O  O52  1  0.25385000  0.57884000  0.41460000  1.0
  O  O53  1  0.75385000  0.92116000  0.58540000  1.0
  O  O54  1  0.74615000  0.42116000  0.58540000  1.0
  O  O55  1  0.24615000  0.07884000  0.41461000  1.0
  O  O56  1  0.04816000  0.36030000  0.34609000  1.0
  O  O57  1  0.54816000  0.13970000  0.65391000  1.0
  O  O58  1  0.95184000  0.63970000  0.65391000  1.0
  O  O59  1  0.45185000  0.86030000  0.34609000  1.0
  O  O60  1  0.72776000  0.08322000  0.34105000  1.0
  O  O61  1  0.22776000  0.41678000  0.65895000  1.0
  O  O62  1  0.27224000  0.91678000  0.65895000  1.0
  O  O63  1  0.77224000  0.58322000  0.34105000  1.0
