# generated using pymatgen
data_AlH15C19O8
_symmetry_space_group_name_H-M   'P 1'
_cell_length_a   6.64030000
_cell_length_b   23.28110000
_cell_length_c   26.41730000
_cell_angle_alpha   101.45550000
_cell_angle_beta   90.56740000
_cell_angle_gamma   90.52940000
_symmetry_Int_Tables_number   1
_chemical_formula_structural   AlH15C19O8
_chemical_formula_sum   'Al4 H60 C76 O32'
_cell_volume   4002.12943459
_cell_formula_units_Z   4
loop_
 _symmetry_equiv_pos_site_id
 _symmetry_equiv_pos_as_xyz
  1  'x, y, z'
loop_
 _atom_site_type_symbol
 _atom_site_label
 _atom_site_symmetry_multiplicity
 _atom_site_fract_x
 _atom_site_fract_y
 _atom_site_fract_z
 _atom_site_occupancy
  Al  Al0  1  0.23695000  0.75070000  0.74967000  1.0
  Al  Al1  1  0.77092000  0.25073000  0.25209000  1.0
  Al  Al2  1  0.73632000  0.75111000  0.75210000  1.0
  Al  Al3  1  0.27094000  0.25041000  0.25015000  1.0
  H  H4  1  0.70399000  0.37810000  0.16637000  1.0
  H  H5  1  0.30732000  0.62570000  0.83830000  1.0
  H  H6  1  0.20443000  0.12489000  0.33849000  1.0
  H  H7  1  0.80707000  0.87556000  0.66557000  1.0
  H  H8  1  0.69020000  0.44230000  0.10126000  1.0
  H  H9  1  0.31777000  0.56146000  0.90320000  1.0
  H  H10  1  0.19519000  0.06203000  0.40478000  1.0
  H  H11  1  0.82503000  0.93963000  0.60057000  1.0
  H  H12  1  0.30429000  0.39833000  0.06017000  1.0
  H  H13  1  0.69658000  0.60161000  0.93959000  1.0
  H  H14  1  0.81685000  0.10632000  0.44359000  1.0
  H  H15  1  0.19992000  0.90092000  0.56109000  1.0
  H  H16  1  0.31840000  0.33629000  0.12703000  1.0
  H  H17  1  0.68623000  0.66337000  0.87272000  1.0
  H  H18  1  0.82610000  0.16711000  0.37563000  1.0
  H  H19  1  0.18370000  0.83803000  0.62696000  1.0
  H  H20  1  0.28848000  0.49770000  0.06075000  1.0
  H  H21  1  0.71298000  0.50254000  0.94194000  1.0
  H  H22  1  0.79184000  0.00559000  0.44271000  1.0
  H  H23  1  0.22932000  0.00219000  0.56308000  1.0
  H  H24  1  0.55385000  0.54492000  0.04357000  1.0
  H  H25  1  0.38504000  0.59928000  0.07710000  1.0
  H  H26  1  0.57079000  0.61872000  0.03412000  1.0
  H  H27  1  0.77090000  0.35081000  0.99991000  1.0
  H  H28  1  0.69172000  0.37033000  0.94019000  1.0
  H  H29  1  0.50779000  0.35624000  0.98572000  1.0
  H  H30  1  0.05839000  0.95914000  0.46207000  1.0
  H  H31  1  0.88592000  0.90623000  0.42543000  1.0
  H  H32  1  0.06776000  0.88418000  0.46849000  1.0
  H  H33  1  0.30677000  0.15471000  0.50500000  1.0
  H  H34  1  0.23347000  0.13709000  0.56563000  1.0
  H  H35  1  0.04527000  0.15252000  0.52102000  1.0
  H  H36  1  0.61935000  0.39934000  0.42144000  1.0
  H  H37  1  0.48184000  0.43761000  0.47599000  1.0
  H  H38  1  0.49933000  0.35905000  0.46414000  1.0
  H  H39  1  0.52153000  0.56400000  0.52553000  1.0
  H  H40  1  0.38431000  0.60224000  0.58014000  1.0
  H  H41  1  0.50512000  0.64260000  0.53760000  1.0
  H  H42  1  0.08829000  0.08782000  0.07365000  1.0
  H  H43  1  0.96907000  0.05183000  0.01422000  1.0
  H  H44  1  0.98000000  0.13061000  0.03111000  1.0
  H  H45  1  0.68894000  0.82900000  0.94896000  1.0
  H  H46  1  0.54874000  0.83909000  0.00783000  1.0
  H  H47  1  0.81035000  0.81986000  0.00769000  1.0
  H  H48  1  0.89759000  0.46971000  0.63321000  1.0
  H  H49  1  0.76443000  0.41164000  0.58989000  1.0
  H  H50  1  0.62980000  0.46198000  0.63799000  1.0
  H  H51  1  0.24197000  0.59053000  0.41204000  1.0
  H  H52  1  0.10725000  0.53298000  0.36854000  1.0
  H  H53  1  0.37532000  0.54002000  0.36380000  1.0
  H  H54  1  0.39009000  0.02534000  0.86997000  1.0
  H  H55  1  0.24838000  0.08042000  0.91245000  1.0
  H  H56  1  0.12133000  0.02753000  0.86328000  1.0
  H  H57  1  0.71948000  0.91651000  0.10200000  1.0
  H  H58  1  0.58708000  0.97714000  0.14012000  1.0
  H  H59  1  0.85343000  0.97007000  0.14887000  1.0
  H  H60  1  0.48525000  0.67590000  0.72468000  1.0
  H  H61  1  0.52207000  0.32467000  0.27894000  1.0
  H  H62  1  0.99359000  0.82513000  0.77811000  1.0
  H  H63  1  0.01527000  0.17693000  0.22249000  1.0
  C  C64  1  0.49289000  0.82590000  0.82898000  1.0
  C  C65  1  0.51691000  0.17578000  0.17267000  1.0
  C  C66  1  0.97546000  0.67586000  0.67267000  1.0
  C  C67  1  0.02828000  0.32551000  0.32956000  1.0
  C  C68  1  0.48496000  0.81596000  0.68994000  1.0
  C  C69  1  0.52036000  0.18566000  0.31248000  1.0
  C  C70  1  0.99236000  0.68566000  0.81198000  1.0
  C  C71  1  0.01865000  0.31630000  0.19038000  1.0
  C  C72  1  0.83462000  0.38310000  0.14289000  1.0
  C  C73  1  0.17445000  0.61984000  0.86075000  1.0
  C  C74  1  0.33758000  0.12031000  0.36177000  1.0
  C  C75  1  0.67522000  0.88160000  0.64236000  1.0
  C  C76  1  0.82719000  0.41862000  0.10639000  1.0
  C  C77  1  0.17986000  0.58430000  0.89724000  1.0
  C  C78  1  0.33279000  0.08552000  0.39885000  1.0
  C  C79  1  0.68469000  0.91711000  0.60589000  1.0
  C  C80  1  0.99633000  0.42484000  0.07611000  1.0
  C  C81  1  0.00797000  0.57686000  0.92618000  1.0
  C  C82  1  0.50542000  0.07972000  0.42871000  1.0
  C  C83  1  0.51353000  0.92516000  0.57632000  1.0
  C  C84  1  0.17314000  0.39459000  0.08393000  1.0
  C  C85  1  0.83033000  0.60602000  0.91693000  1.0
  C  C86  1  0.68300000  0.10972000  0.42008000  1.0
  C  C87  1  0.33311000  0.89607000  0.58434000  1.0
  C  C88  1  0.18169000  0.35974000  0.12098000  1.0
  C  C89  1  0.82377000  0.64089000  0.87986000  1.0
  C  C90  1  0.68880000  0.14390000  0.38246000  1.0
  C  C91  1  0.32310000  0.86071000  0.62094000  1.0
  C  C92  1  0.01200000  0.35361000  0.15066000  1.0
  C  C93  1  0.99638000  0.64827000  0.85163000  1.0
  C  C94  1  0.51578000  0.14947000  0.35306000  1.0
  C  C95  1  0.49431000  0.85327000  0.65033000  1.0
  C  C96  1  0.16271000  0.49910000  0.03437000  1.0
  C  C97  1  0.84122000  0.50245000  0.96805000  1.0
  C  C98  1  0.66929000  0.00457000  0.46955000  1.0
  C  C99  1  0.35434000  0.00195000  0.53655000  1.0
  C  C100  1  0.17166000  0.53649000  0.99918000  1.0
  C  C101  1  0.83014000  0.46627000  0.00412000  1.0
  C  C102  1  0.67695000  0.96633000  0.50406000  1.0
  C  C103  1  0.34461000  0.03917000  0.50132000  1.0
  C  C104  1  0.00898000  0.53833000  0.96437000  1.0
  C  C105  1  0.99383000  0.46330000  0.03782000  1.0
  C  C106  1  0.51714000  0.96467000  0.53897000  1.0
  C  C107  1  0.50448000  0.04143000  0.46711000  1.0
  C  C108  1  0.86087000  0.49721000  0.53972000  1.0
  C  C109  1  0.14242000  0.50488000  0.46186000  1.0
  C  C110  1  0.35669000  0.99714000  0.96371000  1.0
  C  C111  1  0.63622000  0.99636000  0.04458000  1.0
  C  C112  1  0.98858000  0.54710000  0.54399000  1.0
  C  C113  1  0.01474000  0.45499000  0.45758000  1.0
  C  C114  1  0.48941000  0.94907000  0.96164000  1.0
  C  C115  1  0.50745000  0.04457000  0.04574000  1.0
  C  C116  1  0.12921000  0.55091000  0.50473000  1.0
  C  C117  1  0.87412000  0.45120000  0.49685000  1.0
  C  C118  1  0.62692000  0.94820000  0.00302000  1.0
  C  C119  1  0.36698000  0.04491000  0.00513000  1.0
  C  C120  1  0.97695000  0.59262000  0.58788000  1.0
  C  C121  1  0.02680000  0.40933000  0.41384000  1.0
  C  C122  1  0.48853000  0.90558000  0.91612000  1.0
  C  C123  1  0.51417000  0.09144000  0.08876000  1.0
  C  C124  1  0.03235000  0.37019000  0.37573000  1.0
  C  C125  1  0.97199000  0.63146000  0.62622000  1.0
  C  C126  1  0.51693000  0.13106000  0.12656000  1.0
  C  C127  1  0.48902000  0.86964000  0.87572000  1.0
  C  C128  1  0.46710000  0.58424000  0.04091000  1.0
  C  C129  1  0.65795000  0.37461000  0.98151000  1.0
  C  C130  1  0.96781000  0.91945000  0.46247000  1.0
  C  C131  1  0.19242000  0.13257000  0.52449000  1.0
  C  C132  1  0.57823000  0.39990000  0.46173000  1.0
  C  C133  1  0.42566000  0.60180000  0.53989000  1.0
  C  C134  1  0.05934000  0.09006000  0.03305000  1.0
  C  C135  1  0.69673000  0.84462000  0.99089000  1.0
  C  C136  1  0.75665000  0.45713000  0.61132000  1.0
  C  C137  1  0.24845000  0.54510000  0.39046000  1.0
  C  C138  1  0.24773000  0.03491000  0.89086000  1.0
  C  C139  1  0.72936000  0.96313000  0.12059000  1.0
  O  O140  1  0.65133000  0.80583000  0.71093000  1.0
  O  O141  1  0.35102000  0.19816000  0.29448000  1.0
  O  O142  1  0.16230000  0.70183000  0.79732000  1.0
  O  O143  1  0.84997000  0.30302000  0.20788000  1.0
  O  O144  1  0.32447000  0.81168000  0.80623000  1.0
  O  O145  1  0.68790000  0.19278000  0.19271000  1.0
  O  O146  1  0.80667000  0.69546000  0.69036000  1.0
  O  O147  1  0.19691000  0.30831000  0.30991000  1.0
  O  O148  1  0.31198000  0.79755000  0.70053000  1.0
  O  O149  1  0.69284000  0.20065000  0.29838000  1.0
  O  O150  1  0.82032000  0.69791000  0.79528000  1.0
  O  O151  1  0.19143000  0.30125000  0.20432000  1.0
  O  O152  1  0.14858000  0.69101000  0.69223000  1.0
  O  O153  1  0.85467000  0.30757000  0.31205000  1.0
  O  O154  1  0.66437000  0.80521000  0.81432000  1.0
  O  O155  1  0.34563000  0.19392000  0.18990000  1.0
  O  O156  1  0.48559000  0.71491000  0.74599000  1.0
  O  O157  1  0.52197000  0.28636000  0.25639000  1.0
  O  O158  1  0.98811000  0.78658000  0.75593000  1.0
  O  O159  1  0.01947000  0.21479000  0.24580000  1.0
  O  O160  1  0.33093000  0.57396000  0.99765000  1.0
  O  O161  1  0.65153000  0.43528000  0.00640000  1.0
  O  O162  1  0.83114000  0.92781000  0.50479000  1.0
  O  O163  1  0.17087000  0.07184000  0.50041000  1.0
  O  O164  1  0.75598000  0.40211000  0.49430000  1.0
  O  O165  1  0.24793000  0.59988000  0.50732000  1.0
  O  O166  1  0.24636000  0.09259000  0.00587000  1.0
  O  O167  1  0.76259000  0.90495000  0.00449000  1.0
  O  O168  1  0.71823000  0.49669000  0.57681000  1.0
  O  O169  1  0.28527000  0.50524000  0.42479000  1.0
  O  O170  1  0.21694000  0.99432000  0.92488000  1.0
  O  O171  1  0.77586000  0.99888000  0.08361000  1.0
