# generated using pymatgen
data_YbH10(C3O4)2
_symmetry_space_group_name_H-M   'P 1'
_cell_length_a   6.56218000
_cell_length_b   9.43121902
_cell_length_c   10.24750000
_cell_angle_alpha   98.06418599
_cell_angle_beta   90.53240000
_cell_angle_gamma   110.24180147
_symmetry_Int_Tables_number   1
_chemical_formula_structural   YbH10(C3O4)2
_chemical_formula_sum   'Yb2 H20 C12 O16'
_cell_volume   588.01618823
_cell_formula_units_Z   2
loop_
 _symmetry_equiv_pos_site_id
 _symmetry_equiv_pos_as_xyz
  1  'x, y, z'
loop_
 _atom_site_type_symbol
 _atom_site_label
 _atom_site_symmetry_multiplicity
 _atom_site_fract_x
 _atom_site_fract_y
 _atom_site_fract_z
 _atom_site_occupancy
  Yb  Yb0  1  0.50327000  0.88455000  0.32403000  1.0
  Yb  Yb1  1  0.49673000  0.11545000  0.67597000  1.0
  H  H2  1  0.29944000  0.78474000  0.05457000  1.0
  H  H3  1  0.70056000  0.21526000  0.94543000  1.0
  H  H4  1  0.15850000  0.67798000  0.15083000  1.0
  H  H5  1  0.84150000  0.32202000  0.84917000  1.0
  H  H6  1  0.22430000  0.05477000  0.38718000  1.0
  H  H7  1  0.77570000  0.94523000  0.61282000  1.0
  H  H8  1  0.08280000  0.93706000  0.26604000  1.0
  H  H9  1  0.91720000  0.06294000  0.73397000  1.0
  H  H10  1  0.65643000  0.56788000  0.58250000  1.0
  H  H11  1  0.34357000  0.43212000  0.41750000  1.0
  H  H12  1  0.78907000  0.51968000  0.44451000  1.0
  H  H13  1  0.21093000  0.48033000  0.55549000  1.0
  H  H14  1  0.98708000  0.80464000  0.65766000  1.0
  H  H15  1  0.01293000  0.19536000  0.34234000  1.0
  H  H16  1  0.04325000  0.63430000  0.64963000  1.0
  H  H17  1  0.95675000  0.36570000  0.35037000  1.0
  H  H18  1  0.98650000  0.16066000  0.03215000  1.0
  H  H19  1  0.01350000  0.83933000  0.96785000  1.0
  H  H20  1  0.79796000  0.00563000  0.92553000  1.0
  H  H21  1  0.20205000  0.99437000  0.07447000  1.0
  C  C22  1  0.69585000  0.71158000  0.43492000  1.0
  C  C23  1  0.30415000  0.28842000  0.56508000  1.0
  C  C24  1  0.77940000  0.61697000  0.51315000  1.0
  C  C25  1  0.22060000  0.38303000  0.48685000  1.0
  C  C26  1  0.99660000  0.70717000  0.58897000  1.0
  C  C27  1  0.00340000  0.29283000  0.41103000  1.0
  C  C28  1  0.17749000  0.76616000  0.49921000  1.0
  C  C29  1  0.82251000  0.23384000  0.50079000  1.0
  C  C30  1  0.77516000  0.98526000  0.12671000  1.0
  C  C31  1  0.22484000  0.01474000  0.87329000  1.0
  C  C32  1  0.91230000  0.03498000  0.01270000  1.0
  C  C33  1  0.08771000  0.96502000  0.98730000  1.0
  O  O34  1  0.55387000  0.64962000  0.33977000  1.0
  O  O35  1  0.44612000  0.35038000  0.66024000  1.0
  O  O36  1  0.76457000  0.85855000  0.46773000  1.0
  O  O37  1  0.23543000  0.14145000  0.53227000  1.0
  O  O38  1  0.16367000  0.70479000  0.38013000  1.0
  O  O39  1  0.83633000  0.29522000  0.61987000  1.0
  O  O40  1  0.35122000  0.88035000  0.54473000  1.0
  O  O41  1  0.64879000  0.11965000  0.45527000  1.0
  O  O42  1  0.61692000  0.03216000  0.14991000  1.0
  O  O43  1  0.38308000  0.96784000  0.85009000  1.0
  O  O44  1  0.81303000  0.89525000  0.19916000  1.0
  O  O45  1  0.18697000  0.10475000  0.80084000  1.0
  O  O46  1  0.30676000  0.72997000  0.12752000  1.0
  O  O47  1  0.69324000  0.27003000  0.87248000  1.0
  O  O48  1  0.23534000  0.99143000  0.30154000  1.0
  O  O49  1  0.76466000  0.00857000  0.69846000  1.0
