# generated using pymatgen
data_Zn3H20C19(NO5)2
_symmetry_space_group_name_H-M   'P 1'
_cell_length_a   15.76430000
_cell_length_b   15.76420000
_cell_length_c   16.13720000
_cell_angle_alpha   105.34800000
_cell_angle_beta   105.34700000
_cell_angle_gamma   117.23600000
_symmetry_Int_Tables_number   1
_chemical_formula_structural   Zn3H20C19(NO5)2
_chemical_formula_sum   'Zn12 H80 C76 N8 O40'
_cell_volume   3070.75479906
_cell_formula_units_Z   4
loop_
 _symmetry_equiv_pos_site_id
 _symmetry_equiv_pos_as_xyz
  1  'x, y, z'
loop_
 _atom_site_type_symbol
 _atom_site_label
 _atom_site_symmetry_multiplicity
 _atom_site_fract_x
 _atom_site_fract_y
 _atom_site_fract_z
 _atom_site_occupancy
  Zn  Zn0  1  0.28010000  0.85743000  0.44224000  1.0
  Zn  Zn1  1  0.16213000  0.58492000  0.44225000  1.0
  Zn  Zn2  1  0.10743000  0.03010000  0.94225000  1.0
  Zn  Zn3  1  0.83492000  0.91213000  0.94225000  1.0
  Zn  Zn4  1  0.00598000  0.71123000  0.33320000  1.0
  Zn  Zn5  1  0.32755000  0.62216000  0.33333333  1.0
  Zn  Zn6  1  0.96123000  0.75598000  0.83320000  1.0
  Zn  Zn7  1  0.87216000  0.07755000  0.83341000  1.0
  Zn  Zn8  1  0.50529000  0.89202000  0.58665000  1.0
  Zn  Zn9  1  0.08109000  0.69453000  0.58657000  1.0
  Zn  Zn10  1  0.14202000  0.25529000  0.08665000  1.0
  Zn  Zn11  1  0.94452000  0.83109000  0.08657000  1.0
  H  H12  1  0.78776000  0.49040000  0.18369000  1.0
  H  H13  1  0.39666000  0.69374000  0.18378000  1.0
  H  H14  1  0.74039000  0.53776000  0.68369000  1.0
  H  H15  1  0.94373000  0.14666000  0.68379000  1.0
  H  H16  1  0.73149000  0.31297000  0.06301000  1.0
  H  H17  1  0.33202000  0.75007000  0.06277000  1.0
  H  H18  1  0.56297000  0.48149000  0.56301000  1.0
  H  H19  1  0.00007000  0.08203000  0.56277000  1.0
  H  H20  1  0.87635000  0.29000000  0.04584000  1.0
  H  H21  1  0.16982000  0.75561000  0.04542000  1.0
  H  H22  1  0.54000000  0.62636000  0.54585000  1.0
  H  H23  1  0.00561000  0.91983000  0.54542000  1.0
  H  H24  1  0.06535000  0.44270000  0.14745000  1.0
  H  H25  1  0.08253000  0.70471000  0.14719000  1.0
  H  H26  1  0.69270000  0.81535000  0.64745000  1.0
  H  H27  1  0.95471000  0.83253000  0.64719000  1.0
  H  H28  1  0.61939000  0.84816000  0.74479000  1.0
  H  H29  1  0.12484000  0.89646000  0.74465000  1.0
  H  H30  1  0.09815000  0.36939000  0.24479000  1.0
  H  H31  1  0.14646000  0.87484000  0.24465000  1.0
  H  H32  1  0.56589000  0.74838000  0.83856000  1.0
  H  H33  1  0.27189000  0.08997000  0.83814000  1.0
  H  H34  1  0.99837000  0.31589000  0.33856000  1.0
  H  H35  1  0.33997000  0.02188000  0.33814000  1.0
  H  H36  1  0.37612000  0.66458000  0.81912000  1.0
  H  H37  1  0.44232000  0.15431000  0.81888000  1.0
  H  H38  1  0.91458000  0.12612000  0.31912000  1.0
  H  H39  1  0.40431000  0.19232000  0.31888000  1.0
  H  H40  1  0.25259000  0.68774000  0.70859000  1.0
  H  H41  1  0.45562000  0.02070000  0.70866000  1.0
  H  H42  1  0.93774000  0.00259000  0.20860000  1.0
  H  H43  1  0.27069000  0.20561000  0.20866000  1.0
  H  H44  1  0.74580000  0.66322000  0.41557000  1.0
  H  H45  1  0.66997000  0.75242000  0.41586000  1.0
  H  H46  1  0.91322000  0.49580000  0.91557000  1.0
  H  H47  1  0.00243000  0.41997000  0.91586000  1.0
  H  H48  1  0.78952000  0.65472000  0.52569000  1.0
  H  H49  1  0.73633000  0.87098000  0.52598000  1.0
  H  H50  1  0.90472000  0.53952000  0.02569000  1.0
  H  H51  1  0.12098000  0.48633000  0.02598000  1.0
  H  H52  1  0.73061000  0.54385000  0.41178000  1.0
  H  H53  1  0.68146000  0.86803000  0.41206000  1.0
  H  H54  1  0.79385000  0.48061000  0.91178000  1.0
  H  H55  1  0.11804000  0.43146000  0.91206000  1.0
  H  H56  1  0.46264000  0.94927000  0.27512000  1.0
  H  H57  1  0.81257000  0.32595000  0.27511000  1.0
  H  H58  1  0.19926000  0.21264000  0.77513000  1.0
  H  H59  1  0.57595000  0.56257000  0.77511000  1.0
  H  H60  1  0.57893000  0.95963000  0.34749000  1.0
  H  H61  1  0.76853000  0.38787000  0.34743000  1.0
  H  H62  1  0.20963000  0.32893000  0.84749000  1.0
  H  H63  1  0.63788000  0.51853000  0.84743000  1.0
  H  H64  1  0.56760000  0.06909000  0.38222000  1.0
  H  H65  1  0.81460000  0.31317000  0.38223000  1.0
  H  H66  1  0.31909000  0.31760000  0.88222000  1.0
  H  H67  1  0.56317000  0.56460000  0.88223000  1.0
  H  H68  1  0.24045000  0.12523000  0.51375000  1.0
  H  H69  1  0.27312000  0.38867000  0.51418000  1.0
  H  H70  1  0.37523000  0.99044000  0.01374000  1.0
  H  H71  1  0.63867000  0.02312000  0.01419000  1.0
  H  H72  1  0.17711000  0.07702000  0.58311000  1.0
  H  H73  1  0.40584000  0.50603000  0.58341000  1.0
  H  H74  1  0.32702000  0.92711000  0.08310000  1.0
  H  H75  1  0.75603000  0.15584000  0.08341000  1.0
  H  H76  1  0.09706000  0.04311000  0.46323000  1.0
  H  H77  1  0.36591000  0.42000000  0.46353000  1.0
  H  H78  1  0.29311000  0.84706000  0.96322000  1.0
  H  H79  1  0.67000000  0.11591000  0.96353000  1.0
  H  H80  1  0.79758000  0.82993000  0.29102000  1.0
  H  H81  1  0.49327000  0.46102000  0.29078000  1.0
  H  H82  1  0.07993000  0.54758000  0.79101000  1.0
  H  H83  1  0.71102000  0.24327000  0.79077000  1.0
  H  H84  1  0.91187000  0.85234000  0.38084000  1.0
  H  H85  1  0.46909000  0.52849000  0.38085000  1.0
  H  H86  1  0.10234000  0.66187000  0.88083000  1.0
  H  H87  1  0.77849000  0.21909000  0.88084000  1.0
  H  H88  1  0.80154000  0.72042000  0.30107000  1.0
  H  H89  1  0.49925000  0.58053000  0.30084000  1.0
  H  H90  1  0.97042000  0.55154000  0.80107000  1.0
  H  H91  1  0.83053000  0.24925000  0.80084000  1.0
  C  C92  1  0.84596000  0.47565000  0.17244000  1.0
  C  C93  1  0.32710000  0.69709000  0.17244000  1.0
  C  C94  1  0.72565000  0.59597000  0.67244000  1.0
  C  C95  1  0.94709000  0.07710000  0.67245000  1.0
  C  C96  1  0.81586000  0.37781000  0.10625000  1.0
  C  C97  1  0.29089000  0.72852000  0.10606000  1.0
  C  C98  1  0.62780000  0.56587000  0.60625000  1.0
  C  C99  1  0.97852000  0.04090000  0.60607000  1.0
  C  C100  1  0.89553000  0.36510000  0.09659000  1.0
  C  C101  1  0.20149000  0.73143000  0.09630000  1.0
  C  C102  1  0.61510000  0.64553000  0.59659000  1.0
  C  C103  1  0.98143000  0.95149000  0.59630000  1.0
  C  C104  1  0.00185000  0.45053000  0.15375000  1.0
  C  C105  1  0.15237000  0.70325000  0.15356000  1.0
  C  C106  1  0.70053000  0.75185000  0.65376000  1.0
  C  C107  1  0.95325000  0.90237000  0.65356000  1.0
  C  C108  1  0.02547000  0.54595000  0.21867000  1.0
  C  C109  1  0.19376000  0.67295000  0.21866000  1.0
  C  C110  1  0.79596000  0.77547000  0.71868000  1.0
  C  C111  1  0.92295000  0.94376000  0.71866000  1.0
  C  C112  1  0.14225000  0.64216000  0.28401000  1.0
  C  C113  1  0.89216000  0.89225000  0.78401000  1.0
  C  C114  1  0.53906000  0.81082000  0.73914000  1.0
  C  C115  1  0.19954000  0.92813000  0.73900000  1.0
  C  C116  1  0.06082000  0.28906000  0.23914000  1.0
  C  C117  1  0.17813000  0.94953000  0.23899000  1.0
  C  C118  1  0.50815000  0.75502000  0.79121000  1.0
  C  C119  1  0.28242000  0.03600000  0.79096000  1.0
  C  C120  1  0.00502000  0.25815000  0.29121000  1.0
  C  C121  1  0.28600000  0.03242000  0.29097000  1.0
  C  C122  1  0.40373000  0.70970000  0.78005000  1.0
  C  C123  1  0.37574000  0.07017000  0.77989000  1.0
  C  C124  1  0.95969000  0.15373000  0.28006000  1.0
  C  C125  1  0.32016000  0.12574000  0.27989000  1.0
  C  C126  1  0.33455000  0.72247000  0.71878000  1.0
  C  C127  1  0.38380000  0.99617000  0.71878000  1.0
  C  C128  1  0.97246000  0.08455000  0.21879000  1.0
  C  C129  1  0.24617000  0.13379000  0.21878000  1.0
  C  C130  1  0.37222000  0.78042000  0.66964000  1.0
  C  C131  1  0.29704000  0.88911000  0.66964000  1.0
  C  C132  1  0.03042000  0.12222000  0.16964000  1.0
  C  C133  1  0.13911000  0.04704000  0.16964000  1.0
  C  C134  1  0.30145000  0.80158000  0.60321000  1.0
  C  C135  1  0.05158000  0.05145000  0.10322000  1.0
  C  C136  1  0.89108000  0.67034000  0.45451000  1.0
  C  C137  1  0.56364000  0.78431000  0.45477000  1.0
  C  C138  1  0.92034000  0.64108000  0.95450000  1.0
  C  C139  1  0.03431000  0.31364000  0.95477000  1.0
  C  C140  1  0.78303000  0.63129000  0.45303000  1.0
  C  C141  1  0.67021000  0.82182000  0.45330000  1.0
  C  C142  1  0.88129000  0.53303000  0.95303000  1.0
  C  C143  1  0.07182000  0.42021000  0.95330000  1.0
  C  C144  1  0.46929000  0.94157000  0.40850000  1.0
  C  C145  1  0.93917000  0.46698000  0.40849000  1.0
  C  C146  1  0.19157000  0.21928000  0.90850000  1.0
  C  C147  1  0.71697000  0.68918000  0.90848000  1.0
  C  C148  1  0.52221000  0.98138000  0.34847000  1.0
  C  C149  1  0.82627000  0.36715000  0.34846000  1.0
  C  C150  1  0.23138000  0.27221000  0.84847000  1.0
  C  C151  1  0.61716000  0.57627000  0.84846000  1.0
  C  C152  1  0.17127000  0.95803000  0.47524000  1.0
  C  C153  1  0.30399000  0.51733000  0.47552000  1.0
  C  C154  1  0.20803000  0.92127000  0.97523000  1.0
  C  C155  1  0.76733000  0.05398000  0.97552000  1.0
  C  C156  1  0.17164000  0.05748000  0.51040000  1.0
  C  C157  1  0.33861000  0.45294000  0.51073000  1.0
  C  C158  1  0.30748000  0.92164000  0.01039000  1.0
  C  C159  1  0.70294000  0.08861000  0.01074000  1.0
  C  C160  1  0.89823000  0.79920000  0.23904000  1.0
  C  C161  1  0.34067000  0.43978000  0.23920000  1.0
  C  C162  1  0.04920000  0.64824000  0.73903000  1.0
  C  C163  1  0.68978000  0.09067000  0.73920000  1.0
  C  C164  1  0.84798000  0.80070000  0.30663000  1.0
  C  C165  1  0.45855000  0.50587000  0.30655000  1.0
  C  C166  1  0.05071000  0.59798000  0.80663000  1.0
  C  C167  1  0.75587000  0.20855000  0.80655000  1.0
  N  N168  1  0.94907000  0.55822000  0.22693000  1.0
  N  N169  1  0.27849000  0.66904000  0.22700000  1.0
  N  N170  1  0.80822000  0.69907000  0.72693000  1.0
  N  N171  1  0.91904000  0.02849000  0.72701000  1.0
  N  N172  1  0.47228000  0.82286000  0.67968000  1.0
  N  N173  1  0.20698000  0.85668000  0.67965000  1.0
  N  N174  1  0.07285000  0.22228000  0.17969000  1.0
  N  N175  1  0.10668000  0.95698000  0.17965000  1.0
  O  O176  1  0.14345000  0.72809000  0.33970000  1.0
  O  O177  1  0.19677000  0.61210000  0.33994000  1.0
  O  O178  1  0.97809000  0.89345000  0.83970000  1.0
  O  O179  1  0.86210000  0.94677000  0.83994000  1.0
  O  O180  1  0.34956000  0.83822000  0.54738000  1.0
  O  O181  1  0.19761000  0.70921000  0.54727000  1.0
  O  O182  1  0.08822000  0.09956000  0.04738000  1.0
  O  O183  1  0.95921000  0.94761000  0.04728000  1.0
  O  O184  1  0.97351000  0.72679000  0.53533000  1.0
  O  O185  1  0.56197000  0.80883000  0.53558000  1.0
  O  O186  1  0.97679000  0.72352000  0.03533000  1.0
  O  O187  1  0.05883000  0.31197000  0.03559000  1.0
  O  O188  1  0.89077000  0.64380000  0.37243000  1.0
  O  O189  1  0.48194000  0.72868000  0.37267000  1.0
  O  O190  1  0.89380000  0.64077000  0.87243000  1.0
  O  O191  1  0.97868000  0.23194000  0.87267000  1.0
  O  O192  1  0.52643000  0.94861000  0.48477000  1.0
  O  O193  1  0.95816000  0.53614000  0.48470000  1.0
  O  O194  1  0.19861000  0.27643000  0.98478000  1.0
  O  O195  1  0.78614000  0.70817000  0.98470000  1.0
  O  O196  1  0.36984000  0.90529000  0.37695000  1.0
  O  O197  1  0.00714000  0.47174000  0.37697000  1.0
  O  O198  1  0.15529000  0.11984000  0.87696000  1.0
  O  O199  1  0.72173000  0.75714000  0.87697000  1.0
  O  O200  1  0.08483000  0.86807000  0.44361000  1.0
  O  O201  1  0.35897000  0.57571000  0.44399000  1.0
  O  O202  1  0.11807000  0.83483000  0.94361000  1.0
  O  O203  1  0.82571000  0.10897000  0.94399000  1.0
  O  O204  1  0.26047000  0.97378000  0.48203000  1.0
  O  O205  1  0.22153000  0.50840000  0.48219000  1.0
  O  O206  1  0.22377000  0.01046000  0.98203000  1.0
  O  O207  1  0.75839000  0.97153000  0.98219000  1.0
  O  O208  1  0.94998000  0.75628000  0.23734000  1.0
  O  O209  1  0.28726000  0.48103000  0.23765000  1.0
  O  O210  1  0.00629000  0.69998000  0.73734000  1.0
  O  O211  1  0.73103000  0.03725000  0.73765000  1.0
  O  O212  1  0.88668000  0.84235000  0.18432000  1.0
  O  O213  1  0.29750000  0.34194000  0.18454000  1.0
  O  O214  1  0.09235000  0.63668000  0.68432000  1.0
  O  O215  1  0.59194000  0.04750000  0.68454000  1.0
