# generated using pymatgen
data_NiH36C24(N3O2)2
_symmetry_space_group_name_H-M   'P 1'
_cell_length_a   10.92140000
_cell_length_b   14.36910000
_cell_length_c   17.90834470
_cell_angle_alpha   90.30559808
_cell_angle_beta   107.73846684
_cell_angle_gamma   90.01730000
_symmetry_Int_Tables_number   1
_chemical_formula_structural   NiH36C24(N3O2)2
_chemical_formula_sum   'Ni4 H144 C96 N24 O16'
_cell_volume   2676.71236047
_cell_formula_units_Z   4
loop_
 _symmetry_equiv_pos_site_id
 _symmetry_equiv_pos_as_xyz
  1  'x, y, z'
loop_
 _atom_site_type_symbol
 _atom_site_label
 _atom_site_symmetry_multiplicity
 _atom_site_fract_x
 _atom_site_fract_y
 _atom_site_fract_z
 _atom_site_occupancy
  Ni  Ni0  1  0.30870000  0.73424000  0.24937000  1.0
  Ni  Ni1  1  0.94040000  0.23425000  0.24924000  1.0
  Ni  Ni2  1  0.69130000  0.26576000  0.75063000  1.0
  Ni  Ni3  1  0.05959000  0.76575000  0.75076000  1.0
  H  H4  1  0.44107000  0.62891000  0.19593000  1.0
  H  H5  1  0.75460000  0.12883000  0.19587000  1.0
  H  H6  1  0.55893000  0.37109000  0.80407000  1.0
  H  H7  1  0.24540000  0.87117000  0.80413000  1.0
  H  H8  1  0.34863000  0.67272000  0.38318000  1.0
  H  H9  1  0.03411000  0.17283000  0.38305000  1.0
  H  H10  1  0.65137000  0.32728000  0.61682000  1.0
  H  H11  1  0.96588000  0.82717000  0.61695000  1.0
  H  H12  1  0.55933000  0.65548000  0.36598000  1.0
  H  H13  1  0.80644000  0.15564000  0.36594000  1.0
  H  H14  1  0.44066000  0.34452000  0.63402000  1.0
  H  H15  1  0.19355000  0.84436000  0.63406000  1.0
  H  H16  1  0.57403000  0.49602000  0.25433000  1.0
  H  H17  1  0.67981000  0.99603000  0.25452000  1.0
  H  H18  1  0.42598000  0.50398000  0.74568000  1.0
  H  H19  1  0.32019000  0.00397000  0.74548000  1.0
  H  H20  1  0.70264000  0.57148000  0.30288000  1.0
  H  H21  1  0.60000000  0.07162000  0.30311000  1.0
  H  H22  1  0.29736000  0.42851000  0.69712000  1.0
  H  H23  1  0.39999000  0.92838000  0.69689000  1.0
  H  H24  1  0.70312000  0.51231000  0.43233000  1.0
  H  H25  1  0.72909000  0.01265000  0.43254000  1.0
  H  H26  1  0.29687000  0.48769000  0.56767000  1.0
  H  H27  1  0.27090000  0.98734000  0.56746000  1.0
  H  H28  1  0.72061000  0.41912000  0.37247000  1.0
  H  H29  1  0.65149000  0.91937000  0.37285000  1.0
  H  H30  1  0.27939000  0.58088000  0.62753000  1.0
  H  H31  1  0.34850000  0.08062000  0.62714000  1.0
  H  H32  1  0.48777000  0.38086000  0.34040000  1.0
  H  H33  1  0.85214000  0.88089000  0.34063000  1.0
  H  H34  1  0.51223000  0.61914000  0.65960000  1.0
  H  H35  1  0.14786000  0.11911000  0.65937000  1.0
  H  H36  1  0.55995000  0.38103000  0.44301000  1.0
  H  H37  1  0.88267000  0.88127000  0.44326000  1.0
  H  H38  1  0.44005000  0.61896000  0.55699000  1.0
  H  H39  1  0.11733000  0.11872000  0.55674000  1.0
  H  H40  1  0.48241000  0.54591000  0.44949000  1.0
  H  H41  1  0.96677000  0.04610000  0.44948000  1.0
  H  H42  1  0.51759000  0.45410000  0.55051000  1.0
  H  H43  1  0.03323000  0.95389000  0.55053000  1.0
  H  H44  1  0.35313000  0.46903000  0.40917000  1.0
  H  H45  1  0.05566000  0.96916000  0.40920000  1.0
  H  H46  1  0.64686000  0.53097000  0.59083000  1.0
  H  H47  1  0.94434000  0.03084000  0.59080000  1.0
  H  H48  1  0.35164000  0.52050000  0.27325000  1.0
  H  H49  1  0.92123000  0.02044000  0.27326000  1.0
  H  H50  1  0.64836000  0.47950000  0.72675000  1.0
  H  H51  1  0.07877000  0.97956000  0.72674000  1.0
  H  H52  1  0.14376000  0.55088000  0.28396000  1.0
  H  H53  1  0.13981000  0.05098000  0.28384000  1.0
  H  H54  1  0.85624000  0.44912000  0.71604000  1.0
  H  H55  1  0.86018000  0.94902000  0.71616000  1.0
  H  H56  1  0.18297000  0.56797000  0.38718000  1.0
  H  H57  1  0.20362000  0.06796000  0.38708000  1.0
  H  H58  1  0.81703000  0.43203000  0.61282000  1.0
  H  H59  1  0.79637000  0.93204000  0.61292000  1.0
  H  H60  1  0.93777000  0.74204000  0.22948000  1.0
  H  H61  1  0.29151000  0.24208000  0.22943000  1.0
  H  H62  1  0.06224000  0.25797000  0.77052000  1.0
  H  H63  1  0.70848000  0.75792000  0.77057000  1.0
  H  H64  1  0.04092000  0.66393000  0.19639000  1.0
  H  H65  1  0.15519000  0.16395000  0.19639000  1.0
  H  H66  1  0.95908000  0.33607000  0.80361000  1.0
  H  H67  1  0.84480000  0.83605000  0.80361000  1.0
  H  H68  1  0.20388000  0.74302000  0.41956000  1.0
  H  H69  1  0.21502000  0.24320000  0.41945000  1.0
  H  H70  1  0.79611000  0.25698000  0.58044000  1.0
  H  H71  1  0.78497000  0.75679000  0.58055000  1.0
  H  H72  1  0.03960000  0.76994000  0.40163000  1.0
  H  H73  1  0.36155000  0.27006000  0.40163000  1.0
  H  H74  1  0.96040000  0.23006000  0.59837000  1.0
  H  H75  1  0.63845000  0.72993000  0.59837000  1.0
  H  H76  1  0.03769000  0.88158000  0.30675000  1.0
  H  H77  1  0.26893000  0.38164000  0.30664000  1.0
  H  H78  1  0.96232000  0.11842000  0.69325000  1.0
  H  H79  1  0.73107000  0.61836000  0.69336000  1.0
  H  H80  1  0.20934000  0.88148000  0.34476000  1.0
  H  H81  1  0.13520000  0.38166000  0.34459000  1.0
  H  H82  1  0.79066000  0.11852000  0.65524000  1.0
  H  H83  1  0.86479000  0.61834000  0.65541000  1.0
  H  H84  1  0.01888000  0.90275000  0.17877000  1.0
  H  H85  1  0.15986000  0.40283000  0.17866000  1.0
  H  H86  1  0.98112000  0.09725000  0.82122000  1.0
  H  H87  1  0.84015000  0.59717000  0.82135000  1.0
  H  H88  1  0.06467000  0.81168000  0.12519000  1.0
  H  H89  1  0.06058000  0.31168000  0.12508000  1.0
  H  H90  1  0.93534000  0.18832000  0.87481000  1.0
  H  H91  1  0.93941000  0.68832000  0.87492000  1.0
  H  H92  1  0.19330000  0.95917000  0.12892000  1.0
  H  H93  1  0.93560000  0.45910000  0.12863000  1.0
  H  H94  1  0.80671000  0.04083000  0.87108000  1.0
  H  H95  1  0.06440000  0.54090000  0.87137000  1.0
  H  H96  1  0.25479000  0.94843000  0.23281000  1.0
  H  H97  1  0.97789000  0.44850000  0.23254000  1.0
  H  H98  1  0.74523000  0.05157000  0.76720000  1.0
  H  H99  1  0.02211000  0.55150000  0.76746000  1.0
  H  H100  1  0.45869000  0.94678000  0.16889000  1.0
  H  H101  1  0.71013000  0.44677000  0.16878000  1.0
  H  H102  1  0.54131000  0.05322000  0.83111000  1.0
  H  H103  1  0.28987000  0.55322000  0.83122000  1.0
  H  H104  1  0.48192000  0.89369000  0.26358000  1.0
  H  H105  1  0.78155000  0.39369000  0.26344000  1.0
  H  H106  1  0.51808000  0.10631000  0.73642000  1.0
  H  H107  1  0.21845000  0.60632000  0.73656000  1.0
  H  H108  1  0.28645000  0.87540000  0.05196000  1.0
  H  H109  1  0.76549000  0.37537000  0.05182000  1.0
  H  H110  1  0.71355000  0.12460000  0.94804000  1.0
  H  H111  1  0.23450000  0.62463000  0.94818000  1.0
  H  H112  1  0.23651000  0.76150000  0.07053000  1.0
  H  H113  1  0.83387000  0.26148000  0.07036000  1.0
  H  H114  1  0.76350000  0.23850000  0.92947000  1.0
  H  H115  1  0.16612000  0.73852000  0.92964000  1.0
  H  H116  1  0.45140000  0.70390000  0.09306000  1.0
  H  H117  1  0.64143000  0.20391000  0.09290000  1.0
  H  H118  1  0.54861000  0.29609000  0.90694000  1.0
  H  H119  1  0.35857000  0.79609000  0.90710000  1.0
  H  H120  1  0.48346000  0.81163000  0.05392000  1.0
  H  H121  1  0.57040000  0.31170000  0.05384000  1.0
  H  H122  1  0.51654000  0.18837000  0.94608000  1.0
  H  H123  1  0.42959000  0.68830000  0.94616000  1.0
  H  H124  1  0.62383000  0.76808000  0.29192000  1.0
  H  H125  1  0.66788000  0.26800000  0.29180000  1.0
  H  H126  1  0.37618000  0.23192000  0.70808000  1.0
  H  H127  1  0.33212000  0.73199000  0.70820000  1.0
  H  H128  1  0.64813000  0.69674000  0.21596000  1.0
  H  H129  1  0.56764000  0.19666000  0.21582000  1.0
  H  H130  1  0.35187000  0.30326000  0.78404000  1.0
  H  H131  1  0.43236000  0.80334000  0.78418000  1.0
  H  H132  1  0.41674000  0.99634000  0.35475000  1.0
  H  H133  1  0.93776000  0.49654000  0.35473000  1.0
  H  H134  1  0.58327000  0.00367000  0.64525000  1.0
  H  H135  1  0.06225000  0.50348000  0.64527000  1.0
  H  H136  1  0.52610000  0.85255000  0.57464000  1.0
  H  H137  1  0.04906000  0.35251000  0.57452000  1.0
  H  H138  1  0.47390000  0.14744000  0.42536000  1.0
  H  H139  1  0.95094000  0.64750000  0.42548000  1.0
  H  H140  1  0.21312000  0.42201000  0.03601000  1.0
  H  H141  1  0.82226000  0.92206000  0.03548000  1.0
  H  H142  1  0.78689000  0.57800000  0.96398000  1.0
  H  H143  1  0.17772000  0.07794000  0.96451000  1.0
  H  H144  1  0.98046000  0.65394000  0.05895000  1.0
  H  H145  1  0.07867000  0.15371000  0.05936000  1.0
  H  H146  1  0.01955000  0.34605000  0.94104000  1.0
  H  H147  1  0.92134000  0.84628000  0.94064000  1.0
  C  C148  1  0.51735000  0.61025000  0.31445000  1.0
  C  C149  1  0.79681000  0.11031000  0.31445000  1.0
  C  C150  1  0.48264000  0.38975000  0.68555000  1.0
  C  C151  1  0.20320000  0.88969000  0.68556000  1.0
  C  C152  1  0.61594000  0.53686000  0.30851000  1.0
  C  C153  1  0.69225000  0.03696000  0.30866000  1.0
  C  C154  1  0.38407000  0.46314000  0.69150000  1.0
  C  C155  1  0.30775000  0.96304000  0.69134000  1.0
  C  C156  1  0.65220000  0.47200000  0.37938000  1.0
  C  C157  1  0.72687000  0.97222000  0.37961000  1.0
  C  C158  1  0.34780000  0.52799000  0.62062000  1.0
  C  C159  1  0.27313000  0.02778000  0.62039000  1.0
  C  C160  1  0.53352000  0.42629000  0.39124000  1.0
  C  C161  1  0.85731000  0.92644000  0.39142000  1.0
  C  C162  1  0.46647000  0.57370000  0.60876000  1.0
  C  C163  1  0.14269000  0.07355000  0.60858000  1.0
  C  C164  1  0.43790000  0.50073000  0.39859000  1.0
  C  C165  1  0.96031000  0.00085000  0.39862000  1.0
  C  C166  1  0.56210000  0.49927000  0.60141000  1.0
  C  C167  1  0.03968000  0.99915000  0.60138000  1.0
  C  C168  1  0.39749000  0.56289000  0.32609000  1.0
  C  C169  1  0.92825000  0.06293000  0.32607000  1.0
  C  C170  1  0.60251000  0.43711000  0.67390000  1.0
  C  C171  1  0.07175000  0.93707000  0.67393000  1.0
  C  C172  1  0.17653000  0.60260000  0.33134000  1.0
  C  C173  1  0.15437000  0.10265000  0.33127000  1.0
  C  C174  1  0.82347000  0.39740000  0.66866000  1.0
  C  C175  1  0.84563000  0.89735000  0.66874000  1.0
  C  C176  1  0.03641000  0.71374000  0.24180000  1.0
  C  C177  1  0.20514000  0.21379000  0.24177000  1.0
  C  C178  1  0.96359000  0.28626000  0.75820000  1.0
  C  C179  1  0.79485000  0.78621000  0.75823000  1.0
  C  C180  1  0.11352000  0.75560000  0.37302000  1.0
  C  C181  1  0.25904000  0.25575000  0.37297000  1.0
  C  C182  1  0.88649000  0.24440000  0.62698000  1.0
  C  C183  1  0.74096000  0.74424000  0.62703000  1.0
  C  C184  1  0.12454000  0.83779000  0.31988000  1.0
  C  C185  1  0.19512000  0.33790000  0.31977000  1.0
  C  C186  1  0.87547000  0.16221000  0.68012000  1.0
  C  C187  1  0.80488000  0.66210000  0.68023000  1.0
  C  C188  1  0.09756000  0.85464000  0.17849000  1.0
  C  C189  1  0.08088000  0.35467000  0.17836000  1.0
  C  C190  1  0.90244000  0.14536000  0.82150000  1.0
  C  C191  1  0.91911000  0.64533000  0.82164000  1.0
  C  C192  1  0.21745000  0.90912000  0.17766000  1.0
  C  C193  1  0.96013000  0.40912000  0.17743000  1.0
  C  C194  1  0.78255000  0.09088000  0.82234000  1.0
  C  C195  1  0.03988000  0.59088000  0.82258000  1.0
  C  C196  1  0.45303000  0.88145000  0.20035000  1.0
  C  C197  1  0.74725000  0.38144000  0.20021000  1.0
  C  C198  1  0.54698000  0.11854000  0.79965000  1.0
  C  C199  1  0.25276000  0.61856000  0.79980000  1.0
  C  C200  1  0.31054000  0.81490000  0.09146000  1.0
  C  C201  1  0.78082000  0.31488000  0.09130000  1.0
  C  C202  1  0.68946000  0.18509000  0.90854000  1.0
  C  C203  1  0.21918000  0.68512000  0.90870000  1.0
  C  C204  1  0.44848000  0.77982000  0.09930000  1.0
  C  C205  1  0.65069000  0.27983000  0.09918000  1.0
  C  C206  1  0.55153000  0.22017000  0.90071000  1.0
  C  C207  1  0.34931000  0.72017000  0.90082000  1.0
  C  C208  1  0.57558000  0.73601000  0.23461000  1.0
  C  C209  1  0.65884000  0.23596000  0.23448000  1.0
  C  C210  1  0.42442000  0.26398000  0.76539000  1.0
  C  C211  1  0.34116000  0.76404000  0.76552000  1.0
  C  C212  1  0.43730000  0.82211000  0.41809000  1.0
  C  C213  1  0.98068000  0.32220000  0.41797000  1.0
  C  C214  1  0.56270000  0.17790000  0.58191000  1.0
  C  C215  1  0.01932000  0.67781000  0.58203000  1.0
  C  C216  1  0.46844000  0.91432000  0.46020000  1.0
  C  C217  1  0.99193000  0.41439000  0.46014000  1.0
  C  C218  1  0.53156000  0.08569000  0.53980000  1.0
  C  C219  1  0.00808000  0.58562000  0.53986000  1.0
  C  C220  1  0.45310000  0.99807000  0.41855000  1.0
  C  C221  1  0.96534000  0.49817000  0.41853000  1.0
  C  C222  1  0.54689000  0.00192000  0.58145000  1.0
  C  C223  1  0.03467000  0.50184000  0.58146000  1.0
  C  C224  1  0.51488000  0.91735000  0.54219000  1.0
  C  C225  1  0.02758000  0.41734000  0.54214000  1.0
  C  C226  1  0.48511000  0.08265000  0.45780000  1.0
  C  C227  1  0.97242000  0.58268000  0.45785000  1.0
  C  C228  1  0.22463000  0.58549000  0.11239000  1.0
  C  C229  1  0.88738000  0.08539000  0.11228000  1.0
  C  C230  1  0.77538000  0.41452000  0.88761000  1.0
  C  C231  1  0.11262000  0.91461000  0.88772000  1.0
  C  C232  1  0.10852000  0.54227000  0.05325000  1.0
  C  C233  1  0.94455000  0.04215000  0.05322000  1.0
  C  C234  1  0.89150000  0.45773000  0.94676000  1.0
  C  C235  1  0.05546000  0.95784000  0.94678000  1.0
  C  C236  1  0.11914000  0.45551000  0.01961000  1.0
  C  C237  1  0.90012000  0.95555000  0.01931000  1.0
  C  C238  1  0.88086000  0.54449000  0.98039000  1.0
  C  C239  1  0.09988000  0.04446000  0.98069000  1.0
  C  C240  1  0.98828000  0.58643000  0.03277000  1.0
  C  C241  1  0.04462000  0.08626000  0.03301000  1.0
  C  C242  1  0.01173000  0.41360000  0.96724000  1.0
  C  C243  1  0.95537000  0.91374000  0.96699000  1.0
  N  N244  1  0.47545000  0.67158000  0.24509000  1.0
  N  N245  1  0.76940000  0.17156000  0.24500000  1.0
  N  N246  1  0.52455000  0.32841000  0.75491000  1.0
  N  N247  1  0.23060000  0.82844000  0.75500000  1.0
  N  N248  1  0.30518000  0.63608000  0.33132000  1.0
  N  N249  1  0.02576000  0.13612000  0.33122000  1.0
  N  N250  1  0.69482000  0.36392000  0.66868000  1.0
  N  N251  1  0.97425000  0.86389000  0.66879000  1.0
  N  N252  1  0.12810000  0.79217000  0.24640000  1.0
  N  N253  1  0.11811000  0.29225000  0.24630000  1.0
  N  N254  1  0.87190000  0.20783000  0.75360000  1.0
  N  N255  1  0.88188000  0.70775000  0.75369000  1.0
  N  N256  1  0.31912000  0.84444000  0.17236000  1.0
  N  N257  1  0.85315000  0.34444000  0.17220000  1.0
  N  N258  1  0.68088000  0.15556000  0.82764000  1.0
  N  N259  1  0.14685000  0.65556000  0.82780000  1.0
  N  N260  1  0.52890000  0.81014000  0.17817000  1.0
  N  N261  1  0.64918000  0.31012000  0.17806000  1.0
  N  N262  1  0.47111000  0.18986000  0.82184000  1.0
  N  N263  1  0.35081000  0.68988000  0.82194000  1.0
  N  N264  1  0.07790000  0.67390000  0.31943000  1.0
  N  N265  1  0.24114000  0.17399000  0.31941000  1.0
  N  N266  1  0.92210000  0.32610000  0.68057000  1.0
  N  N267  1  0.75885000  0.82601000  0.68059000  1.0
  O  O268  1  0.40813000  0.82586000  0.34288000  1.0
  O  O269  1  0.93449000  0.32599000  0.34278000  1.0
  O  O270  1  0.59185000  0.17415000  0.65711000  1.0
  O  O271  1  0.06550000  0.67403000  0.65722000  1.0
  O  O272  1  0.44031000  0.74921000  0.45789000  1.0
  O  O273  1  0.01736000  0.24925000  0.45771000  1.0
  O  O274  1  0.55969000  0.25079000  0.54211000  1.0
  O  O275  1  0.98265000  0.75076000  0.54229000  1.0
  O  O276  1  0.19821000  0.65155000  0.15369000  1.0
  O  O277  1  0.95515000  0.15137000  0.15369000  1.0
  O  O278  1  0.80180000  0.34845000  0.84631000  1.0
  O  O279  1  0.04485000  0.84862000  0.84631000  1.0
  O  O280  1  0.33489000  0.55464000  0.11739000  1.0
  O  O281  1  0.78185000  0.05476000  0.11704000  1.0
  O  O282  1  0.66513000  0.44538000  0.88262000  1.0
  O  O283  1  0.21813000  0.94525000  0.88294000  1.0
