# generated using pymatgen
data_Zn4H12C26S4O15
_symmetry_space_group_name_H-M   'P 1'
_cell_length_a   19.66120000
_cell_length_b   19.67140000
_cell_length_c   33.38770000
_cell_angle_alpha   79.13240000
_cell_angle_beta   79.16280000
_cell_angle_gamma   63.90980000
_symmetry_Int_Tables_number   1
_chemical_formula_structural   Zn4H12C26S4O15
_chemical_formula_sum   'Zn16 H48 C104 S16 O60'
_cell_volume   11308.17995326
_cell_formula_units_Z   4
loop_
 _symmetry_equiv_pos_site_id
 _symmetry_equiv_pos_as_xyz
  1  'x, y, z'
loop_
 _atom_site_type_symbol
 _atom_site_label
 _atom_site_symmetry_multiplicity
 _atom_site_fract_x
 _atom_site_fract_y
 _atom_site_fract_z
 _atom_site_occupancy
  Zn  Zn0  1  0.60110000  0.94306000  0.52185000  1.0
  Zn  Zn1  1  0.51705000  0.01592000  0.44007000  1.0
  Zn  Zn2  1  0.43980000  0.94122000  0.51746000  1.0
  Zn  Zn3  1  0.44531000  0.09838000  0.52069000  1.0
  Zn  Zn4  1  0.64942000  0.30684000  0.72828000  1.0
  Zn  Zn5  1  0.81071000  0.31129000  0.73278000  1.0
  Zn  Zn6  1  0.73329000  0.23225000  0.80933000  1.0
  Zn  Zn7  1  0.80561000  0.15321000  0.72837000  1.0
  Zn  Zn8  1  0.23304000  0.73263000  0.31094000  1.0
  Zn  Zn9  1  0.30468000  0.65052000  0.22877000  1.0
  Zn  Zn10  1  0.15133000  0.80658000  0.22874000  1.0
  Zn  Zn11  1  0.31044000  0.80826000  0.23281000  1.0
  Zn  Zn12  1  0.93879000  0.43964000  0.01713000  1.0
  Zn  Zn13  1  0.94384000  0.59969000  0.02187000  1.0
  Zn  Zn14  1  0.09801000  0.44400000  0.02125000  1.0
  Zn  Zn15  1  0.01686000  0.51781000  0.94037000  1.0
  H  H16  1  0.54637000  0.25187000  0.64931000  1.0
  H  H17  1  0.70349000  0.99814000  0.60089000  1.0
  H  H18  1  0.29967000  0.79927000  0.40216000  1.0
  H  H19  1  0.45041000  0.95075000  0.34781000  1.0
  H  H20  1  0.76073000  0.53679000  0.65911000  1.0
  H  H21  1  0.29735000  0.52100000  0.39878000  1.0
  H  H22  1  0.02152000  0.79704000  0.39850000  1.0
  H  H23  1  0.02954000  0.05054000  0.65190000  1.0
  H  H24  1  0.84762000  0.34791000  0.95055000  1.0
  H  H25  1  0.90235000  0.40199000  0.79952000  1.0
  H  H26  1  0.22839000  0.45287000  0.85145000  1.0
  H  H27  1  0.85856000  0.83729000  0.95986000  1.0
  H  H28  1  0.99814000  0.70333000  0.10070000  1.0
  H  H29  1  0.25186000  0.54638000  0.14935000  1.0
  H  H30  1  0.72044000  0.69956000  0.09792000  1.0
  H  H31  1  0.98932000  0.21359000  0.09081000  1.0
  H  H32  1  0.47278000  0.19059000  0.58152000  1.0
  H  H33  1  0.77724000  0.05980000  0.66845000  1.0
  H  H34  1  0.36396000  0.86430000  0.47278000  1.0
  H  H35  1  0.38603000  0.88578000  0.27719000  1.0
  H  H36  1  0.77735000  0.27691000  0.88589000  1.0
  H  H37  1  0.97280000  0.47292000  0.86399000  1.0
  H  H38  1  0.05930000  0.77733000  0.16831000  1.0
  H  H39  1  0.19087000  0.47247000  0.08163000  1.0
  H  H40  1  0.42406000  0.76865000  0.60084000  1.0
  H  H41  1  0.44863000  0.66924000  0.60320000  1.0
  H  H42  1  0.46386000  0.72352000  0.55598000  1.0
  H  H43  1  0.52314000  0.17867000  0.34656000  1.0
  H  H44  1  0.46328000  0.24278000  0.30913000  1.0
  H  H45  1  0.43581000  0.17598000  0.34408000  1.0
  H  H46  1  0.67630000  0.93564000  0.34381000  1.0
  H  H47  1  0.74291000  0.96348000  0.30891000  1.0
  H  H48  1  0.67875000  0.02297000  0.34643000  1.0
  H  H49  1  0.27794000  0.20209000  0.61041000  1.0
  H  H50  1  0.17994000  0.26817000  0.61370000  1.0
  H  H51  1  0.23345000  0.24153000  0.56529000  1.0
  H  H52  1  0.57117000  0.22710000  0.90360000  1.0
  H  H53  1  0.50703000  0.28660000  0.94111000  1.0
  H  H54  1  0.57365000  0.31440000  0.90627000  1.0
  H  H55  1  0.85164000  0.92762000  0.76003000  1.0
  H  H56  1  0.93039000  0.84226000  0.77597000  1.0
  H  H57  1  0.93878000  0.93077000  0.76256000  1.0
  H  H58  1  0.51688000  0.50841000  0.18481000  1.0
  H  H59  1  0.56983000  0.48213000  0.13623000  1.0
  H  H60  1  0.47180000  0.54828000  0.13992000  1.0
  H  H61  1  0.28590000  0.02661000  0.19415000  1.0
  H  H62  1  0.30151000  0.08052000  0.14685000  1.0
  H  H63  1  0.32570000  0.98117000  0.14939000  1.0
  C  C64  1  0.68467000  0.93842000  0.43838000  1.0
  C  C65  1  0.43054000  0.93091000  0.42990000  1.0
  C  C66  1  0.56139000  0.81563000  0.56132000  1.0
  C  C67  1  0.31581000  0.06165000  0.56135000  1.0
  C  C68  1  0.57046000  0.06913000  0.56968000  1.0
  C  C69  1  0.43853000  0.18412000  0.43854000  1.0
  C  C70  1  0.68896000  0.43483000  0.68843000  1.0
  C  C71  1  0.82040000  0.31970000  0.81930000  1.0
  C  C72  1  0.56547000  0.31156000  0.81159000  1.0
  C  C73  1  0.81131000  0.06584000  0.81127000  1.0
  C  C74  1  0.67953000  0.18112000  0.68037000  1.0
  C  C75  1  0.93468000  0.18788000  0.68840000  1.0
  C  C76  1  0.31136000  0.56547000  0.31194000  1.0
  C  C77  1  0.18091000  0.67955000  0.18037000  1.0
  C  C78  1  0.06589000  0.81105000  0.31173000  1.0
  C  C79  1  0.18866000  0.93435000  0.18863000  1.0
  C  C80  1  0.31949000  0.81912000  0.32008000  1.0
  C  C81  1  0.43425000  0.68850000  0.18868000  1.0
  C  C82  1  0.81532000  0.56222000  0.06157000  1.0
  C  C83  1  0.06915000  0.57021000  0.06963000  1.0
  C  C84  1  0.06103000  0.31561000  0.06155000  1.0
  C  C85  1  0.18386000  0.43881000  0.93831000  1.0
  C  C86  1  0.92982000  0.43003000  0.93073000  1.0
  C  C87  1  0.93806000  0.68485000  0.93865000  1.0
  C  C88  1  0.59732000  0.09868000  0.59820000  1.0
  C  C89  1  0.65240000  0.15124000  0.65213000  1.0
  C  C90  1  0.55198000  0.17147000  0.61206000  1.0
  C  C91  1  0.69766000  0.07838000  0.63833000  1.0
  C  C92  1  0.58065000  0.19622000  0.63875000  1.0
  C  C93  1  0.66908000  0.05368000  0.61158000  1.0
  C  C94  1  0.40164000  0.90172000  0.40222000  1.0
  C  C95  1  0.34842000  0.84834000  0.34776000  1.0
  C  C96  1  0.35849000  0.85820000  0.41795000  1.0
  C  C97  1  0.39157000  0.89184000  0.33202000  1.0
  C  C98  1  0.33275000  0.83244000  0.39030000  1.0
  C  C99  1  0.41733000  0.91758000  0.35966000  1.0
  C  C100  1  0.54431000  0.69643000  0.59864000  1.0
  C  C101  1  0.70387000  0.55420000  0.65103000  1.0
  C  C102  1  0.58518000  0.74113000  0.58614000  1.0
  C  C103  1  0.66364000  0.50956000  0.66348000  1.0
  C  C104  1  0.66106000  0.62238000  0.62738000  1.0
  C  C105  1  0.58879000  0.62858000  0.62225000  1.0
  C  C106  1  0.42471000  0.27260000  0.37049000  1.0
  C  C107  1  0.32641000  0.47582000  0.37907000  1.0
  C  C108  1  0.41420000  0.25814000  0.41325000  1.0
  C  C109  1  0.33659000  0.49052000  0.33668000  1.0
  C  C110  1  0.35823000  0.39666000  0.39177000  1.0
  C  C111  1  0.39220000  0.35234000  0.35876000  1.0
  C  C112  1  0.77297000  0.92458000  0.37025000  1.0
  C  C113  1  0.97629000  0.82604000  0.37879000  1.0
  C  C114  1  0.75866000  0.91405000  0.41302000  1.0
  C  C115  1  0.99091000  0.83623000  0.33638000  1.0
  C  C116  1  0.89715000  0.85793000  0.39149000  1.0
  C  C117  1  0.85272000  0.89199000  0.35848000  1.0
  C  C118  1  0.20038000  0.15659000  0.60253000  1.0
  C  C119  1  0.05041000  0.09461000  0.64733000  1.0
  C  C120  1  0.24147000  0.08724000  0.58637000  1.0
  C  C121  1  0.00943000  0.16334000  0.66343000  1.0
  C  C122  1  0.12010000  0.09139000  0.62513000  1.0
  C  C123  1  0.13101000  0.15788000  0.62466000  1.0
  C  C124  1  0.84781000  0.34763000  0.84838000  1.0
  C  C125  1  0.90217000  0.40226000  0.90168000  1.0
  C  C126  1  0.83186000  0.33209000  0.89169000  1.0
  C  C127  1  0.91798000  0.41792000  0.85836000  1.0
  C  C128  1  0.85952000  0.35975000  0.91744000  1.0
  C  C129  1  0.89039000  0.39018000  0.83263000  1.0
  C  C130  1  0.47699000  0.32554000  0.87975000  1.0
  C  C131  1  0.27358000  0.42387000  0.87120000  1.0
  C  C132  1  0.49140000  0.33607000  0.83698000  1.0
  C  C133  1  0.25887000  0.41368000  0.91362000  1.0
  C  C134  1  0.35274000  0.39208000  0.85848000  1.0
  C  C135  1  0.39718000  0.35808000  0.89149000  1.0
  C  C136  1  0.87561000  0.91941000  0.82152000  1.0
  C  C137  1  0.87474000  0.83038000  0.92740000  1.0
  C  C138  1  0.83650000  0.99080000  0.83565000  1.0
  C  C139  1  0.91339000  0.75944000  0.91351000  1.0
  C  C140  1  0.86061000  0.88912000  0.89422000  1.0
  C  C141  1  0.88885000  0.86189000  0.85552000  1.0
  C  C142  1  0.15123000  0.65244000  0.15201000  1.0
  C  C143  1  0.09875000  0.59724000  0.09806000  1.0
  C  C144  1  0.07839000  0.69766000  0.13813000  1.0
  C  C145  1  0.17160000  0.55201000  0.11194000  1.0
  C  C146  1  0.05373000  0.66898000  0.11139000  1.0
  C  C147  1  0.19625000  0.58071000  0.13867000  1.0
  C  C148  1  0.54968000  0.59350000  0.14755000  1.0
  C  C149  1  0.69955000  0.65551000  0.10257000  1.0
  C  C150  1  0.50863000  0.66287000  0.16370000  1.0
  C  C151  1  0.74051000  0.58677000  0.08649000  1.0
  C  C152  1  0.62995000  0.65866000  0.12486000  1.0
  C  C153  1  0.61905000  0.59216000  0.12539000  1.0
  C  C154  1  0.20557000  0.05375000  0.15140000  1.0
  C  C155  1  0.04616000  0.19618000  0.09892000  1.0
  C  C156  1  0.16477000  0.00896000  0.16382000  1.0
  C  C157  1  0.08639000  0.24082000  0.08650000  1.0
  C  C158  1  0.08892000  0.12794000  0.12259000  1.0
  C  C159  1  0.16118000  0.12168000  0.12778000  1.0
  C  C160  1  0.46603000  0.71520000  0.58926000  1.0
  C  C161  1  0.46377000  0.21463000  0.34082000  1.0
  C  C162  1  0.71486000  0.96370000  0.34061000  1.0
  C  C163  1  0.22392000  0.22072000  0.59782000  1.0
  C  C164  1  0.53507000  0.28637000  0.90941000  1.0
  C  C165  1  0.90057000  0.90387000  0.77771000  1.0
  C  C166  1  0.52607000  0.52945000  0.15228000  1.0
  C  C167  1  0.28385000  0.03477000  0.16086000  1.0
  S  S168  1  0.67514000  0.70109000  0.60287000  1.0
  S  S169  1  0.57400000  0.54999000  0.64667000  1.0
  S  S170  1  0.36608000  0.33983000  0.43816000  1.0
  S  S171  1  0.38466000  0.40871000  0.31208000  1.0
  S  S172  1  0.84044000  0.86578000  0.43790000  1.0
  S  S173  1  0.90903000  0.88441000  0.31180000  1.0
  S  S174  1  0.19623000  0.02575000  0.59798000  1.0
  S  S175  1  0.05506000  0.22417000  0.65172000  1.0
  S  S176  1  0.40957000  0.38429000  0.81208000  1.0
  S  S177  1  0.34084000  0.36554000  0.93818000  1.0
  S  S178  1  0.81687000  0.98718000  0.88900000  1.0
  S  S179  1  0.93280000  0.76366000  0.86030000  1.0
  S  S180  1  0.55389000  0.72434000  0.15201000  1.0
  S  S181  1  0.69498000  0.52585000  0.09832000  1.0
  S  S182  1  0.07484000  0.04914000  0.14700000  1.0
  S  S183  1  0.17603000  0.20027000  0.10337000  1.0
  O  O184  1  0.50165000  0.99921000  0.50020000  1.0
  O  O185  1  0.68561000  0.92188000  0.47735000  1.0
  O  O186  1  0.46892000  0.96925000  0.41406000  1.0
  O  O187  1  0.49520000  0.84402000  0.54925000  1.0
  O  O188  1  0.62540000  0.97414000  0.41947000  1.0
  O  O189  1  0.60889000  0.84616000  0.55379000  1.0
  O  O190  1  0.41457000  0.91534000  0.46905000  1.0
  O  O191  1  0.34224000  0.99517000  0.54969000  1.0
  O  O192  1  0.50376000  0.11275000  0.55798000  1.0
  O  O193  1  0.34830000  0.10733000  0.55312000  1.0
  O  O194  1  0.61327000  0.00387000  0.55832000  1.0
  O  O195  1  0.47406000  0.12481000  0.41977000  1.0
  O  O196  1  0.42205000  0.18505000  0.47757000  1.0
  O  O197  1  0.74935000  0.25181000  0.74942000  1.0
  O  O198  1  0.64182000  0.40394000  0.69653000  1.0
  O  O199  1  0.83639000  0.33535000  0.78098000  1.0
  O  O200  1  0.62492000  0.27606000  0.83038000  1.0
  O  O201  1  0.75552000  0.40750000  0.69974000  1.0
  O  O202  1  0.56451000  0.32773000  0.77258000  1.0
  O  O203  1  0.78128000  0.28043000  0.83512000  1.0
  O  O204  1  0.77610000  0.12404000  0.83119000  1.0
  O  O205  1  0.74644000  0.13773000  0.69188000  1.0
  O  O206  1  0.82643000  0.06745000  0.77219000  1.0
  O  O207  1  0.63681000  0.24644000  0.69169000  1.0
  O  O208  1  0.90719000  0.25425000  0.70003000  1.0
  O  O209  1  0.90378000  0.14083000  0.69633000  1.0
  O  O210  1  0.24960000  0.74924000  0.25063000  1.0
  O  O211  1  0.27581000  0.62373000  0.33146000  1.0
  O  O212  1  0.24635000  0.63662000  0.19170000  1.0
  O  O213  1  0.06596000  0.82692000  0.27269000  1.0
  O  O214  1  0.32751000  0.56537000  0.27293000  1.0
  O  O215  1  0.12414000  0.77577000  0.33134000  1.0
  O  O216  1  0.13765000  0.74626000  0.19197000  1.0
  O  O217  1  0.14121000  0.90363000  0.19609000  1.0
  O  O218  1  0.33536000  0.83491000  0.28092000  1.0
  O  O219  1  0.25470000  0.90579000  0.20084000  1.0
  O  O220  1  0.28125000  0.78069000  0.33592000  1.0
  O  O221  1  0.40202000  0.64260000  0.19712000  1.0
  O  O222  1  0.40754000  0.75522000  0.20008000  1.0
  O  O223  1  0.99884000  0.50048000  0.00033000  1.0
  O  O224  1  0.84287000  0.49555000  0.05025000  1.0
  O  O225  1  0.00374000  0.61306000  0.05830000  1.0
  O  O226  1  0.10809000  0.34669000  0.05353000  1.0
  O  O227  1  0.84599000  0.60936000  0.05346000  1.0
  O  O228  1  0.99465000  0.34299000  0.05006000  1.0
  O  O229  1  0.11260000  0.50356000  0.05797000  1.0
  O  O230  1  0.18373000  0.42314000  0.97736000  1.0
  O  O231  1  0.96891000  0.46930000  0.91485000  1.0
  O  O232  1  0.12539000  0.47404000  0.91883000  1.0
  O  O233  1  0.91405000  0.41427000  0.96906000  1.0
  O  O234  1  0.92212000  0.68493000  0.97755000  1.0
  O  O235  1  0.97351000  0.62626000  0.91914000  1.0
  O  O236  1  0.48210000  0.21825000  0.60050000  1.0
  O  O237  1  0.76754000  0.03165000  0.64992000  1.0
  O  O238  1  0.34112000  0.84047000  0.45865000  1.0
  O  O239  1  0.40893000  0.90959000  0.29132000  1.0
  O  O240  1  0.79096000  0.29155000  0.90923000  1.0
  O  O241  1  0.95871000  0.45857000  0.84074000  1.0
  O  O242  1  0.03159000  0.76749000  0.14959000  1.0
  O  O243  1  0.21849000  0.48221000  0.10044000  1.0
