# generated using pymatgen
data_Zn8H54C79(O13F3)2
_symmetry_space_group_name_H-M   'P 1'
_cell_length_a   18.44300000
_cell_length_b   18.45237723
_cell_length_c   18.46112760
_cell_angle_alpha   119.76921531
_cell_angle_beta   119.85319368
_cell_angle_gamma   90.15680483
_symmetry_Int_Tables_number   1
_chemical_formula_structural   Zn8H54C79(O13F3)2
_chemical_formula_sum   'Zn8 H54 C79 O26 F6'
_cell_volume   4461.71590460
_cell_formula_units_Z   1
loop_
 _symmetry_equiv_pos_site_id
 _symmetry_equiv_pos_as_xyz
  1  'x, y, z'
loop_
 _atom_site_type_symbol
 _atom_site_label
 _atom_site_symmetry_multiplicity
 _atom_site_fract_x
 _atom_site_fract_y
 _atom_site_fract_z
 _atom_site_occupancy
  Zn  Zn0  1  0.86901000  0.95337000  0.40765000  1.0
  Zn  Zn1  1  0.04142000  0.12821000  0.58263000  1.0
  Zn  Zn2  1  0.04094000  0.95364000  0.41020000  1.0
  Zn  Zn3  1  0.04263000  0.95635000  0.58686000  1.0
  Zn  Zn4  1  0.63052000  0.53966000  0.58421000  1.0
  Zn  Zn5  1  0.45844000  0.54325000  0.58509000  1.0
  Zn  Zn6  1  0.45573000  0.36948000  0.40914000  1.0
  Zn  Zn7  1  0.45864000  0.54485000  0.41215000  1.0
  H  H8  1  0.53370000  0.94294000  0.25875000  1.0
  H  H9  1  0.63024000  0.02957000  0.45040000  1.0
  H  H10  1  0.28499000  0.69024000  0.37270000  1.0
  H  H11  1  0.26263000  0.66918000  0.64123000  1.0
  H  H12  1  0.36250000  0.76145000  0.72678000  1.0
  H  H13  1  0.26881000  0.86232000  0.72764000  1.0
  H  H14  1  0.20221000  0.31923000  0.90168000  1.0
  H  H15  1  0.29631000  0.41471000  0.09160000  1.0
  H  H16  1  0.34439000  0.13133000  0.09624000  1.0
  H  H17  1  0.24611000  0.03259000  0.90108000  1.0
  H  H18  1  0.70968000  0.95521000  0.53271000  1.0
  H  H19  1  0.92627000  0.53583000  0.64893000  1.0
  H  H20  1  0.30457000  0.18227000  0.38873000  1.0
  H  H21  1  0.33445000  0.46582000  0.70989000  1.0
  H  H22  1  0.23866000  0.36947000  0.70725000  1.0
  H  H23  1  0.14183000  0.36212000  0.60448000  1.0
  H  H24  1  0.68718000  0.09012000  0.34453000  1.0
  H  H25  1  0.59163000  0.18519000  0.34381000  1.0
  H  H26  1  0.86979000  0.46746000  0.69494000  1.0
  H  H27  1  0.83149000  0.42519000  0.74238000  1.0
  H  H28  1  0.96837000  0.37212000  0.69349000  1.0
  H  H29  1  0.93061000  0.33157000  0.74279000  1.0
  H  H30  1  0.91388000  0.79355000  0.09180000  1.0
  H  H31  1  0.58859000  0.71420000  0.40239000  1.0
  H  H32  1  0.91447000  0.79854000  0.61030000  1.0
  H  H33  1  0.87779000  0.82591000  0.77128000  1.0
  H  H34  1  0.97274000  0.79324000  0.89601000  1.0
  H  H35  1  0.03153000  0.54269000  0.94088000  1.0
  H  H36  1  0.10363000  0.65340000  0.04191000  1.0
  H  H37  1  0.00823000  0.61258000  0.03003000  1.0
  H  H38  1  0.97981000  0.70839000  0.96594000  1.0
  H  H39  1  0.90965000  0.59833000  0.86504000  1.0
  H  H40  1  0.02108000  0.57627000  0.81827000  1.0
  H  H41  1  0.81924000  0.69946000  0.90189000  1.0
  H  H42  1  0.08182000  0.68997000  0.91311000  1.0
  H  H43  1  0.09180000  0.54076000  0.51006000  1.0
  H  H44  1  0.15797000  0.53247000  0.46383000  1.0
  H  H45  1  0.04913000  0.45605000  0.38139000  1.0
  H  H46  1  0.16189000  0.38598000  0.43884000  1.0
  H  H47  1  0.09433000  0.39116000  0.48170000  1.0
  H  H48  1  0.21370000  0.52905000  0.65384000  1.0
  H  H49  1  0.27963000  0.52348000  0.60840000  1.0
  H  H50  1  0.64227000  0.53320000  0.13592000  1.0
  H  H51  1  0.62045000  0.57135000  0.05807000  1.0
  H  H52  1  0.53352000  0.75298000  0.90008000  1.0
  H  H53  1  0.73025000  0.57846000  0.13981000  1.0
  H  H54  1  0.70917000  0.72771000  0.21382000  1.0
  H  H55  1  0.73699000  0.69187000  0.29341000  1.0
  H  H56  1  0.58383000  0.64559000  0.23666000  1.0
  H  H57  1  0.54421000  0.65884000  0.13660000  1.0
  H  H58  1  0.53060000  0.65624000  0.89960000  1.0
  H  H59  1  0.62936000  0.84811000  0.09293000  1.0
  H  H60  1  0.62602000  0.75119000  0.09146000  1.0
  H  H61  1  0.18711000  0.78273000  0.37056000  1.0
  C  C62  1  0.13888000  0.13948000  0.77409000  1.0
  C  C63  1  0.70921000  0.78964000  0.44594000  1.0
  C  C64  1  0.88790000  0.76181000  0.74483000  1.0
  C  C65  1  0.86135000  0.85858000  0.21933000  1.0
  C  C66  1  0.94137000  0.74313000  0.81496000  1.0
  C  C67  1  0.95646000  0.66174000  0.78286000  1.0
  C  C68  1  0.91580000  0.59966000  0.67817000  1.0
  C  C69  1  0.86190000  0.61937000  0.60963000  1.0
  C  C70  1  0.84594000  0.69978000  0.63975000  1.0
  C  C71  1  0.71239000  0.77611000  0.04967000  1.0
  C  C72  1  0.80464000  0.80258000  0.10605000  1.0
  C  C73  1  0.60765000  0.78054000  0.28343000  1.0
  C  C74  1  0.84188000  0.77361000  0.04981000  1.0
  C  C75  1  0.78895000  0.72096000  0.94356000  1.0
  C  C76  1  0.69551000  0.69415000  0.88708000  1.0
  C  C77  1  0.85871000  0.13347000  0.49447000  1.0
  C  C78  1  0.65934000  0.72344000  0.94313000  1.0
  C  C79  1  0.57371000  0.72188000  0.93588000  1.0
  C  C80  1  0.63379000  0.78145000  0.05641000  1.0
  C  C81  1  0.22553000  0.77803000  0.56642000  1.0
  C  C82  1  0.19054000  0.80031000  0.49665000  1.0
  C  C83  1  0.21334000  0.76689000  0.42646000  1.0
  C  C84  1  0.56384000  0.82541000  0.24139000  1.0
  C  C85  1  0.26852000  0.71529000  0.42796000  1.0
  C  C86  1  0.30429000  0.69388000  0.49951000  1.0
  C  C87  1  0.28056000  0.72629000  0.56799000  1.0
  C  C88  1  0.29398000  0.73153000  0.65873000  1.0
  C  C89  1  0.13377000  0.85759000  0.49638000  1.0
  C  C90  1  0.23532000  0.79333000  0.66000000  1.0
  C  C91  1  0.21971000  0.16110000  0.94516000  1.0
  C  C92  1  0.19390000  0.19635000  0.88786000  1.0
  C  C93  1  0.22227000  0.28922000  0.94374000  1.0
  C  C94  1  0.27506000  0.34289000  0.05049000  1.0
  C  C95  1  0.57031000  0.91326000  0.29789000  1.0
  C  C96  1  0.30236000  0.30684000  0.10758000  1.0
  C  C97  1  0.27213000  0.21448000  0.05142000  1.0
  C  C98  1  0.27787000  0.13659000  0.05952000  1.0
  C  C99  1  0.21716000  0.07567000  0.93812000  1.0
  C  C100  1  0.22083000  0.28509000  0.55878000  1.0
  C  C101  1  0.13807000  0.13663000  0.49902000  1.0
  C  C102  1  0.19576000  0.19271000  0.49867000  1.0
  C  C103  1  0.22906000  0.15940000  0.43811000  1.0
  C  C104  1  0.28212000  0.21304000  0.43805000  1.0
  C  C105  1  0.30633000  0.30576000  0.50000000  1.0
  C  C106  1  0.66048000  0.73211000  0.44652000  1.0
  C  C107  1  0.27408000  0.34016000  0.56009000  1.0
  C  C108  1  0.26987000  0.42457000  0.63551000  1.0
  C  C109  1  0.21009000  0.36139000  0.63430000  1.0
  C  C110  1  0.83157000  0.27658000  0.57940000  1.0
  C  C111  1  0.80139000  0.18988000  0.49571000  1.0
  C  C112  1  0.71291000  0.15790000  0.41097000  1.0
  C  C113  1  0.86147000  0.86631000  0.50365000  1.0
  C  C114  1  0.65934000  0.21105000  0.41067000  1.0
  C  C115  1  0.69087000  0.29923000  0.49542000  1.0
  C  C116  1  0.77758000  0.32947000  0.57938000  1.0
  C  C117  1  0.70040000  0.69819000  0.50468000  1.0
  C  C118  1  0.84794000  0.40729000  0.68735000  1.0
  C  C119  1  0.90964000  0.34793000  0.68718000  1.0
  C  C120  1  0.36265000  0.63836000  0.49971000  1.0
  C  C121  1  0.63448000  0.35656000  0.49426000  1.0
  C  C122  1  0.63942000  0.63728000  0.77384000  1.0
  C  C123  1  0.36013000  0.36430000  0.22134000  1.0
  C  C124  1  0.36333000  0.36222000  0.49927000  1.0
  C  C125  1  0.62361000  0.96038000  0.40393000  1.0
  C  C126  1  0.64069000  0.63802000  0.49977000  1.0
  C  C127  1  0.66815000  0.91870000  0.44978000  1.0
  C  C128  1  0.79381000  0.72375000  0.56729000  1.0
  C  C129  1  0.66116000  0.83000000  0.39094000  1.0
  C  C130  1  0.01438000  0.64126000  0.85863000  1.0
  C  C131  1  0.97948000  0.64129000  0.91890000  1.0
  C  C132  1  0.03365000  0.61093000  0.98673000  1.0
  C  C133  1  0.22903000  0.48276000  0.60064000  1.0
  C  C134  1  0.14596000  0.43235000  0.49112000  1.0
  C  C135  1  0.10913000  0.49368000  0.45996000  1.0
  C  C136  1  0.59999000  0.68628000  0.21544000  1.0
  C  C137  1  0.68439000  0.67715000  0.21875000  1.0
  C  C138  1  0.66852000  0.58505000  0.13359000  1.0
  C  C139  1  0.84248000  0.77933000  0.56455000  1.0
  C  C140  1  0.80237000  0.81155000  0.50474000  1.0
  O  O141  1  0.99916000  0.99848000  0.49849000  1.0
  O  O142  1  0.38127000  0.32359000  0.26413000  1.0
  O  O143  1  0.38456000  0.44574000  0.56027000  1.0
  O  O144  1  0.12109000  0.05634000  0.73190000  1.0
  O  O145  1  0.55724000  0.61822000  0.43810000  1.0
  O  O146  1  0.38616000  0.32274000  0.43848000  1.0
  O  O147  1  0.67716000  0.61139000  0.55697000  1.0
  O  O148  1  0.67894000  0.61405000  0.72962000  1.0
  O  O149  1  0.38346000  0.44785000  0.26525000  1.0
  O  O150  1  0.38520000  0.61674000  0.56194000  1.0
  O  O151  1  0.55137000  0.31871000  0.42457000  1.0
  O  O152  1  0.82043000  0.05045000  0.42562000  1.0
  O  O153  1  0.82075000  0.87725000  0.26240000  1.0
  O  O154  1  0.94188000  0.17370000  0.56309000  1.0
  O  O155  1  0.10896000  0.87621000  0.43151000  1.0
  O  O156  1  0.11361000  0.17841000  0.55806000  1.0
  O  O157  1  0.94470000  0.89295000  0.57090000  1.0
  O  O158  1  0.11773000  0.05312000  0.44171000  1.0
  O  O159  1  0.82435000  0.88007000  0.43440000  1.0
  O  O160  1  0.11577000  0.88333000  0.56190000  1.0
  O  O161  1  0.11516000  0.17884000  0.72974000  1.0
  O  O162  1  0.94521000  0.88344000  0.26429000  1.0
  O  O163  1  0.50002000  0.49926000  0.49663000  1.0
  O  O164  1  0.38483000  0.61699000  0.43825000  1.0
  O  O165  1  0.67462000  0.43947000  0.56375000  1.0
  O  O166  1  0.55558000  0.61620000  0.73024000  1.0
  F  F167  1  0.82303000  0.55695000  0.50795000  1.0
  F  F168  1  0.15732000  0.76091000  0.64608000  1.0
  F  F169  1  0.23822000  0.12533000  0.10233000  1.0
  F  F170  1  0.13438000  0.02318000  0.89632000  1.0
  F  F171  1  0.20962000  0.07089000  0.37547000  1.0
  F  F172  1  0.51045000  0.78010000  0.13691000  1.0
