# generated using pymatgen
data_ZnH18C24(N2O5)2
_symmetry_space_group_name_H-M   'P 1'
_cell_length_a   9.91089000
_cell_length_b   10.96630000
_cell_length_c   12.33940000
_cell_angle_alpha   90.00000000
_cell_angle_beta   90.00000000
_cell_angle_gamma   114.27000000
_symmetry_Int_Tables_number   1
_chemical_formula_structural   ZnH18C24(N2O5)2
_chemical_formula_sum   'Zn2 H36 C48 N8 O20'
_cell_volume   1222.58766126
_cell_formula_units_Z   2
loop_
 _symmetry_equiv_pos_site_id
 _symmetry_equiv_pos_as_xyz
  1  'x, y, z'
loop_
 _atom_site_type_symbol
 _atom_site_label
 _atom_site_symmetry_multiplicity
 _atom_site_fract_x
 _atom_site_fract_y
 _atom_site_fract_z
 _atom_site_occupancy
  Zn  Zn0  1  0.50000000  0.50000000  0.00000000  1.0
  Zn  Zn1  1  0.00000000  0.00000000  0.50000000  1.0
  H  H2  1  0.05278000  0.29715000  0.20775000  1.0
  H  H3  1  0.44722000  0.20285000  0.70775000  1.0
  H  H4  1  0.94722000  0.70285000  0.79225000  1.0
  H  H5  1  0.55278000  0.79715000  0.29225000  1.0
  H  H6  1  0.56369000  0.06845000  0.23154000  1.0
  H  H7  1  0.93631000  0.43155000  0.73154000  1.0
  H  H8  1  0.43631000  0.93155000  0.76846000  1.0
  H  H9  1  0.06369000  0.56845000  0.26846000  1.0
  H  H10  1  0.10086000  0.12428000  0.90900000  1.0
  H  H11  1  0.39914000  0.37572000  0.40900000  1.0
  H  H12  1  0.89914000  0.87572000  0.09100000  1.0
  H  H13  1  0.60086000  0.62428000  0.59100000  1.0
  H  H14  1  0.94561000  0.11654000  0.83054000  1.0
  H  H15  1  0.55439000  0.38346000  0.33054000  1.0
  H  H16  1  0.05439000  0.88346000  0.16946000  1.0
  H  H17  1  0.44561000  0.61654000  0.66946000  1.0
  H  H18  1  0.58034000  0.26325000  0.92313000  1.0
  H  H19  1  0.91966000  0.23675000  0.42313000  1.0
  H  H20  1  0.41966000  0.73676000  0.07687000  1.0
  H  H21  1  0.08034000  0.76325000  0.57687000  1.0
  H  H22  1  0.32840000  0.05455000  0.23411000  1.0
  H  H23  1  0.17160000  0.44545000  0.73411000  1.0
  H  H24  1  0.67160000  0.94545000  0.76589000  1.0
  H  H25  1  0.82840000  0.55455000  0.26589000  1.0
  H  H26  1  0.77745000  0.02521000  0.17683000  1.0
  H  H27  1  0.72255000  0.47479000  0.67682000  1.0
  H  H28  1  0.22254000  0.97479000  0.82318000  1.0
  H  H29  1  0.27745000  0.52521000  0.32317000  1.0
  H  H30  1  0.04796000  0.26282000  0.91053000  1.0
  H  H31  1  0.45203000  0.23718000  0.41053000  1.0
  H  H32  1  0.95204000  0.73718000  0.08947000  1.0
  H  H33  1  0.54797000  0.76282000  0.58947000  1.0
  H  H34  1  0.79639000  0.22269000  0.87077000  1.0
  H  H35  1  0.70362000  0.27731000  0.37077000  1.0
  H  H36  1  0.20362000  0.77731000  0.12923000  1.0
  H  H37  1  0.29638000  0.72269000  0.62923000  1.0
  C  C38  1  0.55594000  0.17097000  0.08081000  1.0
  C  C39  1  0.94406000  0.32903000  0.58081000  1.0
  C  C40  1  0.44406000  0.82903000  0.91919000  1.0
  C  C41  1  0.05594000  0.67097000  0.41919000  1.0
  C  C42  1  0.21657000  0.39574000  0.10726000  1.0
  C  C43  1  0.28343000  0.10426000  0.60725000  1.0
  C  C44  1  0.78343000  0.60426000  0.89275000  1.0
  C  C45  1  0.71657000  0.89574000  0.39275000  1.0
  C  C46  1  0.23072000  0.18940000  0.20197000  1.0
  C  C47  1  0.26928000  0.31060000  0.70196000  1.0
  C  C48  1  0.76928000  0.81060000  0.79804000  1.0
  C  C49  1  0.73072000  0.68940000  0.29804000  1.0
  C  C50  1  0.61129000  0.10106000  0.15131000  1.0
  C  C51  1  0.88871000  0.39894000  0.65131000  1.0
  C  C52  1  0.38871000  0.89894000  0.84869000  1.0
  C  C53  1  0.11129000  0.60106000  0.34869000  1.0
  C  C54  1  0.43288000  0.20254000  0.11206000  1.0
  C  C55  1  0.06712000  0.29746000  0.61206000  1.0
  C  C56  1  0.56712000  0.79746000  0.88794000  1.0
  C  C57  1  0.93288000  0.70254000  0.38794000  1.0
  C  C58  1  0.74496000  0.18717000  0.94923000  1.0
  C  C59  1  0.75504000  0.31283000  0.44923000  1.0
  C  C60  1  0.25504000  0.81283000  0.05077000  1.0
  C  C61  1  0.24496000  0.68717000  0.55077000  1.0
  C  C62  1  0.27411000  0.29336000  0.12760000  1.0
  C  C63  1  0.22589000  0.20664000  0.62760000  1.0
  C  C64  1  0.72589000  0.70664000  0.87240000  1.0
  C  C65  1  0.77411000  0.79336000  0.37240000  1.0
  C  C66  1  0.73143000  0.07514000  0.12133000  1.0
  C  C67  1  0.76857000  0.42486000  0.62133000  1.0
  C  C68  1  0.26857000  0.92486000  0.87867000  1.0
  C  C69  1  0.23143000  0.57514000  0.37867000  1.0
  C  C70  1  0.62342000  0.21186000  0.97947000  1.0
  C  C71  1  0.87659000  0.28814000  0.47947000  1.0
  C  C72  1  0.37659000  0.78814000  0.02053000  1.0
  C  C73  1  0.12342000  0.71186000  0.52053000  1.0
  C  C74  1  0.80022000  0.11935000  0.02055000  1.0
  C  C75  1  0.69978000  0.38065000  0.52054000  1.0
  C  C76  1  0.19978000  0.88065000  0.97946000  1.0
  C  C77  1  0.30022000  0.61935000  0.47946000  1.0
  C  C78  1  0.00771000  0.15326000  0.90639000  1.0
  C  C79  1  0.49229000  0.34674000  0.40639000  1.0
  C  C80  1  0.99229000  0.84674000  0.09361000  1.0
  C  C81  1  0.50771000  0.65326000  0.59361000  1.0
  C  C82  1  0.11072000  0.14219000  0.28302000  1.0
  C  C83  1  0.38928000  0.35781000  0.78302000  1.0
  C  C84  1  0.88928000  0.85781000  0.71698000  1.0
  C  C85  1  0.61072000  0.64219000  0.21698000  1.0
  N  N86  1  0.39831000  0.30067000  0.07298000  1.0
  N  N87  1  0.10169000  0.19933000  0.57298000  1.0
  N  N88  1  0.60168000  0.69933000  0.92702000  1.0
  N  N89  1  0.89831000  0.80067000  0.42703000  1.0
  N  N90  1  0.33219000  0.13469000  0.19070000  1.0
  N  N91  1  0.16781000  0.36531000  0.69070000  1.0
  N  N92  1  0.66781000  0.86531000  0.80930000  1.0
  N  N93  1  0.83219000  0.63469000  0.30930000  1.0
  O  O94  1  0.28932000  0.49307000  0.04805000  1.0
  O  O95  1  0.21068000  0.00693000  0.54805000  1.0
  O  O96  1  0.71068000  0.50693000  0.95195000  1.0
  O  O97  1  0.78932000  0.99307000  0.45195000  1.0
  O  O98  1  0.09181000  0.38235000  0.15232000  1.0
  O  O99  1  0.40819000  0.11764000  0.65232000  1.0
  O  O100  1  0.90819000  0.61764000  0.84768000  1.0
  O  O101  1  0.59181000  0.88235000  0.34768000  1.0
  O  O102  1  0.92005000  0.09213000  0.99968000  1.0
  O  O103  1  0.57995000  0.40787000  0.49968000  1.0
  O  O104  1  0.07995000  0.90787000  0.00032000  1.0
  O  O105  1  0.42005000  0.59213000  0.50032000  1.0
  O  O106  1  0.01827000  0.19581000  0.28266000  1.0
  O  O107  1  0.48173000  0.30419000  0.78266000  1.0
  O  O108  1  0.98173000  0.80419000  0.71734000  1.0
  O  O109  1  0.51827000  0.69581000  0.21734000  1.0
  O  O110  1  0.11004000  0.05183000  0.34729000  1.0
  O  O111  1  0.38996000  0.44817000  0.84729000  1.0
  O  O112  1  0.88996000  0.94817000  0.65271000  1.0
  O  O113  1  0.61004000  0.55183000  0.15271000  1.0
