# generated using pymatgen
data_Cu2H12C9N8O3
_symmetry_space_group_name_H-M   'P 1'
_cell_length_a   8.01931000
_cell_length_b   8.80787000
_cell_length_c   10.68140000
_cell_angle_alpha   74.46300000
_cell_angle_beta   76.57260000
_cell_angle_gamma   75.03480000
_symmetry_Int_Tables_number   1
_chemical_formula_structural   Cu2H12C9N8O3
_chemical_formula_sum   'Cu4 H24 C18 N16 O6'
_cell_volume   691.37842648
_cell_formula_units_Z   2
loop_
 _symmetry_equiv_pos_site_id
 _symmetry_equiv_pos_as_xyz
  1  'x, y, z'
loop_
 _atom_site_type_symbol
 _atom_site_label
 _atom_site_symmetry_multiplicity
 _atom_site_fract_x
 _atom_site_fract_y
 _atom_site_fract_z
 _atom_site_occupancy
  Cu  Cu0  1  0.07761000  0.02434000  0.83915000  1.0
  Cu  Cu1  1  0.92239000  0.97566000  0.16085000  1.0
  Cu  Cu2  1  0.48938000  0.87471000  0.66363000  1.0
  Cu  Cu3  1  0.51062000  0.12529000  0.33637000  1.0
  H  H4  1  0.39318000  0.33749000  0.89523000  1.0
  H  H5  1  0.60681000  0.66250000  0.10478000  1.0
  H  H6  1  0.58796000  0.29560000  0.77543000  1.0
  H  H7  1  0.41204000  0.70439000  0.22457000  1.0
  H  H8  1  0.56283000  0.17032000  0.93685000  1.0
  H  H9  1  0.43717000  0.82968000  0.06316000  1.0
  H  H10  1  0.82038000  0.97111000  0.75809000  1.0
  H  H11  1  0.17962000  0.02888000  0.24190000  1.0
  H  H12  1  0.82521000  0.88049000  0.91551000  1.0
  H  H13  1  0.17478000  0.11950000  0.08449000  1.0
  H  H14  1  0.57334000  0.61774000  0.58101000  1.0
  H  H15  1  0.42666000  0.38226000  0.41899000  1.0
  H  H16  1  0.44816000  0.76124000  0.48208000  1.0
  H  H17  1  0.55184000  0.23875000  0.51792000  1.0
  H  H18  1  0.92217000  0.70385000  0.73866000  1.0
  H  H19  1  0.07783000  0.29614000  0.26134000  1.0
  H  H20  1  0.04269000  0.66486000  0.86868000  1.0
  H  H21  1  0.95731000  0.33513000  0.13132000  1.0
  H  H22  1  0.12375000  0.86731000  0.58857000  1.0
  H  H23  1  0.87625000  0.13268000  0.41143000  1.0
  H  H24  1  0.26015000  0.57440000  0.60602000  1.0
  H  H25  1  0.73986000  0.42560000  0.39398000  1.0
  H  H26  1  0.33771000  0.57298000  0.75102000  1.0
  H  H27  1  0.66229000  0.42701000  0.24898000  1.0
  C  C28  1  0.00242000  0.75362000  0.78148000  1.0
  C  C29  1  0.99758000  0.24637000  0.21852000  1.0
  C  C30  1  0.16342000  0.79380000  0.68305000  1.0
  C  C31  1  0.83657000  0.20620000  0.31695000  1.0
  C  C32  1  0.30350000  0.64726000  0.65652000  1.0
  C  C33  1  0.69650000  0.35273000  0.34348000  1.0
  C  C34  1  0.40968000  0.13649000  0.81202000  1.0
  C  C35  1  0.59032000  0.86349000  0.18799000  1.0
  C  C36  1  0.49317000  0.24306000  0.85613000  1.0
  C  C37  1  0.50683000  0.75693000  0.14388000  1.0
  C  C38  1  0.67098000  0.57674000  0.88446000  1.0
  C  C39  1  0.32903000  0.42328000  0.11554000  1.0
  C  C40  1  0.84124000  0.31717000  0.92747000  1.0
  C  C41  1  0.15879000  0.68287000  0.07251000  1.0
  C  C42  1  0.16110000  0.18137000  0.51588000  1.0
  C  C43  1  0.83889000  0.81864000  0.48411000  1.0
  C  C44  1  0.91343000  0.35148000  0.60008000  1.0
  C  C45  1  0.08656000  0.64852000  0.39992000  1.0
  N  N46  1  0.90144000  0.90373000  0.82352000  1.0
  N  N47  1  0.09856000  0.09626000  0.17648000  1.0
  N  N48  1  0.46065000  0.70711000  0.57851000  1.0
  N  N49  1  0.53935000  0.29288000  0.42149000  1.0
  N  N50  1  0.57412000  0.69430000  0.84051000  1.0
  N  N51  1  0.42587000  0.30571000  0.15950000  1.0
  N  N52  1  0.78210000  0.46111000  0.94387000  1.0
  N  N53  1  0.21793000  0.53893000  0.05614000  1.0
  N  N54  1  0.90341000  0.17959000  0.92779000  1.0
  N  N55  1  0.09660000  0.82046000  0.07218000  1.0
  N  N56  1  0.27341000  0.12128000  0.43952000  1.0
  N  N57  1  0.72659000  0.87872000  0.56047000  1.0
  N  N58  1  0.04194000  0.22609000  0.61016000  1.0
  N  N59  1  0.95805000  0.77391000  0.38983000  1.0
  N  N60  1  0.79033000  0.45901000  0.60400000  1.0
  N  N61  1  0.20966000  0.54099000  0.39600000  1.0
  O  O62  1  0.24205000  0.88515000  0.73694000  1.0
  O  O63  1  0.75794000  0.11484000  0.26306000  1.0
  O  O64  1  0.49281000  0.08120000  0.71063000  1.0
  O  O65  1  0.50719000  0.91880000  0.28937000  1.0
  O  O66  1  0.26381000  0.10757000  0.88143000  1.0
  O  O67  1  0.73619000  0.89241000  0.11858000  1.0
