# generated using pymatgen
data_Ni4H27C37N5O14
_symmetry_space_group_name_H-M   'P 1'
_cell_length_a   13.06750000
_cell_length_b   18.32630000
_cell_length_c   21.53650000
_cell_angle_alpha   90.00000000
_cell_angle_beta   101.42200000
_cell_angle_gamma   90.00000000
_symmetry_Int_Tables_number   1
_chemical_formula_structural   Ni4H27C37N5O14
_chemical_formula_sum   'Ni16 H108 C148 N20 O56'
_cell_volume   5055.39390568
_cell_formula_units_Z   4
loop_
 _symmetry_equiv_pos_site_id
 _symmetry_equiv_pos_as_xyz
  1  'x, y, z'
loop_
 _atom_site_type_symbol
 _atom_site_label
 _atom_site_symmetry_multiplicity
 _atom_site_fract_x
 _atom_site_fract_y
 _atom_site_fract_z
 _atom_site_occupancy
  Ni  Ni0  1  0.78197000  0.71991000  0.12755000  1.0
  Ni  Ni1  1  0.71803000  0.21991000  0.37245000  1.0
  Ni  Ni2  1  0.21803000  0.28009000  0.87245000  1.0
  Ni  Ni3  1  0.28197000  0.78009000  0.62755000  1.0
  Ni  Ni4  1  0.98955000  0.77866000  0.21195000  1.0
  Ni  Ni5  1  0.51045000  0.27866000  0.28805000  1.0
  Ni  Ni6  1  0.01045000  0.22134000  0.78805000  1.0
  Ni  Ni7  1  0.48955000  0.72134000  0.71195000  1.0
  Ni  Ni8  1  0.99256000  0.61924000  0.23408000  1.0
  Ni  Ni9  1  0.50744000  0.11924000  0.26592000  1.0
  Ni  Ni10  1  0.00744000  0.38076000  0.76592000  1.0
  Ni  Ni11  1  0.49256000  0.88076000  0.73408000  1.0
  Ni  Ni12  1  0.11067000  0.64694000  0.12329000  1.0
  Ni  Ni13  1  0.38933000  0.14694000  0.37671000  1.0
  Ni  Ni14  1  0.88933000  0.35306000  0.87671000  1.0
  Ni  Ni15  1  0.61067000  0.85306000  0.62329000  1.0
  H  H16  1  0.01110000  0.76237000  0.95035000  1.0
  H  H17  1  0.48890000  0.26237000  0.54965000  1.0
  H  H18  1  0.98890000  0.23763000  0.04965000  1.0
  H  H19  1  0.51110000  0.73763000  0.45035000  1.0
  H  H20  1  0.94759000  0.84622000  0.85871000  1.0
  H  H21  1  0.55241000  0.34622000  0.64129000  1.0
  H  H22  1  0.05241000  0.15378000  0.14129000  1.0
  H  H23  1  0.44759000  0.65378000  0.35871000  1.0
  H  H24  1  0.84785000  0.95774000  0.87474000  1.0
  H  H25  1  0.65215000  0.45774000  0.62526000  1.0
  H  H26  1  0.15215000  0.04226000  0.12526000  1.0
  H  H27  1  0.34785000  0.54226000  0.37474000  1.0
  H  H28  1  0.80812000  0.98476000  0.98074000  1.0
  H  H29  1  0.69188000  0.48476000  0.51926000  1.0
  H  H30  1  0.19188000  0.01524000  0.01926000  1.0
  H  H31  1  0.30812000  0.51524000  0.48074000  1.0
  H  H32  1  0.86279000  0.89659000  0.07003000  1.0
  H  H33  1  0.63721000  0.39659000  0.42997000  1.0
  H  H34  1  0.13721000  0.10341000  0.92997000  1.0
  H  H35  1  0.36279000  0.60341000  0.57003000  1.0
  H  H36  1  0.84714000  0.97175000  0.28162000  1.0
  H  H37  1  0.65286000  0.47175000  0.21838000  1.0
  H  H38  1  0.15286000  0.02825000  0.71838000  1.0
  H  H39  1  0.34714000  0.52825000  0.78162000  1.0
  H  H40  1  0.73464000  0.07486000  0.30681000  1.0
  H  H41  1  0.76536000  0.57486000  0.19319000  1.0
  H  H42  1  0.26536000  0.92514000  0.69319000  1.0
  H  H43  1  0.23464000  0.42514000  0.80681000  1.0
  H  H44  1  0.48404000  0.00709000  0.17055000  1.0
  H  H45  1  0.01595000  0.50709000  0.32945000  1.0
  H  H46  1  0.51595000  0.99291000  0.82945000  1.0
  H  H47  1  0.98405000  0.49291000  0.67055000  1.0
  H  H48  1  0.58573000  0.90017000  0.14050000  1.0
  H  H49  1  0.91427000  0.40017000  0.35950000  1.0
  H  H50  1  0.41427000  0.09983000  0.85950000  1.0
  H  H51  1  0.08573000  0.59983000  0.64050000  1.0
  H  H52  1  0.39733000  0.64115000  0.07650000  1.0
  H  H53  1  0.10267000  0.14115000  0.42350000  1.0
  H  H54  1  0.60267000  0.35885000  0.92350000  1.0
  H  H55  1  0.89733000  0.85885000  0.57650000  1.0
  H  H56  1  0.58562000  0.63771000  0.06513000  1.0
  H  H57  1  0.91438000  0.13771000  0.43487000  1.0
  H  H58  1  0.41438000  0.36229000  0.93487000  1.0
  H  H59  1  0.08562000  0.86229000  0.56513000  1.0
  H  H60  1  0.68197000  0.73555000  0.24016000  1.0
  H  H61  1  0.81803000  0.23555000  0.25984000  1.0
  H  H62  1  0.31803000  0.26445000  0.75984000  1.0
  H  H63  1  0.18197000  0.76445000  0.74016000  1.0
  H  H64  1  0.49934000  0.73645000  0.26065000  1.0
  H  H65  1  0.00066000  0.23645000  0.23935000  1.0
  H  H66  1  0.50066000  0.26355000  0.73935000  1.0
  H  H67  1  0.99934000  0.76355000  0.76065000  1.0
  H  H68  1  0.20620000  0.81614000  0.38546000  1.0
  H  H69  1  0.29380000  0.31614000  0.11454000  1.0
  H  H70  1  0.79380000  0.18386000  0.61454000  1.0
  H  H71  1  0.70620000  0.68386000  0.88546000  1.0
  H  H72  1  0.29882000  0.83344000  0.49833000  1.0
  H  H73  1  0.20118000  0.33344000  0.00167000  1.0
  H  H74  1  0.70118000  0.16656000  0.50167000  1.0
  H  H75  1  0.79882000  0.66656000  0.99833000  1.0
  H  H76  1  0.12280000  0.67344000  0.56193000  1.0
  H  H77  1  0.37720000  0.17344000  0.93807000  1.0
  H  H78  1  0.87720000  0.32656000  0.43807000  1.0
  H  H79  1  0.62280000  0.82656000  0.06193000  1.0
  H  H80  1  0.02939000  0.64411000  0.45051000  1.0
  H  H81  1  0.47061000  0.14411000  0.04949000  1.0
  H  H82  1  0.97061000  0.35589000  0.54949000  1.0
  H  H83  1  0.52939000  0.85589000  0.95051000  1.0
  H  H84  1  0.17583000  0.41944000  0.31274000  1.0
  H  H85  1  0.32417000  0.91944000  0.18726000  1.0
  H  H86  1  0.82417000  0.58056000  0.68726000  1.0
  H  H87  1  0.67583000  0.08056000  0.81274000  1.0
  H  H88  1  0.31229000  0.32126000  0.34033000  1.0
  H  H89  1  0.18771000  0.82126000  0.15967000  1.0
  H  H90  1  0.68771000  0.67874000  0.65967000  1.0
  H  H91  1  0.81229000  0.17874000  0.84033000  1.0
  H  H92  1  0.49471000  0.41389000  0.22481000  1.0
  H  H93  1  0.00529000  0.91389000  0.27519000  1.0
  H  H94  1  0.50529000  0.58611000  0.77519000  1.0
  H  H95  1  0.99471000  0.08611000  0.72481000  1.0
  H  H96  1  0.36614000  0.51557000  0.19274000  1.0
  H  H97  1  0.13386000  0.01557000  0.30726000  1.0
  H  H98  1  0.63386000  0.48443000  0.80726000  1.0
  H  H99  1  0.86614000  0.98443000  0.69274000  1.0
  H  H100  1  0.73037000  0.54986000  0.99543000  1.0
  H  H101  1  0.76963000  0.04986000  0.50457000  1.0
  H  H102  1  0.26963000  0.45014000  0.00457000  1.0
  H  H103  1  0.23037000  0.95014000  0.49543000  1.0
  H  H104  1  0.73964000  0.45760000  0.91022000  1.0
  H  H105  1  0.76036000  0.95760000  0.58978000  1.0
  H  H106  1  0.26036000  0.54240000  0.08978000  1.0
  H  H107  1  0.23964000  0.04240000  0.41022000  1.0
  H  H108  1  0.00926000  0.36716000  0.01349000  1.0
  H  H109  1  0.49074000  0.86716000  0.48651000  1.0
  H  H110  1  0.99074000  0.63284000  0.98651000  1.0
  H  H111  1  0.50926000  0.13284000  0.51349000  1.0
  H  H112  1  0.01637000  0.45948000  0.10137000  1.0
  H  H113  1  0.48363000  0.95948000  0.39863000  1.0
  H  H114  1  0.98363000  0.54052000  0.89863000  1.0
  H  H115  1  0.51637000  0.04052000  0.60137000  1.0
  H  H116  1  0.85013000  0.70642000  0.25016000  1.0
  H  H117  1  0.64987000  0.20642000  0.24984000  1.0
  H  H118  1  0.14987000  0.29358000  0.74984000  1.0
  H  H119  1  0.35013000  0.79358000  0.75016000  1.0
  H  H120  1  0.16032000  0.70039000  0.22682000  1.0
  H  H121  1  0.33968000  0.20039000  0.27318000  1.0
  H  H122  1  0.83967000  0.29961000  0.77318000  1.0
  H  H123  1  0.66033000  0.79961000  0.72682000  1.0
  C  C124  1  0.93938000  0.82433000  0.01511000  1.0
  C  C125  1  0.56062000  0.32433000  0.48489000  1.0
  C  C126  1  0.06062000  0.17567000  0.98489000  1.0
  C  C127  1  0.43938000  0.67567000  0.51511000  1.0
  C  C128  1  0.96517000  0.81077000  0.95590000  1.0
  C  C129  1  0.53483000  0.31077000  0.54410000  1.0
  C  C130  1  0.03483000  0.18923000  0.04410000  1.0
  C  C131  1  0.46517000  0.68923000  0.45590000  1.0
  C  C132  1  0.93123000  0.85814000  0.90540000  1.0
  C  C133  1  0.56877000  0.35814000  0.59460000  1.0
  C  C134  1  0.06877000  0.14186000  0.09460000  1.0
  C  C135  1  0.43123000  0.64186000  0.40540000  1.0
  C  C136  1  0.87438000  0.92067000  0.91427000  1.0
  C  C137  1  0.62562000  0.42067000  0.58573000  1.0
  C  C138  1  0.12562000  0.07933000  0.08573000  1.0
  C  C139  1  0.37438000  0.57933000  0.41427000  1.0
  C  C140  1  0.85111000  0.93544000  0.97365000  1.0
  C  C141  1  0.64889000  0.43544000  0.52635000  1.0
  C  C142  1  0.14890000  0.06456000  0.02636000  1.0
  C  C143  1  0.35110000  0.56456000  0.47365000  1.0
  C  C144  1  0.88211000  0.88698000  0.02374000  1.0
  C  C145  1  0.61789000  0.38698000  0.47626000  1.0
  C  C146  1  0.11790000  0.11302000  0.97626000  1.0
  C  C147  1  0.38211000  0.61302000  0.52374000  1.0
  C  C148  1  0.78526000  0.86237000  0.19488000  1.0
  C  C149  1  0.71474000  0.36237000  0.30512000  1.0
  C  C150  1  0.21474000  0.13763000  0.80512000  1.0
  C  C151  1  0.28526000  0.63763000  0.69488000  1.0
  C  C152  1  0.72415000  0.92762000  0.20937000  1.0
  C  C153  1  0.77585000  0.42762000  0.29063000  1.0
  C  C154  1  0.27585000  0.07238000  0.79063000  1.0
  C  C155  1  0.22415000  0.57238000  0.70937000  1.0
  C  C156  1  0.76692000  0.97793000  0.25612000  1.0
  C  C157  1  0.73308000  0.47793000  0.24388000  1.0
  C  C158  1  0.23308000  0.02207000  0.74388000  1.0
  C  C159  1  0.26692000  0.52207000  0.75612000  1.0
  C  C160  1  0.70505000  0.03485000  0.27026000  1.0
  C  C161  1  0.79494000  0.53485000  0.22974000  1.0
  C  C162  1  0.29495000  0.96515000  0.72974000  1.0
  C  C163  1  0.20505000  0.46515000  0.77026000  1.0
  C  C164  1  0.56465000  0.99673000  0.19362000  1.0
  C  C165  1  0.93535000  0.49673000  0.30638000  1.0
  C  C166  1  0.43535000  0.00327000  0.80638000  1.0
  C  C167  1  0.06465000  0.50327000  0.69362000  1.0
  C  C168  1  0.62127000  0.93826000  0.17725000  1.0
  C  C169  1  0.87873000  0.43826000  0.32275000  1.0
  C  C170  1  0.37873000  0.06174000  0.82275000  1.0
  C  C171  1  0.12127000  0.56174000  0.67725000  1.0
  C  C172  1  0.32135000  0.69513000  0.17760000  1.0
  C  C173  1  0.17865000  0.19513000  0.32240000  1.0
  C  C174  1  0.67865000  0.30487000  0.82240000  1.0
  C  C175  1  0.82135000  0.80487000  0.67760000  1.0
  C  C176  1  0.43396000  0.69013000  0.16937000  1.0
  C  C177  1  0.06604000  0.19013000  0.33063000  1.0
  C  C178  1  0.56604000  0.30987000  0.83063000  1.0
  C  C179  1  0.93396000  0.80987000  0.66937000  1.0
  C  C180  1  0.45930000  0.66097000  0.11422000  1.0
  C  C181  1  0.04070000  0.16097000  0.38579000  1.0
  C  C182  1  0.54070000  0.33903000  0.88579000  1.0
  C  C183  1  0.95930000  0.83903000  0.61422000  1.0
  C  C184  1  0.56301000  0.65969000  0.10752000  1.0
  C  C185  1  0.93699000  0.15969000  0.39248000  1.0
  C  C186  1  0.43699000  0.34031000  0.89248000  1.0
  C  C187  1  0.06301000  0.84031000  0.60752000  1.0
  C  C188  1  0.61719000  0.71350000  0.20545000  1.0
  C  C189  1  0.88281000  0.21350000  0.29455000  1.0
  C  C190  1  0.38281000  0.28650000  0.79455000  1.0
  C  C191  1  0.11719000  0.78650000  0.70545000  1.0
  C  C192  1  0.51599000  0.71489000  0.21654000  1.0
  C  C193  1  0.98401000  0.21489000  0.28346000  1.0
  C  C194  1  0.48401000  0.28511000  0.78346000  1.0
  C  C195  1  0.01599000  0.78511000  0.71654000  1.0
  C  C196  1  0.05280000  0.71810000  0.34262000  1.0
  C  C197  1  0.44720000  0.21810000  0.15738000  1.0
  C  C198  1  0.94720000  0.28190000  0.65738000  1.0
  C  C199  1  0.55280000  0.78190000  0.84262000  1.0
  C  C200  1  0.10897000  0.72965000  0.40980000  1.0
  C  C201  1  0.39103000  0.22965000  0.09020000  1.0
  C  C202  1  0.89103000  0.27035000  0.59020000  1.0
  C  C203  1  0.60897000  0.77035000  0.90980000  1.0
  C  C204  1  0.18627000  0.78320000  0.42347000  1.0
  C  C205  1  0.31372000  0.28320000  0.07653000  1.0
  C  C206  1  0.81372000  0.21680000  0.57653000  1.0
  C  C207  1  0.68628000  0.71680000  0.92347000  1.0
  C  C208  1  0.23696000  0.79327000  0.48581000  1.0
  C  C209  1  0.26304000  0.29327000  0.01419000  1.0
  C  C210  1  0.76304000  0.20673000  0.51419000  1.0
  C  C211  1  0.73696000  0.70673000  0.98581000  1.0
  C  C212  1  0.13835000  0.70343000  0.52116000  1.0
  C  C213  1  0.36165000  0.20343000  0.97884000  1.0
  C  C214  1  0.86165000  0.29657000  0.47884000  1.0
  C  C215  1  0.63835000  0.79657000  0.02116000  1.0
  C  C216  1  0.08685000  0.68786000  0.45975000  1.0
  C  C217  1  0.41315000  0.18786000  0.04025000  1.0
  C  C218  1  0.91315000  0.31214000  0.54025000  1.0
  C  C219  1  0.58685000  0.81214000  0.95975000  1.0
  C  C220  1  0.17996000  0.53257000  0.22617000  1.0
  C  C221  1  0.32004000  0.03257000  0.27383000  1.0
  C  C222  1  0.82004000  0.46743000  0.77383000  1.0
  C  C223  1  0.67996000  0.96743000  0.72617000  1.0
  C  C224  1  0.26016000  0.47462000  0.24957000  1.0
  C  C225  1  0.23984000  0.97462000  0.25043000  1.0
  C  C226  1  0.73984000  0.52538000  0.75043000  1.0
  C  C227  1  0.76016000  0.02538000  0.74957000  1.0
  C  C228  1  0.24604000  0.42016000  0.29263000  1.0
  C  C229  1  0.25396000  0.92016000  0.20737000  1.0
  C  C230  1  0.75396000  0.57984000  0.70737000  1.0
  C  C231  1  0.74604000  0.07984000  0.79263000  1.0
  C  C232  1  0.32159000  0.36581000  0.30827000  1.0
  C  C233  1  0.17841000  0.86581000  0.19173000  1.0
  C  C234  1  0.67841000  0.63419000  0.69173000  1.0
  C  C235  1  0.82159000  0.13419000  0.80827000  1.0
  C  C236  1  0.42332000  0.41774000  0.24330000  1.0
  C  C237  1  0.07668000  0.91774000  0.25670000  1.0
  C  C238  1  0.57668000  0.58226000  0.75670000  1.0
  C  C239  1  0.92332000  0.08226000  0.74330000  1.0
  C  C240  1  0.35195000  0.47334000  0.22556000  1.0
  C  C241  1  0.14804000  0.97334000  0.27444000  1.0
  C  C242  1  0.64805000  0.52666000  0.77444000  1.0
  C  C243  1  0.85196000  0.02666000  0.72556000  1.0
  C  C244  1  0.88239000  0.57557000  0.10001000  1.0
  C  C245  1  0.61761000  0.07557000  0.39999000  1.0
  C  C246  1  0.11761000  0.42443000  0.89999000  1.0
  C  C247  1  0.38239000  0.92443000  0.60000000  1.0
  C  C248  1  0.87514000  0.51324000  0.05407000  1.0
  C  C249  1  0.62486000  0.01324000  0.44593000  1.0
  C  C250  1  0.12486000  0.48676000  0.94593000  1.0
  C  C251  1  0.37514000  0.98676000  0.55407000  1.0
  C  C252  1  0.79389000  0.51046000  0.00091000  1.0
  C  C253  1  0.70611000  0.01046000  0.49909000  1.0
  C  C254  1  0.20611000  0.48954000  0.99909000  1.0
  C  C255  1  0.29389000  0.98954000  0.50091000  1.0
  C  C256  1  0.79786000  0.45924000  0.95395000  1.0
  C  C257  1  0.70214000  0.95924000  0.54605000  1.0
  C  C258  1  0.20214000  0.54076000  0.04605000  1.0
  C  C259  1  0.29786000  0.04076000  0.45395000  1.0
  C  C260  1  0.94993000  0.40942000  0.01139000  1.0
  C  C261  1  0.55007000  0.90942000  0.48861000  1.0
  C  C262  1  0.05007000  0.59058000  0.98861000  1.0
  C  C263  1  0.44993000  0.09058000  0.51139000  1.0
  C  C264  1  0.95264000  0.45955000  0.06022000  1.0
  C  C265  1  0.54736000  0.95955000  0.43978000  1.0
  C  C266  1  0.04736000  0.54045000  0.93978000  1.0
  C  C267  1  0.45264000  0.04045000  0.56022000  1.0
  C  C268  1  0.97104000  0.77171000  0.06836000  1.0
  C  C269  1  0.52896000  0.27171000  0.43164000  1.0
  C  C270  1  0.02896000  0.22829000  0.93164000  1.0
  C  C271  1  0.47104000  0.72830000  0.56836000  1.0
  N  N272  1  0.60498000  0.04354000  0.24038000  1.0
  N  N273  1  0.89502000  0.54355000  0.25962000  1.0
  N  N274  1  0.39502000  0.95646000  0.75962000  1.0
  N  N275  1  0.10498000  0.45646000  0.74038000  1.0
  N  N276  1  0.64112000  0.68746000  0.15154000  1.0
  N  N277  1  0.85888000  0.18746000  0.34846000  1.0
  N  N278  1  0.35888000  0.31254000  0.84846000  1.0
  N  N279  1  0.14112000  0.81254000  0.65154000  1.0
  N  N280  1  0.21189000  0.75574000  0.53453000  1.0
  N  N281  1  0.28811000  0.25574000  0.96547000  1.0
  N  N282  1  0.78811000  0.24426000  0.46547000  1.0
  N  N283  1  0.71189000  0.74426000  0.03453000  1.0
  N  N284  1  0.40864000  0.36405000  0.28363000  1.0
  N  N285  1  0.09136000  0.86405000  0.21637000  1.0
  N  N286  1  0.59136000  0.63595000  0.71637000  1.0
  N  N287  1  0.90864000  0.13595000  0.78363000  1.0
  N  N288  1  0.87647000  0.41089000  0.95778000  1.0
  N  N289  1  0.62353000  0.91089000  0.54222000  1.0
  N  N290  1  0.12353000  0.58911000  0.04222000  1.0
  N  N291  1  0.37647000  0.08911000  0.45778000  1.0
  O  O292  1  0.87827000  0.69792000  0.21226000  1.0
  O  O293  1  0.62173000  0.19792000  0.28774000  1.0
  O  O294  1  0.12173000  0.30208000  0.78774000  1.0
  O  O295  1  0.37827000  0.80208000  0.71226000  1.0
  O  O296  1  0.08716000  0.69480000  0.20343000  1.0
  O  O297  1  0.41284000  0.19480000  0.29656000  1.0
  O  O298  1  0.91284000  0.30520000  0.79657000  1.0
  O  O299  1  0.58716000  0.80520000  0.70344000  1.0
  O  O300  1  0.73693000  0.82023000  0.15189000  1.0
  O  O301  1  0.76307000  0.32023000  0.34811000  1.0
  O  O302  1  0.26307000  0.17977000  0.84811000  1.0
  O  O303  1  0.23693000  0.67977000  0.65189000  1.0
  O  O304  1  0.87649000  0.85420000  0.22709000  1.0
  O  O305  1  0.62351000  0.35420000  0.27291000  1.0
  O  O306  1  0.12351000  0.14580000  0.77291000  1.0
  O  O307  1  0.37649000  0.64580000  0.72709000  1.0
  O  O308  1  0.30382000  0.70444000  0.23232000  1.0
  O  O309  1  0.19618000  0.20443000  0.26768000  1.0
  O  O310  1  0.69618000  0.29556000  0.76768000  1.0
  O  O311  1  0.80382000  0.79556000  0.73232000  1.0
  O  O312  1  0.25451000  0.68930000  0.12530000  1.0
  O  O313  1  0.24549000  0.18930000  0.37470000  1.0
  O  O314  1  0.74549000  0.31070000  0.87471000  1.0
  O  O315  1  0.75451000  0.81070000  0.62530000  1.0
  O  O316  1  0.03875000  0.77526000  0.30870000  1.0
  O  O317  1  0.46125000  0.27526000  0.19130000  1.0
  O  O318  1  0.96125000  0.22474000  0.69130000  1.0
  O  O319  1  0.53875000  0.72474000  0.80870000  1.0
  O  O320  1  0.02593000  0.65300000  0.32691000  1.0
  O  O321  1  0.47407000  0.15299000  0.17309000  1.0
  O  O322  1  0.97407000  0.34701000  0.67309000  1.0
  O  O323  1  0.52593000  0.84701000  0.82691000  1.0
  O  O324  1  0.11153000  0.54531000  0.25899000  1.0
  O  O325  1  0.38847000  0.04531000  0.24101000  1.0
  O  O326  1  0.88847000  0.45469000  0.74101000  1.0
  O  O327  1  0.61153000  0.95469000  0.75899000  1.0
  O  O328  1  0.18938000  0.56249000  0.17440000  1.0
  O  O329  1  0.31062000  0.06249000  0.32560000  1.0
  O  O330  1  0.81062000  0.43751000  0.82560000  1.0
  O  O331  1  0.68938000  0.93751000  0.67440000  1.0
  O  O332  1  0.80248000  0.61617000  0.09510000  1.0
  O  O333  1  0.69753000  0.11617000  0.40490000  1.0
  O  O334  1  0.19753000  0.38383000  0.90490000  1.0
  O  O335  1  0.30248000  0.88383000  0.59510000  1.0
  O  O336  1  0.96925000  0.58360000  0.13886000  1.0
  O  O337  1  0.53075000  0.08360000  0.36114000  1.0
  O  O338  1  0.03075000  0.41640000  0.86114000  1.0
  O  O339  1  0.46925000  0.91640000  0.63886000  1.0
  O  O340  1  0.92452000  0.77692000  0.11578000  1.0
  O  O341  1  0.57548000  0.27692000  0.38422000  1.0
  O  O342  1  0.07548000  0.22308000  0.88422000  1.0
  O  O343  1  0.42452000  0.72308000  0.61578000  1.0
  O  O344  1  0.04052000  0.72513000  0.06335000  1.0
  O  O345  1  0.45948000  0.22513000  0.43665000  1.0
  O  O346  1  0.95948000  0.27487000  0.93665000  1.0
  O  O347  1  0.54052000  0.77487000  0.56335000  1.0
