# generated using pymatgen
data_Cd2H12C16SO13
_symmetry_space_group_name_H-M   'P 1'
_cell_length_a   7.32559000
_cell_length_b   10.64065406
_cell_length_c   13.59280000
_cell_angle_alpha   102.58743022
_cell_angle_beta   99.74130000
_cell_angle_gamma   108.47881508
_symmetry_Int_Tables_number   1
_chemical_formula_structural   Cd2H12C16SO13
_chemical_formula_sum   'Cd4 H24 C32 S2 O26'
_cell_volume   947.71291400
_cell_formula_units_Z   2
loop_
 _symmetry_equiv_pos_site_id
 _symmetry_equiv_pos_as_xyz
  1  'x, y, z'
loop_
 _atom_site_type_symbol
 _atom_site_label
 _atom_site_symmetry_multiplicity
 _atom_site_fract_x
 _atom_site_fract_y
 _atom_site_fract_z
 _atom_site_occupancy
  Cd  Cd0  1  0.90260000  0.91456000  0.85713000  1.0
  Cd  Cd1  1  0.09739000  0.08544000  0.14287000  1.0
  Cd  Cd2  1  0.17101000  0.92385000  0.59659000  1.0
  Cd  Cd3  1  0.82898000  0.07614000  0.40341000  1.0
  H  H4  1  0.08836000  0.87434000  0.38380000  1.0
  H  H5  1  0.91163000  0.12566000  0.61620000  1.0
  H  H6  1  0.27616000  0.01419000  0.43487000  1.0
  H  H7  1  0.72384000  0.98581000  0.56513000  1.0
  H  H8  1  0.62405000  0.05968000  0.82782000  1.0
  H  H9  1  0.37595000  0.94032000  0.17218000  1.0
  H  H10  1  0.83637000  0.15352000  0.82194000  1.0
  H  H11  1  0.16363000  0.84648000  0.17807000  1.0
  H  H12  1  0.22489000  0.82239000  0.89996000  1.0
  H  H13  1  0.77511000  0.17761000  0.10004000  1.0
  H  H14  1  0.16350000  0.84609000  0.00779000  1.0
  H  H15  1  0.83650000  0.15391000  0.99221000  1.0
  H  H16  1  0.90804000  0.58947000  0.91275000  1.0
  H  H17  1  0.09197000  0.41054000  0.08726000  1.0
  H  H18  1  0.86066000  0.60031000  0.09234000  1.0
  H  H19  1  0.13934000  0.39970000  0.90766000  1.0
  H  H20  1  0.60093000  0.40240000  0.11910000  1.0
  H  H21  1  0.39908000  0.59761000  0.88089000  1.0
  H  H22  1  0.08644000  0.40010000  0.45957000  1.0
  H  H23  1  0.91356000  0.59990000  0.54043000  1.0
  H  H24  1  0.20931000  0.53757000  0.64651000  1.0
  H  H25  1  0.79070000  0.46243000  0.35348000  1.0
  H  H26  1  0.50407000  0.52287000  0.75693000  1.0
  H  H27  1  0.49593000  0.47713000  0.24307000  1.0
  C  C28  1  0.67439000  0.38897000  0.84306000  1.0
  C  C29  1  0.32561000  0.61103000  0.15694000  1.0
  C  C30  1  0.79321000  0.50556000  0.92649000  1.0
  C  C31  1  0.20679000  0.49444000  0.07351000  1.0
  C  C32  1  0.76731000  0.51074000  0.02644000  1.0
  C  C33  1  0.23269000  0.48926000  0.97356000  1.0
  C  C34  1  0.62154000  0.40124000  0.04156000  1.0
  C  C35  1  0.37846000  0.59876000  0.95844000  1.0
  C  C36  1  0.49417000  0.28803000  0.95706000  1.0
  C  C37  1  0.50582000  0.71197000  0.04294000  1.0
  C  C38  1  0.52105000  0.27901000  0.85602000  1.0
  C  C39  1  0.47896000  0.72099000  0.14398000  1.0
  C  C40  1  0.54696000  0.38075000  0.63197000  1.0
  C  C41  1  0.45304000  0.61925000  0.36803000  1.0
  C  C42  1  0.48491000  0.30545000  0.52599000  1.0
  C  C43  1  0.51510000  0.69455000  0.47402000  1.0
  C  C44  1  0.31384000  0.31210000  0.46507000  1.0
  C  C45  1  0.68616000  0.68789000  0.53493000  1.0
  C  C46  1  0.21569000  0.39487000  0.50872000  1.0
  C  C47  1  0.78430000  0.60513000  0.49128000  1.0
  C  C48  1  0.28434000  0.47203000  0.61324000  1.0
  C  C49  1  0.71566000  0.52797000  0.38676000  1.0
  C  C50  1  0.44953000  0.46398000  0.67485000  1.0
  C  C51  1  0.55046000  0.53601000  0.32515000  1.0
  C  C52  1  0.32220000  0.18080000  0.97554000  1.0
  C  C53  1  0.67781000  0.81921000  0.02446000  1.0
  C  C54  1  0.39385000  0.14959000  0.76813000  1.0
  C  C55  1  0.60617000  0.85042000  0.23188000  1.0
  C  C56  1  0.59052000  0.21774000  0.47726000  1.0
  C  C57  1  0.40948000  0.78226000  0.52274000  1.0
  C  C58  1  0.23478000  0.23452000  0.35165000  1.0
  C  C59  1  0.76522000  0.76548000  0.64834000  1.0
  S  S60  1  0.75085000  0.37751000  0.72334000  1.0
  S  S61  1  0.24917000  0.62251000  0.27666000  1.0
  O  O62  1  0.41276000  0.03561000  0.77389000  1.0
  O  O63  1  0.58723000  0.96439000  0.22610000  1.0
  O  O64  1  0.27800000  0.15777000  0.69171000  1.0
  O  O65  1  0.72201000  0.84223000  0.30829000  1.0
  O  O66  1  0.16678000  0.11957000  0.90028000  1.0
  O  O67  1  0.83323000  0.88043000  0.09972000  1.0
  O  O68  1  0.34483000  0.16457000  0.06615000  1.0
  O  O69  1  0.65515000  0.83543000  0.93385000  1.0
  O  O70  1  0.49422000  0.08896000  0.43461000  1.0
  O  O71  1  0.50578000  0.91104000  0.56538000  1.0
  O  O72  1  0.77311000  0.27625000  0.48107000  1.0
  O  O73  1  0.22688000  0.72374000  0.51893000  1.0
  O  O74  1  0.34981000  0.23348000  0.29266000  1.0
  O  O75  1  0.65019000  0.76652000  0.70734000  1.0
  O  O76  1  0.04384000  0.16985000  0.31435000  1.0
  O  O77  1  0.95615000  0.83014000  0.68565000  1.0
  O  O78  1  0.77200000  0.24287000  0.69661000  1.0
  O  O79  1  0.22801000  0.75713000  0.30340000  1.0
  O  O80  1  0.92310000  0.50129000  0.73944000  1.0
  O  O81  1  0.07690000  0.49871000  0.26056000  1.0
  O  O82  1  0.13222000  0.96398000  0.43673000  1.0
  O  O83  1  0.86778000  0.03602000  0.56327000  1.0
  O  O84  1  0.77473000  0.09249000  0.86126000  1.0
  O  O85  1  0.22527000  0.90751000  0.13874000  1.0
  O  O86  1  0.11101000  0.81343000  0.92979000  1.0
  O  O87  1  0.88899000  0.18657000  0.07021000  1.0
