# generated using pymatgen
data_Zn3H28(C10O3)4
_symmetry_space_group_name_H-M   'P 1'
_cell_length_a   21.95170000
_cell_length_b   21.96030000
_cell_length_c   22.18680000
_cell_angle_alpha   60.55170000
_cell_angle_beta   60.81650000
_cell_angle_gamma   89.92500000
_symmetry_Int_Tables_number   1
_chemical_formula_structural   Zn3H28(C10O3)4
_chemical_formula_sum   'Zn6 H56 C80 O24'
_cell_volume   7721.20403706
_cell_formula_units_Z   2
loop_
 _symmetry_equiv_pos_site_id
 _symmetry_equiv_pos_as_xyz
  1  'x, y, z'
loop_
 _atom_site_type_symbol
 _atom_site_label
 _atom_site_symmetry_multiplicity
 _atom_site_fract_x
 _atom_site_fract_y
 _atom_site_fract_z
 _atom_site_occupancy
  Zn  Zn0  1  0.94204000  0.50237000  0.49886000  1.0
  Zn  Zn1  1  0.05796000  0.49763000  0.50113000  1.0
  Zn  Zn2  1  0.50205000  0.05782000  0.50126000  1.0
  Zn  Zn3  1  0.49795000  0.94219000  0.49873000  1.0
  Zn  Zn4  1  0.95764000  0.95803000  0.57974000  1.0
  Zn  Zn5  1  0.04235000  0.04197000  0.42027000  1.0
  H  H6  1  0.08936000  0.04800000  0.71142000  1.0
  H  H7  1  0.35991000  0.72649000  0.92507000  1.0
  H  H8  1  0.70031000  0.11431000  0.07212000  1.0
  H  H9  1  0.30028000  0.88563000  0.92782000  1.0
  H  H10  1  0.12885000  0.69939000  0.36814000  1.0
  H  H11  1  0.87115000  0.30061000  0.63186000  1.0
  H  H12  1  0.24261000  0.80403000  0.26415000  1.0
  H  H13  1  0.75739000  0.19597000  0.73586000  1.0
  H  H14  1  0.25170000  0.91387000  0.27102000  1.0
  H  H15  1  0.74829000  0.08613000  0.72900000  1.0
  H  H16  1  0.14384000  0.92076000  0.37687000  1.0
  H  H17  1  0.91063000  0.95201000  0.28858000  1.0
  H  H18  1  0.85615000  0.07924000  0.62314000  1.0
  H  H19  1  0.08178000  0.03317000  0.61208000  1.0
  H  H20  1  0.91821000  0.96684000  0.38792000  1.0
  H  H21  1  0.89908000  0.75580000  0.60629000  1.0
  H  H22  1  0.10090000  0.24419000  0.39371000  1.0
  H  H23  1  0.23962000  0.98685000  0.40559000  1.0
  H  H24  1  0.76036000  0.01316000  0.59441000  1.0
  H  H25  1  0.34949000  0.97687000  0.41322000  1.0
  H  H26  1  0.65049000  0.02312000  0.58678000  1.0
  H  H27  1  0.30018000  0.01230000  0.62809000  1.0
  H  H28  1  0.77603000  0.18826000  0.92611000  1.0
  H  H29  1  0.69981000  0.98770000  0.37191000  1.0
  H  H30  1  0.19724000  0.03353000  0.72261000  1.0
  H  H31  1  0.80275000  0.96647000  0.27739000  1.0
  H  H32  1  0.78123000  0.38319000  0.92818000  1.0
  H  H33  1  0.21817000  0.61680000  0.07182000  1.0
  H  H34  1  0.87587000  0.24014000  0.92795000  1.0
  H  H35  1  0.12438000  0.76040000  0.07201000  1.0
  H  H36  1  0.88087000  0.32076000  0.92711000  1.0
  H  H37  1  0.11896000  0.67976000  0.07290000  1.0
  H  H38  1  0.80598000  0.25331000  0.07112000  1.0
  H  H39  1  0.22457000  0.81172000  0.07384000  1.0
  H  H40  1  0.19384000  0.74719000  0.92887000  1.0
  H  H41  1  0.70803000  0.23106000  0.92506000  1.0
  H  H42  1  0.29234000  0.76854000  0.07489000  1.0
  H  H43  1  0.88247000  0.57324000  0.65709000  1.0
  H  H44  1  0.83469000  0.63454000  0.67414000  1.0
  H  H45  1  0.84313000  0.61679000  0.60062000  1.0
  H  H46  1  0.11753000  0.42675000  0.34291000  1.0
  H  H47  1  0.15686000  0.38320000  0.39938000  1.0
  H  H48  1  0.16530000  0.36545000  0.32586000  1.0
  H  H49  1  0.71228000  0.30907000  0.07404000  1.0
  H  H50  1  0.63484000  0.16043000  0.07088000  1.0
  H  H51  1  0.28720000  0.69090000  0.92599000  1.0
  H  H52  1  0.80768000  0.11778000  0.06267000  1.0
  H  H53  1  0.87472000  0.16532000  0.06040000  1.0
  H  H54  1  0.78379000  0.11765000  0.15196000  1.0
  H  H55  1  0.19294000  0.88267000  0.93732000  1.0
  H  H56  1  0.21656000  0.88295000  0.84801000  1.0
  H  H57  1  0.12562000  0.83553000  0.93959000  1.0
  H  H58  1  0.36551000  0.83915000  0.92907000  1.0
  H  H59  1  0.70990000  0.34480000  0.92900000  1.0
  H  H60  1  0.28971000  0.65471000  0.07106000  1.0
  H  H61  1  0.63975000  0.27307000  0.07496000  1.0
  C  C62  1  0.99985000  0.61892000  0.49795000  1.0
  C  C63  1  0.28738000  0.79305000  0.91824000  1.0
  C  C64  1  0.69338000  0.16911000  0.04718000  1.0
  C  C65  1  0.30698000  0.83072000  0.95277000  1.0
  C  C66  1  0.74185000  0.21731000  0.95065000  1.0
  C  C67  1  0.25852000  0.78255000  0.04929000  1.0
  C  C68  1  0.66678000  0.16182000  0.17227000  1.0
  C  C69  1  0.33325000  0.83817000  0.82772000  1.0
  C  C70  1  0.83726000  0.33550000  0.82802000  1.0
  C  C71  1  0.16275000  0.66455000  0.17196000  1.0
  C  C72  1  0.87420000  0.37421000  0.75214000  1.0
  C  C73  1  0.00017000  0.38107000  0.50206000  1.0
  C  C74  1  0.12579000  0.62581000  0.24786000  1.0
  C  C75  1  0.13138000  0.74768000  0.37040000  1.0
  C  C76  1  0.86862000  0.25232000  0.62961000  1.0
  C  C77  1  0.91916000  0.41962000  0.66238000  1.0
  C  C78  1  0.08081000  0.58038000  0.33762000  1.0
  C  C79  1  0.19540000  0.80624000  0.31235000  1.0
  C  C80  1  0.80460000  0.19375000  0.68767000  1.0
  C  C81  1  0.20029000  0.86843000  0.31582000  1.0
  C  C82  1  0.79970000  0.13156000  0.68420000  1.0
  C  C83  1  0.14021000  0.87227000  0.37533000  1.0
  C  C84  1  0.62702000  0.12474000  0.24808000  1.0
  C  C85  1  0.85978000  0.12773000  0.62469000  1.0
  C  C86  1  0.07265000  0.81367000  0.43507000  1.0
  C  C87  1  0.92734000  0.18632000  0.56494000  1.0
  C  C88  1  0.06897000  0.74864000  0.43440000  1.0
  C  C89  1  0.93103000  0.25135000  0.56561000  1.0
  C  C90  1  0.00285000  0.68748000  0.49701000  1.0
  C  C91  1  0.99716000  0.31251000  0.50301000  1.0
  C  C92  1  0.94162000  0.68912000  0.55887000  1.0
  C  C93  1  0.05837000  0.31087000  0.44114000  1.0
  C  C94  1  0.94634000  0.75350000  0.55825000  1.0
  C  C95  1  0.37298000  0.87528000  0.75191000  1.0
  C  C96  1  0.05365000  0.24649000  0.44175000  1.0
  C  C97  1  0.00864000  0.81462000  0.49830000  1.0
  C  C98  1  0.99135000  0.18537000  0.50171000  1.0
  C  C99  1  0.30458000  0.98774000  0.45392000  1.0
  C  C100  1  0.69540000  0.01225000  0.54609000  1.0
  C  C101  1  0.12968000  0.02855000  0.61516000  1.0
  C  C102  1  0.87031000  0.97146000  0.38484000  1.0
  C  C103  1  0.30980000  0.99729000  0.50866000  1.0
  C  C104  1  0.69019000  0.00270000  0.49134000  1.0
  C  C105  1  0.37967000  0.99619000  0.50471000  1.0
  C  C106  1  0.79300000  0.28964000  0.91855000  1.0
  C  C107  1  0.62032000  0.00381000  0.49529000  1.0
  C  C108  1  0.58042000  0.07945000  0.33779000  1.0
  C  C109  1  0.41957000  0.92056000  0.66220000  1.0
  C  C110  1  0.11932000  0.00567000  0.49772000  1.0
  C  C111  1  0.88066000  0.99433000  0.50228000  1.0
  C  C112  1  0.00433000  0.88082000  0.50179000  1.0
  C  C113  1  0.99565000  0.11917000  0.49822000  1.0
  C  C114  1  0.18704000  0.01382000  0.56149000  1.0
  C  C115  1  0.81295000  0.98619000  0.43852000  1.0
  C  C116  1  0.25256000  0.01649000  0.62440000  1.0
  C  C117  1  0.20702000  0.71040000  0.08145000  1.0
  C  C118  1  0.74742000  0.98351000  0.37560000  1.0
  C  C119  1  0.19506000  0.02886000  0.67690000  1.0
  C  C120  1  0.80493000  0.97114000  0.32310000  1.0
  C  C121  1  0.13380000  0.03628000  0.67119000  1.0
  C  C122  1  0.86620000  0.96373000  0.32881000  1.0
  C  C123  1  0.24280000  0.99304000  0.44990000  1.0
  C  C124  1  0.75719000  0.00696000  0.55010000  1.0
  C  C125  1  0.18466000  0.00500000  0.50285000  1.0
  C  C126  1  0.81532000  0.99500000  0.49715000  1.0
  C  C127  1  0.25117000  0.00998000  0.56437000  1.0
  C  C128  1  0.69868000  0.28248000  0.04930000  1.0
  C  C129  1  0.74882000  0.99003000  0.43563000  1.0
  C  C130  1  0.74508000  0.33096000  0.95282000  1.0
  C  C131  1  0.25456000  0.66887000  0.04722000  1.0
  C  C132  1  0.84242000  0.26979000  0.95219000  1.0
  C  C133  1  0.15761000  0.73062000  0.04780000  1.0
  C  C134  1  0.79585000  0.22159000  0.04913000  1.0
  C  C135  1  0.20421000  0.77880000  0.95085000  1.0
  C  C136  1  0.87175000  0.62508000  0.62636000  1.0
  C  C137  1  0.12824000  0.37491000  0.37364000  1.0
  C  C138  1  0.81629000  0.15139000  0.08339000  1.0
  C  C139  1  0.30101000  0.71736000  0.95073000  1.0
  C  C140  1  0.18407000  0.84920000  0.91659000  1.0
  C  C141  1  0.71266000  0.20694000  0.08174000  1.0
  O  O142  1  0.94812000  0.59519000  0.49607000  1.0
  O  O143  1  0.95113000  0.41122000  0.49844000  1.0
  O  O144  1  0.88550000  0.43940000  0.62543000  1.0
  O  O145  1  0.11447000  0.56059000  0.37458000  1.0
  O  O146  1  0.98870000  0.43610000  0.62746000  1.0
  O  O147  1  0.01127000  0.56389000  0.37253000  1.0
  O  O148  1  0.40901000  0.04684000  0.50423000  1.0
  O  O149  1  0.59099000  0.95316000  0.49576000  1.0
  O  O150  1  0.40593000  0.94557000  0.49988000  1.0
  O  O151  1  0.59405000  0.05442000  0.50013000  1.0
  O  O152  1  0.56311000  0.11252000  0.37504000  1.0
  O  O153  1  0.05190000  0.40480000  0.50393000  1.0
  O  O154  1  0.43689000  0.88750000  0.62495000  1.0
  O  O155  1  0.56071000  0.00977000  0.37232000  1.0
  O  O156  1  0.43927000  0.99025000  0.62768000  1.0
  O  O157  1  0.05592000  0.96923000  0.56634000  1.0
  O  O158  1  0.94407000  0.03077000  0.43367000  1.0
  O  O159  1  0.13203000  0.04128000  0.42451000  1.0
  O  O160  1  0.86796000  0.95872000  0.57549000  1.0
  O  O161  1  0.96448000  0.86950000  0.57407000  1.0
  O  O162  1  0.03551000  0.13049000  0.42594000  1.0
  O  O163  1  0.03889000  0.94424000  0.43242000  1.0
  O  O164  1  0.96110000  0.05576000  0.56759000  1.0
  O  O165  1  0.04888000  0.58878000  0.50157000  1.0
