# generated using pymatgen
data_VH14C8Cl2O5
_symmetry_space_group_name_H-M   'P 1'
_cell_length_a   8.70953000
_cell_length_b   9.69070000
_cell_length_c   15.23200000
_cell_angle_alpha   89.99980000
_cell_angle_beta   94.85870000
_cell_angle_gamma   89.99990000
_symmetry_Int_Tables_number   1
_chemical_formula_structural   VH14C8Cl2O5
_chemical_formula_sum   'V4 H56 C32 Cl8 O20'
_cell_volume   1280.98309503
_cell_formula_units_Z   4
loop_
 _symmetry_equiv_pos_site_id
 _symmetry_equiv_pos_as_xyz
  1  'x, y, z'
loop_
 _atom_site_type_symbol
 _atom_site_label
 _atom_site_symmetry_multiplicity
 _atom_site_fract_x
 _atom_site_fract_y
 _atom_site_fract_z
 _atom_site_occupancy
  V  V0  1  0.57036000  0.54975000  0.75404000  1.0
  V  V1  1  0.92964000  0.04975000  0.24596000  1.0
  V  V2  1  0.42964000  0.45025000  0.24595000  1.0
  V  V3  1  0.07035000  0.95027000  0.75404000  1.0
  H  H4  1  0.18006000  0.41119000  0.72447000  1.0
  H  H5  1  0.31994000  0.91119000  0.27553000  1.0
  H  H6  1  0.81995000  0.58881000  0.27553000  1.0
  H  H7  1  0.68006000  0.08881000  0.72447000  1.0
  H  H8  1  0.17468000  0.58355000  0.68746000  1.0
  H  H9  1  0.32531000  0.08355000  0.31255000  1.0
  H  H10  1  0.82533000  0.41644000  0.31253000  1.0
  H  H11  1  0.67468000  0.91644000  0.68746000  1.0
  H  H12  1  0.94238000  0.45181000  0.80602000  1.0
  H  H13  1  0.55761000  0.95180000  0.19399000  1.0
  H  H14  1  0.05762000  0.54819000  0.19398000  1.0
  H  H15  1  0.44238000  0.04819000  0.80602000  1.0
  H  H16  1  0.93509000  0.62394000  0.77178000  1.0
  H  H17  1  0.56490000  0.12394000  0.22822000  1.0
  H  H18  1  0.06492000  0.37607000  0.22822000  1.0
  H  H19  1  0.43509000  0.87606000  0.77178000  1.0
  H  H20  1  0.33556000  0.70470000  0.95254000  1.0
  H  H21  1  0.16443000  0.20469000  0.04746000  1.0
  H  H22  1  0.66444000  0.29529000  0.04746000  1.0
  H  H23  1  0.83556000  0.79529000  0.95255000  1.0
  H  H24  1  0.31780000  0.54045000  0.00451000  1.0
  H  H25  1  0.18220000  0.04044000  0.99549000  1.0
  H  H26  1  0.68220000  0.45954000  0.99548000  1.0
  H  H27  1  0.81780000  0.95955000  0.00452000  1.0
  H  H28  1  0.05115000  0.61240000  0.04539000  1.0
  H  H29  1  0.44886000  0.11239000  0.95462000  1.0
  H  H30  1  0.94885000  0.38760000  0.95461000  1.0
  H  H31  1  0.55115000  0.88760000  0.04539000  1.0
  H  H32  1  0.08037000  0.77741000  0.99737000  1.0
  H  H33  1  0.41963000  0.27740000  0.00264000  1.0
  H  H34  1  0.91964000  0.22259000  0.00263000  1.0
  H  H35  1  0.58037000  0.72259000  0.99737000  1.0
  H  H36  1  0.19824000  0.72346000  0.09240000  1.0
  H  H37  1  0.30177000  0.22345000  0.90761000  1.0
  H  H38  1  0.80176000  0.27654000  0.90760000  1.0
  H  H39  1  0.69824000  0.77654000  0.09240000  1.0
  H  H40  1  0.92002000  0.37367000  0.47834000  1.0
  H  H41  1  0.57999000  0.87368000  0.52166000  1.0
  H  H42  1  0.07997000  0.62632000  0.52166000  1.0
  H  H43  1  0.42003000  0.12632000  0.47834000  1.0
  H  H44  1  0.74371000  0.43395000  0.51753000  1.0
  H  H45  1  0.75630000  0.93395000  0.48248000  1.0
  H  H46  1  0.25629000  0.56605000  0.48247000  1.0
  H  H47  1  0.24372000  0.06605000  0.51752000  1.0
  H  H48  1  0.72317000  0.21659000  0.60464000  1.0
  H  H49  1  0.77682000  0.71659000  0.39536000  1.0
  H  H50  1  0.27682000  0.78341000  0.39536000  1.0
  H  H51  1  0.22318000  0.28341000  0.60464000  1.0
  H  H52  1  0.90343000  0.15784000  0.56986000  1.0
  H  H53  1  0.59657000  0.65785000  0.43014000  1.0
  H  H54  1  0.09657000  0.84215000  0.43013000  1.0
  H  H55  1  0.40343000  0.34215000  0.56986000  1.0
  H  H56  1  0.74117000  0.17707000  0.49181000  1.0
  H  H57  1  0.75883000  0.67707000  0.50820000  1.0
  H  H58  1  0.25882000  0.82293000  0.50819000  1.0
  H  H59  1  0.24118000  0.32292000  0.49181000  1.0
  C  C60  1  0.24169000  0.55895000  0.82162000  1.0
  C  C61  1  0.25831000  0.05895000  0.17839000  1.0
  C  C62  1  0.75832000  0.44105000  0.17838000  1.0
  C  C63  1  0.74169000  0.94105000  0.82162000  1.0
  C  C64  1  0.14330000  0.51599000  0.74109000  1.0
  C  C65  1  0.35670000  0.01599000  0.25891000  1.0
  C  C66  1  0.85671000  0.48401000  0.25891000  1.0
  C  C67  1  0.64330000  0.98401000  0.74109000  1.0
  C  C68  1  0.97166000  0.52076000  0.75252000  1.0
  C  C69  1  0.52834000  0.02076000  0.24748000  1.0
  C  C70  1  0.02835000  0.47924000  0.24747000  1.0
  C  C71  1  0.47166000  0.97924000  0.75253000  1.0
  C  C72  1  0.86888000  0.47850000  0.67377000  1.0
  C  C73  1  0.63111000  0.97851000  0.32623000  1.0
  C  C74  1  0.13112000  0.52149000  0.32622000  1.0
  C  C75  1  0.36888000  0.02150000  0.67377000  1.0
  C  C76  1  0.25386000  0.62757000  0.97300000  1.0
  C  C77  1  0.24613000  0.12757000  0.02700000  1.0
  C  C78  1  0.74614000  0.37242000  0.02700000  1.0
  C  C79  1  0.75386000  0.87243000  0.97300000  1.0
  C  C80  1  0.13834000  0.68853000  0.03010000  1.0
  C  C81  1  0.36166000  0.18853000  0.96990000  1.0
  C  C82  1  0.86165000  0.31146000  0.96989000  1.0
  C  C83  1  0.63834000  0.81146000  0.03011000  1.0
  C  C84  1  0.84468000  0.36789000  0.53220000  1.0
  C  C85  1  0.65533000  0.86789000  0.46781000  1.0
  C  C86  1  0.15532000  0.63210000  0.46780000  1.0
  C  C87  1  0.34468000  0.13210000  0.53220000  1.0
  C  C88  1  0.80095000  0.22087000  0.55172000  1.0
  C  C89  1  0.69905000  0.72088000  0.44828000  1.0
  C  C90  1  0.19904000  0.77912000  0.44828000  1.0
  C  C91  1  0.30096000  0.27912000  0.55172000  1.0
  Cl  Cl92  1  0.45441000  0.67255000  0.63873000  1.0
  Cl  Cl93  1  0.04558000  0.17258000  0.36127000  1.0
  Cl  Cl94  1  0.54559000  0.32745000  0.36127000  1.0
  Cl  Cl95  1  0.95441000  0.82745000  0.63873000  1.0
  Cl  Cl96  1  0.54733000  0.32190000  0.78772000  1.0
  Cl  Cl97  1  0.95266000  0.82192000  0.21228000  1.0
  Cl  Cl98  1  0.45266000  0.67809000  0.21228000  1.0
  Cl  Cl99  1  0.04733000  0.17811000  0.78772000  1.0
  O  O100  1  0.68459000  0.63687000  0.82070000  1.0
  O  O101  1  0.81539000  0.13689000  0.17930000  1.0
  O  O102  1  0.31541000  0.36313000  0.17930000  1.0
  O  O103  1  0.18459000  0.86314000  0.82069000  1.0
  O  O104  1  0.38345000  0.57847000  0.82378000  1.0
  O  O105  1  0.11654000  0.07848000  0.17622000  1.0
  O  O106  1  0.61655000  0.42154000  0.17621000  1.0
  O  O107  1  0.88346000  0.92154000  0.82378000  1.0
  O  O108  1  0.16726000  0.57491000  0.89299000  1.0
  O  O109  1  0.33274000  0.07490000  0.10701000  1.0
  O  O110  1  0.83275000  0.42509000  0.10701000  1.0
  O  O111  1  0.66726000  0.92509000  0.89299000  1.0
  O  O112  1  0.72515000  0.48782000  0.66923000  1.0
  O  O113  1  0.77485000  0.98784000  0.33078000  1.0
  O  O114  1  0.27486000  0.51217000  0.33077000  1.0
  O  O115  1  0.22515000  0.01218000  0.66922000  1.0
  O  O116  1  0.93965000  0.42698000  0.60773000  1.0
  O  O117  1  0.56035000  0.92699000  0.39227000  1.0
  O  O118  1  0.06035000  0.57302000  0.39226000  1.0
  O  O119  1  0.43966000  0.07302000  0.60773000  1.0
