# generated using pymatgen
data_AlH5C13NCl3O5
_symmetry_space_group_name_H-M   'P 1'
_cell_length_a   6.60495000
_cell_length_b   11.07670000
_cell_length_c   16.92330000
_cell_angle_alpha   83.84880000
_cell_angle_beta   82.80920000
_cell_angle_gamma   73.73720000
_symmetry_Int_Tables_number   1
_chemical_formula_structural   AlH5C13NCl3O5
_chemical_formula_sum   'Al2 H10 C26 N2 Cl6 O10'
_cell_volume   1175.85362313
_cell_formula_units_Z   2
loop_
 _symmetry_equiv_pos_site_id
 _symmetry_equiv_pos_as_xyz
  1  'x, y, z'
loop_
 _atom_site_type_symbol
 _atom_site_label
 _atom_site_symmetry_multiplicity
 _atom_site_fract_x
 _atom_site_fract_y
 _atom_site_fract_z
 _atom_site_occupancy
  Al  Al0  1  0.49179000  0.50568000  0.49736000  1.0
  Al  Al1  1  0.99212000  0.50359000  0.49926000  1.0
  H  H2  1  0.18229000  0.65850000  0.45149000  1.0
  H  H3  1  0.74168000  0.43266000  0.59443000  1.0
  H  H4  1  0.91386000  0.41193000  0.74243000  1.0
  H  H5  1  0.86704000  0.39673000  0.89180000  1.0
  H  H6  1  0.39600000  0.55243000  0.89203000  1.0
  H  H7  1  0.56943000  0.56417000  0.09726000  1.0
  H  H8  1  0.23187000  0.39485000  0.12276000  1.0
  H  H9  1  0.15555000  0.41271000  0.27054000  1.0
  H  H10  1  0.83135000  0.76894000  0.61335000  1.0
  H  H11  1  0.63141000  0.23790000  0.59066000  1.0
  C  C12  1  0.62193000  0.73188000  0.50389000  1.0
  C  C13  1  0.79676000  0.50551000  0.35605000  1.0
  C  C14  1  0.36076000  0.28155000  0.48988000  1.0
  C  C15  1  0.19567000  0.49415000  0.64371000  1.0
  C  C16  1  0.17981000  0.48956000  0.73265000  1.0
  C  C17  1  0.01906000  0.44192000  0.77602000  1.0
  C  C18  1  0.99184000  0.43371000  0.85868000  1.0
  C  C19  1  0.12800000  0.47514000  0.90031000  1.0
  C  C20  1  0.29251000  0.52025000  0.85873000  1.0
  C  C21  1  0.31743000  0.52844000  0.77549000  1.0
  C  C22  1  0.69746000  0.53077000  0.13574000  1.0
  C  C23  1  0.90426000  0.48035000  0.10146000  1.0
  C  C24  1  0.07196000  0.43579000  0.14985000  1.0
  C  C25  1  0.02893000  0.44555000  0.23148000  1.0
  C  C26  1  0.82300000  0.49913000  0.26757000  1.0
  C  C27  1  0.65621000  0.54228000  0.21787000  1.0
  C  C28  1  0.55512000  0.87332000  0.50115000  1.0
  C  C29  1  0.64137000  0.93752000  0.55158000  1.0
  C  C30  1  0.41254000  0.94136000  0.44820000  1.0
  C  C31  1  0.78452000  0.87154000  0.60748000  1.0
  C  C32  1  0.87012000  0.93520000  0.65440000  1.0
  C  C33  1  0.43017000  0.14017000  0.49240000  1.0
  C  C34  1  0.34754000  0.07565000  0.44445000  1.0
  C  C35  1  0.58094000  0.07268000  0.54609000  1.0
  C  C36  1  0.67108000  0.13563000  0.59514000  1.0
  C  C37  1  0.81405000  0.06932000  0.64743000  1.0
  N  N38  1  0.10994000  0.47661000  0.98444000  1.0
  N  N39  1  0.92577000  0.47971000  0.01738000  1.0
  Cl  Cl40  1  0.51417000  0.59423000  0.72885000  1.0
  Cl  Cl41  1  0.39647000  0.61319000  0.25167000  1.0
  Cl  Cl42  1  0.17287000  0.15647000  0.37730000  1.0
  Cl  Cl43  1  0.32104000  0.86587000  0.38204000  1.0
  Cl  Cl44  1  0.04580000  0.85128000  0.72050000  1.0
  Cl  Cl45  1  0.92481000  0.15060000  0.70365000  1.0
  O  O46  1  0.47549000  0.67668000  0.51861000  1.0
  O  O47  1  0.96509000  0.48473000  0.39069000  1.0
  O  O48  1  0.16555000  0.33297000  0.50781000  1.0
  O  O49  1  0.38029000  0.47078000  0.60633000  1.0
  O  O50  1  0.50505000  0.33825000  0.47323000  1.0
  O  O51  1  0.02245000  0.51747000  0.61166000  1.0
  O  O52  1  0.81953000  0.67915000  0.49086000  1.0
  O  O53  1  0.61047000  0.53113000  0.39162000  1.0
  O  O54  1  0.22093000  0.56847000  0.46646000  1.0
  O  O55  1  0.75613000  0.44698000  0.53660000  1.0
