# generated using pymatgen
data_CuHC3NO2
_symmetry_space_group_name_H-M   'P 1'
_cell_length_a   7.92723000
_cell_length_b   10.84630000
_cell_length_c   10.84680000
_cell_angle_alpha   71.39950000
_cell_angle_beta   78.91800000
_cell_angle_gamma   78.91810000
_symmetry_Int_Tables_number   1
_chemical_formula_structural   CuHC3NO2
_chemical_formula_sum   'Cu8 H8 C24 N8 O16'
_cell_volume   858.78912434
_cell_formula_units_Z   8
loop_
 _symmetry_equiv_pos_site_id
 _symmetry_equiv_pos_as_xyz
  1  'x, y, z'
loop_
 _atom_site_type_symbol
 _atom_site_label
 _atom_site_symmetry_multiplicity
 _atom_site_fract_x
 _atom_site_fract_y
 _atom_site_fract_z
 _atom_site_occupancy
  Cu  Cu0  1  0.28563000  0.47279000  0.09815000  1.0
  Cu  Cu1  1  0.21438000  0.90185000  0.52721000  1.0
  Cu  Cu2  1  0.71436000  0.52721000  0.90185000  1.0
  Cu  Cu3  1  0.78562000  0.09816000  0.47279000  1.0
  Cu  Cu4  1  0.74998000  0.69855000  0.30146000  1.0
  Cu  Cu5  1  0.25001000  0.30146000  0.69854000  1.0
  Cu  Cu6  1  0.75001000  0.49577000  0.50423000  1.0
  Cu  Cu7  1  0.24999000  0.50423000  0.49577000  1.0
  H  H8  1  0.50164000  0.20736000  0.12640000  1.0
  H  H9  1  0.99839000  0.87361000  0.79263000  1.0
  H  H10  1  0.49838000  0.79265000  0.87361000  1.0
  H  H11  1  0.00160000  0.12639000  0.20736000  1.0
  H  H12  1  0.49049000  0.98995000  0.30638000  1.0
  H  H13  1  0.00953000  0.69363000  0.01004000  1.0
  H  H14  1  0.50952000  0.01005000  0.69363000  1.0
  H  H15  1  0.99046000  0.30637000  0.98995000  1.0
  C  C16  1  0.41024000  0.19729000  0.21693000  1.0
  C  C17  1  0.08978000  0.78307000  0.80270000  1.0
  C  C18  1  0.58977000  0.80271000  0.78308000  1.0
  C  C19  1  0.91021000  0.21693000  0.19730000  1.0
  C  C20  1  0.40521000  0.07912000  0.31576000  1.0
  C  C21  1  0.09481000  0.68424000  0.92087000  1.0
  C  C22  1  0.59481000  0.92087000  0.68424000  1.0
  C  C23  1  0.90518000  0.31575000  0.07913000  1.0
  C  C24  1  0.18481000  0.17839000  0.44240000  1.0
  C  C25  1  0.31520000  0.55758000  0.82162000  1.0
  C  C26  1  0.81517000  0.82162000  0.55760000  1.0
  C  C27  1  0.68480000  0.44242000  0.17838000  1.0
  C  C28  1  0.18332000  0.29539000  0.33963000  1.0
  C  C29  1  0.31668000  0.66034000  0.70461000  1.0
  C  C30  1  0.81669000  0.70461000  0.66035000  1.0
  C  C31  1  0.68332000  0.33966000  0.29539000  1.0
  C  C32  1  0.04916000  0.41275000  0.34375000  1.0
  C  C33  1  0.45087000  0.65623000  0.58726000  1.0
  C  C34  1  0.95084000  0.58725000  0.65625000  1.0
  C  C35  1  0.54914000  0.34376000  0.41274000  1.0
  C  C36  1  0.07219000  0.16011000  0.57549000  1.0
  C  C37  1  0.42781000  0.42449000  0.83989000  1.0
  C  C38  1  0.92781000  0.83989000  0.42451000  1.0
  C  C39  1  0.57218000  0.57551000  0.16011000  1.0
  N  N40  1  0.29614000  0.30517000  0.22664000  1.0
  N  N41  1  0.20387000  0.77335000  0.69484000  1.0
  N  N42  1  0.70385000  0.69484000  0.77337000  1.0
  N  N43  1  0.79612000  0.22664000  0.30517000  1.0
  N  N44  1  0.29026000  0.06795000  0.42724000  1.0
  N  N45  1  0.20976000  0.57275000  0.93205000  1.0
  N  N46  1  0.70975000  0.93205000  0.57276000  1.0
  N  N47  1  0.79024000  0.42725000  0.06795000  1.0
  O  O48  1  0.04969000  0.51487000  0.24820000  1.0
  O  O49  1  0.45033000  0.75177000  0.48514000  1.0
  O  O50  1  0.95033000  0.48513000  0.75179000  1.0
  O  O51  1  0.54967000  0.24823000  0.51486000  1.0
  O  O52  1  0.93825000  0.39063000  0.44929000  1.0
  O  O53  1  0.56177000  0.55069000  0.60937000  1.0
  O  O54  1  0.06174000  0.60936000  0.55071000  1.0
  O  O55  1  0.43824000  0.44931000  0.39063000  1.0
  O  O56  1  0.94594000  0.09566000  0.59919000  1.0
  O  O57  1  0.55405000  0.40080000  0.90435000  1.0
  O  O58  1  0.05406000  0.90434000  0.40081000  1.0
  O  O59  1  0.44594000  0.59920000  0.09565000  1.0
  O  O60  1  0.11927000  0.19530000  0.66274000  1.0
  O  O61  1  0.38073000  0.33723000  0.80471000  1.0
  O  O62  1  0.88071000  0.80471000  0.33725000  1.0
  O  O63  1  0.61928000  0.66277000  0.19529000  1.0
