# generated using pymatgen
data_CoH10C17N3O4
_symmetry_space_group_name_H-M   'P 1'
_cell_length_a   11.69660000
_cell_length_b   14.70930000
_cell_length_c   14.80600000
_cell_angle_alpha   95.56090000
_cell_angle_beta   108.02900000
_cell_angle_gamma   107.54200000
_symmetry_Int_Tables_number   1
_chemical_formula_structural   CoH10C17N3O4
_chemical_formula_sum   'Co4 H40 C68 N12 O16'
_cell_volume   2258.25009755
_cell_formula_units_Z   4
loop_
 _symmetry_equiv_pos_site_id
 _symmetry_equiv_pos_as_xyz
  1  'x, y, z'
loop_
 _atom_site_type_symbol
 _atom_site_label
 _atom_site_symmetry_multiplicity
 _atom_site_fract_x
 _atom_site_fract_y
 _atom_site_fract_z
 _atom_site_occupancy
  Co  Co0  1  0.38911000  0.56053000  0.80991000  1.0
  Co  Co1  1  0.61074000  0.18972000  0.43800000  1.0
  Co  Co2  1  0.61112000  0.43652000  0.18862000  1.0
  Co  Co3  1  0.38900000  0.80812000  0.56350000  1.0
  H  H4  1  0.47257000  0.86605000  0.39238000  1.0
  H  H5  1  0.52587000  0.60622000  0.12934000  1.0
  H  H6  1  0.52517000  0.13058000  0.60555000  1.0
  H  H7  1  0.48047000  0.39804000  0.87509000  1.0
  H  H8  1  0.38490000  0.80717000  0.21288000  1.0
  H  H9  1  0.61060000  0.78654000  0.19065000  1.0
  H  H10  1  0.60938000  0.19141000  0.78524000  1.0
  H  H11  1  0.39476000  0.21939000  0.81195000  1.0
  H  H12  1  0.03959000  0.61855000  0.24071000  1.0
  H  H13  1  0.95538000  0.75819000  0.38264000  1.0
  H  H14  1  0.95525000  0.38140000  0.75967000  1.0
  H  H15  1  0.05084000  0.25067000  0.62215000  1.0
  H  H16  1  0.14544000  0.68196000  0.42144000  1.0
  H  H17  1  0.85242000  0.57641000  0.31692000  1.0
  H  H18  1  0.85228000  0.31672000  0.57831000  1.0
  H  H19  1  0.15470000  0.43059000  0.68793000  1.0
  H  H20  1  0.32715000  0.66125000  0.09299000  1.0
  H  H21  1  0.66840000  0.90900000  0.33818000  1.0
  H  H22  1  0.66712000  0.33738000  0.90819000  1.0
  H  H23  1  0.33558000  0.09484000  0.66553000  1.0
  H  H24  1  0.99658000  0.56527000  0.83087000  1.0
  H  H25  1  0.00353000  0.16667000  0.43447000  1.0
  H  H26  1  0.00318000  0.43308000  0.16551000  1.0
  H  H27  1  0.99924000  0.83796000  0.56855000  1.0
  H  H28  1  0.55859000  0.50143000  0.71777000  1.0
  H  H29  1  0.43307000  0.27610000  0.49324000  1.0
  H  H30  1  0.43401000  0.49226000  0.27465000  1.0
  H  H31  1  0.57170000  0.72575000  0.50967000  1.0
  H  H32  1  0.78885000  0.52005000  0.77588000  1.0
  H  H33  1  0.20337000  0.21808000  0.47643000  1.0
  H  H34  1  0.20398000  0.47621000  0.21679000  1.0
  H  H35  1  0.80025000  0.78618000  0.52526000  1.0
  H  H36  1  0.82516000  0.66857000  0.05538000  1.0
  H  H37  1  0.16641000  0.93650000  0.32909000  1.0
  H  H38  1  0.16515000  0.32783000  0.93638000  1.0
  H  H39  1  0.83286000  0.06666000  0.67171000  1.0
  H  H40  1  0.59091000  0.64356000  0.98471000  1.0
  H  H41  1  0.40047000  0.00817000  0.35076000  1.0
  H  H42  1  0.39931000  0.34892000  0.00769000  1.0
  H  H43  1  0.59990000  0.99278000  0.65114000  1.0
  C  C44  1  0.37780000  0.80985000  0.35633000  1.0
  C  C45  1  0.61939000  0.64233000  0.18706000  1.0
  C  C46  1  0.61870000  0.18799000  0.64220000  1.0
  C  C47  1  0.38749000  0.36338000  0.81680000  1.0
  C  C48  1  0.32831000  0.77662000  0.25615000  1.0
  C  C49  1  0.66688000  0.74255000  0.22153000  1.0
  C  C50  1  0.66586000  0.22219000  0.74200000  1.0
  C  C51  1  0.33843000  0.26331000  0.78097000  1.0
  C  C52  1  0.20464000  0.70645000  0.21177000  1.0
  C  C53  1  0.78923000  0.78613000  0.29336000  1.0
  C  C54  1  0.78836000  0.29354000  0.78615000  1.0
  C  C55  1  0.21573000  0.21942000  0.70923000  1.0
  C  C56  1  0.13615000  0.67284000  0.27192000  1.0
  C  C57  1  0.85926000  0.72633000  0.32763000  1.0
  C  C58  1  0.85871000  0.32728000  0.72725000  1.0
  C  C59  1  0.14726000  0.28089000  0.67694000  1.0
  C  C60  1  0.19356000  0.70789000  0.37167000  1.0
  C  C61  1  0.80382000  0.62663000  0.29136000  1.0
  C  C62  1  0.80347000  0.29144000  0.62785000  1.0
  C  C63  1  0.20331000  0.38051000  0.71352000  1.0
  C  C64  1  0.14891000  0.66747000  0.10560000  1.0
  C  C65  1  0.84505000  0.89206000  0.33254000  1.0
  C  C66  1  0.84410000  0.33244000  0.89168000  1.0
  C  C67  1  0.15877000  0.11317000  0.66954000  1.0
  C  C68  1  0.22603000  0.64898000  0.05566000  1.0
  C  C69  1  0.76990000  0.94438000  0.35111000  1.0
  C  C70  1  0.76883000  0.35044000  0.94362000  1.0
  C  C71  1  0.23371000  0.05975000  0.65186000  1.0
  C  C72  1  0.17088000  0.60989000  0.95594000  1.0
  C  C73  1  0.82911000  0.04400000  0.39039000  1.0
  C  C74  1  0.82825000  0.38931000  0.04299000  1.0
  C  C75  1  0.17447000  0.95987000  0.61297000  1.0
  C  C76  1  0.04030000  0.59318000  0.90909000  1.0
  C  C77  1  0.95926000  0.08824000  0.40666000  1.0
  C  C78  1  0.95874000  0.40575000  0.08727000  1.0
  C  C79  1  0.04382000  0.91641000  0.59592000  1.0
  C  C80  1  0.96857000  0.61278000  0.96464000  1.0
  C  C81  1  0.02750000  0.03034000  0.38630000  1.0
  C  C82  1  0.02705000  0.38591000  0.02973000  1.0
  C  C83  1  0.97548000  0.97473000  0.61527000  1.0
  C  C84  1  0.62136000  0.53771000  0.79221000  1.0
  C  C85  1  0.37008000  0.20136000  0.45713000  1.0
  C  C86  1  0.37050000  0.45625000  0.20017000  1.0
  C  C87  1  0.63319000  0.80092000  0.54534000  1.0
  C  C88  1  0.75105000  0.54956000  0.82586000  1.0
  C  C89  1  0.24167000  0.16823000  0.44692000  1.0
  C  C90  1  0.24197000  0.44638000  0.16718000  1.0
  C  C91  1  0.76145000  0.83555000  0.55493000  1.0
  C  C92  1  0.82948000  0.59735000  0.92220000  1.0
  C  C93  1  0.16496000  0.07121000  0.40028000  1.0
  C  C94  1  0.16467000  0.39962000  0.07053000  1.0
  C  C95  1  0.83748000  0.93299000  0.60108000  1.0
  C  C96  1  0.76936000  0.63154000  0.97998000  1.0
  C  C97  1  0.22307000  0.01208000  0.36549000  1.0
  C  C98  1  0.22222000  0.36428000  0.01169000  1.0
  C  C99  1  0.77761000  0.99075000  0.63568000  1.0
  C  C100  1  0.63991000  0.61779000  0.94176000  1.0
  C  C101  1  0.35160000  0.05082000  0.37762000  1.0
  C  C102  1  0.35092000  0.37613000  0.05028000  1.0
  C  C103  1  0.64920000  0.95061000  0.62417000  1.0
  C  C104  1  0.25699000  0.58705000  0.90676000  1.0
  C  C105  1  0.75469000  0.10264000  0.41502000  1.0
  C  C106  1  0.75382000  0.41326000  0.10146000  1.0
  C  C107  1  0.24819000  0.89939000  0.58945000  1.0
  C  C108  1  0.42264000  0.72411000  0.73371000  1.0
  C  C109  1  0.57742000  0.26405000  0.26503000  1.0
  C  C110  1  0.37181000  0.64025000  0.64407000  1.0
  C  C111  1  0.62657000  0.35160000  0.35141000  1.0
  N  N112  1  0.31247000  0.77578000  0.41398000  1.0
  N  N113  1  0.68593000  0.58493000  0.22201000  1.0
  N  N114  1  0.68536000  0.22264000  0.58561000  1.0
  N  N115  1  0.32268000  0.42274000  0.78265000  1.0
  N  N116  1  0.02273000  0.64802000  0.06145000  1.0
  N  N117  1  0.97113000  0.93351000  0.35134000  1.0
  N  N118  1  0.97040000  0.35144000  0.93319000  1.0
  N  N119  1  0.03215000  0.07175000  0.64994000  1.0
  N  N120  1  0.56506000  0.57076000  0.84899000  1.0
  N  N121  1  0.42480000  0.14384000  0.42321000  1.0
  N  N122  1  0.42475000  0.42190000  0.14288000  1.0
  N  N123  1  0.57686000  0.85716000  0.57929000  1.0
  O  O124  1  0.21879000  0.56579000  0.81341000  1.0
  O  O125  1  0.80655000  0.19461000  0.44126000  1.0
  O  O126  1  0.80650000  0.43965000  0.19307000  1.0
  O  O127  1  0.19384000  0.80767000  0.56149000  1.0
  O  O128  1  0.36701000  0.58991000  0.95921000  1.0
  O  O129  1  0.63867000  0.05785000  0.40829000  1.0
  O  O130  1  0.63710000  0.40591000  0.05696000  1.0
  O  O131  1  0.36563000  0.94193000  0.59837000  1.0
  O  O132  1  0.44301000  0.70032000  0.81691000  1.0
  O  O133  1  0.55729000  0.18065000  0.28571000  1.0
  O  O134  1  0.55930000  0.28420000  0.18177000  1.0
  O  O135  1  0.44303000  0.80932000  0.71925000  1.0
  O  O136  1  0.35567000  0.55492000  0.65863000  1.0
  O  O137  1  0.64397000  0.33314000  0.43562000  1.0
  O  O138  1  0.64422000  0.43580000  0.33214000  1.0
  O  O139  1  0.35178000  0.66437000  0.56173000  1.0
