# generated using pymatgen
data_Zn4H33C53N16Cl5
_symmetry_space_group_name_H-M   'P 1'
_cell_length_a   15.78220000
_cell_length_b   15.86450000
_cell_length_c   17.68148574
_cell_angle_alpha   104.85351373
_cell_angle_beta   108.86104499
_cell_angle_gamma   110.02600000
_symmetry_Int_Tables_number   1
_chemical_formula_structural   Zn4H33C53N16Cl5
_chemical_formula_sum   'Zn4 H33 C53 N16 Cl5'
_cell_volume   3584.94475907
_cell_formula_units_Z   1
loop_
 _symmetry_equiv_pos_site_id
 _symmetry_equiv_pos_as_xyz
  1  'x, y, z'
loop_
 _atom_site_type_symbol
 _atom_site_label
 _atom_site_symmetry_multiplicity
 _atom_site_fract_x
 _atom_site_fract_y
 _atom_site_fract_z
 _atom_site_occupancy
  Zn  Zn0  1  0.37394000  0.37559000  0.49975000  1.0
  Zn  Zn1  1  0.62036000  0.62954000  0.49681000  1.0
  Zn  Zn2  1  0.37588000  0.50803000  0.38123000  1.0
  Zn  Zn3  1  0.62343000  0.50449000  0.62263000  1.0
  H  H4  1  0.85530000  0.70660000  0.52283000  1.0
  H  H5  1  0.36277000  0.35821000  0.20806000  1.0
  H  H6  1  0.68747000  0.50242000  0.37183000  1.0
  H  H7  1  0.35826000  0.20888000  0.34227000  1.0
  H  H8  1  0.86742000  0.54553000  0.68680000  1.0
  H  H9  1  0.31589000  0.25817000  0.62166000  1.0
  H  H10  1  0.32937000  0.66792000  0.48406000  1.0
  H  H11  1  0.61644000  0.81679000  0.61673000  1.0
  H  H12  1  0.63140000  0.45813000  0.80172000  1.0
  H  H13  1  0.33524000  0.68128000  0.31752000  1.0
  H  H14  1  0.83575000  0.93843000  0.03411000  1.0
  H  H15  1  0.83795000  0.09930000  0.96550000  1.0
  H  H16  1  0.04279000  0.01294000  0.41502000  1.0
  H  H17  1  0.16038000  0.09893000  0.50729000  1.0
  H  H18  1  0.04668000  0.09663000  0.50629000  1.0
  H  H19  1  0.13780000  0.23884000  0.47594000  1.0
  H  H20  1  0.02012000  0.15404000  0.38463000  1.0
  H  H21  1  0.10297000  0.07973000  0.31031000  1.0
  H  H22  1  0.22131000  0.15542000  0.40416000  1.0
  H  H23  1  0.87020000  0.99634000  0.49434000  1.0
  H  H24  1  0.89604000  0.90463000  0.52130000  1.0
  H  H25  1  0.88999000  0.91345000  0.42176000  1.0
  H  H26  1  0.72981000  0.77218000  0.39083000  1.0
  H  H27  1  0.70462000  0.86353000  0.36431000  1.0
  H  H28  1  0.70259000  0.93079000  0.50809000  1.0
  H  H29  1  0.73132000  0.84167000  0.53708000  1.0
  H  H30  1  0.78329000  0.24713000  0.68911000  1.0
  H  H31  1  0.77885000  0.35063000  0.75304000  1.0
  H  H32  1  0.70689000  0.23177000  0.74453000  1.0
  H  H33  1  0.59450000  0.27969000  0.64909000  1.0
  H  H34  1  0.59727000  0.17669000  0.58469000  1.0
  H  H35  1  0.71547000  0.27960000  0.54336000  1.0
  H  H36  1  0.73088000  0.38879000  0.61765000  1.0
  C  C37  1  0.16872000  0.23044000  0.33221000  1.0
  C  C38  1  0.84121000  0.66432000  0.56096000  1.0
  C  C39  1  0.43961000  0.40105000  0.26056000  1.0
  C  C40  1  0.58676000  0.30553000  0.50568000  1.0
  C  C41  1  0.60614000  0.47498000  0.34420000  1.0
  C  C42  1  0.43263000  0.25105000  0.39836000  1.0
  C  C43  1  0.84710000  0.58184000  0.64479000  1.0
  C  C44  1  0.16713000  0.32444000  0.25842000  1.0
  C  C45  1  0.11017000  0.22951000  0.25161000  1.0
  C  C46  1  0.90461000  0.63289000  0.60940000  1.0
  C  C47  1  0.53074000  0.41041000  0.25757000  1.0
  C  C48  1  0.50658000  0.22131000  0.42934000  1.0
  C  C49  1  0.39539000  0.31154000  0.65389000  1.0
  C  C50  1  0.58264000  0.78453000  0.43536000  1.0
  C  C51  1  0.33079000  0.61634000  0.51405000  1.0
  C  C52  1  0.63860000  0.69320000  0.73850000  1.0
  C  C53  1  0.62015000  0.76694000  0.64834000  1.0
  C  C54  1  0.31441000  0.52267000  0.58727000  1.0
  C  C55  1  0.55682000  0.41456000  0.74608000  1.0
  C  C56  1  0.41465000  0.70434000  0.35666000  1.0
  C  C57  1  0.46879000  0.34304000  0.74013000  1.0
  C  C58  1  0.49891000  0.79707000  0.38962000  1.0
  C  C59  1  0.28921000  0.59585000  0.57081000  1.0
  C  C60  1  0.64911000  0.78519000  0.73754000  1.0
  C  C61  1  0.50169000  0.12804000  0.40152000  1.0
  C  C62  1  0.50181000  0.04828000  0.38969000  1.0
  C  C63  1  0.50078000  0.96140000  0.38346000  1.0
  C  C64  1  0.50002000  0.88374000  0.38368000  1.0
  C  C65  1  0.99868000  0.64338000  0.61535000  1.0
  C  C66  1  0.07697000  0.64570000  0.61455000  1.0
  C  C67  1  0.15744000  0.63962000  0.60744000  1.0
  C  C68  1  0.22493000  0.62659000  0.59477000  1.0
  C  C69  1  0.54073000  0.37523000  0.18141000  1.0
  C  C70  1  0.54310000  0.34035000  0.02987000  1.0
  C  C71  1  0.45846000  0.30040000  0.95094000  1.0
  C  C72  1  0.45954000  0.30509000  0.87373000  1.0
  C  C73  1  0.54209000  0.35290000  0.11036000  1.0
  C  C74  1  0.45975000  0.31738000  0.80823000  1.0
  C  C75  1  0.69282000  0.87290000  0.81194000  1.0
  C  C76  1  0.81468000  0.02498000  0.96314000  1.0
  C  C77  1  0.86071000  0.01306000  0.03697000  1.0
  C  C78  1  0.94277000  0.08951000  0.11459000  1.0
  C  C79  1  0.74453000  0.94486000  0.88257000  1.0
  C  C80  1  0.01978000  0.15356000  0.18056000  1.0
  C  C81  1  0.14866000  0.15252000  0.36603000  1.0
  C  C82  1  0.09525000  0.16315000  0.42428000  1.0
  C  C83  1  0.08565000  0.08903000  0.46553000  1.0
  C  C84  1  0.69261000  0.85544000  0.48085000  1.0
  C  C85  1  0.74288000  0.84860000  0.41959000  1.0
  C  C86  1  0.85588000  0.91949000  0.46674000  1.0
  C  C87  1  0.67635000  0.31109000  0.57395000  1.0
  C  C88  1  0.64386000  0.25569000  0.62793000  1.0
  C  C89  1  0.73316000  0.27210000  0.70785000  1.0
  N  N90  1  0.25147000  0.31872000  0.38086000  1.0
  N  N91  1  0.75406000  0.63400000  0.56707000  1.0
  N  N92  1  0.46065000  0.45717000  0.34158000  1.0
  N  N93  1  0.56082000  0.37850000  0.51602000  1.0
  N  N94  1  0.56246000  0.50263000  0.39307000  1.0
  N  N95  1  0.46565000  0.34533000  0.45179000  1.0
  N  N96  1  0.75746000  0.58241000  0.61894000  1.0
  N  N97  1  0.25081000  0.37724000  0.33526000  1.0
  N  N98  1  0.43669000  0.36045000  0.61279000  1.0
  N  N99  1  0.54886000  0.69166000  0.42934000  1.0
  N  N100  1  0.37417000  0.55878000  0.49761000  1.0
  N  N101  1  0.60751000  0.62743000  0.65763000  1.0
  N  N102  1  0.59696000  0.67348000  0.60230000  1.0
  N  N103  1  0.36481000  0.50113000  0.54308000  1.0
  N  N104  1  0.53705000  0.42463000  0.67039000  1.0
  N  N105  1  0.44517000  0.64208000  0.38080000  1.0
  Cl  Cl106  1  0.66524000  0.66634000  0.82775000  1.0
  Cl  Cl107  1  0.28382000  0.46407000  0.64984000  1.0
  Cl  Cl108  1  0.34024000  0.24802000  0.94798000  1.0
  Cl  Cl109  1  0.66125000  0.38894000  0.03190000  1.0
  Cl  Cl110  1  0.14252000  0.37276000  0.18323000  1.0
