# generated using pymatgen
data_Hf3H33C42S10N3O16
_symmetry_space_group_name_H-M   'P 1'
_cell_length_a   11.36370000
_cell_length_b   20.47620000
_cell_length_c   33.47620000
_cell_angle_alpha   89.66300000
_cell_angle_beta   98.58410000
_cell_angle_gamma   89.90530000
_symmetry_Int_Tables_number   1
_chemical_formula_structural   Hf3H33C42S10N3O16
_chemical_formula_sum   'Hf6 H66 C84 S20 N6 O32'
_cell_volume   7702.00596985
_cell_formula_units_Z   2
loop_
 _symmetry_equiv_pos_site_id
 _symmetry_equiv_pos_as_xyz
  1  'x, y, z'
loop_
 _atom_site_type_symbol
 _atom_site_label
 _atom_site_symmetry_multiplicity
 _atom_site_fract_x
 _atom_site_fract_y
 _atom_site_fract_z
 _atom_site_occupancy
  Hf  Hf0  1  0.02321000  0.08311000  0.04410000  1.0
  Hf  Hf1  1  0.96460000  0.88415000  0.96368000  1.0
  Hf  Hf2  1  0.16451000  0.93116000  0.04684000  1.0
  Hf  Hf3  1  0.82691000  0.03412000  0.96042000  1.0
  Hf  Hf4  1  0.13578000  0.02816000  0.95508000  1.0
  Hf  Hf5  1  0.85033000  0.93809000  0.04892000  1.0
  H  H6  1  0.99084000  0.13214000  0.95526000  1.0
  H  H7  1  0.21073000  0.89744000  0.96419000  1.0
  H  H8  1  0.72529000  0.91234000  0.96914000  1.0
  H  H9  1  0.03184000  0.98470000  0.10685000  1.0
  H  H10  1  0.34736000  0.97963000  0.00224000  1.0
  H  H11  1  0.14345000  0.82371000  0.09590000  1.0
  H  H12  1  0.86934000  0.83952000  0.10352000  1.0
  H  H13  1  0.11346000  0.08935000  0.88311000  1.0
  H  H14  1  0.70825000  0.08198000  0.88436000  1.0
  H  H15  1  0.59863000  0.06641000  0.97778000  1.0
  H  H16  1  0.60417000  0.92095000  0.03542000  1.0
  H  H17  1  0.18456000  0.97864000  0.88446000  1.0
  H  H18  1  0.95754000  0.82501000  0.89078000  1.0
  H  H19  1  0.99688000  0.11430000  0.12175000  1.0
  H  H20  1  0.72168000  0.02000000  0.08852000  1.0
  H  H21  1  0.72967000  0.13958000  0.91663000  1.0
  H  H22  1  0.05616000  0.78909000  0.92274000  1.0
  H  H23  1  0.39328000  0.95065000  0.06055000  1.0
  H  H24  1  0.35254000  0.98808000  0.95398000  1.0
  H  H25  1  0.63843000  0.99736000  0.00067000  1.0
  H  H26  1  0.03784000  0.87251000  0.10344000  1.0
  H  H27  1  0.85558000  0.05120000  0.09892000  1.0
  H  H28  1  0.70974000  0.48653000  0.00085000  1.0
  H  H29  1  0.27841000  0.47614000  0.00943000  1.0
  H  H30  1  0.23870000  0.03066000  0.50702000  1.0
  H  H31  1  0.80396000  0.00019000  0.49001000  1.0
  H  H32  1  0.85015000  0.98247000  0.70168000  1.0
  H  H33  1  0.85292000  0.89173000  0.49104000  1.0
  H  H34  1  0.66331000  0.87590000  0.58158000  1.0
  H  H35  1  0.00532000  0.02537000  0.60738000  1.0
  H  H36  1  0.39679000  0.81643000  0.65311000  1.0
  H  H37  1  0.09322000  0.10473000  0.56519000  1.0
  H  H38  1  0.36210000  0.04927000  0.65029000  1.0
  H  H39  1  0.16556000  0.87767000  0.55993000  1.0
  H  H40  1  0.18373000  0.04957000  0.29424000  1.0
  H  H41  1  0.18269000  0.14348000  0.50255000  1.0
  H  H42  1  0.37305000  0.15583000  0.41214000  1.0
  H  H43  1  0.02988000  0.00714000  0.38897000  1.0
  H  H44  1  0.58391000  0.20274000  0.35878000  1.0
  H  H45  1  0.96287000  0.92563000  0.42888000  1.0
  H  H46  1  0.67922000  0.97519000  0.34841000  1.0
  H  H47  1  0.86523000  0.15001000  0.43818000  1.0
  H  H48  1  0.82633000  0.18427000  0.08282000  1.0
  H  H49  1  0.64250000  0.44038000  0.93336000  1.0
  H  H50  1  0.74826000  0.25774000  0.94165000  1.0
  H  H51  1  0.62857000  0.34561000  0.06694000  1.0
  H  H52  1  0.35585000  0.54605000  0.93179000  1.0
  H  H53  1  0.30569000  0.76826000  0.09331000  1.0
  H  H54  1  0.36249000  0.59655000  0.07067000  1.0
  H  H55  1  0.21824000  0.72044000  0.94580000  1.0
  H  H56  1  0.69284000  0.80824000  0.06968000  1.0
  H  H57  1  0.56572000  0.57674000  0.91467000  1.0
  H  H58  1  0.77692000  0.70433000  0.94970000  1.0
  H  H59  1  0.56342000  0.63176000  0.05972000  1.0
  H  H60  1  0.27921000  0.15877000  0.93451000  1.0
  H  H61  1  0.39273000  0.42503000  0.07676000  1.0
  H  H62  1  0.22629000  0.25283000  0.06097000  1.0
  H  H63  1  0.41751000  0.33501000  0.94762000  1.0
  H  H64  1  0.81584000  0.86347000  0.71752000  1.0
  H  H65  1  0.55237000  0.99759000  0.88650000  1.0
  H  H66  1  0.50979000  0.99030000  0.76768000  1.0
  H  H67  1  0.84404000  0.85661000  0.83449000  1.0
  H  H68  1  0.18828000  0.16326000  0.11923000  1.0
  H  H69  1  0.56737000  0.97668000  0.26952000  1.0
  H  H70  1  0.39069000  0.96245000  0.15862000  1.0
  H  H71  1  0.30230000  0.15593000  0.23610000  1.0
  C  C72  1  0.20599000  0.16768000  0.00322000  1.0
  C  C73  1  0.80581000  0.17641000  0.00306000  1.0
  C  C74  1  0.24650000  0.04103000  0.11341000  1.0
  C  C75  1  0.16738000  0.78284000  0.00984000  1.0
  C  C76  1  0.78686000  0.79430000  0.00494000  1.0
  C  C77  1  0.76012000  0.92877000  0.88775000  1.0
  C  C78  1  0.56025000  0.42343000  0.00399000  1.0
  C  C79  1  0.43764000  0.42014000  0.00666000  1.0
  C  C80  1  0.37344000  0.47838000  0.00771000  1.0
  C  C81  1  0.42764000  0.53934000  0.00572000  1.0
  C  C82  1  0.55037000  0.54259000  0.00278000  1.0
  C  C83  1  0.61447000  0.48431000  0.00211000  1.0
  C  C84  1  0.42137000  0.07064000  0.28294000  1.0
  C  C85  1  0.35651000  0.09788000  0.34222000  1.0
  C  C86  1  0.55364000  0.08294000  0.33991000  1.0
  C  C87  1  0.61767000  0.93114000  0.71445000  1.0
  C  C88  1  0.48079000  0.93663000  0.65807000  1.0
  C  C89  1  0.67673000  0.93011000  0.65183000  1.0
  C  C90  1  0.07459000  0.04258000  0.46607000  1.0
  C  C91  1  0.95058000  0.03202000  0.46163000  1.0
  C  C92  1  0.90043000  0.00560000  0.49379000  1.0
  C  C93  1  0.96801000  0.98756000  0.53071000  1.0
  C  C94  1  0.09213000  0.99776000  0.53524000  1.0
  C  C95  1  0.14235000  0.02462000  0.50313000  1.0
  C  C96  1  0.76745000  0.93641000  0.62520000  1.0
  C  C97  1  0.74195000  0.90691000  0.58716000  1.0
  C  C98  1  0.81154000  0.91669000  0.55676000  1.0
  C  C99  1  0.90536000  0.96308000  0.56344000  1.0
  C  C100  1  0.93324000  0.99000000  0.60196000  1.0
  C  C101  1  0.87007000  0.97613000  0.63386000  1.0
  C  C102  1  0.36026000  0.94755000  0.63466000  1.0
  C  C103  1  0.31825000  0.01166000  0.63042000  1.0
  C  C104  1  0.22716000  0.02908000  0.59919000  1.0
  C  C105  1  0.17537000  0.98047000  0.57243000  1.0
  C  C106  1  0.20981000  0.91537000  0.57962000  1.0
  C  C107  1  0.30256000  0.89803000  0.61017000  1.0
  C  C108  1  0.26576000  0.09565000  0.36900000  1.0
  C  C109  1  0.29444000  0.12474000  0.40719000  1.0
  C  C110  1  0.22887000  0.11407000  0.43854000  1.0
  C  C111  1  0.13481000  0.06762000  0.43278000  1.0
  C  C112  1  0.10241000  0.04219000  0.39409000  1.0
  C  C113  1  0.16142000  0.05683000  0.36119000  1.0
  C  C114  1  0.67278000  0.07637000  0.36440000  1.0
  C  C115  1  0.72092000  0.01338000  0.36829000  1.0
  C  C116  1  0.81503000  0.99786000  0.39871000  1.0
  C  C117  1  0.86525000  0.04779000  0.42475000  1.0
  C  C118  1  0.82387000  0.11172000  0.41831000  1.0
  C  C119  1  0.72679000  0.12720000  0.38887000  1.0
  C  C120  1  0.74541000  0.24072000  0.00492000  1.0
  C  C121  1  0.72161000  0.27728000  0.96923000  1.0
  C  C122  1  0.66677000  0.33851000  0.96800000  1.0
  C  C123  1  0.63048000  0.36232000  0.00374000  1.0
  C  C124  1  0.65659000  0.32630000  0.03951000  1.0
  C  C125  1  0.71580000  0.26588000  0.04139000  1.0
  C  C126  1  0.35511000  0.59970000  0.00625000  1.0
  C  C127  1  0.33058000  0.62390000  0.04309000  1.0
  C  C128  1  0.27383000  0.68396000  0.04629000  1.0
  C  C129  1  0.23206000  0.71898000  0.01048000  1.0
  C  C130  1  0.25189000  0.69350000  0.97336000  1.0
  C  C131  1  0.31430000  0.63518000  0.97065000  1.0
  C  C132  1  0.72568000  0.73028000  0.00652000  1.0
  C  C133  1  0.72989000  0.68765000  0.97390000  1.0
  C  C134  1  0.67429000  0.62699000  0.97095000  1.0
  C  C135  1  0.61260000  0.60618000  0.00256000  1.0
  C  C136  1  0.60961000  0.64782000  0.03514000  1.0
  C  C137  1  0.66227000  0.70993000  0.03791000  1.0
  C  C138  1  0.26888000  0.23137000  0.00242000  1.0
  C  C139  1  0.26946000  0.27155000  0.03630000  1.0
  C  C140  1  0.32392000  0.33267000  0.03952000  1.0
  C  C141  1  0.37726000  0.35598000  0.00666000  1.0
  C  C142  1  0.37625000  0.31641000  0.97285000  1.0
  C  C143  1  0.32560000  0.25387000  0.96987000  1.0
  C  C144  1  0.65044000  0.92526000  0.75866000  1.0
  C  C145  1  0.58495000  0.96195000  0.78289000  1.0
  C  C146  1  0.61384000  0.96466000  0.82498000  1.0
  C  C147  1  0.70992000  0.92558000  0.84384000  1.0
  C  C148  1  0.77039000  0.88621000  0.81962000  1.0
  C  C149  1  0.74609000  0.88565000  0.77745000  1.0
  C  C150  1  0.30349000  0.05521000  0.15559000  1.0
  C  C151  1  0.37510000  0.00575000  0.17588000  1.0
  C  C152  1  0.42370000  0.00916000  0.21667000  1.0
  C  C153  1  0.39179000  0.06359000  0.23870000  1.0
  C  C154  1  0.32356000  0.11387000  0.21858000  1.0
  C  C155  1  0.28170000  0.11268000  0.17705000  1.0
  S  S156  1  0.77350000  0.86787000  0.51350000  1.0
  S  S157  1  0.92111000  0.01601000  0.67950000  1.0
  S  S158  1  0.18436000  0.11210000  0.59567000  1.0
  S  S159  1  0.34659000  0.81533000  0.61397000  1.0
  S  S160  1  0.27285000  0.16033000  0.48263000  1.0
  S  S161  1  0.10246000  0.02076000  0.31528000  1.0
  S  S162  1  0.86164000  0.91538000  0.40300000  1.0
  S  S163  1  0.68394000  0.20985000  0.38555000  1.0
  S  S164  1  0.63517000  0.37782000  0.92035000  1.0
  S  S165  1  0.73668000  0.22593000  0.08859000  1.0
  S  S166  1  0.25705000  0.70853000  0.09596000  1.0
  S  S167  1  0.33869000  0.60989000  0.92221000  1.0
  S  S168  1  0.68468000  0.57910000  0.92737000  1.0
  S  S169  1  0.63843000  0.75351000  0.08097000  1.0
  S  S170  1  0.32457000  0.37460000  0.08554000  1.0
  S  S171  1  0.33895000  0.21276000  0.92486000  1.0
  S  S172  1  0.52477000  0.01948000  0.84814000  1.0
  S  S173  1  0.83421000  0.83178000  0.75372000  1.0
  S  S174  1  0.51054000  0.94264000  0.23773000  1.0
  S  S175  1  0.20582000  0.18385000  0.15815000  1.0
  N  N176  1  0.32980000  0.08706000  0.30222000  1.0
  N  N177  1  0.46970000  0.10481000  0.36061000  1.0
  N  N178  1  0.53361000  0.06116000  0.30149000  1.0
  N  N179  1  0.50229000  0.93995000  0.69860000  1.0
  N  N180  1  0.56325000  0.92821000  0.63373000  1.0
  N  N181  1  0.70723000  0.92902000  0.69235000  1.0
  O  O182  1  0.94675000  0.10588000  0.09614000  1.0
  O  O183  1  0.13773000  0.16048000  0.03027000  1.0
  O  O184  1  0.18016000  0.08467000  0.09403000  1.0
  O  O185  1  0.76002000  0.13596000  0.97591000  1.0
  O  O186  1  0.26189000  0.98422000  0.09941000  1.0
  O  O187  1  0.89893000  0.16642000  0.02805000  1.0
  O  O188  1  0.22049000  0.12417000  0.97748000  1.0
  O  O189  1  0.13061000  0.01908000  0.01920000  1.0
  O  O190  1  0.98439000  0.09344000  0.97189000  1.0
  O  O191  1  0.02344000  0.98372000  0.07754000  1.0
  O  O192  1  0.87426000  0.02912000  0.02090000  1.0
  O  O193  1  0.63653000  0.02475000  0.97362000  1.0
  O  O194  1  0.33577000  0.01160000  0.97796000  1.0
  O  O195  1  0.96725000  0.97937000  0.94545000  1.0
  O  O196  1  0.15003000  0.91786000  0.97758000  1.0
  O  O197  1  0.99182000  0.89939000  0.02291000  1.0
  O  O198  1  0.80088000  0.93223000  0.97967000  1.0
  O  O199  1  0.34293000  0.93137000  0.03761000  1.0
  O  O200  1  0.20256000  0.82358000  0.03735000  1.0
  O  O201  1  0.08239000  0.79234000  0.98070000  1.0
  O  O202  1  0.80518000  0.00891000  0.09694000  1.0
  O  O203  1  0.84513000  0.80446000  0.97556000  1.0
  O  O204  1  0.12871000  0.86967000  0.10128000  1.0
  O  O205  1  0.90484000  0.88202000  0.10052000  1.0
  O  O206  1  0.66245000  0.95593000  0.03795000  1.0
  O  O207  1  0.77754000  0.83655000  0.03245000  1.0
  O  O208  1  0.03065000  0.83107000  0.90993000  1.0
  O  O209  1  0.76666000  0.10203000  0.90534000  1.0
  O  O210  1  0.82688000  0.88257000  0.90365000  1.0
  O  O211  1  0.73538000  0.97995000  0.90638000  1.0
  O  O212  1  0.08149000  0.09031000  0.90832000  1.0
  O  O213  1  0.21494000  0.97684000  0.91303000  1.0
