# generated using pymatgen
data_Zn5H40(C16O9)2
_symmetry_space_group_name_H-M   'P 1'
_cell_length_a   8.98272000
_cell_length_b   10.51750000
_cell_length_c   11.22240000
_cell_angle_alpha   66.48660000
_cell_angle_beta   73.34330000
_cell_angle_gamma   73.97780000
_symmetry_Int_Tables_number   1
_chemical_formula_structural   Zn5H40(C16O9)2
_chemical_formula_sum   'Zn5 H40 C32 O18'
_cell_volume   915.50998727
_cell_formula_units_Z   1
loop_
 _symmetry_equiv_pos_site_id
 _symmetry_equiv_pos_as_xyz
  1  'x, y, z'
loop_
 _atom_site_type_symbol
 _atom_site_label
 _atom_site_symmetry_multiplicity
 _atom_site_fract_x
 _atom_site_fract_y
 _atom_site_fract_z
 _atom_site_occupancy
  Zn  Zn0  1  0.00001000  0.00000000  0.50000000  1.0
  Zn  Zn1  1  0.22594000  0.85204000  0.71595000  1.0
  Zn  Zn2  1  0.77405000  0.14797000  0.28405000  1.0
  Zn  Zn3  1  0.36254000  0.94602000  0.40349000  1.0
  Zn  Zn4  1  0.63746000  0.05398000  0.59651000  1.0
  H  H5  1  0.06301000  0.59134000  0.43600000  1.0
  H  H6  1  0.93700000  0.40867000  0.56401000  1.0
  H  H7  1  0.42447000  0.54868000  0.35833000  1.0
  H  H8  1  0.57553000  0.45131000  0.64168000  1.0
  H  H9  1  0.31187000  0.46330000  0.51510000  1.0
  H  H10  1  0.68813000  0.53669000  0.48490000  1.0
  H  H11  1  0.21655000  0.33302000  0.41994000  1.0
  H  H12  1  0.78346000  0.66698000  0.58005000  1.0
  H  H13  1  0.30406000  0.35844000  0.18308000  1.0
  H  H14  1  0.69594000  0.64157000  0.81692000  1.0
  H  H15  1  0.41541000  0.48606000  0.15328000  1.0
  H  H16  1  0.58458000  0.51395000  0.84672000  1.0
  H  H17  1  0.15977000  0.60424000  0.07920000  1.0
  H  H18  1  0.84023000  0.39576000  0.92081000  1.0
  H  H19  1  0.05343000  0.51912000  0.23855000  1.0
  H  H20  1  0.94658000  0.48088000  0.76145000  1.0
  H  H21  1  0.27099000  0.72963000  0.16950000  1.0
  H  H22  1  0.72901000  0.27037000  0.83050000  1.0
  H  H23  1  0.06193000  0.76653000  0.20949000  1.0
  H  H24  1  0.93807000  0.23347000  0.79052000  1.0
  H  H25  1  0.34154000  0.17632000  0.09455000  1.0
  H  H26  1  0.65846000  0.82369000  0.90545000  1.0
  H  H27  1  0.26709000  0.97786000  0.07771000  1.0
  H  H28  1  0.73291000  0.02214000  0.92229000  1.0
  H  H29  1  0.11561000  0.09019000  0.99226000  1.0
  H  H30  1  0.88439000  0.90981000  0.00774000  1.0
  H  H31  1  0.47113000  0.09234000  0.88509000  1.0
  H  H32  1  0.52886000  0.90766000  0.11491000  1.0
  H  H33  1  0.38894000  0.26891000  0.67911000  1.0
  H  H34  1  0.61105000  0.73109000  0.32089000  1.0
  H  H35  1  0.18765000  0.26844000  0.75758000  1.0
  H  H36  1  0.81234000  0.73156000  0.24243000  1.0
  H  H37  1  0.28117000  0.47136000  0.76274000  1.0
  H  H38  1  0.71882000  0.52865000  0.23726000  1.0
  H  H39  1  0.43139000  0.35117000  0.84430000  1.0
  H  H40  1  0.56860000  0.64884000  0.15569000  1.0
  H  H41  1  0.20225000  0.42311000  0.00571000  1.0
  H  H42  1  0.79775000  0.57690000  0.99428000  1.0
  H  H43  1  0.07393000  0.36844000  0.95121000  1.0
  H  H44  1  0.92607000  0.63156000  0.04880000  1.0
  C  C45  1  0.18867000  0.74908000  0.41126000  1.0
  C  C46  1  0.81134000  0.25092000  0.58874000  1.0
  C  C47  1  0.17419000  0.62668000  0.37584000  1.0
  C  C48  1  0.82582000  0.37331000  0.62415000  1.0
  C  C49  1  0.31515000  0.50596000  0.40779000  1.0
  C  C50  1  0.68485000  0.49403000  0.59221000  1.0
  C  C51  1  0.31628000  0.38736000  0.35941000  1.0
  C  C52  1  0.68372000  0.61264000  0.64058000  1.0
  C  C53  1  0.30671000  0.44534000  0.21279000  1.0
  C  C54  1  0.69329000  0.55466000  0.78721000  1.0
  C  C55  1  0.16258000  0.56221000  0.18550000  1.0
  C  C56  1  0.83743000  0.43779000  0.81451000  1.0
  C  C57  1  0.16603000  0.68217000  0.22835000  1.0
  C  C58  1  0.83398000  0.31783000  0.77166000  1.0
  C  C59  1  0.46772000  0.27921000  0.38484000  1.0
  C  C60  1  0.53228000  0.72080000  0.61515000  1.0
  C  C61  1  0.09896000  0.17148000  0.18922000  1.0
  C  C62  1  0.90105000  0.82853000  0.81078000  1.0
  C  C63  1  0.22845000  0.19630000  0.06448000  1.0
  C  C64  1  0.77155000  0.80370000  0.93553000  1.0
  C  C65  1  0.23418000  0.08364000  0.00634000  1.0
  C  C66  1  0.76582000  0.91636000  0.99366000  1.0
  C  C67  1  0.35011000  0.10456000  0.87258000  1.0
  C  C68  1  0.64989000  0.89544000  0.12741000  1.0
  C  C69  1  0.30674000  0.25513000  0.77478000  1.0
  C  C70  1  0.69325000  0.74488000  0.22522000  1.0
  C  C71  1  0.31011000  0.36346000  0.83204000  1.0
  C  C72  1  0.68988000  0.63654000  0.16795000  1.0
  C  C73  1  0.19575000  0.34606000  0.96503000  1.0
  C  C74  1  0.80425000  0.65394000  0.03496000  1.0
  C  C75  1  0.35404000  0.99762000  0.81183000  1.0
  C  C76  1  0.64596000  0.00238000  0.18817000  1.0
  O  O77  1  0.31851000  0.79412000  0.35970000  1.0
  O  O78  1  0.68151000  0.20586000  0.64030000  1.0
  O  O79  1  0.06916000  0.79461000  0.48592000  1.0
  O  O80  1  0.93083000  0.20539000  0.51408000  1.0
  O  O81  1  0.13671000  0.08350000  0.29788000  1.0
  O  O82  1  0.86329000  0.91650000  0.70212000  1.0
  O  O83  1  0.95881000  0.23530000  0.17468000  1.0
  O  O84  1  0.04119000  0.76470000  0.82531000  1.0
  O  O85  1  0.48161000  0.95419000  0.74043000  1.0
  O  O86  1  0.51839000  0.04581000  0.25956000  1.0
  O  O87  1  0.45824000  0.17668000  0.49430000  1.0
  O  O88  1  0.54176000  0.82332000  0.50571000  1.0
  O  O89  1  0.22710000  0.95312000  0.83364000  1.0
  O  O90  1  0.77290000  0.04687000  0.16636000  1.0
  O  O91  1  0.59218000  0.30233000  0.29532000  1.0
  O  O92  1  0.40782000  0.69766000  0.70468000  1.0
  O  O93  1  0.19584000  0.98164000  0.54371000  1.0
  O  O94  1  0.80417000  0.01835000  0.45630000  1.0
