# generated using pymatgen
data_Zn2H8C23(NO4)3
_symmetry_space_group_name_H-M   'P 1'
_cell_length_a   14.95370000
_cell_length_b   15.08240000
_cell_length_c   19.60500000
_cell_angle_alpha   89.98010000
_cell_angle_beta   89.55520000
_cell_angle_gamma   91.53590000
_symmetry_Int_Tables_number   1
_chemical_formula_structural   Zn2H8C23(NO4)3
_chemical_formula_sum   'Zn4 H16 C46 N6 O24'
_cell_volume   4419.94385120
_cell_formula_units_Z   2
loop_
 _symmetry_equiv_pos_site_id
 _symmetry_equiv_pos_as_xyz
  1  'x, y, z'
loop_
 _atom_site_type_symbol
 _atom_site_label
 _atom_site_symmetry_multiplicity
 _atom_site_fract_x
 _atom_site_fract_y
 _atom_site_fract_z
 _atom_site_occupancy
  Zn  Zn0  1  0.56809000  0.42898000  0.42988000  1.0
  Zn  Zn1  1  0.57833000  0.56694000  0.56531000  1.0
  Zn  Zn2  1  0.43506000  0.42004000  0.55968000  1.0
  Zn  Zn3  1  0.43167000  0.57447000  0.44302000  1.0
  H  H4  1  0.47691000  0.85217000  0.41217000  1.0
  H  H5  1  0.33984000  0.59634000  0.74017000  1.0
  H  H6  1  0.21650000  0.51702000  0.40585000  1.0
  H  H7  1  0.40474000  0.38416000  0.98536000  1.0
  H  H8  1  0.36920000  0.58415000  0.04946000  1.0
  H  H9  1  0.36689000  0.65605000  0.86577000  1.0
  H  H10  1  0.36449000  0.57198000  0.28311000  1.0
  H  H11  1  0.66691000  0.52850000  0.05076000  1.0
  H  H12  1  0.48656000  0.16331000  0.36504000  1.0
  H  H13  1  0.85775000  0.52885000  0.59324000  1.0
  H  H14  1  0.55783000  0.36612000  0.77377000  1.0
  H  H15  1  0.54795000  0.61230000  0.99325000  1.0
  H  H16  1  0.71950000  0.51647000  0.20095000  1.0
  H  H17  1  0.55074000  0.35542000  0.95310000  1.0
  H  H18  1  0.53812000  0.95703000  0.68479000  1.0
  H  H19  1  0.47233000  0.21585000  0.58850000  1.0
  C  C20  1  0.50348000  0.73350000  0.51090000  1.0
  C  C21  1  0.51719000  0.55575000  0.02022000  1.0
  C  C22  1  0.48087000  0.48966000  0.98206000  1.0
  C  C23  1  0.48793000  0.26241000  0.47801000  1.0
  C  C24  1  0.48357000  0.48705000  0.76381000  1.0
  C  C25  1  0.50199000  0.83204000  0.51818000  1.0
  C  C26  1  0.48784000  0.16480000  0.47485000  1.0
  C  C27  1  0.48364000  0.03092000  0.40596000  1.0
  C  C28  1  0.48701000  0.12244000  0.41085000  1.0
  C  C29  1  0.48910000  0.11395000  0.53564000  1.0
  C  C30  1  0.49747000  0.01947000  0.53150000  1.0
  C  C31  1  0.51549000  0.55419000  0.09549000  1.0
  C  C32  1  0.48937000  0.97726000  0.46627000  1.0
  C  C33  1  0.48770000  0.88377000  0.46149000  1.0
  C  C34  1  0.51796000  0.87237000  0.58251000  1.0
  C  C35  1  0.73401000  0.48257000  0.50225000  1.0
  C  C36  1  0.51342000  0.96515000  0.58978000  1.0
  C  C37  1  0.83367000  0.48436000  0.49164000  1.0
  C  C38  1  0.17093000  0.51275000  0.52298000  1.0
  C  C39  1  0.03883000  0.53065000  0.59555000  1.0
  C  C40  1  0.13189000  0.52669000  0.58829000  1.0
  C  C41  1  0.11667000  0.50489000  0.46497000  1.0
  C  C42  1  0.43460000  0.56464000  0.13097000  1.0
  C  C43  1  0.02145000  0.49480000  0.47273000  1.0
  C  C44  1  0.98259000  0.51200000  0.53804000  1.0
  C  C45  1  0.88841000  0.51044000  0.54481000  1.0
  C  C46  1  0.87173000  0.45869000  0.42803000  1.0
  C  C47  1  0.26867000  0.50199000  0.51412000  1.0
  C  C48  1  0.96515000  0.46703000  0.41792000  1.0
  C  C49  1  0.49378000  0.48655000  0.68795000  1.0
  C  C50  1  0.50833000  0.52942000  0.31279000  1.0
  C  C51  1  0.51275000  0.54377000  0.23932000  1.0
  C  C52  1  0.59466000  0.53582000  0.20273000  1.0
  C  C53  1  0.43270000  0.56144000  0.20267000  1.0
  C  C54  1  0.59455000  0.54179000  0.13168000  1.0
  C  C55  1  0.53712000  0.82563000  0.64338000  1.0
  C  C56  1  0.47609000  0.98902000  0.34109000  1.0
  C  C57  1  0.81944000  0.42428000  0.37304000  1.0
  C  C58  1  0.99924000  0.55126000  0.65952000  1.0
  C  C59  1  0.99929000  0.44158000  0.35282000  1.0
  C  C60  1  0.18861000  0.54382000  0.64534000  1.0
  C  C61  1  0.43593000  0.55414000  0.86948000  1.0
  C  C62  1  0.43677000  0.55311000  0.79768000  1.0
  C  C63  1  0.52328000  0.41877000  0.80027000  1.0
  C  C64  1  0.52072000  0.41911000  0.87125000  1.0
  C  C65  1  0.47847000  0.48821000  0.90708000  1.0
  N  N66  1  0.55310000  0.80060000  0.69845000  1.0
  N  N67  1  0.46949000  0.95305000  0.28848000  1.0
  N  N68  1  0.78345000  0.39373000  0.32549000  1.0
  N  N69  1  0.96473000  0.56807000  0.71148000  1.0
  N  N70  1  0.02070000  0.41726000  0.29870000  1.0
  N  N71  1  0.23606000  0.56083000  0.69069000  1.0
  O  O72  1  0.50388000  0.49879000  0.49977000  1.0
  O  O73  1  0.53778000  0.55067000  0.66025000  1.0
  O  O74  1  0.43633000  0.55497000  0.34506000  1.0
  O  O75  1  0.45945000  0.41949000  0.65690000  1.0
  O  O76  1  0.57178000  0.49167000  0.34377000  1.0
  O  O77  1  0.67307000  0.52433000  0.23573000  1.0
  O  O78  1  0.56317000  0.35227000  0.90410000  1.0
  O  O79  1  0.52635000  0.00345000  0.65097000  1.0
  O  O80  1  0.48378000  0.15141000  0.59697000  1.0
  O  O81  1  0.39159000  0.62030000  0.76617000  1.0
  O  O82  1  0.15076000  0.50302000  0.40215000  1.0
  O  O83  1  0.68999000  0.42586000  0.46738000  1.0
  O  O84  1  0.44946000  0.41300000  0.01449000  1.0
  O  O85  1  0.35600000  0.57891000  0.09834000  1.0
  O  O86  1  0.39150000  0.61934000  0.90229000  1.0
  O  O87  1  0.35258000  0.57274000  0.23329000  1.0
  O  O88  1  0.67643000  0.53292000  0.09988000  1.0
  O  O89  1  0.30335000  0.53293000  0.45829000  1.0
  O  O90  1  0.55886000  0.69359000  0.54804000  1.0
  O  O91  1  0.46110000  0.29651000  0.53535000  1.0
  O  O92  1  0.44915000  0.69907000  0.46775000  1.0
  O  O93  1  0.51406000  0.30765000  0.42658000  1.0
  O  O94  1  0.70404000  0.53786000  0.54539000  1.0
  O  O95  1  0.30939000  0.46048000  0.55997000  1.0
