# generated using pymatgen
data_Zn2H14C16N4O7
_symmetry_space_group_name_H-M   'P 1'
_cell_length_a   8.56864000
_cell_length_b   9.93195000
_cell_length_c   13.88910000
_cell_angle_alpha   105.30700000
_cell_angle_beta   100.55000000
_cell_angle_gamma   92.79710000
_symmetry_Int_Tables_number   1
_chemical_formula_structural   Zn2H14C16N4O7
_chemical_formula_sum   'Zn4 H28 C32 N8 O14'
_cell_volume   1114.90816942
_cell_formula_units_Z   2
loop_
 _symmetry_equiv_pos_site_id
 _symmetry_equiv_pos_as_xyz
  1  'x, y, z'
loop_
 _atom_site_type_symbol
 _atom_site_label
 _atom_site_symmetry_multiplicity
 _atom_site_fract_x
 _atom_site_fract_y
 _atom_site_fract_z
 _atom_site_occupancy
  Zn  Zn0  1  0.33994000  0.64091000  0.65380000  1.0
  Zn  Zn1  1  0.66007000  0.35910000  0.34621000  1.0
  Zn  Zn2  1  0.33973000  0.41587000  0.46730000  1.0
  Zn  Zn3  1  0.66029000  0.58413000  0.53274000  1.0
  H  H4  1  0.87294000  0.77008000  0.30492000  1.0
  H  H5  1  0.97770000  0.34519000  0.71865000  1.0
  H  H6  1  0.02230000  0.65480000  0.28135000  1.0
  H  H7  1  0.76652000  0.53956000  0.74094000  1.0
  H  H8  1  0.11945000  0.15464000  0.39253000  1.0
  H  H9  1  0.30284000  0.92118000  0.11759000  1.0
  H  H10  1  0.23352000  0.46046000  0.25909000  1.0
  H  H11  1  0.99083000  0.12853000  0.51505000  1.0
  H  H12  1  0.00916000  0.87146000  0.48495000  1.0
  H  H13  1  0.62172000  0.75438000  0.02796000  1.0
  H  H14  1  0.15380000  0.87329000  0.40917000  1.0
  H  H15  1  0.59781000  0.04338000  0.61028000  1.0
  H  H16  1  0.50463000  0.93058000  0.72570000  1.0
  H  H17  1  0.84620000  0.12670000  0.59083000  1.0
  H  H18  1  0.69714000  0.07886000  0.88243000  1.0
  H  H19  1  0.40216000  0.95652000  0.38965000  1.0
  H  H20  1  0.96609000  0.66045000  0.90596000  1.0
  H  H21  1  0.49536000  0.06945000  0.27431000  1.0
  H  H22  1  0.43071000  0.61847000  0.86401000  1.0
  H  H23  1  0.91617000  0.02119000  0.23609000  1.0
  H  H24  1  0.56929000  0.38156000  0.13601000  1.0
  H  H25  1  0.03394000  0.33959000  0.09406000  1.0
  H  H26  1  0.08384000  0.97883000  0.76391000  1.0
  H  H27  1  0.60944000  0.00556000  0.42400000  1.0
  H  H28  1  0.88057000  0.84536000  0.60747000  1.0
  H  H29  1  0.37829000  0.24564000  0.97205000  1.0
  H  H30  1  0.39052000  0.99435000  0.57594000  1.0
  H  H31  1  0.12706000  0.22991000  0.69508000  1.0
  C  C32  1  0.07346000  0.80391000  0.43290000  1.0
  C  C33  1  0.16095000  0.36237000  0.24858000  1.0
  C  C34  1  0.98551000  0.11682000  0.23789000  1.0
  C  C35  1  0.53376000  0.89699000  0.79498000  1.0
  C  C36  1  0.64013000  0.97776000  0.88090000  1.0
  C  C37  1  0.96289000  0.17089000  0.15327000  1.0
  C  C38  1  0.40305000  0.20471000  0.03814000  1.0
  C  C39  1  0.92653000  0.19608000  0.56709000  1.0
  C  C40  1  0.59695000  0.79532000  0.96187000  1.0
  C  C41  1  0.82379000  0.28212000  0.50932000  1.0
  C  C42  1  0.01450000  0.88320000  0.76212000  1.0
  C  C43  1  0.50887000  0.95815000  0.44737000  1.0
  C  C44  1  0.67341000  0.92539000  0.96619000  1.0
  C  C45  1  0.95851000  0.70845000  0.33970000  1.0
  C  C46  1  0.54168000  0.80502000  0.44310000  1.0
  C  C47  1  0.03712000  0.82914000  0.84674000  1.0
  C  C48  1  0.90336000  0.81026000  0.67610000  1.0
  C  C49  1  0.35986000  0.02227000  0.11911000  1.0
  C  C50  1  0.45829000  0.19491000  0.55686000  1.0
  C  C51  1  0.83908000  0.63765000  0.75144000  1.0
  C  C52  1  0.13949000  0.40140000  0.63157000  1.0
  C  C53  1  0.49230000  0.72105000  0.87266000  1.0
  C  C54  1  0.05176000  0.29596000  0.15896000  1.0
  C  C55  1  0.94826000  0.70406000  0.84106000  1.0
  C  C56  1  0.50770000  0.27898000  0.12735000  1.0
  C  C57  1  0.04149000  0.29155000  0.66029000  1.0
  C  C58  1  0.32659000  0.07464000  0.03383000  1.0
  C  C59  1  0.09666000  0.18975000  0.32391000  1.0
  C  C60  1  0.86051000  0.59858000  0.36842000  1.0
  C  C61  1  0.49109000  0.04177000  0.55257000  1.0
  C  C62  1  0.17620000  0.71788000  0.49068000  1.0
  C  C63  1  0.46623000  0.10304000  0.20504000  1.0
  N  N64  1  0.18258000  0.30931000  0.32883000  1.0
  N  N65  1  0.85467000  0.10663000  0.05999000  1.0
  N  N66  1  0.21959000  0.00727000  0.94100000  1.0
  N  N67  1  0.46168000  0.77111000  0.79082000  1.0
  N  N68  1  0.53832000  0.22891000  0.20919000  1.0
  N  N69  1  0.81745000  0.69070000  0.67119000  1.0
  N  N70  1  0.78042000  0.99276000  0.05901000  1.0
  N  N71  1  0.14534000  0.89341000  0.94002000  1.0
  O  O72  1  0.52123000  0.72226000  0.35519000  1.0
  O  O73  1  0.47871000  0.27763000  0.64478000  1.0
  O  O74  1  0.84406000  0.62802000  0.46001000  1.0
  O  O75  1  0.15595000  0.37195000  0.53999000  1.0
  O  O76  1  0.77555000  0.22818000  0.41187000  1.0
  O  O77  1  0.58872000  0.78096000  0.52872000  1.0
  O  O78  1  0.51134000  0.47624000  0.40325000  1.0
  O  O79  1  0.80194000  0.48516000  0.29889000  1.0
  O  O80  1  0.20742000  0.60138000  0.44067000  1.0
  O  O81  1  0.79257000  0.39861000  0.55933000  1.0
  O  O82  1  0.41132000  0.21902000  0.47125000  1.0
  O  O83  1  0.48866000  0.52377000  0.59676000  1.0
  O  O84  1  0.19805000  0.51483000  0.70110000  1.0
  O  O85  1  0.22445000  0.77183000  0.58813000  1.0
