# generated using pymatgen
data_DyH19C30N5O7
_symmetry_space_group_name_H-M   'P 1'
_cell_length_a   10.44390000
_cell_length_b   11.17970000
_cell_length_c   13.48800000
_cell_angle_alpha   110.10800000
_cell_angle_beta   101.39700000
_cell_angle_gamma   107.76900000
_symmetry_Int_Tables_number   1
_chemical_formula_structural   DyH19C30N5O7
_chemical_formula_sum   'Dy2 H38 C60 N10 O14'
_cell_volume   1325.27525577
_cell_formula_units_Z   2
loop_
 _symmetry_equiv_pos_site_id
 _symmetry_equiv_pos_as_xyz
  1  'x, y, z'
loop_
 _atom_site_type_symbol
 _atom_site_label
 _atom_site_symmetry_multiplicity
 _atom_site_fract_x
 _atom_site_fract_y
 _atom_site_fract_z
 _atom_site_occupancy
  Dy  Dy0  1  0.49970000  0.91583000  0.62365000  1.0
  Dy  Dy1  1  0.50030000  0.08417000  0.37635000  1.0
  H  H2  1  0.41488000  0.56359000  0.99150000  1.0
  H  H3  1  0.58512000  0.43640000  0.00850000  1.0
  H  H4  1  0.26880000  0.32130000  0.96003000  1.0
  H  H5  1  0.73120000  0.67870000  0.03997000  1.0
  H  H6  1  0.96167000  0.45158000  0.38593000  1.0
  H  H7  1  0.03833000  0.54842000  0.61407000  1.0
  H  H8  1  0.03159000  0.30850000  0.47603000  1.0
  H  H9  1  0.96841000  0.69150000  0.52397000  1.0
  H  H10  1  0.23985000  0.24805000  0.44707000  1.0
  H  H11  1  0.76015000  0.75195000  0.55293000  1.0
  H  H12  1  0.07165000  0.68743000  0.29300000  1.0
  H  H13  1  0.92835000  0.31257000  0.70700000  1.0
  H  H14  1  0.80497000  0.55940000  0.21326000  1.0
  H  H15  1  0.19503000  0.44060000  0.78674000  1.0
  H  H16  1  0.65684000  0.67645000  0.29657000  1.0
  H  H17  1  0.34316000  0.32355000  0.70343000  1.0
  H  H18  1  0.84944000  0.06272000  0.77178000  1.0
  H  H19  1  0.15056000  0.93728000  0.22822000  1.0
  H  H20  1  0.03365000  0.22016000  0.96580000  1.0
  H  H21  1  0.96635000  0.77984000  0.03420000  1.0
  H  H22  1  0.95189000  0.31480000  0.12538000  1.0
  H  H23  1  0.04811000  0.68520000  0.87462000  1.0
  H  H24  1  0.74467000  0.31824000  0.19554000  1.0
  H  H25  1  0.25533000  0.68176000  0.80446000  1.0
  H  H26  1  0.48546000  0.24895000  0.15504000  1.0
  H  H27  1  0.51454000  0.75105000  0.84496000  1.0
  H  H28  1  0.23586000  0.11617000  0.01528000  1.0
  H  H29  1  0.76414000  0.88383000  0.98472000  1.0
  H  H30  1  0.07509000  0.96105000  0.81373000  1.0
  H  H31  1  0.92491000  0.03895000  0.18627000  1.0
  H  H32  1  0.18716000  0.89173000  0.66737000  1.0
  H  H33  1  0.81284000  0.10827000  0.33263000  1.0
  H  H34  1  0.49201000  0.75769000  0.18525000  1.0
  H  H35  1  0.50799000  0.24231000  0.81474000  1.0
  H  H36  1  0.25880000  0.65194000  0.53149000  1.0
  H  H37  1  0.74120000  0.34806000  0.46851000  1.0
  H  H38  1  0.36391000  0.64726000  0.63052000  1.0
  H  H39  1  0.63609000  0.35274000  0.36948000  1.0
  C  C40  1  0.42700000  0.74506000  0.36068000  1.0
  C  C41  1  0.57300000  0.25493000  0.63932000  1.0
  C  C42  1  0.37997000  0.62396000  0.24840000  1.0
  C  C43  1  0.62003000  0.37604000  0.75160000  1.0
  C  C44  1  0.38328000  0.54390000  0.05853000  1.0
  C  C45  1  0.61672000  0.45610000  0.94147000  1.0
  C  C46  1  0.30182000  0.40962000  0.04149000  1.0
  C  C47  1  0.69818000  0.59038000  0.95851000  1.0
  C  C48  1  0.29648000  0.48500000  0.22253000  1.0
  C  C49  1  0.70352000  0.51501000  0.77747000  1.0
  C  C50  1  0.23396000  0.44258000  0.30196000  1.0
  C  C51  1  0.76604000  0.55742000  0.69804000  1.0
  C  C52  1  0.05293000  0.42568000  0.37726000  1.0
  C  C53  1  0.94707000  0.57432000  0.62274000  1.0
  C  C54  1  0.09131000  0.34512000  0.42696000  1.0
  C  C55  1  0.90869000  0.65487000  0.57304000  1.0
  C  C56  1  0.20647000  0.31233000  0.41167000  1.0
  C  C57  1  0.79353000  0.68767000  0.58833000  1.0
  C  C58  1  0.28077000  0.36286000  0.34892000  1.0
  C  C59  1  0.71923000  0.63715000  0.65108000  1.0
  C  C60  1  0.40574000  0.32835000  0.33343000  1.0
  C  C61  1  0.59426000  0.67165000  0.66657000  1.0
  C  C62  1  0.22596000  0.93854000  0.45713000  1.0
  C  C63  1  0.77404000  0.06146000  0.54287000  1.0
  C  C64  1  0.06486000  0.87174000  0.41182000  1.0
  C  C65  1  0.93514000  0.12827000  0.58818000  1.0
  C  C66  1  0.00332000  0.73709000  0.32397000  1.0
  C  C67  1  0.99668000  0.26291000  0.67603000  1.0
  C  C68  1  0.85543000  0.66510000  0.28024000  1.0
  C  C69  1  0.14457000  0.33490000  0.71976000  1.0
  C  C70  1  0.77286000  0.73078000  0.32613000  1.0
  C  C71  1  0.22714000  0.26922000  0.67387000  1.0
  C  C72  1  0.97277000  0.92982000  0.45270000  1.0
  C  C73  1  0.02723000  0.07018000  0.54730000  1.0
  C  C74  1  0.81863000  0.10568000  0.84450000  1.0
  C  C75  1  0.18138000  0.89432000  0.15550000  1.0
  C  C76  1  0.92034000  0.19303000  0.95223000  1.0
  C  C77  1  0.07966000  0.80697000  0.04777000  1.0
  C  C78  1  0.87512000  0.24497000  0.04113000  1.0
  C  C79  1  0.12489000  0.75503000  0.95887000  1.0
  C  C80  1  0.72740000  0.20667000  0.02216000  1.0
  C  C81  1  0.27260000  0.79333000  0.97784000  1.0
  C  C82  1  0.63247000  0.11745000  0.91038000  1.0
  C  C83  1  0.36753000  0.88255000  0.08962000  1.0
  C  C84  1  0.67081000  0.25269000  0.10973000  1.0
  C  C85  1  0.32919000  0.74731000  0.89027000  1.0
  C  C86  1  0.52693000  0.21312000  0.08749000  1.0
  C  C87  1  0.47307000  0.78688000  0.91251000  1.0
  C  C88  1  0.42837000  0.12404000  0.97559000  1.0
  C  C89  1  0.57163000  0.87596000  0.02441000  1.0
  C  C90  1  0.48057000  0.07554000  0.88662000  1.0
  C  C91  1  0.51943000  0.92446000  0.11337000  1.0
  C  C92  1  0.27883000  0.08108000  0.94842000  1.0
  C  C93  1  0.72117000  0.91892000  0.05158000  1.0
  C  C94  1  0.19096000  0.99719000  0.83806000  1.0
  C  C95  1  0.80904000  0.00281000  0.16194000  1.0
  C  C96  1  0.25253000  0.95636000  0.75538000  1.0
  C  C97  1  0.74747000  0.04363000  0.24462000  1.0
  C  C98  1  0.42409000  0.65117000  0.16434000  1.0
  C  C99  1  0.57591000  0.34883000  0.83566000  1.0
  N  N100  1  0.25979000  0.37973000  0.12110000  1.0
  N  N101  1  0.74021000  0.62027000  0.87890000  1.0
  N  N102  1  0.12169000  0.47341000  0.31530000  1.0
  N  N103  1  0.87830000  0.52659000  0.68470000  1.0
  N  N104  1  0.82978000  0.85949000  0.40898000  1.0
  N  N105  1  0.17022000  0.14051000  0.59102000  1.0
  N  N106  1  0.67885000  0.07030000  0.82353000  1.0
  N  N107  1  0.32115000  0.92970000  0.17647000  1.0
  N  N108  1  0.39290000  0.99368000  0.77835000  1.0
  N  N109  1  0.60710000  0.00631000  0.22165000  1.0
  O  O110  1  0.45811000  0.86449000  0.36122000  1.0
  O  O111  1  0.54189000  0.13551000  0.63878000  1.0
  O  O112  1  0.43521000  0.72403000  0.44784000  1.0
  O  O113  1  0.56479000  0.27597000  0.55215000  1.0
  O  O114  1  0.51742000  0.41869000  0.33816000  1.0
  O  O115  1  0.48258000  0.58131000  0.66184000  1.0
  O  O116  1  0.38771000  0.20343000  0.31656000  1.0
  O  O117  1  0.61229000  0.79657000  0.68344000  1.0
  O  O118  1  0.28220000  0.89823000  0.52477000  1.0
  O  O119  1  0.71780000  0.10178000  0.47523000  1.0
  O  O120  1  0.28935000  0.01278000  0.41444000  1.0
  O  O121  1  0.71065000  0.98723000  0.58556000  1.0
  O  O122  1  0.31065000  0.70310000  0.61201000  1.0
  O  O123  1  0.68935000  0.29690000  0.38799000  1.0
