# generated using pymatgen
data_ZnH2C10N(O2F)2
_symmetry_space_group_name_H-M   'P 1'
_cell_length_a   9.88483000
_cell_length_b   10.98580000
_cell_length_c   14.49730000
_cell_angle_alpha   89.19080000
_cell_angle_beta   89.96390000
_cell_angle_gamma   89.97930000
_symmetry_Int_Tables_number   1
_chemical_formula_structural   ZnH2C10N(O2F)2
_chemical_formula_sum   'Zn2 H4 C20 N2 O8 F4'
_cell_volume   1574.14448145
_cell_formula_units_Z   2
loop_
 _symmetry_equiv_pos_site_id
 _symmetry_equiv_pos_as_xyz
  1  'x, y, z'
loop_
 _atom_site_type_symbol
 _atom_site_label
 _atom_site_symmetry_multiplicity
 _atom_site_fract_x
 _atom_site_fract_y
 _atom_site_fract_z
 _atom_site_occupancy
  Zn  Zn0  1  0.63867000  0.49998000  0.49988000  1.0
  Zn  Zn1  1  0.36134000  0.50002000  0.50012000  1.0
  H  H2  1  0.28423000  0.11443000  0.51531000  1.0
  H  H3  1  0.71577000  0.88557000  0.48469000  1.0
  H  H4  1  0.28409000  0.88534000  0.51533000  1.0
  H  H5  1  0.71591000  0.11466000  0.48467000  1.0
  C  C6  1  0.50006000  0.26347000  0.49965000  1.0
  C  C7  1  0.50001000  0.50001000  0.04257000  1.0
  C  C8  1  0.37794000  0.06321000  0.50847000  1.0
  C  C9  1  0.62206000  0.93679000  0.49153000  1.0
  C  C10  1  0.37788000  0.93666000  0.50862000  1.0
  C  C11  1  0.62212000  0.06334000  0.49138000  1.0
  C  C12  1  0.49996000  0.87270000  0.50022000  1.0
  C  C13  1  0.50004000  0.12730000  0.49978000  1.0
  C  C14  1  0.07093000  0.57593000  0.44554000  1.0
  C  C15  1  0.92907000  0.42407000  0.55446000  1.0
  C  C16  1  0.07084000  0.42409000  0.55447000  1.0
  C  C17  1  0.49994000  0.73653000  0.50035000  1.0
  C  C18  1  0.92916000  0.57590000  0.44553000  1.0
  C  C19  1  0.50000000  0.49992000  0.68079000  1.0
  C  C20  1  0.50000000  0.50008000  0.31921000  1.0
  C  C21  1  0.50005000  0.50029000  0.78026000  1.0
  C  C22  1  0.49995000  0.49971000  0.21974000  1.0
  C  C23  1  0.50001000  0.50006000  0.86490000  1.0
  C  C24  1  0.49999000  0.49994000  0.13510000  1.0
  C  C25  1  0.49999000  0.49999000  0.95743000  1.0
  N  N26  1  0.86015000  0.49999000  0.49998000  1.0
  N  N27  1  0.13984000  0.50001000  0.50003000  1.0
  O  O28  1  0.61482000  0.31665000  0.49939000  1.0
  O  O29  1  0.38517000  0.68335000  0.50061000  1.0
  O  O30  1  0.61471000  0.68330000  0.50001000  1.0
  O  O31  1  0.38529000  0.31670000  0.49999000  1.0
  O  O32  1  0.61550000  0.49965000  0.64163000  1.0
  O  O33  1  0.38450000  0.50035000  0.35837000  1.0
  O  O34  1  0.61559000  0.50034000  0.35815000  1.0
  O  O35  1  0.38441000  0.49966000  0.64185000  1.0
  F  F36  1  0.13811000  0.65230000  0.39096000  1.0
  F  F37  1  0.86189000  0.34770000  0.60904000  1.0
  F  F38  1  0.13799000  0.34771000  0.60907000  1.0
  F  F39  1  0.86201000  0.65229000  0.39093000  1.0
