# generated using pymatgen
data_YH15C19O8
_symmetry_space_group_name_H-M   'P 1'
_cell_length_a   12.51330000
_cell_length_b   12.68650000
_cell_length_c   17.90110000
_cell_angle_alpha   73.70500000
_cell_angle_beta   82.78470000
_cell_angle_gamma   64.59660000
_symmetry_Int_Tables_number   1
_chemical_formula_structural   YH15C19O8
_chemical_formula_sum   'Y4 H60 C76 O32'
_cell_volume   2463.86242802
_cell_formula_units_Z   4
loop_
 _symmetry_equiv_pos_site_id
 _symmetry_equiv_pos_as_xyz
  1  'x, y, z'
loop_
 _atom_site_type_symbol
 _atom_site_label
 _atom_site_symmetry_multiplicity
 _atom_site_fract_x
 _atom_site_fract_y
 _atom_site_fract_z
 _atom_site_occupancy
  Y  Y0  1  0.47172000  0.88105000  0.62000000  1.0
  Y  Y1  1  0.52828000  0.11895000  0.38000000  1.0
  Y  Y2  1  0.53225000  0.62442000  0.88278000  1.0
  Y  Y3  1  0.46775000  0.37558000  0.11722000  1.0
  H  H4  1  0.64764000  0.56460000  0.73120000  1.0
  H  H5  1  0.35236000  0.43541000  0.26880000  1.0
  H  H6  1  0.64710000  0.44462000  0.78853000  1.0
  H  H7  1  0.35290000  0.55538000  0.21147000  1.0
  H  H8  1  0.73204000  0.51245000  0.98015000  1.0
  H  H9  1  0.26797000  0.48755000  0.01985000  1.0
  H  H10  1  0.70010000  0.40223000  0.98866000  1.0
  H  H11  1  0.29990000  0.59777000  0.01134000  1.0
  H  H12  1  0.29950000  0.09766000  0.51131000  1.0
  H  H13  1  0.70050000  0.90235000  0.48869000  1.0
  H  H14  1  0.25018000  0.99612000  0.53633000  1.0
  H  H15  1  0.74982000  0.00388000  0.46367000  1.0
  H  H16  1  0.36738000  0.93023000  0.77666000  1.0
  H  H17  1  0.63261000  0.06977000  0.22334000  1.0
  H  H18  1  0.86201000  0.66069000  0.85901000  1.0
  H  H19  1  0.13799000  0.33931000  0.14099000  1.0
  H  H20  1  0.92561000  0.92531000  0.60913000  1.0
  H  H21  1  0.07439000  0.07469000  0.39087000  1.0
  H  H22  1  0.72730000  0.92094000  0.64286000  1.0
  H  H23  1  0.27270000  0.07906000  0.35714000  1.0
  H  H24  1  0.07323000  0.58850000  0.89425000  1.0
  H  H25  1  0.92677000  0.41150000  0.10575000  1.0
  H  H26  1  0.27123000  0.59414000  0.86073000  1.0
  H  H27  1  0.72877000  0.40586000  0.13927000  1.0
  H  H28  1  0.13766000  0.84880000  0.64280000  1.0
  H  H29  1  0.86234000  0.15120000  0.35720000  1.0
  H  H30  1  0.51096000  0.36757000  0.53672000  1.0
  H  H31  1  0.48904000  0.63243000  0.46328000  1.0
  H  H32  1  0.48630000  0.47129000  0.64193000  1.0
  H  H33  1  0.51370000  0.52871000  0.35807000  1.0
  H  H34  1  0.51492000  0.05069000  0.70764000  1.0
  H  H35  1  0.48508000  0.94931000  0.29236000  1.0
  H  H36  1  0.46831000  0.46523000  0.78342000  1.0
  H  H37  1  0.53170000  0.53477000  0.21658000  1.0
  H  H38  1  0.48010000  0.14489000  0.95373000  1.0
  H  H39  1  0.51990000  0.85511000  0.04627000  1.0
  H  H40  1  0.49994000  0.04355000  0.84770000  1.0
  H  H41  1  0.50006000  0.95644000  0.15230000  1.0
  H  H42  1  0.83861000  0.47659000  0.68145000  1.0
  H  H43  1  0.16139000  0.52341000  0.31854000  1.0
  H  H44  1  0.03240000  0.33189000  0.64368000  1.0
  H  H45  1  0.96760000  0.66811000  0.35632000  1.0
  H  H46  1  0.81134000  0.72449000  0.45619000  1.0
  H  H47  1  0.18866000  0.27551000  0.54381000  1.0
  H  H48  1  0.26506000  0.03612000  0.91907000  1.0
  H  H49  1  0.73494000  0.96388000  0.08093000  1.0
  H  H50  1  0.08021000  0.18244000  0.96652000  1.0
  H  H51  1  0.91980000  0.81756000  0.03348000  1.0
  H  H52  1  0.12226000  0.76887000  0.97784000  1.0
  H  H53  1  0.87774000  0.23114000  0.02215000  1.0
  H  H54  1  0.24751000  0.15338000  0.66666667  1.0
  H  H55  1  0.75249000  0.84662000  0.33333333  1.0
  H  H56  1  0.25567000  0.12682000  0.76900000  1.0
  H  H57  1  0.74433000  0.87318000  0.23100000  1.0
  H  H58  1  0.12215000  0.03891000  0.68419000  1.0
  H  H59  1  0.87785000  0.96109000  0.31581000  1.0
  H  H60  1  0.05650000  0.15497000  0.73483000  1.0
  H  H61  1  0.94350000  0.84503000  0.26517000  1.0
  H  H62  1  0.13415000  0.00342000  0.78731000  1.0
  H  H63  1  0.86585000  0.99658000  0.21269000  1.0
  C  C64  1  0.66808000  0.78237000  0.77176000  1.0
  C  C65  1  0.33192000  0.21763000  0.22824000  1.0
  C  C66  1  0.78472000  0.78991000  0.75333000  1.0
  C  C67  1  0.21528000  0.21009000  0.24667000  1.0
  C  C68  1  0.87745000  0.71841000  0.80490000  1.0
  C  C69  1  0.12255000  0.28159000  0.19510000  1.0
  C  C70  1  0.99072000  0.71835000  0.78769000  1.0
  C  C71  1  0.00928000  0.28164000  0.21231000  1.0
  C  C72  1  0.00840000  0.79389000  0.71519000  1.0
  C  C73  1  0.99161000  0.20611000  0.28481000  1.0
  C  C74  1  0.91133000  0.86743000  0.66375000  1.0
  C  C75  1  0.08866000  0.13257000  0.33625000  1.0
  C  C76  1  0.80190000  0.86580000  0.68219000  1.0
  C  C77  1  0.19810000  0.13420000  0.31781000  1.0
  C  C78  1  0.08760000  0.64589000  0.83942000  1.0
  C  C79  1  0.91239000  0.35411000  0.16058000  1.0
  C  C80  1  0.19693000  0.64790000  0.82105000  1.0
  C  C81  1  0.80307000  0.35210000  0.17895000  1.0
  C  C82  1  0.21471000  0.72223000  0.74934000  1.0
  C  C83  1  0.78529000  0.27777000  0.25065000  1.0
  C  C84  1  0.12197000  0.79278000  0.69767000  1.0
  C  C85  1  0.87803000  0.20722000  0.30233000  1.0
  C  C86  1  0.33149000  0.72946000  0.72999000  1.0
  C  C87  1  0.66851000  0.27054000  0.27000000  1.0
  C  C88  1  0.52340000  0.14257000  0.55429000  1.0
  C  C89  1  0.47660000  0.85743000  0.44571000  1.0
  C  C90  1  0.51339000  0.20321000  0.61687000  1.0
  C  C91  1  0.48661000  0.79679000  0.38313000  1.0
  C  C92  1  0.50634000  0.32255000  0.59786000  1.0
  C  C93  1  0.49366000  0.67745000  0.40214000  1.0
  C  C94  1  0.49295000  0.37914000  0.65595000  1.0
  C  C95  1  0.50705000  0.62086000  0.34406000  1.0
  C  C96  1  0.48847000  0.31829000  0.73548000  1.0
  C  C97  1  0.51153000  0.68171000  0.26452000  1.0
  C  C98  1  0.49742000  0.19701000  0.75469000  1.0
  C  C99  1  0.50258000  0.80299000  0.24531000  1.0
  C  C100  1  0.50930000  0.14214000  0.69379000  1.0
  C  C101  1  0.49070000  0.85786000  0.30621000  1.0
  C  C102  1  0.47776000  0.37224000  0.79679000  1.0
  C  C103  1  0.52224000  0.62775000  0.20321000  1.0
  C  C104  1  0.47665000  0.30967000  0.87381000  1.0
  C  C105  1  0.52335000  0.69033000  0.12619000  1.0
  C  C106  1  0.48276000  0.19075000  0.89255000  1.0
  C  C107  1  0.51724000  0.80925000  0.10745000  1.0
  C  C108  1  0.49345000  0.13563000  0.83412000  1.0
  C  C109  1  0.50655000  0.86436000  0.16588000  1.0
  C  C110  1  0.47147000  0.36701000  0.93724000  1.0
  C  C111  1  0.52853000  0.63299000  0.06276000  1.0
  C  C112  1  0.69723000  0.69692000  0.59222000  1.0
  C  C113  1  0.30277000  0.30308000  0.40778000  1.0
  C  C114  1  0.81315000  0.60943000  0.57024000  1.0
  C  C115  1  0.18684000  0.39058000  0.42976000  1.0
  C  C116  1  0.87562000  0.49727000  0.62354000  1.0
  C  C117  1  0.12438000  0.50274000  0.37646000  1.0
  C  C118  1  0.98300000  0.41728000  0.60253000  1.0
  C  C119  1  0.01700000  0.58273000  0.39747000  1.0
  C  C120  1  0.03176000  0.44356000  0.52710000  1.0
  C  C121  1  0.96824000  0.55644000  0.47289000  1.0
  C  C122  1  0.85952000  0.63806000  0.49672000  1.0
  C  C123  1  0.14048000  0.36194000  0.50327000  1.0
  C  C124  1  0.31470000  0.80644000  0.91869000  1.0
  C  C125  1  0.68530000  0.19357000  0.08131000  1.0
  C  C126  1  0.20359000  0.89392000  0.94576000  1.0
  C  C127  1  0.79641000  0.10608000  0.05424000  1.0
  C  C128  1  0.19156000  0.01180000  0.94204000  1.0
  C  C129  1  0.80844000  0.98821000  0.05796000  1.0
  C  C130  1  0.08950000  0.09219000  0.96831000  1.0
  C  C131  1  0.91049000  0.90782000  0.03169000  1.0
  C  C132  1  0.99418000  0.05946000  0.99834000  1.0
  C  C133  1  0.00582000  0.94054000  0.00165000  1.0
  C  C134  1  0.11234000  0.85949000  0.97522000  1.0
  C  C135  1  0.88766000  0.14052000  0.02478000  1.0
  C  C136  1  0.24675000  0.08962000  0.72250000  1.0
  C  C137  1  0.75325000  0.91038000  0.27750000  1.0
  C  C138  1  0.13350000  0.07024000  0.73268000  1.0
  C  C139  1  0.86650000  0.92975000  0.26732000  1.0
  O  O140  1  0.58640000  0.84126000  0.72131000  1.0
  O  O141  1  0.41360000  0.15874000  0.27869000  1.0
  O  O142  1  0.65641000  0.71557000  0.83713000  1.0
  O  O143  1  0.34359000  0.28444000  0.16287000  1.0
  O  O144  1  0.34401000  0.79125000  0.66286000  1.0
  O  O145  1  0.65599000  0.20874000  0.33714000  1.0
  O  O146  1  0.41235000  0.67558000  0.78130000  1.0
  O  O147  1  0.58766000  0.32441000  0.21870000  1.0
  O  O148  1  0.50622000  0.04611000  0.57299000  1.0
  O  O149  1  0.49378000  0.95390000  0.42701000  1.0
  O  O150  1  0.54802000  0.18839000  0.48535000  1.0
  O  O151  1  0.45198000  0.81162000  0.51465000  1.0
  O  O152  1  0.49739000  0.45798000  0.92027000  1.0
  O  O153  1  0.50261000  0.54201000  0.07973000  1.0
  O  O154  1  0.44237000  0.32267000  0.00537000  1.0
  O  O155  1  0.55763000  0.67734000  0.99463000  1.0
  O  O156  1  0.62962000  0.66281000  0.64290000  1.0
  O  O157  1  0.37037000  0.33719000  0.35710000  1.0
  O  O158  1  0.66352000  0.80963000  0.55846000  1.0
  O  O159  1  0.33648000  0.19037000  0.44154000  1.0
  O  O160  1  0.33986000  0.69321000  0.94323000  1.0
  O  O161  1  0.66014000  0.30679000  0.05677000  1.0
  O  O162  1  0.38596000  0.84176000  0.87246000  1.0
  O  O163  1  0.61405000  0.15824000  0.12754000  1.0
  O  O164  1  0.65859000  0.51645000  0.78671000  1.0
  O  O165  1  0.34141000  0.48356000  0.21329000  1.0
  O  O166  1  0.71487000  0.46894000  0.94970000  1.0
  O  O167  1  0.28513000  0.53106000  0.05030000  1.0
  O  O168  1  0.28807000  0.03502000  0.55658000  1.0
  O  O169  1  0.71193000  0.96498000  0.44341000  1.0
  O  O170  1  0.35105000  0.98042000  0.72220000  1.0
  O  O171  1  0.64895000  0.01958000  0.27780000  1.0
