# generated using pymatgen
data_CoP2H12C13O7
_symmetry_space_group_name_H-M   'P 1'
_cell_length_a   5.89275000
_cell_length_b   7.67338000
_cell_length_c   14.69560000
_cell_angle_alpha   89.99880000
_cell_angle_beta   90.00990000
_cell_angle_gamma   89.99370000
_symmetry_Int_Tables_number   1
_chemical_formula_structural   CoP2H12C13O7
_chemical_formula_sum   'Co2 P4 H24 C26 O14'
_cell_volume   664.49548668
_cell_formula_units_Z   2
loop_
 _symmetry_equiv_pos_site_id
 _symmetry_equiv_pos_as_xyz
  1  'x, y, z'
loop_
 _atom_site_type_symbol
 _atom_site_label
 _atom_site_symmetry_multiplicity
 _atom_site_fract_x
 _atom_site_fract_y
 _atom_site_fract_z
 _atom_site_occupancy
  Co  Co0  1  0.02386000  0.41618000  0.99999000  1.0
  Co  Co1  1  0.97615000  0.91617000  0.00001000  1.0
  P  P2  1  0.69674000  0.64754000  0.85590000  1.0
  P  P3  1  0.30321000  0.14756000  0.14411000  1.0
  P  P4  1  0.30296000  0.14761000  0.85591000  1.0
  P  P5  1  0.69695000  0.64757000  0.14409000  1.0
  H  H6  1  0.37646000  0.48308000  0.87215000  1.0
  H  H7  1  0.62345000  0.98302000  0.12780000  1.0
  H  H8  1  0.62320000  0.98303000  0.87225000  1.0
  H  H9  1  0.37670000  0.48304000  0.12779000  1.0
  H  H10  1  0.73014000  0.18546000  0.94577000  1.0
  H  H11  1  0.26982000  0.68536000  0.05423000  1.0
  H  H12  1  0.26971000  0.68538000  0.94570000  1.0
  H  H13  1  0.73026000  0.18545000  0.05429000  1.0
  H  H14  1  0.43505000  0.54528000  0.69532000  1.0
  H  H15  1  0.56495000  0.04519000  0.30465000  1.0
  H  H16  1  0.56479000  0.04524000  0.69545000  1.0
  H  H17  1  0.43516000  0.54527000  0.30459000  1.0
  H  H18  1  0.15429000  0.83055000  0.59182000  1.0
  H  H19  1  0.84585000  0.33067000  0.40821000  1.0
  H  H20  1  0.84579000  0.33073000  0.59169000  1.0
  H  H21  1  0.15430000  0.83059000  0.40826000  1.0
  H  H22  1  0.07204000  0.80003000  0.75606000  1.0
  H  H23  1  0.92798000  0.30012000  0.24396000  1.0
  H  H24  1  0.92780000  0.30018000  0.75595000  1.0
  H  H25  1  0.07215000  0.80007000  0.24401000  1.0
  H  H26  1  0.32653000  0.60747000  0.49994000  1.0
  H  H27  1  0.67354000  0.10750000  0.50007000  1.0
  H  H28  1  0.48666000  0.41669000  0.49995000  1.0
  H  H29  1  0.51354000  0.91670000  0.50007000  1.0
  C  C30  1  0.75029000  0.66974000  0.73579000  1.0
  C  C31  1  0.24968000  0.16973000  0.26422000  1.0
  C  C32  1  0.24951000  0.16981000  0.73579000  1.0
  C  C33  1  0.75043000  0.66977000  0.26420000  1.0
  C  C34  1  0.59258000  0.60537000  0.67233000  1.0
  C  C35  1  0.40744000  0.10532000  0.32766000  1.0
  C  C36  1  0.40731000  0.10539000  0.67240000  1.0
  C  C37  1  0.59268000  0.60537000  0.32762000  1.0
  C  C38  1  0.63985000  0.62116000  0.58013000  1.0
  C  C39  1  0.36025000  0.12114000  0.41986000  1.0
  C  C40  1  0.36019000  0.12118000  0.58019000  1.0
  C  C41  1  0.63989000  0.62118000  0.41982000  1.0
  C  C42  1  0.84240000  0.70189000  0.54994000  1.0
  C  C43  1  0.15770000  0.20190000  0.45006000  1.0
  C  C44  1  0.15769000  0.20194000  0.54992000  1.0
  C  C45  1  0.84240000  0.70190000  0.45007000  1.0
  C  C46  1  0.99883000  0.76589000  0.61333000  1.0
  C  C47  1  0.00127000  0.26598000  0.38669000  1.0
  C  C48  1  0.00119000  0.26604000  0.61324000  1.0
  C  C49  1  0.99888000  0.76594000  0.38672000  1.0
  C  C50  1  0.95246000  0.74907000  0.70601000  1.0
  C  C51  1  0.04757000  0.24916000  0.29401000  1.0
  C  C52  1  0.04741000  0.24922000  0.70594000  1.0
  C  C53  1  0.95257000  0.74910000  0.29403000  1.0
  C  C54  1  0.50259000  0.55966000  0.49996000  1.0
  C  C55  1  0.49750000  0.05966000  0.50005000  1.0
  O  O56  1  0.43068000  0.61173000  0.86120000  1.0
  O  O57  1  0.56924000  0.11167000  0.13877000  1.0
  O  O58  1  0.56898000  0.11172000  0.86132000  1.0
  O  O59  1  0.43093000  0.61172000  0.13870000  1.0
  O  O60  1  0.82813000  0.49517000  0.89427000  1.0
  O  O61  1  0.17172000  0.99522000  0.10574000  1.0
  O  O62  1  0.17144000  0.99526000  0.89424000  1.0
  O  O63  1  0.82841000  0.49517000  0.10577000  1.0
  O  O64  1  0.73950000  0.82476000  0.90164000  1.0
  O  O65  1  0.26046000  0.32479000  0.09836000  1.0
  O  O66  1  0.26020000  0.32485000  0.90163000  1.0
  O  O67  1  0.73975000  0.82479000  0.09835000  1.0
  O  O68  1  0.83292000  0.18020000  0.00002000  1.0
  O  O69  1  0.16705000  0.68009000  0.99998000  1.0
