# generated using pymatgen
data_CoH28C20S2(N4O3)2
_symmetry_space_group_name_H-M   'P 1'
_cell_length_a   7.75516000
_cell_length_b   18.79132003
_cell_length_c   18.79500000
_cell_angle_alpha   60.94693319
_cell_angle_beta   89.10860000
_cell_angle_gamma   89.09229482
_symmetry_Int_Tables_number   1
_chemical_formula_structural   CoH28C20S2(N4O3)2
_chemical_formula_sum   'Co3 H84 C60 S6 N24 O18'
_cell_volume   2393.94600154
_cell_formula_units_Z   3
loop_
 _symmetry_equiv_pos_site_id
 _symmetry_equiv_pos_as_xyz
  1  'x, y, z'
loop_
 _atom_site_type_symbol
 _atom_site_label
 _atom_site_symmetry_multiplicity
 _atom_site_fract_x
 _atom_site_fract_y
 _atom_site_fract_z
 _atom_site_occupancy
  Co  Co0  1  0.49938000  0.99748000  0.54990000  1.0
  Co  Co1  1  0.50086000  0.44998000  0.00263000  1.0
  Co  Co2  1  0.49954000  0.54593000  0.45409000  1.0
  H  H3  1  0.30285000  0.98129000  0.70029000  1.0
  H  H4  1  0.31610000  0.32155000  0.97643000  1.0
  H  H5  1  0.69755000  0.29961000  0.01882000  1.0
  H  H6  1  0.30898000  0.68862000  0.32394000  1.0
  H  H7  1  0.69024000  0.67606000  0.31143000  1.0
  H  H8  1  0.68375000  0.02360000  0.67831000  1.0
  H  H9  1  0.19039000  0.53114000  0.89458000  1.0
  H  H10  1  0.19726000  0.57450000  0.52869000  1.0
  H  H11  1  0.80999000  0.10537000  0.46890000  1.0
  H  H12  1  0.19179000  0.89601000  0.57297000  1.0
  H  H13  1  0.80874000  0.42699000  0.10413000  1.0
  H  H14  1  0.80177000  0.47159000  0.42545000  1.0
  H  H15  1  0.67935000  0.82868000  0.62405000  1.0
  H  H16  1  0.68331000  0.54604000  0.82780000  1.0
  H  H17  1  0.32059000  0.37597000  0.17119000  1.0
  H  H18  1  0.67574000  0.62177000  0.55106000  1.0
  H  H19  1  0.32370000  0.44891000  0.37814000  1.0
  H  H20  1  0.31820000  0.17232000  0.45316000  1.0
  H  H21  1  0.50905000  0.75888000  0.64507000  1.0
  H  H22  1  0.50912000  0.59568000  0.76068000  1.0
  H  H23  1  0.49098000  0.35515000  0.24093000  1.0
  H  H24  1  0.49074000  0.63714000  0.59904000  1.0
  H  H25  1  0.50890000  0.40088000  0.36304000  1.0
  H  H26  1  0.49186000  0.23993000  0.40413000  1.0
  H  H27  1  0.66832000  0.73732000  0.71941000  1.0
  H  H28  1  0.66901000  0.54413000  0.73415000  1.0
  H  H29  1  0.33195000  0.28067000  0.26264000  1.0
  H  H30  1  0.64069000  0.71678000  0.54885000  1.0
  H  H31  1  0.35921000  0.45098000  0.28322000  1.0
  H  H32  1  0.33059000  0.26571000  0.45571000  1.0
  H  H33  1  0.16659000  0.91525000  0.84118000  1.0
  H  H34  1  0.19161000  0.24629000  0.90794000  1.0
  H  H35  1  0.83529000  0.15884000  0.08510000  1.0
  H  H36  1  0.20913000  0.83773000  0.24050000  1.0
  H  H37  1  0.78991000  0.75956000  0.16227000  1.0
  H  H38  1  0.80754000  0.09209000  0.75377000  1.0
  H  H39  1  0.23175000  0.81333000  0.91103000  1.0
  H  H40  1  0.25886000  0.27742000  0.80575000  1.0
  H  H41  1  0.76857000  0.08878000  0.18673000  1.0
  H  H42  1  0.25735000  0.90552000  0.27877000  1.0
  H  H43  1  0.74216000  0.72108000  0.09460000  1.0
  H  H44  1  0.74059000  0.19439000  0.72237000  1.0
  H  H45  1  0.05953000  0.83225000  0.84238000  1.0
  H  H46  1  0.08064000  0.32609000  0.82582000  1.0
  H  H47  1  0.94064000  0.15725000  0.16872000  1.0
  H  H48  1  0.07883000  0.83832000  0.31834000  1.0
  H  H49  1  0.92052000  0.68165000  0.16196000  1.0
  H  H50  1  0.91908000  0.17401000  0.67408000  1.0
  H  H51  1  0.75245000  0.61178000  0.92173000  1.0
  H  H52  1  0.76899000  0.46776000  0.60662000  1.0
  H  H53  1  0.24804000  0.07828000  0.38815000  1.0
  H  H54  1  0.75800000  0.92080000  0.46286000  1.0
  H  H55  1  0.24192000  0.53671000  0.07960000  1.0
  H  H56  1  0.23054000  0.39306000  0.53216000  1.0
  H  H57  1  0.65216000  0.66031000  0.97210000  1.0
  H  H58  1  0.67216000  0.37084000  0.64990000  1.0
  H  H59  1  0.34844000  0.02805000  0.33951000  1.0
  H  H60  1  0.65963000  0.97003000  0.36630000  1.0
  H  H61  1  0.34019000  0.63329000  0.03002000  1.0
  H  H62  1  0.32723000  0.34986000  0.62910000  1.0
  H  H63  1  0.70807000  0.71900000  0.86759000  1.0
  H  H64  1  0.72130000  0.41294000  0.71363000  1.0
  H  H65  1  0.29216000  0.13256000  0.28097000  1.0
  H  H66  1  0.71681000  0.86533000  0.40966000  1.0
  H  H67  1  0.28328000  0.59027000  0.13469000  1.0
  H  H68  1  0.27869000  0.28608000  0.58697000  1.0
  H  H69  1  0.97948000  0.63437000  0.80218000  1.0
  H  H70  1  0.98554000  0.56090000  0.63466000  1.0
  H  H71  1  0.02114000  0.19758000  0.36567000  1.0
  H  H72  1  0.98399000  0.80298000  0.56338000  1.0
  H  H73  1  0.01592000  0.43628000  0.19743000  1.0
  H  H74  1  0.01384000  0.36589000  0.43872000  1.0
  H  H75  1  0.09917000  0.70775000  0.71691000  1.0
  H  H76  1  0.10288000  0.57180000  0.70961000  1.0
  H  H77  1  0.90168000  0.28307000  0.29235000  1.0
  H  H78  1  0.10354000  0.71701000  0.57271000  1.0
  H  H79  1  0.89644000  0.42746000  0.28318000  1.0
  H  H80  1  0.89688000  0.29081000  0.42787000  1.0
  H  H81  1  0.00545000  0.73602000  0.78500000  1.0
  H  H82  1  0.01665000  0.47681000  0.73470000  1.0
  H  H83  1  0.99474000  0.21488000  0.26404000  1.0
  H  H84  1  0.01190000  0.78449000  0.47887000  1.0
  H  H85  1  0.98836000  0.52108000  0.21551000  1.0
  H  H86  1  0.98339000  0.26578000  0.52278000  1.0
  C  C87  1  0.31011000  0.85483000  0.78744000  1.0
  C  C88  1  0.32684000  0.35946000  0.84945000  1.0
  C  C89  1  0.69033000  0.21246000  0.14529000  1.0
  C  C90  1  0.32488000  0.78096000  0.35849000  1.0
  C  C91  1  0.67444000  0.64150000  0.21912000  1.0
  C  C92  1  0.67293000  0.15058000  0.64043000  1.0
  C  C93  1  0.39249000  0.79121000  0.78122000  1.0
  C  C94  1  0.40599000  0.42820000  0.78703000  1.0
  C  C95  1  0.60794000  0.21881000  0.20883000  1.0
  C  C96  1  0.39995000  0.77628000  0.42769000  1.0
  C  C97  1  0.59953000  0.57226000  0.22378000  1.0
  C  C98  1  0.59420000  0.21303000  0.57159000  1.0
  C  C99  1  0.48593000  0.82879000  0.70699000  1.0
  C  C100  1  0.49286000  0.46535000  0.82611000  1.0
  C  C101  1  0.51436000  0.29302000  0.17119000  1.0
  C  C102  1  0.48076000  0.69876000  0.46841000  1.0
  C  C103  1  0.51867000  0.53156000  0.30126000  1.0
  C  C104  1  0.50745000  0.17400000  0.53438000  1.0
  C  C105  1  0.59209000  0.78665000  0.67168000  1.0
  C  C106  1  0.59459000  0.54177000  0.78543000  1.0
  C  C107  1  0.40804000  0.32841000  0.21325000  1.0
  C  C108  1  0.57776000  0.66638000  0.54595000  1.0
  C  C109  1  0.42187000  0.45399000  0.33362000  1.0
  C  C110  1  0.40598000  0.21475000  0.45786000  1.0
  C  C111  1  0.18608000  0.85391000  0.84903000  1.0
  C  C112  1  0.20903000  0.29889000  0.84711000  1.0
  C  C113  1  0.81462000  0.15081000  0.14643000  1.0
  C  C114  1  0.21220000  0.84427000  0.29540000  1.0
  C  C115  1  0.78710000  0.70459000  0.15586000  1.0
  C  C116  1  0.79050000  0.15288000  0.70109000  1.0
  C  C117  1  0.22955000  0.65902000  0.83104000  1.0
  C  C118  1  0.23961000  0.50915000  0.65641000  1.0
  C  C119  1  0.77086000  0.16899000  0.34102000  1.0
  C  C120  1  0.23489000  0.83058000  0.50872000  1.0
  C  C121  1  0.76517000  0.49121000  0.16957000  1.0
  C  C122  1  0.76012000  0.34383000  0.49068000  1.0
  C  C123  1  0.37083000  0.70353000  0.83331000  1.0
  C  C124  1  0.38404000  0.46339000  0.69915000  1.0
  C  C125  1  0.62957000  0.16678000  0.29648000  1.0
  C  C126  1  0.37828000  0.83146000  0.46155000  1.0
  C  C127  1  0.62163000  0.53838000  0.16862000  1.0
  C  C128  1  0.61592000  0.30091000  0.53648000  1.0
  C  C129  1  0.48733000  0.64492000  0.88941000  1.0
  C  C130  1  0.50209000  0.46678000  0.63929000  1.0
  C  C131  1  0.51307000  0.11070000  0.35503000  1.0
  C  C132  1  0.49375000  0.88798000  0.46347000  1.0
  C  C133  1  0.50628000  0.53635000  0.11212000  1.0
  C  C134  1  0.49758000  0.36066000  0.53317000  1.0
  C  C135  1  0.65945000  0.65962000  0.91388000  1.0
  C  C136  1  0.67604000  0.42788000  0.65285000  1.0
  C  C137  1  0.34100000  0.08623000  0.34029000  1.0
  C  C138  1  0.66672000  0.91209000  0.42377000  1.0
  C  C139  1  0.33319000  0.57595000  0.08806000  1.0
  C  C140  1  0.32365000  0.34690000  0.57207000  1.0
  C  C141  1  0.06943000  0.68521000  0.78170000  1.0
  C  C142  1  0.07700000  0.53075000  0.68485000  1.0
  C  C143  1  0.93106000  0.21823000  0.31486000  1.0
  C  C144  1  0.07437000  0.78175000  0.53210000  1.0
  C  C145  1  0.92566000  0.46783000  0.21841000  1.0
  C  C146  1  0.92279000  0.31558000  0.46890000  1.0
  S  S147  1  0.91279000  0.94605000  0.63522000  1.0
  S  S148  1  0.91904000  0.41789000  0.94510000  1.0
  S  S149  1  0.08773000  0.36463000  0.05411000  1.0
  S  S150  1  0.91996000  0.63558000  0.42194000  1.0
  S  S151  1  0.07948000  0.57798000  0.36451000  1.0
  S  S152  1  0.08129000  0.05507000  0.58197000  1.0
  N  N153  1  0.46113000  0.91028000  0.66988000  1.0
  N  N154  1  0.46748000  0.42216000  0.90716000  1.0
  N  N155  1  0.53917000  0.33005000  0.08972000  1.0
  N  N156  1  0.45441000  0.65829000  0.42654000  1.0
  N  N157  1  0.54484000  0.57345000  0.34173000  1.0
  N  N158  1  0.53251000  0.09292000  0.57766000  1.0
  N  N159  1  0.35759000  0.92431000  0.72088000  1.0
  N  N160  1  0.37019000  0.35748000  0.91977000  1.0
  N  N161  1  0.64276000  0.27899000  0.07577000  1.0
  N  N162  1  0.36427000  0.71040000  0.35918000  1.0
  N  N163  1  0.63495000  0.64082000  0.28966000  1.0
  N  N164  1  0.62947000  0.08025000  0.64245000  1.0
  N  N165  1  0.26539000  0.58028000  0.88342000  1.0
  N  N166  1  0.27431000  0.53643000  0.57700000  1.0
  N  N167  1  0.73496000  0.11663000  0.41973000  1.0
  N  N168  1  0.26880000  0.88385000  0.53488000  1.0
  N  N169  1  0.73149000  0.46501000  0.11631000  1.0
  N  N170  1  0.72500000  0.42320000  0.46350000  1.0
  N  N171  1  0.42012000  0.56981000  0.91941000  1.0
  N  N172  1  0.43223000  0.51223000  0.56473000  1.0
  N  N173  1  0.58025000  0.08066000  0.43014000  1.0
  N  N174  1  0.42436000  0.91956000  0.50887000  1.0
  N  N175  1  0.57584000  0.49095000  0.08058000  1.0
  N  N176  1  0.56707000  0.43529000  0.48779000  1.0
  O  O177  1  0.83795000  0.94018000  0.70998000  1.0
  O  O178  1  0.85310000  0.34920000  0.93752000  1.0
  O  O179  1  0.16256000  0.28973000  0.06029000  1.0
  O  O180  1  0.84415000  0.71054000  0.35634000  1.0
  O  O181  1  0.15555000  0.64355000  0.28965000  1.0
  O  O182  1  0.14716000  0.06258000  0.65071000  1.0
  O  O183  1  0.02883000  0.87824000  0.64917000  1.0
  O  O184  1  0.03132000  0.47207000  0.87755000  1.0
  O  O185  1  0.97141000  0.35089000  0.12173000  1.0
  O  O186  1  0.04056000  0.65059000  0.47241000  1.0
  O  O187  1  0.95901000  0.52755000  0.34939000  1.0
  O  O188  1  0.96870000  0.12256000  0.52789000  1.0
  O  O189  1  0.78679000  0.96493000  0.56970000  1.0
  O  O190  1  0.78666000  0.46239000  0.96629000  1.0
  O  O191  1  0.21368000  0.43018000  0.03519000  1.0
  O  O192  1  0.79471000  0.57090000  0.46988000  1.0
  O  O193  1  0.20454000  0.52999000  0.42931000  1.0
  O  O194  1  0.21376000  0.03403000  0.53740000  1.0
