# generated using pymatgen
data_CoH22C26(N3O5)2
_symmetry_space_group_name_H-M   'P 1'
_cell_length_a   7.63500000
_cell_length_b   9.41239000
_cell_length_c   9.51718000
_cell_angle_alpha   104.97790000
_cell_angle_beta   96.91510000
_cell_angle_gamma   90.73460000
_symmetry_Int_Tables_number   1
_chemical_formula_structural   CoH22C26(N3O5)2
_chemical_formula_sum   'Co1 H22 C26 N6 O10'
_cell_volume   655.20743421
_cell_formula_units_Z   1
loop_
 _symmetry_equiv_pos_site_id
 _symmetry_equiv_pos_as_xyz
  1  'x, y, z'
loop_
 _atom_site_type_symbol
 _atom_site_label
 _atom_site_symmetry_multiplicity
 _atom_site_fract_x
 _atom_site_fract_y
 _atom_site_fract_z
 _atom_site_occupancy
  Co  Co0  1  0.50000000  0.49999000  0.50000000  1.0
  H  H1  1  0.73524000  0.44466000  0.68172000  1.0
  H  H2  1  0.26476000  0.55533000  0.31829000  1.0
  H  H3  1  0.84059000  0.58156000  0.65776000  1.0
  H  H4  1  0.15940000  0.41844000  0.34225000  1.0
  H  H5  1  0.75011000  0.72870000  0.49840000  1.0
  H  H6  1  0.24989000  0.27128000  0.50160000  1.0
  H  H7  1  0.56253000  0.13107000  0.75277000  1.0
  H  H8  1  0.43747000  0.86893000  0.24721000  1.0
  H  H9  1  0.29351000  0.98256000  0.77806000  1.0
  H  H10  1  0.70649000  0.01745000  0.22193000  1.0
  H  H11  1  0.26869000  0.71311000  0.65776000  1.0
  H  H12  1  0.73131000  0.28689000  0.34224000  1.0
  H  H13  1  0.84128000  0.13972000  0.64484000  1.0
  H  H14  1  0.15871000  0.86027000  0.35516000  1.0
  H  H15  1  0.89911000  0.57575000  0.27507000  1.0
  H  H16  1  0.10091000  0.42427000  0.72494000  1.0
  H  H17  1  0.11512000  0.66335000  0.13325000  1.0
  H  H18  1  0.88489000  0.33665000  0.86674000  1.0
  H  H19  1  0.68383000  0.79057000  0.86219000  1.0
  H  H20  1  0.31616000  0.20945000  0.13782000  1.0
  H  H21  1  0.46848000  0.70815000  0.00693000  1.0
  H  H22  1  0.53152000  0.29186000  0.99309000  1.0
  C  C23  1  0.65098000  0.78832000  0.56011000  1.0
  C  C24  1  0.34902000  0.21166000  0.43990000  1.0
  C  C25  1  0.67311000  0.94062000  0.61996000  1.0
  C  C26  1  0.32689000  0.05937000  0.38004000  1.0
  C  C27  1  0.54511000  0.01292000  0.70280000  1.0
  C  C28  1  0.45489000  0.98707000  0.29719000  1.0
  C  C29  1  0.39786000  0.93118000  0.71688000  1.0
  C  C30  1  0.60214000  0.06882000  0.28312000  1.0
  C  C31  1  0.38243000  0.78060000  0.65108000  1.0
  C  C32  1  0.61758000  0.21939000  0.34892000  1.0
  C  C33  1  0.82438000  0.02090000  0.59351000  1.0
  C  C34  1  0.17562000  0.97910000  0.40648000  1.0
  C  C35  1  0.54041000  0.59062000  0.23758000  1.0
  C  C36  1  0.45959000  0.40938000  0.76242000  1.0
  C  C37  1  0.67045000  0.63490000  0.14832000  1.0
  C  C38  1  0.32954000  0.36511000  0.85168000  1.0
  C  C39  1  0.85239000  0.62221000  0.18439000  1.0
  C  C40  1  0.14761000  0.37780000  0.81561000  1.0
  C  C41  1  0.97326000  0.67159000  0.10732000  1.0
  C  C42  1  0.02674000  0.32841000  0.89268000  1.0
  C  C43  1  0.90867000  0.72987000  0.99146000  1.0
  C  C44  1  0.09133000  0.27013000  0.00853000  1.0
  C  C45  1  0.72846000  0.74232000  0.95177000  1.0
  C  C46  1  0.27154000  0.25768000  0.04823000  1.0
  C  C47  1  0.60970000  0.69631000  0.03257000  1.0
  C  C48  1  0.39030000  0.30370000  0.96743000  1.0
  N  N49  1  0.50986000  0.70979000  0.57577000  1.0
  N  N50  1  0.49015000  0.29020000  0.42422000  1.0
  N  N51  1  0.93352000  0.95324000  0.50766000  1.0
  N  N52  1  0.06648000  0.04677000  0.49234000  1.0
  N  N53  1  0.03483000  0.77843000  0.90851000  1.0
  N  N54  1  0.96516000  0.22157000  0.09147000  1.0
  O  O55  1  0.60461000  0.52092000  0.33090000  1.0
  O  O56  1  0.39539000  0.47906000  0.66910000  1.0
  O  O57  1  0.38217000  0.62686000  0.21921000  1.0
  O  O58  1  0.61784000  0.37315000  0.78081000  1.0
  O  O59  1  0.18200000  0.83008000  0.97359000  1.0
  O  O60  1  0.81799000  0.16992000  0.02639000  1.0
  O  O61  1  0.98878000  0.76494000  0.77470000  1.0
  O  O62  1  0.01119000  0.23506000  0.22529000  1.0
  O  O63  1  0.78276000  0.48583000  0.60530000  1.0
  O  O64  1  0.21724000  0.51416000  0.39471000  1.0
