# generated using pymatgen
data_H4PbC2SO6
_symmetry_space_group_name_H-M   'P 1'
_cell_length_a   6.38248000
_cell_length_b   6.38329000
_cell_length_c   9.09468000
_cell_angle_alpha   101.23700000
_cell_angle_beta   104.26400000
_cell_angle_gamma   111.74600000
_symmetry_Int_Tables_number   1
_chemical_formula_structural   H4PbC2SO6
_chemical_formula_sum   'H8 Pb2 C4 S2 O12'
_cell_volume   316.24903326
_cell_formula_units_Z   2
loop_
 _symmetry_equiv_pos_site_id
 _symmetry_equiv_pos_as_xyz
  1  'x, y, z'
loop_
 _atom_site_type_symbol
 _atom_site_label
 _atom_site_symmetry_multiplicity
 _atom_site_fract_x
 _atom_site_fract_y
 _atom_site_fract_z
 _atom_site_occupancy
  H  H0  1  0.79901000  0.54274000  0.59289000  1.0
  H  H1  1  0.94868000  0.20497000  0.40699000  1.0
  H  H2  1  0.20101000  0.45724000  0.40710000  1.0
  H  H3  1  0.05136000  0.79504000  0.59304000  1.0
  H  H4  1  0.18763000  0.36450000  0.77462000  1.0
  H  H5  1  0.58857000  0.41167000  0.22515000  1.0
  H  H6  1  0.81238000  0.63549000  0.22541000  1.0
  H  H7  1  0.41140000  0.58832000  0.77484000  1.0
  Pb  Pb8  1  0.37629000  0.75043000  0.12701000  1.0
  Pb  Pb9  1  0.62372000  0.24957000  0.87299000  1.0
  C  C10  1  0.03980000  0.78962000  0.82895000  1.0
  C  C11  1  0.96011000  0.21040000  0.17100000  1.0
  C  C12  1  0.91799000  0.73360000  0.65057000  1.0
  C  C13  1  0.08198000  0.26642000  0.34936000  1.0
  S  S14  1  0.72860000  0.87987000  0.60752000  1.0
  S  S15  1  0.27150000  0.12011000  0.39250000  1.0
  O  O16  1  0.93657000  0.65573000  0.90132000  1.0
  O  O17  1  0.75413000  0.03456000  0.09845000  1.0
  O  O18  1  0.06351000  0.34438000  0.09870000  1.0
  O  O19  1  0.24575000  0.96535000  0.90159000  1.0
  O  O20  1  0.62909000  0.80504000  0.43296000  1.0
  O  O21  1  0.37095000  0.19499000  0.56713000  1.0
  O  O22  1  0.88273000  0.13902000  0.68123000  1.0
  O  O23  1  0.45701000  0.20092000  0.31875000  1.0
  O  O24  1  0.11720000  0.86089000  0.31871000  1.0
  O  O25  1  0.54302000  0.79910000  0.68122000  1.0
  O  O26  1  0.34892000  0.49426000  0.84224000  1.0
  O  O27  1  0.65109000  0.50576000  0.15777000  1.0
