# generated using pymatgen
data_CdH9C12(NO)4
_symmetry_space_group_name_H-M   'P 1'
_cell_length_a   10.57810000
_cell_length_b   11.58100000
_cell_length_c   11.98710000
_cell_angle_alpha   110.19400000
_cell_angle_beta   90.00000000
_cell_angle_gamma   90.00000000
_symmetry_Int_Tables_number   1
_chemical_formula_structural   CdH9C12(NO)4
_chemical_formula_sum   'Cd4 H36 C48 N16 O16'
_cell_volume   1378.21076202
_cell_formula_units_Z   4
loop_
 _symmetry_equiv_pos_site_id
 _symmetry_equiv_pos_as_xyz
  1  'x, y, z'
loop_
 _atom_site_type_symbol
 _atom_site_label
 _atom_site_symmetry_multiplicity
 _atom_site_fract_x
 _atom_site_fract_y
 _atom_site_fract_z
 _atom_site_occupancy
  Cd  Cd0  1  0.03113000  0.81987000  0.93704000  1.0
  Cd  Cd1  1  0.53113000  0.68013000  0.56296000  1.0
  Cd  Cd2  1  0.96887000  0.18013000  0.06296000  1.0
  Cd  Cd3  1  0.46887000  0.31987000  0.43704000  1.0
  H  H4  1  0.25066000  0.60401000  0.70838000  1.0
  H  H5  1  0.75066000  0.89599000  0.79162000  1.0
  H  H6  1  0.74934000  0.39599000  0.29162000  1.0
  H  H7  1  0.24934000  0.10401000  0.20838000  1.0
  H  H8  1  0.44040000  0.88284000  0.23129000  1.0
  H  H9  1  0.94040000  0.61716000  0.26871000  1.0
  H  H10  1  0.55960000  0.11716000  0.76871000  1.0
  H  H11  1  0.05960000  0.38284000  0.73129000  1.0
  H  H12  1  0.32070000  0.97110000  0.42989000  1.0
  H  H13  1  0.82070000  0.52890000  0.07011000  1.0
  H  H14  1  0.67930000  0.02890000  0.57011000  1.0
  H  H15  1  0.17930000  0.47110000  0.92989000  1.0
  H  H16  1  0.26925000  0.81909000  0.41227000  1.0
  H  H17  1  0.76924000  0.68091000  0.08773000  1.0
  H  H18  1  0.73075000  0.18091000  0.58774000  1.0
  H  H19  1  0.23075000  0.31909000  0.91226000  1.0
  H  H20  1  0.04165000  0.85106000  0.22720000  1.0
  H  H21  1  0.54165000  0.64894000  0.27280000  1.0
  H  H22  1  0.95835000  0.14894000  0.77280000  1.0
  H  H23  1  0.45835000  0.35106000  0.72720000  1.0
  H  H24  1  0.12934000  0.11608000  0.40209000  1.0
  H  H25  1  0.62934000  0.38392000  0.09791000  1.0
  H  H26  1  0.87066000  0.88392000  0.59791000  1.0
  H  H27  1  0.37066000  0.61608000  0.90209000  1.0
  H  H28  1  0.07910000  0.80204000  0.51063000  1.0
  H  H29  1  0.57910000  0.69796000  0.98937000  1.0
  H  H30  1  0.92090000  0.19796000  0.48937000  1.0
  H  H31  1  0.42090000  0.30204000  0.01063000  1.0
  H  H32  1  0.35037000  0.83843000  0.00086000  1.0
  H  H33  1  0.85037000  0.66157000  0.49914000  1.0
  H  H34  1  0.64963000  0.16157000  0.99914000  1.0
  H  H35  1  0.14963000  0.33843000  0.50086000  1.0
  H  H36  1  0.29537000  0.08507000  0.73517000  1.0
  H  H37  1  0.79537000  0.41493000  0.76483000  1.0
  H  H38  1  0.70463000  0.91493000  0.26483000  1.0
  H  H39  1  0.20463000  0.58507000  0.23517000  1.0
  C  C40  1  0.25961000  0.70056000  0.71837000  1.0
  C  C41  1  0.75961000  0.79944000  0.78163000  1.0
  C  C42  1  0.74039000  0.29944000  0.28163000  1.0
  C  C43  1  0.24039000  0.20056000  0.21837000  1.0
  C  C44  1  0.34558000  0.87086000  0.19495000  1.0
  C  C45  1  0.84558000  0.62914000  0.30505000  1.0
  C  C46  1  0.65442000  0.12914000  0.80505000  1.0
  C  C47  1  0.15442000  0.37086000  0.69495000  1.0
  C  C48  1  0.11877000  0.95384000  0.45090000  1.0
  C  C49  1  0.61877000  0.54616000  0.04910000  1.0
  C  C50  1  0.88123000  0.04616000  0.54910000  1.0
  C  C51  1  0.38123000  0.45384000  0.95090000  1.0
  C  C52  1  0.24426000  0.90370000  0.39545000  1.0
  C  C53  1  0.74426000  0.59630000  0.10455000  1.0
  C  C54  1  0.75574000  0.09630000  0.60455000  1.0
  C  C55  1  0.25574000  0.40370000  0.89545000  1.0
  C  C56  1  0.13725000  0.85316000  0.19552000  1.0
  C  C57  1  0.63725000  0.64684000  0.30448000  1.0
  C  C58  1  0.86275000  0.14684000  0.80448000  1.0
  C  C59  1  0.36275000  0.35316000  0.69552000  1.0
  C  C60  1  0.22207000  0.89622000  0.77279000  1.0
  C  C61  1  0.72207000  0.60378000  0.72721000  1.0
  C  C62  1  0.77793000  0.10378000  0.22721000  1.0
  C  C63  1  0.27793000  0.39622000  0.27279000  1.0
  C  C64  1  0.16014000  0.01490000  0.83693000  1.0
  C  C65  1  0.66014000  0.48509000  0.66307000  1.0
  C  C66  1  0.83986000  0.98510000  0.16307000  1.0
  C  C67  1  0.33986000  0.51490000  0.33693000  1.0
  C  C68  1  0.07251000  0.06492000  0.44508000  1.0
  C  C69  1  0.57251000  0.43508000  0.05492000  1.0
  C  C70  1  0.92749000  0.93508000  0.55492000  1.0
  C  C71  1  0.42749000  0.56492000  0.94508000  1.0
  C  C72  1  0.04469000  0.88929000  0.50636000  1.0
  C  C73  1  0.54469000  0.61071000  0.99364000  1.0
  C  C74  1  0.95531000  0.11071000  0.49364000  1.0
  C  C75  1  0.45531000  0.38929000  0.00636000  1.0
  C  C76  1  0.29969000  0.84708000  0.08196000  1.0
  C  C77  1  0.79969000  0.65292000  0.41804000  1.0
  C  C78  1  0.70031000  0.15292000  0.91804000  1.0
  C  C79  1  0.20031000  0.34708000  0.58196000  1.0
  C  C80  1  0.40784000  0.94522000  0.65136000  1.0
  C  C81  1  0.90784000  0.55478000  0.84864000  1.0
  C  C82  1  0.59216000  0.05478000  0.34864000  1.0
  C  C83  1  0.09216000  0.44522000  0.15136000  1.0
  C  C84  1  0.32520000  0.86801000  0.69483000  1.0
  C  C85  1  0.82520000  0.63199000  0.80517000  1.0
  C  C86  1  0.67480000  0.13199000  0.30517000  1.0
  C  C87  1  0.17480000  0.36801000  0.19483000  1.0
  N  N88  1  0.18221000  0.78933000  0.78694000  1.0
  N  N89  1  0.68221000  0.71067000  0.71306000  1.0
  N  N90  1  0.81779000  0.21067000  0.21306000  1.0
  N  N91  1  0.31779000  0.28933000  0.28694000  1.0
  N  N92  1  0.16992000  0.83609000  0.08360000  1.0
  N  N93  1  0.66992000  0.66391000  0.41640000  1.0
  N  N94  1  0.83008000  0.16391000  0.91640000  1.0
  N  N95  1  0.33008000  0.33608000  0.58360000  1.0
  N  N96  1  0.24134000  0.87562000  0.26582000  1.0
  N  N97  1  0.74134000  0.62438000  0.23418000  1.0
  N  N98  1  0.75866000  0.12438000  0.73418000  1.0
  N  N99  1  0.25866000  0.37562000  0.76582000  1.0
  N  N100  1  0.34773000  0.74391000  0.66179000  1.0
  N  N101  1  0.84773000  0.75609000  0.83821000  1.0
  N  N102  1  0.65227000  0.25609000  0.33821000  1.0
  N  N103  1  0.15227000  0.24391000  0.16179000  1.0
  O  O104  1  0.19358000  0.11099000  0.81528000  1.0
  O  O105  1  0.69358000  0.38901000  0.68472000  1.0
  O  O106  1  0.80642000  0.88901000  0.18472000  1.0
  O  O107  1  0.30642000  0.61099000  0.31528000  1.0
  O  O108  1  0.07455000  0.01448000  0.91169000  1.0
  O  O109  1  0.57455000  0.48552000  0.58831000  1.0
  O  O110  1  0.92545000  0.98552000  0.08831000  1.0
  O  O111  1  0.42545000  0.51448000  0.41169000  1.0
  O  O112  1  0.37786000  0.06239000  0.67875000  1.0
  O  O113  1  0.87786000  0.43761000  0.82125000  1.0
  O  O114  1  0.62214000  0.93761000  0.32125000  1.0
  O  O115  1  0.12214000  0.56239000  0.17875000  1.0
  O  O116  1  0.50423000  0.90142000  0.59167000  1.0
  O  O117  1  0.00423000  0.59858000  0.90833000  1.0
  O  O118  1  0.49577000  0.09858000  0.40833000  1.0
  O  O119  1  0.99577000  0.40142000  0.09167000  1.0
