# generated using pymatgen
data_Ag7H12C8N19O9
_symmetry_space_group_name_H-M   'P 1'
_cell_length_a   9.35595000
_cell_length_b   9.35595000
_cell_length_c   14.55990000
_cell_angle_alpha   90.00000000
_cell_angle_beta   90.00000000
_cell_angle_gamma   94.79210000
_symmetry_Int_Tables_number   1
_chemical_formula_structural   Ag7H12C8N19O9
_chemical_formula_sum   'Ag14 H24 C16 N38 O18'
_cell_volume   1270.02828027
_cell_formula_units_Z   2
loop_
 _symmetry_equiv_pos_site_id
 _symmetry_equiv_pos_as_xyz
  1  'x, y, z'
loop_
 _atom_site_type_symbol
 _atom_site_label
 _atom_site_symmetry_multiplicity
 _atom_site_fract_x
 _atom_site_fract_y
 _atom_site_fract_z
 _atom_site_occupancy
  Ag  Ag0  1  0.12603000  0.11505000  0.88096000  1.0
  Ag  Ag1  1  0.87397000  0.88495000  0.38096000  1.0
  Ag  Ag2  1  0.88495000  0.87397000  0.61904000  1.0
  Ag  Ag3  1  0.11505000  0.12603000  0.11904000  1.0
  Ag  Ag4  1  0.59489000  0.64643000  0.87996000  1.0
  Ag  Ag5  1  0.40511000  0.35357000  0.37996000  1.0
  Ag  Ag6  1  0.35357000  0.40511000  0.62004000  1.0
  Ag  Ag7  1  0.64643000  0.59489000  0.12004000  1.0
  Ag  Ag8  1  0.24281000  0.75719000  0.75000000  1.0
  Ag  Ag9  1  0.75719000  0.24281000  0.25000000  1.0
  Ag  Ag10  1  0.94226000  0.48146000  0.82937000  1.0
  Ag  Ag11  1  0.05773000  0.51854000  0.32937000  1.0
  Ag  Ag12  1  0.51853000  0.05773000  0.67063000  1.0
  Ag  Ag13  1  0.48146000  0.94227000  0.17063000  1.0
  H  H14  1  0.65741000  0.01944000  0.88401000  1.0
  H  H15  1  0.34259000  0.98056000  0.38401000  1.0
  H  H16  1  0.98056000  0.34259000  0.61599000  1.0
  H  H17  1  0.01944000  0.65741000  0.11599000  1.0
  H  H18  1  0.81135000  0.11383000  0.93717000  1.0
  H  H19  1  0.18865000  0.88617000  0.43717000  1.0
  H  H20  1  0.88617000  0.18865000  0.56283000  1.0
  H  H21  1  0.11383000  0.81135000  0.06283000  1.0
  H  H22  1  0.70671000  0.97368000  0.99612000  1.0
  H  H23  1  0.29329000  0.02632000  0.49612000  1.0
  H  H24  1  0.02632000  0.29329000  0.50388000  1.0
  H  H25  1  0.97368000  0.70671000  0.00388000  1.0
  H  H26  1  0.51267000  0.18563000  0.85917000  1.0
  H  H27  1  0.48733000  0.81437000  0.35917000  1.0
  H  H28  1  0.81437000  0.48732000  0.64083000  1.0
  H  H29  1  0.18563000  0.51267000  0.14083000  1.0
  H  H30  1  0.45373000  0.19597000  0.97407000  1.0
  H  H31  1  0.54627000  0.80403000  0.47407000  1.0
  H  H32  1  0.80403000  0.54627000  0.52593000  1.0
  H  H33  1  0.19597000  0.45373000  0.02593000  1.0
  H  H34  1  0.59587000  0.32086000  0.93257000  1.0
  H  H35  1  0.40413000  0.67914000  0.43257000  1.0
  H  H36  1  0.67914000  0.40413000  0.56743000  1.0
  H  H37  1  0.32086000  0.59587000  0.06743000  1.0
  C  C38  1  0.84061000  0.90370000  0.88958000  1.0
  C  C39  1  0.15939000  0.09630000  0.38958000  1.0
  C  C40  1  0.09630000  0.15939000  0.61042000  1.0
  C  C41  1  0.90370000  0.84061000  0.11042000  1.0
  C  C42  1  0.74966000  0.00976000  0.92924000  1.0
  C  C43  1  0.25034000  0.99024000  0.42924000  1.0
  C  C44  1  0.99024000  0.25034000  0.57076000  1.0
  C  C45  1  0.00976000  0.74966000  0.07076000  1.0
  C  C46  1  0.38666000  0.35778000  0.88537000  1.0
  C  C47  1  0.61334000  0.64222000  0.38538000  1.0
  C  C48  1  0.64222000  0.61334000  0.61462000  1.0
  C  C49  1  0.35778000  0.38666000  0.11463000  1.0
  C  C50  1  0.49413000  0.26035000  0.91522000  1.0
  C  C51  1  0.50587000  0.73965000  0.41522000  1.0
  C  C52  1  0.73965000  0.50587000  0.58478000  1.0
  C  C53  1  0.26035000  0.49413000  0.08478000  1.0
  N  N54  1  0.79613000  0.76716000  0.86846000  1.0
  N  N55  1  0.20387000  0.23284000  0.36846000  1.0
  N  N56  1  0.23284000  0.20387000  0.63154000  1.0
  N  N57  1  0.76716000  0.79614000  0.13154000  1.0
  N  N58  1  0.91119000  0.70826000  0.83314000  1.0
  N  N59  1  0.08881000  0.29174000  0.33314000  1.0
  N  N60  1  0.29174000  0.08881000  0.66686000  1.0
  N  N61  1  0.70826000  0.91119000  0.16686000  1.0
  N  N62  1  0.02197000  0.80422000  0.83301000  1.0
  N  N63  1  0.97803000  0.19578000  0.33301000  1.0
  N  N64  1  0.19578000  0.97803000  0.66699000  1.0
  N  N65  1  0.80422000  0.02197000  0.16699000  1.0
  N  N66  1  0.98060000  0.92729000  0.86783000  1.0
  N  N67  1  0.01940000  0.07271000  0.36783000  1.0
  N  N68  1  0.07271000  0.01940000  0.63217000  1.0
  N  N69  1  0.92729000  0.98060000  0.13217000  1.0
  N  N70  1  0.41089000  0.49909000  0.86781000  1.0
  N  N71  1  0.58911000  0.50091000  0.36781000  1.0
  N  N72  1  0.50091000  0.58911000  0.63219000  1.0
  N  N73  1  0.49909000  0.41089000  0.13219000  1.0
  N  N74  1  0.28396000  0.54552000  0.84212000  1.0
  N  N75  1  0.71604000  0.45448000  0.34212000  1.0
  N  N76  1  0.45448000  0.71604000  0.65788000  1.0
  N  N77  1  0.54552000  0.28396000  0.15788000  1.0
  N  N78  1  0.18611000  0.43708000  0.84382000  1.0
  N  N79  1  0.81389000  0.56292000  0.34382000  1.0
  N  N80  1  0.56292000  0.81388000  0.65618000  1.0
  N  N81  1  0.43708000  0.18611000  0.15618000  1.0
  N  N82  1  0.24686000  0.31808000  0.87068000  1.0
  N  N83  1  0.75314000  0.68192000  0.37068000  1.0
  N  N84  1  0.68192000  0.75314000  0.62932000  1.0
  N  N85  1  0.31808000  0.24686000  0.12932000  1.0
  N  N86  1  0.11137000  0.61071000  0.54521000  1.0
  N  N87  1  0.88863000  0.38929000  0.04521000  1.0
  N  N88  1  0.38929000  0.88863000  0.95479000  1.0
  N  N89  1  0.61071000  0.11137000  0.45479000  1.0
  N  N90  1  0.78004000  0.21995000  0.75000000  1.0
  N  N91  1  0.21996000  0.78004000  0.25000000  1.0
  O  O92  1  0.18808000  0.54085000  0.49123000  1.0
  O  O93  1  0.81192000  0.45914000  0.99123000  1.0
  O  O94  1  0.45915000  0.81192000  0.00877000  1.0
  O  O95  1  0.54085000  0.18808000  0.50877000  1.0
  O  O96  1  0.03504000  0.70373000  0.51216000  1.0
  O  O97  1  0.96496000  0.29627000  0.01216000  1.0
  O  O98  1  0.29627000  0.96496000  0.98784000  1.0
  O  O99  1  0.70373000  0.03504000  0.48784000  1.0
  O  O100  1  0.11171000  0.58441000  0.63071000  1.0
  O  O101  1  0.88829000  0.41559000  0.13071000  1.0
  O  O102  1  0.41559000  0.88829000  0.86929000  1.0
  O  O103  1  0.58441000  0.11171000  0.36929000  1.0
  O  O104  1  0.90913000  0.25275000  0.77600000  1.0
  O  O105  1  0.09087000  0.74725000  0.27600000  1.0
  O  O106  1  0.74725000  0.09087000  0.72400000  1.0
  O  O107  1  0.25275000  0.90913000  0.22400000  1.0
  O  O108  1  0.68921000  0.31079000  0.75000000  1.0
  O  O109  1  0.31079000  0.68921000  0.25000000  1.0
