# generated using pymatgen
data_ZnH17C20N5O4
_symmetry_space_group_name_H-M   'P 1'
_cell_length_a   21.66970000
_cell_length_b   21.96170000
_cell_length_c   22.02829571
_cell_angle_alpha   60.17461777
_cell_angle_beta   63.56013147
_cell_angle_gamma   89.99350000
_symmetry_Int_Tables_number   1
_chemical_formula_structural   ZnH17C20N5O4
_chemical_formula_sum   'Zn4 H68 C80 N20 O16'
_cell_volume   7805.90181974
_cell_formula_units_Z   4
loop_
 _symmetry_equiv_pos_site_id
 _symmetry_equiv_pos_as_xyz
  1  'x, y, z'
loop_
 _atom_site_type_symbol
 _atom_site_label
 _atom_site_symmetry_multiplicity
 _atom_site_fract_x
 _atom_site_fract_y
 _atom_site_fract_z
 _atom_site_occupancy
  Zn  Zn0  1  0.45850000  0.95442000  0.08973000  1.0
  Zn  Zn1  1  0.53972000  0.04363000  0.91134000  1.0
  Zn  Zn2  1  0.03901000  0.54218000  0.91340000  1.0
  Zn  Zn3  1  0.95910000  0.45677000  0.08640000  1.0
  H  H4  1  0.18821000  0.60026000  0.78460000  1.0
  H  H5  1  0.26353000  0.68174000  0.63382000  1.0
  H  H6  1  0.42768000  0.81735000  0.37774000  1.0
  H  H7  1  0.22892000  0.81459000  0.37563000  1.0
  H  H8  1  0.18129000  0.75081000  0.49770000  1.0
  H  H9  1  0.31886000  0.75843000  0.50485000  1.0
  H  H10  1  0.80970000  0.38931000  0.21640000  1.0
  H  H11  1  0.73589000  0.31962000  0.36731000  1.0
  H  H12  1  0.57311000  0.18872000  0.62323000  1.0
  H  H13  1  0.77077000  0.19428000  0.62728000  1.0
  H  H14  1  0.81983000  0.24869000  0.50225000  1.0
  H  H15  1  0.68127000  0.26032000  0.49707000  1.0
  H  H16  1  0.22578000  0.16206000  0.13128000  1.0
  H  H17  1  0.28611000  0.34891000  0.86728000  1.0
  H  H18  1  0.08029000  0.30064000  0.12283000  1.0
  H  H19  1  0.15700000  0.21782000  0.13046000  1.0
  H  H20  1  0.41605000  0.19539000  0.87613000  1.0
  H  H21  1  0.34049000  0.27956000  0.86860000  1.0
  H  H22  1  0.65453000  0.70696000  0.13214000  1.0
  H  H23  1  0.83881000  0.78646000  0.86911000  1.0
  H  H24  1  0.80253000  0.57244000  0.12660000  1.0
  H  H25  1  0.71956000  0.64852000  0.13243000  1.0
  H  H26  1  0.69590000  0.92761000  0.87619000  1.0
  H  H27  1  0.77847000  0.85096000  0.86939000  1.0
  H  H28  1  0.65565000  0.15852000  0.13160000  1.0
  H  H29  1  0.84523000  0.33634000  0.87025000  1.0
  H  H30  1  0.79883000  0.30073000  0.12819000  1.0
  H  H31  1  0.71822000  0.21761000  0.13298000  1.0
  H  H32  1  0.69720000  0.19633000  0.87440000  1.0
  H  H33  1  0.78148000  0.27633000  0.86895000  1.0
  H  H34  1  0.22788000  0.70671000  0.12785000  1.0
  H  H35  1  0.28587000  0.78327000  0.86509000  1.0
  H  H36  1  0.07987000  0.57770000  0.12158000  1.0
  H  H37  1  0.15498000  0.65589000  0.12800000  1.0
  H  H38  1  0.41614000  0.92915000  0.87257000  1.0
  H  H39  1  0.33802000  0.85470000  0.86575000  1.0
  H  H40  1  0.95784000  0.57056000  0.84715000  1.0
  H  H41  1  0.95921000  0.64824000  0.76950000  1.0
  H  H42  1  0.08023000  0.72188000  0.56127000  1.0
  H  H43  1  0.00671000  0.66087000  0.65347000  1.0
  H  H44  1  0.32047000  0.93123000  0.15756000  1.0
  H  H45  1  0.24035000  0.88131000  0.24748000  1.0
  H  H46  1  0.53546000  0.90849000  0.15833000  1.0
  H  H47  1  0.53407000  0.87149000  0.24859000  1.0
  H  H48  1  0.04037000  0.40904000  0.15107000  1.0
  H  H49  1  0.04210000  0.40542000  0.22990000  1.0
  H  H50  1  0.92038000  0.27671000  0.43692000  1.0
  H  H51  1  0.99170000  0.30346000  0.34536000  1.0
  H  H52  1  0.67698000  0.09692000  0.84554000  1.0
  H  H53  1  0.75837000  0.13546000  0.75572000  1.0
  H  H54  1  0.46531000  0.05748000  0.84210000  1.0
  H  H55  1  0.46676000  0.11252000  0.75138000  1.0
  H  H56  1  0.33060000  0.03632000  0.15654000  1.0
  H  H57  1  0.26827000  0.07221000  0.20116000  1.0
  H  H58  1  0.17161000  0.46489000  0.84309000  1.0
  H  H59  1  0.24537000  0.43972000  0.79508000  1.0
  H  H60  1  0.52546000  0.80601000  0.15641000  1.0
  H  H61  1  0.54796000  0.72606000  0.20121000  1.0
  H  H62  1  0.97362000  0.69316000  0.84971000  1.0
  H  H63  1  0.94824000  0.76978000  0.80143000  1.0
  H  H64  1  0.52727000  0.03445000  0.15514000  1.0
  H  H65  1  0.55858000  0.05915000  0.20303000  1.0
  H  H66  1  0.97035000  0.46222000  0.84885000  1.0
  H  H67  1  0.95103000  0.42646000  0.80167000  1.0
  H  H68  1  0.32917000  0.81019000  0.15423000  1.0
  H  H69  1  0.25597000  0.73710000  0.20066000  1.0
  H  H70  1  0.18006000  0.67957000  0.84237000  1.0
  H  H71  1  0.24785000  0.75929000  0.79322000  1.0
  C  C72  1  0.58406000  0.91331000  0.00398000  1.0
  C  C73  1  0.58225000  0.08486000  0.00228000  1.0
  C  C74  1  0.41104000  0.08153000  0.00418000  1.0
  C  C75  1  0.41472000  0.91230000  0.00085000  1.0
  C  C76  1  0.91062000  0.41475000  0.00182000  1.0
  C  C77  1  0.91552000  0.58657000  0.99981000  1.0
  C  C78  1  0.09025000  0.58452000  0.99430000  1.0
  C  C79  1  0.08699000  0.41607000  0.99359000  1.0
  C  C80  1  0.16417000  0.62299000  0.74671000  1.0
  C  C81  1  0.20523000  0.66844000  0.66324000  1.0
  C  C82  1  0.17180000  0.69577000  0.61616000  1.0
  C  C83  1  0.09608000  0.67588000  0.65849000  1.0
  C  C84  1  0.05720000  0.62960000  0.74558000  1.0
  C  C85  1  0.21246000  0.73967000  0.52781000  1.0
  C  C86  1  0.28468000  0.76742000  0.47847000  1.0
  C  C87  1  0.39785000  0.83157000  0.34603000  1.0
  C  C88  1  0.32267000  0.80968000  0.38966000  1.0
  C  C89  1  0.28730000  0.82932000  0.34557000  1.0
  C  C90  1  0.32745000  0.86963000  0.26033000  1.0
  C  C91  1  0.43559000  0.87181000  0.26033000  1.0
  C  C92  1  0.83442000  0.37179000  0.25368000  1.0
  C  C93  1  0.79424000  0.33341000  0.33735000  1.0
  C  C94  1  0.82823000  0.31090000  0.38399000  1.0
  C  C95  1  0.90399000  0.33054000  0.34047000  1.0
  C  C96  1  0.94202000  0.37101000  0.25338000  1.0
  C  C97  1  0.78813000  0.26670000  0.47270000  1.0
  C  C98  1  0.71589000  0.24421000  0.52300000  1.0
  C  C99  1  0.60258000  0.17366000  0.65538000  1.0
  C  C100  1  0.67775000  0.19801000  0.61211000  1.0
  C  C101  1  0.71252000  0.17632000  0.65693000  1.0
  C  C102  1  0.67187000  0.13224000  0.74239000  1.0
  C  C103  1  0.56435000  0.12780000  0.74114000  1.0
  C  C104  1  0.36331000  0.12983000  0.00607000  1.0
  C  C105  1  0.13724000  0.37028000  0.99268000  1.0
  C  C106  1  0.30838000  0.12044000  0.07943000  1.0
  C  C107  1  0.26693000  0.17023000  0.07411000  1.0
  C  C108  1  0.19619000  0.38354000  0.91915000  1.0
  C  C109  1  0.24072000  0.33669000  0.92451000  1.0
  C  C110  1  0.12605000  0.31048000  0.06709000  1.0
  C  C111  1  0.16970000  0.26427000  0.07093000  1.0
  C  C112  1  0.37323000  0.18858000  0.93173000  1.0
  C  C113  1  0.33089000  0.23600000  0.92800000  1.0
  C  C114  1  0.27600000  0.22756000  0.00024000  1.0
  C  C115  1  0.22877000  0.27674000  0.99856000  1.0
  C  C116  1  0.63033000  0.86342000  0.00610000  1.0
  C  C117  1  0.86761000  0.63517000  0.99681000  1.0
  C  C118  1  0.61845000  0.79963000  0.07968000  1.0
  C  C119  1  0.66518000  0.75555000  0.07478000  1.0
  C  C120  1  0.87821000  0.69732000  0.92288000  1.0
  C  C121  1  0.82975000  0.73979667  0.92687000  1.0
  C  C122  1  0.80940000  0.61981000  0.07053000  1.0
  C  C123  1  0.76286000  0.66282000  0.07322000  1.0
  C  C124  1  0.68822000  0.87902000  0.93196000  1.0
  C  C125  1  0.73417000  0.83545000  0.92865000  1.0
  C  C126  1  0.72344000  0.77202000  0.00117000  1.0
  C  C127  1  0.77213000  0.72444000  0.00036000  1.0
  C  C128  1  0.62900000  0.13206000  0.00422000  1.0
  C  C129  1  0.86618000  0.36641000  0.99854000  1.0
  C  C130  1  0.61656000  0.12225000  0.07819000  1.0
  C  C131  1  0.66628000  0.16774000  0.07402000  1.0
  C  C132  1  0.87998000  0.37582000  0.92435000  1.0
  C  C133  1  0.83383000  0.32716000  0.92808000  1.0
  C  C134  1  0.80787000  0.30794000  0.07192000  1.0
  C  C135  1  0.76292000  0.26117000  0.07414000  1.0
  C  C136  1  0.68914000  0.18841000  0.93066000  1.0
  C  C137  1  0.73649000  0.23325000  0.92797000  1.0
  C  C138  1  0.72592000  0.22320000  0.00100000  1.0
  C  C139  1  0.77487000  0.27054000  0.00101000  1.0
  C  C140  1  0.36676000  0.86296000  0.00233000  1.0
  C  C141  1  0.13900000  0.63423000  0.99193000  1.0
  C  C142  1  0.31252000  0.79843000  0.07586000  1.0
  C  C143  1  0.26831000  0.75615000  0.07078000  1.0
  C  C144  1  0.19794000  0.69416000  0.91799000  1.0
  C  C145  1  0.24045000  0.73860000  0.92255000  1.0
  C  C146  1  0.12598000  0.62300000  0.06573000  1.0
  C  C147  1  0.16841000  0.66718000  0.06888000  1.0
  C  C148  1  0.37378000  0.88030000  0.92844000  1.0
  C  C149  1  0.32989000  0.83794000  0.92491000  1.0
  C  C150  1  0.27529000  0.77405000  0.99734000  1.0
  C  C151  1  0.22761000  0.72655000  0.99613000  1.0
  N  N152  1  0.09113000  0.60400000  0.78759000  1.0
  N  N153  1  0.40093000  0.89104000  0.21768000  1.0
  N  N154  1  0.90749000  0.39116000  0.21176000  1.0
  N  N155  1  0.59842000  0.10779000  0.78447000  1.0
  N  N156  1  0.98342000  0.60792000  0.78552000  1.0
  N  N157  1  0.05485000  0.69841000  0.62225000  1.0
  N  N158  1  0.29356000  0.88690000  0.21675000  1.0
  N  N159  1  0.50882000  0.89463000  0.21719000  1.0
  N  N160  1  0.01558000  0.38527000  0.21263000  1.0
  N  N161  1  0.94629000  0.31398000  0.37586000  1.0
  N  N162  1  0.70510000  0.11079000  0.78668000  1.0
  N  N163  1  0.49133000  0.10299000  0.78364000  1.0
  N  N164  1  0.29301000  0.06391000  0.15574000  1.0
  N  N165  1  0.21215000  0.44151000  0.84372000  1.0
  N  N166  1  0.56402000  0.77961000  0.15578000  1.0
  N  N167  1  0.93326000  0.71637000  0.84703000  1.0
  N  N168  1  0.55808000  0.07159000  0.15254000  1.0
  N  N169  1  0.93534000  0.43081000  0.84959000  1.0
  N  N170  1  0.30245000  0.77511000  0.15072000  1.0
  N  N171  1  0.21556000  0.70919000  0.84309000  1.0
  O  O172  1  0.54043000  0.90627000  0.07218000  1.0
  O  O173  1  0.58907000  0.95999000  0.93665000  1.0
  O  O174  1  0.60161000  0.09208000  0.93440000  1.0
  O  O175  1  0.52433000  0.03811000  0.06914000  1.0
  O  O176  1  0.46691000  0.10168000  0.93689000  1.0
  O  O177  1  0.39265000  0.02055000  0.07248000  1.0
  O  O178  1  0.41147000  0.89233000  0.06802000  1.0
  O  O179  1  0.45715000  0.97274000  0.93304000  1.0
  O  O180  1  0.95567000  0.47498000  0.93380000  1.0
  O  O181  1  0.90272000  0.39544000  0.07022000  1.0
  O  O182  1  0.89767000  0.52845000  0.06827000  1.0
  O  O183  1  0.97285000  0.60630000  0.93217000  1.0
  O  O184  1  0.03525000  0.53650000  0.06276000  1.0
  O  O185  1  0.10647000  0.59281000  0.92624000  1.0
  O  O186  1  0.09047000  0.46223000  0.92588000  1.0
  O  O187  1  0.04230000  0.40748000  0.06131000  1.0
