# generated using pymatgen
data_Hg3H12C6(Cl3O2)2
_symmetry_space_group_name_H-M   'P 1'
_cell_length_a   7.67979000
_cell_length_b   9.46353000
_cell_length_c   12.02600000
_cell_angle_alpha   79.86900000
_cell_angle_beta   89.81190000
_cell_angle_gamma   83.06430000
_symmetry_Int_Tables_number   1
_chemical_formula_structural   Hg3H12C6(Cl3O2)2
_chemical_formula_sum   'Hg6 H24 C12 Cl12 O8'
_cell_volume   853.95668188
_cell_formula_units_Z   2
loop_
 _symmetry_equiv_pos_site_id
 _symmetry_equiv_pos_as_xyz
  1  'x, y, z'
loop_
 _atom_site_type_symbol
 _atom_site_label
 _atom_site_symmetry_multiplicity
 _atom_site_fract_x
 _atom_site_fract_y
 _atom_site_fract_z
 _atom_site_occupancy
  Hg  Hg0  1  0.85779000  0.82062000  0.10744000  1.0
  Hg  Hg1  1  0.14221000  0.17937000  0.89255000  1.0
  Hg  Hg2  1  0.92119000  0.48174000  0.34600000  1.0
  Hg  Hg3  1  0.07881000  0.51825000  0.65399000  1.0
  Hg  Hg4  1  0.04367000  0.83960000  0.78497000  1.0
  Hg  Hg5  1  0.95630000  0.16040000  0.21501000  1.0
  H  H6  1  0.36863000  0.94149000  0.34791000  1.0
  H  H7  1  0.63141000  0.05847000  0.65214000  1.0
  H  H8  1  0.37247000  0.89784000  0.21087000  1.0
  H  H9  1  0.62752000  0.10214000  0.78918000  1.0
  H  H10  1  0.46557000  0.69144000  0.38752000  1.0
  H  H11  1  0.53451000  0.30853000  0.61251000  1.0
  H  H12  1  0.66596000  0.76969000  0.38453000  1.0
  H  H13  1  0.33411000  0.23030000  0.61545000  1.0
  H  H14  1  0.38819000  0.58654000  0.25091000  1.0
  H  H15  1  0.61180000  0.41347000  0.74910000  1.0
  H  H16  1  0.44340000  0.68529000  0.11804000  1.0
  H  H17  1  0.55658000  0.31473000  0.88197000  1.0
  H  H18  1  0.69829000  0.49513000  0.10491000  1.0
  H  H19  1  0.30169000  0.50489000  0.89507000  1.0
  H  H20  1  0.48730000  0.43349000  0.10455000  1.0
  H  H21  1  0.51266000  0.56653000  0.89545000  1.0
  H  H22  1  0.43181000  0.36073000  0.35801000  1.0
  H  H23  1  0.56817000  0.63929000  0.64198000  1.0
  H  H24  1  0.41374000  0.26754000  0.24273000  1.0
  H  H25  1  0.58625000  0.73247000  0.75727000  1.0
  H  H26  1  0.46458000  0.10948000  0.43088000  1.0
  H  H27  1  0.53543000  0.89053000  0.56912000  1.0
  H  H28  1  0.67448000  0.17077000  0.44391000  1.0
  H  H29  1  0.32552000  0.82926000  0.55609000  1.0
  C  C30  1  0.45607000  0.90207000  0.28411000  1.0
  C  C31  1  0.54394000  0.09791000  0.71592000  1.0
  C  C32  1  0.55376000  0.75549000  0.33298000  1.0
  C  C33  1  0.44629000  0.24450000  0.66702000  1.0
  C  C34  1  0.49736000  0.60928000  0.19359000  1.0
  C  C35  1  0.50263000  0.39074000  0.80641000  1.0
  C  C36  1  0.58300000  0.47287000  0.15623000  1.0
  C  C37  1  0.41695000  0.52715000  0.84376000  1.0
  C  C38  1  0.50554000  0.29016000  0.30567000  1.0
  C  C39  1  0.49443000  0.70985000  0.69432000  1.0
  C  C40  1  0.57582000  0.15201000  0.38350000  1.0
  C  C41  1  0.42418000  0.84800000  0.61650000  1.0
  Cl  Cl42  1  0.69244000  0.81361000  0.94665000  1.0
  Cl  Cl43  1  0.30758000  0.18636000  0.05334000  1.0
  Cl  Cl44  1  0.01862000  0.82990000  0.27183000  1.0
  Cl  Cl45  1  0.98137000  0.17009000  0.72816000  1.0
  Cl  Cl46  1  0.04878000  0.49135000  0.16592000  1.0
  Cl  Cl47  1  0.95121000  0.50865000  0.83406000  1.0
  Cl  Cl48  1  0.76933000  0.46858000  0.51810000  1.0
  Cl  Cl49  1  0.23069000  0.53142000  0.48190000  1.0
  Cl  Cl50  1  0.82088000  0.16598000  0.03853000  1.0
  Cl  Cl51  1  0.17910000  0.83401000  0.96146000  1.0
  Cl  Cl52  1  0.08122000  0.16362000  0.39313000  1.0
  Cl  Cl53  1  0.91878000  0.83638000  0.60685000  1.0
  O  O54  1  0.56612000  0.00919000  0.23820000  1.0
  O  O55  1  0.43387000  0.99081000  0.76181000  1.0
  O  O56  1  0.62598000  0.67290000  0.24998000  1.0
  O  O57  1  0.37404000  0.32709000  0.75000000  1.0
  O  O58  1  0.64564000  0.35918000  0.24847000  1.0
  O  O59  1  0.35433000  0.64082000  0.75153000  1.0
  O  O60  1  0.67281000  0.04227000  0.33114000  1.0
  O  O61  1  0.32719000  0.95776000  0.66885000  1.0
