# generated using pymatgen
data_CuH4C3S2N
_symmetry_space_group_name_H-M   'P 1'
_cell_length_a   9.64152000
_cell_length_b   10.27670000
_cell_length_c   12.83810000
_cell_angle_alpha   70.20660000
_cell_angle_beta   82.76970000
_cell_angle_gamma   70.66950000
_symmetry_Int_Tables_number   1
_chemical_formula_structural   CuH4C3S2N
_chemical_formula_sum   'Cu8 H32 C24 S16 N8'
_cell_volume   1129.27500592
_cell_formula_units_Z   8
loop_
 _symmetry_equiv_pos_site_id
 _symmetry_equiv_pos_as_xyz
  1  'x, y, z'
loop_
 _atom_site_type_symbol
 _atom_site_label
 _atom_site_symmetry_multiplicity
 _atom_site_fract_x
 _atom_site_fract_y
 _atom_site_fract_z
 _atom_site_occupancy
  Cu  Cu0  1  0.40648000  0.59053000  0.08999000  1.0
  Cu  Cu1  1  0.59352000  0.40947000  0.91001000  1.0
  Cu  Cu2  1  0.03466000  0.83577000  0.98469000  1.0
  Cu  Cu3  1  0.96534000  0.16423000  0.01531000  1.0
  Cu  Cu4  1  0.16172000  0.53825000  0.05346000  1.0
  Cu  Cu5  1  0.83828000  0.46175000  0.94654000  1.0
  Cu  Cu6  1  0.15605000  0.71098000  0.18063000  1.0
  Cu  Cu7  1  0.84395000  0.28902000  0.81937000  1.0
  H  H8  1  0.50320000  0.95684000  0.75996000  1.0
  H  H9  1  0.49680000  0.04317000  0.24004000  1.0
  H  H10  1  0.60868000  0.99483000  0.84468000  1.0
  H  H11  1  0.39132000  0.00518000  0.15531000  1.0
  H  H12  1  0.55728000  0.71849000  0.88043000  1.0
  H  H13  1  0.44272000  0.28151000  0.11957000  1.0
  H  H14  1  0.64834000  0.75843000  0.97196000  1.0
  H  H15  1  0.35166000  0.24158000  0.02804000  1.0
  H  H16  1  0.10834000  0.06254000  0.77589000  1.0
  H  H17  1  0.89166000  0.93746000  0.22410000  1.0
  H  H18  1  0.00366000  0.98711000  0.72292000  1.0
  H  H19  1  0.99634000  0.01289000  0.27708000  1.0
  H  H20  1  0.29273000  0.03286000  0.64026000  1.0
  H  H21  1  0.70727000  0.96714000  0.35974000  1.0
  H  H22  1  0.17758000  0.97840000  0.57650000  1.0
  H  H23  1  0.82242000  0.02159000  0.42350000  1.0
  H  H24  1  0.70308000  0.70551000  0.38519000  1.0
  H  H25  1  0.29692000  0.29449000  0.61481000  1.0
  H  H26  1  0.77336000  0.51788000  0.46279000  1.0
  H  H27  1  0.22665000  0.48212000  0.53721000  1.0
  H  H28  1  0.02529000  0.51050000  0.40534000  1.0
  H  H29  1  0.97471000  0.48950000  0.59466000  1.0
  H  H30  1  0.95203000  0.69209000  0.40910000  1.0
  H  H31  1  0.04797000  0.30790000  0.59090000  1.0
  H  H32  1  0.18551000  0.18049000  0.18604000  1.0
  H  H33  1  0.81448000  0.81952000  0.81396000  1.0
  H  H34  1  0.00814000  0.30311000  0.19257000  1.0
  H  H35  1  0.99186000  0.69689000  0.80744000  1.0
  H  H36  1  0.13937000  0.07488000  0.37839000  1.0
  H  H37  1  0.86062000  0.92513000  0.62161000  1.0
  H  H38  1  0.00928000  0.24180000  0.38834000  1.0
  H  H39  1  0.99072000  0.75821000  0.61166000  1.0
  C  C40  1  0.32451000  0.90908000  0.99666000  1.0
  C  C41  1  0.67548000  0.09092000  0.00334000  1.0
  C  C42  1  0.51908000  0.95112000  0.84477000  1.0
  C  C43  1  0.48092000  0.04889000  0.15523000  1.0
  C  C44  1  0.54645000  0.79503000  0.92573000  1.0
  C  C45  1  0.45355000  0.20497000  0.07427000  1.0
  C  C46  1  0.11463000  0.96941000  0.74941000  1.0
  C  C47  1  0.88537000  0.03059000  0.25059000  1.0
  C  C48  1  0.22881000  0.95746000  0.65456000  1.0
  C  C49  1  0.77119000  0.04253000  0.34544000  1.0
  C  C50  1  0.26592000  0.73353000  0.82827000  1.0
  C  C51  1  0.73408000  0.26647000  0.17173000  1.0
  C  C52  1  0.89332000  0.63657000  0.19238000  1.0
  C  C53  1  0.10668000  0.36343000  0.80762000  1.0
  C  C54  1  0.78679000  0.60215000  0.38600000  1.0
  C  C55  1  0.21321000  0.39785000  0.61400000  1.0
  C  C56  1  0.94182000  0.61635000  0.36924000  1.0
  C  C57  1  0.05818000  0.38365000  0.63076000  1.0
  C  C58  1  0.25388000  0.37917000  0.27746000  1.0
  C  C59  1  0.74612000  0.62084000  0.72254000  1.0
  C  C60  1  0.11944000  0.26133000  0.22607000  1.0
  C  C61  1  0.88055000  0.73867000  0.77393000  1.0
  C  C62  1  0.11579000  0.19318000  0.35280000  1.0
  C  C63  1  0.88421000  0.80682000  0.64720000  1.0
  S  S64  1  0.16378000  0.92993000  0.07812000  1.0
  S  S65  1  0.83621000  0.07007000  0.92188000  1.0
  S  S66  1  0.35169000  0.06238000  0.89348000  1.0
  S  S67  1  0.64831000  0.93762000  0.10652000  1.0
  S  S68  1  0.33304000  0.56099000  0.92390000  1.0
  S  S69  1  0.66696000  0.43901000  0.07609000  1.0
  S  S70  1  0.35256000  0.77145000  0.69680000  1.0
  S  S71  1  0.64744000  0.22854000  0.30320000  1.0
  S  S72  1  0.91655000  0.66617000  0.05106000  1.0
  S  S73  1  0.08345000  0.33383000  0.94894000  1.0
  S  S74  1  0.75990000  0.55667000  0.26589000  1.0
  S  S75  1  0.24010000  0.44332000  0.73411000  1.0
  S  S76  1  0.34025000  0.50575000  0.26935000  1.0
  S  S77  1  0.65975000  0.49425000  0.73065000  1.0
  S  S78  1  0.25922000  0.23567000  0.40266000  1.0
  S  S79  1  0.74077000  0.76433000  0.59734000  1.0
  N  N80  1  0.42511000  0.78586000  0.00558000  1.0
  N  N81  1  0.57489000  0.21414000  0.99442000  1.0
  N  N82  1  0.15297000  0.83718000  0.84474000  1.0
  N  N83  1  0.84703000  0.16282000  0.15526000  1.0
  N  N84  1  0.97269000  0.66748000  0.25035000  1.0
  N  N85  1  0.02731000  0.33252000  0.74966000  1.0
  N  N86  1  0.18184000  0.38062000  0.19776000  1.0
  N  N87  1  0.81815000  0.61938000  0.80224000  1.0
