# generated using pymatgen
data_MnH30C35(NO4)2
_symmetry_space_group_name_H-M   'P 1'
_cell_length_a   12.92660000
_cell_length_b   14.28790000
_cell_length_c   18.14820000
_cell_angle_alpha   90.00110000
_cell_angle_beta   90.00040000
_cell_angle_gamma   95.63330000
_symmetry_Int_Tables_number   1
_chemical_formula_structural   MnH30C35(NO4)2
_chemical_formula_sum   'Mn4 H120 C140 N8 O32'
_cell_volume   3335.67530693
_cell_formula_units_Z   4
loop_
 _symmetry_equiv_pos_site_id
 _symmetry_equiv_pos_as_xyz
  1  'x, y, z'
loop_
 _atom_site_type_symbol
 _atom_site_label
 _atom_site_symmetry_multiplicity
 _atom_site_fract_x
 _atom_site_fract_y
 _atom_site_fract_z
 _atom_site_occupancy
  Mn  Mn0  1  0.99999000  0.49998000  0.00001000  1.0
  Mn  Mn1  1  0.00002000  0.00001000  0.50000000  1.0
  Mn  Mn2  1  0.49999000  0.50000000  0.99999000  1.0
  Mn  Mn3  1  0.50001000  0.00000000  0.49999000  1.0
  H  H4  1  0.65766000  0.35147000  0.00071000  1.0
  H  H5  1  0.34239000  0.14855000  0.50072000  1.0
  H  H6  1  0.34237000  0.64855000  0.99929000  1.0
  H  H7  1  0.65764000  0.85146000  0.49928000  1.0
  H  H8  1  0.76173000  0.26436000  0.91368000  1.0
  H  H9  1  0.23828000  0.23564000  0.41370000  1.0
  H  H10  1  0.23826000  0.73564000  0.08631000  1.0
  H  H11  1  0.76171000  0.76435000  0.58631000  1.0
  H  H12  1  0.65004000  0.42991000  0.73764000  1.0
  H  H13  1  0.34991000  0.07008000  0.23764000  1.0
  H  H14  1  0.34992000  0.57009000  0.26236000  1.0
  H  H15  1  0.65006000  0.92990000  0.76235000  1.0
  H  H16  1  0.54856000  0.50986000  0.83106000  1.0
  H  H17  1  0.45143000  0.99014000  0.33105000  1.0
  H  H18  1  0.45143000  0.49016000  0.16894000  1.0
  H  H19  1  0.54857000  0.00985000  0.66894000  1.0
  H  H20  1  0.77353000  0.32050000  0.70984000  1.0
  H  H21  1  0.22640000  0.17950000  0.20986000  1.0
  H  H22  1  0.22644000  0.67950000  0.29015000  1.0
  H  H23  1  0.77354000  0.82050000  0.79015000  1.0
  H  H24  1  0.85948000  0.29543000  0.78136000  1.0
  H  H25  1  0.14051000  0.20461000  0.28140000  1.0
  H  H26  1  0.14050000  0.70459000  0.21862000  1.0
  H  H27  1  0.85948000  0.79542000  0.71862000  1.0
  H  H28  1  0.65447000  0.17619000  0.74736000  1.0
  H  H29  1  0.34554000  0.32378000  0.24738000  1.0
  H  H30  1  0.34552000  0.82380000  0.25262000  1.0
  H  H31  1  0.65448000  0.67618000  0.75261000  1.0
  H  H32  1  0.74563000  0.14977000  0.81489000  1.0
  H  H33  1  0.25438000  0.35025000  0.31491000  1.0
  H  H34  1  0.25434000  0.85025000  0.18509000  1.0
  H  H35  1  0.74566000  0.64974000  0.68510000  1.0
  H  H36  1  0.87825000  0.04861000  0.77788000  1.0
  H  H37  1  0.12174000  0.45136000  0.27788000  1.0
  H  H38  1  0.12173000  0.95136000  0.22213000  1.0
  H  H39  1  0.87828000  0.54864000  0.72213000  1.0
  H  H40  1  0.96734000  0.97126000  0.67684000  1.0
  H  H41  1  0.03267000  0.52871000  0.17683000  1.0
  H  H42  1  0.03269000  0.02874000  0.32317000  1.0
  H  H43  1  0.96732000  0.47126000  0.82318000  1.0
  H  H44  1  0.82720000  0.12356000  0.51721000  1.0
  H  H45  1  0.17288000  0.37645000  0.01721000  1.0
  H  H46  1  0.17287000  0.87647000  0.48278000  1.0
  H  H47  1  0.82714000  0.62353000  0.98279000  1.0
  H  H48  1  0.72825000  0.20371000  0.61124000  1.0
  H  H49  1  0.27183000  0.29631000  0.11125000  1.0
  H  H50  1  0.27179000  0.79631000  0.38874000  1.0
  H  H51  1  0.72823000  0.70370000  0.88875000  1.0
  H  H52  1  0.42612000  0.81297000  0.81500000  1.0
  H  H53  1  0.57386000  0.68702000  0.31501000  1.0
  H  H54  1  0.57382000  0.18705000  0.18499000  1.0
  H  H55  1  0.42615000  0.31296000  0.68499000  1.0
  H  H56  1  0.39563000  0.96782000  0.76505000  1.0
  H  H57  1  0.60436000  0.53218000  0.26507000  1.0
  H  H58  1  0.60432000  0.03222000  0.23494000  1.0
  H  H59  1  0.39563000  0.46782000  0.73493000  1.0
  H  H60  1  0.41417000  0.14199000  0.77625000  1.0
  H  H61  1  0.58583000  0.35801000  0.27626000  1.0
  H  H62  1  0.58579000  0.85804000  0.22373000  1.0
  H  H63  1  0.41418000  0.64199000  0.72374000  1.0
  H  H64  1  0.52053000  0.21806000  0.87882000  1.0
  H  H65  1  0.47948000  0.28194000  0.37882000  1.0
  H  H66  1  0.47944000  0.78193000  0.12117000  1.0
  H  H67  1  0.52054000  0.71807000  0.62118000  1.0
  H  H68  1  0.61884000  0.12455000  0.96199000  1.0
  H  H69  1  0.38117000  0.37545000  0.46200000  1.0
  H  H70  1  0.38114000  0.87547000  0.03800000  1.0
  H  H71  1  0.61885000  0.62455000  0.53802000  1.0
  H  H72  1  0.72507000  0.91897000  0.04961000  1.0
  H  H73  1  0.27491000  0.58103000  0.54961000  1.0
  H  H74  1  0.27486000  0.08104000  0.95037000  1.0
  H  H75  1  0.72514000  0.41899000  0.45041000  1.0
  H  H76  1  0.65412000  0.01713000  0.05539000  1.0
  H  H77  1  0.34588000  0.48288000  0.55540000  1.0
  H  H78  1  0.34585000  0.98288000  0.94459000  1.0
  H  H79  1  0.65416000  0.51714000  0.44462000  1.0
  H  H80  1  0.02655000  0.21275000  0.92159000  1.0
  H  H81  1  0.97343000  0.28722000  0.42161000  1.0
  H  H82  1  0.97341000  0.78722000  0.07842000  1.0
  H  H83  1  0.02661000  0.71278000  0.57843000  1.0
  H  H84  1  0.80252000  0.85994000  0.94282000  1.0
  H  H85  1  0.19746000  0.64004000  0.44284000  1.0
  H  H86  1  0.19744000  0.14004000  0.05716000  1.0
  H  H87  1  0.80256000  0.35996000  0.55717000  1.0
  H  H88  1  0.94109000  0.80336000  0.86764000  1.0
  H  H89  1  0.05888000  0.69661000  0.36766000  1.0
  H  H90  1  0.05888000  0.19663000  0.13235000  1.0
  H  H91  1  0.94114000  0.30338000  0.63234000  1.0
  H  H92  1  0.09051000  0.91325000  0.82402000  1.0
  H  H93  1  0.90946000  0.58672000  0.32405000  1.0
  H  H94  1  0.90948000  0.08673000  0.17598000  1.0
  H  H95  1  0.09057000  0.41326000  0.67597000  1.0
  H  H96  1  0.09892000  0.08298000  0.85712000  1.0
  H  H97  1  0.90106000  0.41699000  0.35714000  1.0
  H  H98  1  0.90106000  0.91700000  0.14288000  1.0
  H  H99  1  0.09897000  0.58299000  0.64289000  1.0
  H  H100  1  0.15349000  0.57507000  0.92251000  1.0
  H  H101  1  0.84652000  0.92492000  0.42251000  1.0
  H  H102  1  0.84649000  0.42490000  0.07752000  1.0
  H  H103  1  0.15353000  0.07508000  0.57752000  1.0
  H  H104  1  0.13121000  0.47980000  0.87447000  1.0
  H  H105  1  0.86879000  0.02017000  0.37446000  1.0
  H  H106  1  0.86877000  0.52017000  0.12556000  1.0
  H  H107  1  0.13124000  0.97982000  0.62555000  1.0
  H  H108  1  0.29656000  0.48409000  0.92918000  1.0
  H  H109  1  0.70343000  0.01589000  0.42916000  1.0
  H  H110  1  0.70342000  0.51590000  0.07082000  1.0
  H  H111  1  0.29659000  0.98412000  0.57083000  1.0
  H  H112  1  0.38741000  0.54859000  0.88972000  1.0
  H  H113  1  0.61259000  0.95140000  0.38971000  1.0
  H  H114  1  0.61258000  0.45140000  0.11027000  1.0
  H  H115  1  0.38745000  0.04861000  0.61027000  1.0
  H  H116  1  0.62033000  0.71497000  0.99331000  1.0
  H  H117  1  0.37964000  0.78503000  0.49332000  1.0
  H  H118  1  0.37964000  0.28505000  0.00665000  1.0
  H  H119  1  0.62039000  0.21498000  0.50668000  1.0
  H  H120  1  0.76430000  0.22948000  0.07652000  1.0
  H  H121  1  0.23572000  0.27051000  0.57652000  1.0
  H  H122  1  0.23568000  0.77050000  0.92348000  1.0
  H  H123  1  0.76434000  0.72950000  0.42352000  1.0
  C  C124  1  0.65763000  0.36693000  0.94190000  1.0
  C  C125  1  0.34240000  0.13309000  0.44191000  1.0
  C  C126  1  0.34238000  0.63309000  0.05809000  1.0
  C  C127  1  0.65762000  0.86691000  0.55808000  1.0
  C  C128  1  0.71611000  0.31898000  0.89337000  1.0
  C  C129  1  0.28390000  0.18102000  0.39338000  1.0
  C  C130  1  0.28388000  0.68103000  0.10662000  1.0
  C  C131  1  0.71610000  0.81897000  0.60662000  1.0
  C  C132  1  0.71530000  0.34036000  0.81822000  1.0
  C  C133  1  0.28469000  0.15964000  0.31824000  1.0
  C  C134  1  0.28468000  0.65965000  0.18176000  1.0
  C  C135  1  0.71531000  0.84035000  0.68176000  1.0
  C  C136  1  0.65400000  0.41026000  0.79550000  1.0
  C  C137  1  0.34597000  0.08974000  0.29550000  1.0
  C  C138  1  0.34598000  0.58974000  0.20449000  1.0
  C  C139  1  0.65401000  0.91026000  0.70449000  1.0
  C  C140  1  0.59712000  0.45517000  0.84749000  1.0
  C  C141  1  0.40287000  0.04483000  0.34749000  1.0
  C  C142  1  0.40287000  0.54484000  0.15251000  1.0
  C  C143  1  0.59713000  0.95516000  0.65251000  1.0
  C  C144  1  0.77706000  0.28857000  0.76469000  1.0
  C  C145  1  0.22291000  0.21144000  0.26472000  1.0
  C  C146  1  0.22291000  0.71145000  0.23529000  1.0
  C  C147  1  0.77708000  0.78854000  0.73530000  1.0
  C  C148  1  0.73792000  0.18299000  0.76085000  1.0
  C  C149  1  0.26208000  0.31700000  0.26087000  1.0
  C  C150  1  0.26206000  0.81699000  0.23912000  1.0
  C  C151  1  0.73795000  0.68301000  0.73913000  1.0
  C  C152  1  0.79550000  0.13384000  0.70327000  1.0
  C  C153  1  0.20452000  0.36616000  0.20328000  1.0
  C  C154  1  0.20451000  0.86616000  0.29672000  1.0
  C  C155  1  0.79551000  0.63384000  0.79673000  1.0
  C  C156  1  0.86455000  0.06770000  0.72081000  1.0
  C  C157  1  0.13546000  0.43230000  0.22081000  1.0
  C  C158  1  0.13545000  0.93230000  0.27920000  1.0
  C  C159  1  0.86456000  0.56770000  0.77921000  1.0
  C  C160  1  0.91520000  0.02485000  0.66429000  1.0
  C  C161  1  0.08482000  0.47513000  0.16428000  1.0
  C  C162  1  0.08481000  0.97514000  0.33572000  1.0
  C  C163  1  0.91520000  0.52486000  0.83572000  1.0
  C  C164  1  0.83608000  0.10871000  0.57562000  1.0
  C  C165  1  0.16398000  0.39128000  0.07563000  1.0
  C  C166  1  0.16396000  0.89130000  0.42437000  1.0
  C  C167  1  0.83604000  0.60869000  0.92438000  1.0
  C  C168  1  0.78169000  0.15368000  0.62858000  1.0
  C  C169  1  0.21835000  0.34632000  0.12859000  1.0
  C  C170  1  0.21832000  0.84632000  0.37141000  1.0
  C  C171  1  0.78168000  0.65368000  0.87142000  1.0
  C  C172  1  0.49936000  0.68824000  0.90486000  1.0
  C  C173  1  0.50060000  0.81176000  0.40486000  1.0
  C  C174  1  0.50059000  0.31178000  0.09513000  1.0
  C  C175  1  0.49942000  0.18824000  0.59512000  1.0
  C  C176  1  0.53001000  0.79161000  0.90341000  1.0
  C  C177  1  0.46996000  0.70839000  0.40340000  1.0
  C  C178  1  0.46991000  0.20841000  0.09658000  1.0
  C  C179  1  0.53007000  0.29161000  0.59658000  1.0
  C  C180  1  0.60360000  0.83569000  0.95519000  1.0
  C  C181  1  0.39638000  0.66431000  0.45519000  1.0
  C  C182  1  0.39635000  0.16433000  0.04479000  1.0
  C  C183  1  0.60365000  0.33570000  0.54481000  1.0
  C  C184  1  0.62379000  0.93338000  0.95875000  1.0
  C  C185  1  0.37620000  0.56661000  0.45876000  1.0
  C  C186  1  0.37616000  0.06662000  0.04123000  1.0
  C  C187  1  0.62383000  0.43339000  0.54126000  1.0
  C  C188  1  0.56770000  0.98991000  0.91130000  1.0
  C  C189  1  0.43229000  0.51009000  0.41131000  1.0
  C  C190  1  0.43225000  0.01012000  0.08869000  1.0
  C  C191  1  0.56772000  0.48991000  0.58870000  1.0
  C  C192  1  0.49865000  0.94600000  0.85627000  1.0
  C  C193  1  0.50134000  0.55400000  0.35629000  1.0
  C  C194  1  0.50128000  0.05402000  0.14371000  1.0
  C  C195  1  0.49868000  0.44599000  0.64372000  1.0
  C  C196  1  0.48167000  0.84711000  0.85412000  1.0
  C  C197  1  0.51832000  0.65288000  0.35413000  1.0
  C  C198  1  0.51825000  0.15292000  0.14586000  1.0
  C  C199  1  0.48171000  0.34711000  0.64587000  1.0
  C  C200  1  0.44530000  0.00271000  0.80756000  1.0
  C  C201  1  0.55468000  0.49730000  0.30757000  1.0
  C  C202  1  0.55464000  0.99734000  0.19244000  1.0
  C  C203  1  0.44531000  0.50269000  0.69244000  1.0
  C  C204  1  0.45463000  0.09919000  0.81432000  1.0
  C  C205  1  0.54538000  0.40082000  0.31432000  1.0
  C  C206  1  0.54534000  0.90084000  0.18567000  1.0
  C  C207  1  0.45463000  0.59918000  0.68567000  1.0
  C  C208  1  0.51708000  0.14214000  0.87133000  1.0
  C  C209  1  0.48293000  0.35786000  0.37134000  1.0
  C  C210  1  0.48289000  0.85788000  0.12865000  1.0
  C  C211  1  0.51708000  0.64214000  0.62866000  1.0
  C  C212  1  0.57289000  0.08956000  0.91789000  1.0
  C  C213  1  0.42712000  0.41044000  0.41789000  1.0
  C  C214  1  0.42707000  0.91046000  0.08209000  1.0
  C  C215  1  0.57289000  0.58956000  0.58210000  1.0
  C  C216  1  0.69780000  0.97654000  0.01702000  1.0
  C  C217  1  0.30219000  0.52346000  0.51702000  1.0
  C  C218  1  0.30216000  0.02346000  0.98297000  1.0
  C  C219  1  0.69784000  0.47656000  0.48299000  1.0
  C  C220  1  0.79046000  0.03999000  0.98960000  1.0
  C  C221  1  0.20954000  0.46000000  0.48960000  1.0
  C  C222  1  0.20951000  0.95999000  0.01039000  1.0
  C  C223  1  0.79049000  0.54002000  0.51042000  1.0
  C  C224  1  0.80531000  0.13268000  0.01478000  1.0
  C  C225  1  0.19469000  0.36731000  0.51478000  1.0
  C  C226  1  0.19467000  0.86730000  0.98522000  1.0
  C  C227  1  0.80534000  0.63271000  0.48526000  1.0
  C  C228  1  0.89017000  0.19635000  0.98847000  1.0
  C  C229  1  0.10983000  0.30364000  0.48848000  1.0
  C  C230  1  0.10981000  0.80363000  0.01153000  1.0
  C  C231  1  0.89021000  0.69638000  0.51156000  1.0
  C  C232  1  0.96184000  0.16395000  0.94047000  1.0
  C  C233  1  0.03815000  0.33603000  0.44048000  1.0
  C  C234  1  0.03814000  0.83603000  0.05953000  1.0
  C  C235  1  0.96188000  0.66398000  0.55955000  1.0
  C  C236  1  0.95450000  0.06910000  0.91830000  1.0
  C  C237  1  0.04547000  0.43088000  0.41831000  1.0
  C  C238  1  0.04546000  0.93088000  0.08170000  1.0
  C  C239  1  0.95455000  0.56912000  0.58172000  1.0
  C  C240  1  0.86739000  0.00627000  0.94307000  1.0
  C  C241  1  0.13258000  0.49371000  0.44308000  1.0
  C  C242  1  0.13257000  0.99371000  0.05692000  1.0
  C  C243  1  0.86742000  0.50630000  0.55695000  1.0
  C  C244  1  0.86496000  0.90994000  0.92242000  1.0
  C  C245  1  0.13501000  0.59005000  0.42244000  1.0
  C  C246  1  0.13500000  0.09005000  0.07756000  1.0
  C  C247  1  0.86500000  0.40996000  0.57757000  1.0
  C  C248  1  0.94337000  0.87812000  0.88048000  1.0
  C  C249  1  0.05661000  0.62186000  0.38050000  1.0
  C  C250  1  0.05660000  0.12187000  0.11951000  1.0
  C  C251  1  0.94343000  0.37814000  0.61950000  1.0
  C  C252  1  0.02805000  0.94034000  0.85550000  1.0
  C  C253  1  0.97193000  0.55964000  0.35552000  1.0
  C  C254  1  0.97193000  0.05965000  0.14450000  1.0
  C  C255  1  0.02810000  0.44035000  0.64450000  1.0
  C  C256  1  0.03303000  0.03411000  0.87420000  1.0
  C  C257  1  0.96693000  0.46588000  0.37423000  1.0
  C  C258  1  0.96693000  0.96589000  0.12579000  1.0
  C  C259  1  0.03310000  0.53411000  0.62580000  1.0
  C  C260  1  0.90169000  0.29653000  0.01167000  1.0
  C  C261  1  0.09833000  0.20346000  0.51168000  1.0
  C  C262  1  0.09830000  0.70344000  0.98834000  1.0
  C  C263  1  0.90174000  0.79656000  0.48836000  1.0
  N  N264  1  0.59844000  0.43418000  0.91974000  1.0
  N  N265  1  0.40158000  0.06584000  0.41974000  1.0
  N  N266  1  0.40157000  0.56585000  0.08026000  1.0
  N  N267  1  0.59844000  0.93416000  0.58025000  1.0
  N  N268  1  0.90249000  0.04479000  0.59259000  1.0
  N  N269  1  0.09755000  0.45520000  0.09259000  1.0
  N  N270  1  0.09756000  0.95522000  0.40741000  1.0
  N  N271  1  0.90245000  0.54478000  0.90741000  1.0
  O  O272  1  0.54652000  0.63919000  0.95289000  1.0
  O  O273  1  0.45345000  0.86081000  0.45290000  1.0
  O  O274  1  0.45343000  0.36082000  0.04709000  1.0
  O  O275  1  0.54656000  0.13921000  0.54708000  1.0
  O  O276  1  0.14612000  0.50198000  0.92438000  1.0
  O  O277  1  0.85388000  0.99800000  0.42437000  1.0
  O  O278  1  0.85385000  0.49799000  0.07564000  1.0
  O  O279  1  0.14617000  0.00201000  0.57564000  1.0
  O  O280  1  0.42908000  0.65224000  0.86234000  1.0
  O  O281  1  0.57088000  0.84775000  0.36234000  1.0
  O  O282  1  0.57085000  0.34777000  0.13765000  1.0
  O  O283  1  0.42916000  0.15223000  0.63766000  1.0
  O  O284  1  0.37071000  0.48645000  0.91663000  1.0
  O  O285  1  0.62927000  0.01355000  0.41662000  1.0
  O  O286  1  0.62926000  0.51356000  0.08336000  1.0
  O  O287  1  0.37075000  0.98646000  0.58336000  1.0
  O  O288  1  0.65373000  0.78154000  0.00236000  1.0
  O  O289  1  0.34624000  0.71845000  0.50236000  1.0
  O  O290  1  0.34625000  0.21846000  0.99760000  1.0
  O  O291  1  0.65381000  0.28156000  0.49764000  1.0
  O  O292  1  0.96478000  0.35472000  0.97701000  1.0
  O  O293  1  0.03525000  0.14527000  0.47700000  1.0
  O  O294  1  0.03522000  0.64524000  0.02301000  1.0
  O  O295  1  0.96484000  0.85475000  0.52302000  1.0
  O  O296  1  0.84461000  0.32028000  0.06579000  1.0
  O  O297  1  0.15540000  0.17970000  0.56580000  1.0
  O  O298  1  0.15538000  0.67969000  0.93423000  1.0
  O  O299  1  0.84465000  0.82032000  0.43424000  1.0
  O  O300  1  0.73664000  0.16285000  0.06371000  1.0
  O  O301  1  0.26337000  0.33713000  0.56371000  1.0
  O  O302  1  0.26333000  0.83713000  0.93629000  1.0
  O  O303  1  0.73668000  0.66288000  0.43632000  1.0
