# generated using pymatgen
data_ZnH10C11(NO2)3
_symmetry_space_group_name_H-M   'P 1'
_cell_length_a   9.27276000
_cell_length_b   9.27923000
_cell_length_c   15.00040000
_cell_angle_alpha   90.00000000
_cell_angle_beta   90.00000000
_cell_angle_gamma   108.53800000
_symmetry_Int_Tables_number   1
_chemical_formula_structural   ZnH10C11(NO2)3
_chemical_formula_sum   'Zn4 H40 C44 N12 O24'
_cell_volume   1223.72519425
_cell_formula_units_Z   4
loop_
 _symmetry_equiv_pos_site_id
 _symmetry_equiv_pos_as_xyz
  1  'x, y, z'
loop_
 _atom_site_type_symbol
 _atom_site_label
 _atom_site_symmetry_multiplicity
 _atom_site_fract_x
 _atom_site_fract_y
 _atom_site_fract_z
 _atom_site_occupancy
  Zn  Zn0  1  0.58939000  0.21755000  0.87182000  1.0
  Zn  Zn1  1  0.41061000  0.28245000  0.37182000  1.0
  Zn  Zn2  1  0.41061000  0.78245000  0.12818000  1.0
  Zn  Zn3  1  0.58939000  0.71755000  0.62818000  1.0
  H  H4  1  0.04344000  0.68273000  0.87625000  1.0
  H  H5  1  0.95656000  0.81727000  0.37625000  1.0
  H  H6  1  0.95656000  0.31727000  0.12375000  1.0
  H  H7  1  0.04344000  0.18273000  0.62375000  1.0
  H  H8  1  0.00587000  0.90309000  0.89681000  1.0
  H  H9  1  0.99413000  0.59691000  0.39680000  1.0
  H  H10  1  0.99413000  0.09690000  0.10320000  1.0
  H  H11  1  0.00587000  0.40309000  0.60320000  1.0
  H  H12  1  0.47023000  0.19310000  0.70022000  1.0
  H  H13  1  0.52977000  0.30690000  0.20022000  1.0
  H  H14  1  0.52977000  0.80690000  0.29978000  1.0
  H  H15  1  0.47023000  0.69310000  0.79978000  1.0
  H  H16  1  0.64708000  0.20334000  0.69327000  1.0
  H  H17  1  0.35292000  0.29666000  0.19327000  1.0
  H  H18  1  0.35292000  0.79666000  0.30673000  1.0
  H  H19  1  0.64708000  0.70334000  0.80673000  1.0
  H  H20  1  0.57532000  0.93750000  0.81346000  1.0
  H  H21  1  0.42468000  0.56250000  0.31346000  1.0
  H  H22  1  0.42468000  0.06250000  0.18654000  1.0
  H  H23  1  0.57532000  0.43750000  0.68654000  1.0
  H  H24  1  0.54723000  0.91793000  0.92193000  1.0
  H  H25  1  0.45277000  0.58207000  0.42193000  1.0
  H  H26  1  0.45277000  0.08207000  0.07807000  1.0
  H  H27  1  0.54723000  0.41793000  0.57807000  1.0
  H  H28  1  0.78704000  0.89957000  0.89085000  1.0
  H  H29  1  0.21296000  0.60043000  0.39085000  1.0
  H  H30  1  0.21296000  0.10043000  0.10915000  1.0
  H  H31  1  0.78704000  0.39957000  0.60915000  1.0
  H  H32  1  0.38558000  0.40340000  0.84442000  1.0
  H  H33  1  0.61442000  0.09660000  0.34442000  1.0
  H  H34  1  0.61442000  0.59660000  0.15558000  1.0
  H  H35  1  0.38558000  0.90340000  0.65558000  1.0
  H  H36  1  0.11017000  0.37967000  0.83135000  1.0
  H  H37  1  0.88983000  0.12033000  0.33135000  1.0
  H  H38  1  0.88983000  0.62033000  0.16865000  1.0
  H  H39  1  0.11017000  0.87967000  0.66865000  1.0
  H  H40  1  0.28373000  0.94665000  0.90531000  1.0
  H  H41  1  0.71627000  0.55335000  0.40531000  1.0
  H  H42  1  0.71627000  0.05335000  0.09469000  1.0
  H  H43  1  0.28373000  0.44666000  0.59469000  1.0
  C  C44  1  0.02422000  0.60381000  0.93203000  1.0
  C  C45  1  0.97578000  0.89619000  0.43203000  1.0
  C  C46  1  0.97578000  0.39619000  0.06797000  1.0
  C  C47  1  0.02422000  0.10381000  0.56797000  1.0
  C  C48  1  0.08491000  0.01658000  0.88454000  1.0
  C  C49  1  0.91509000  0.48342000  0.38454000  1.0
  C  C50  1  0.91509000  0.98342000  0.11546000  1.0
  C  C51  1  0.08491000  0.51658000  0.61546000  1.0
  C  C52  1  0.03477000  0.14013000  0.86413000  1.0
  C  C53  1  0.96523000  0.35987000  0.36413000  1.0
  C  C54  1  0.96523000  0.85987000  0.13587000  1.0
  C  C55  1  0.03477000  0.64013000  0.63587000  1.0
  C  C56  1  0.69882000  0.32354000  0.06285000  1.0
  C  C57  1  0.30118000  0.17646000  0.56285000  1.0
  C  C58  1  0.30118000  0.67646000  0.93715000  1.0
  C  C59  1  0.69882000  0.82354000  0.43715000  1.0
  C  C60  1  0.87455000  0.52306000  0.95529000  1.0
  C  C61  1  0.12545000  0.97694000  0.45529000  1.0
  C  C62  1  0.12545000  0.47694000  0.04471000  1.0
  C  C63  1  0.87455000  0.02306000  0.54471000  1.0
  C  C64  1  0.87111000  0.13288000  0.86095000  1.0
  C  C65  1  0.12889000  0.36712000  0.36095000  1.0
  C  C66  1  0.12889000  0.86712000  0.13905000  1.0
  C  C67  1  0.87111000  0.63288000  0.63905000  1.0
  C  C68  1  0.85012000  0.41616000  0.02471000  1.0
  C  C69  1  0.14988000  0.08384000  0.52472000  1.0
  C  C70  1  0.14988000  0.58384000  0.97528000  1.0
  C  C71  1  0.85011000  0.91616000  0.47528000  1.0
  C  C72  1  0.75131000  0.55776000  0.90299000  1.0
  C  C73  1  0.24869000  0.94224000  0.40299000  1.0
  C  C74  1  0.24869000  0.44224000  0.09701000  1.0
  C  C75  1  0.75131000  0.05776000  0.59701000  1.0
  C  C76  1  0.29739000  0.29464000  0.85457000  1.0
  C  C77  1  0.70261000  0.20536000  0.35457000  1.0
  C  C78  1  0.70260000  0.70536000  0.14543000  1.0
  C  C79  1  0.29740000  0.79464000  0.64543000  1.0
  C  C80  1  0.14415000  0.28092000  0.84759000  1.0
  C  C81  1  0.85585000  0.21908000  0.34759000  1.0
  C  C82  1  0.85585000  0.71908000  0.15241000  1.0
  C  C83  1  0.14415000  0.78092000  0.65241000  1.0
  C  C84  1  0.24072000  0.04001000  0.88923000  1.0
  C  C85  1  0.75928000  0.45999000  0.38923000  1.0
  C  C86  1  0.75928000  0.95999000  0.11077000  1.0
  C  C87  1  0.24072000  0.54001000  0.61077000  1.0
  N  N88  1  0.34587000  0.17649000  0.87551000  1.0
  N  N89  1  0.65413000  0.32351000  0.37551000  1.0
  N  N90  1  0.65413000  0.82351000  0.12449000  1.0
  N  N91  1  0.34587000  0.67649000  0.62449000  1.0
  N  N92  1  0.61053000  0.99157000  0.87356000  1.0
  N  N93  1  0.38947000  0.50843000  0.37356000  1.0
  N  N94  1  0.38947000  0.00843000  0.12644000  1.0
  N  N95  1  0.61053000  0.49157000  0.62644000  1.0
  N  N96  1  0.76482000  0.00074000  0.88330000  1.0
  N  N97  1  0.23518000  0.49926000  0.38330000  1.0
  N  N98  1  0.23518000  0.99926000  0.11670000  1.0
  N  N99  1  0.76482000  0.50074000  0.61670000  1.0
  O  O100  1  0.60291000  0.22387000  0.01439000  1.0
  O  O101  1  0.39709000  0.27613000  0.51439000  1.0
  O  O102  1  0.39709000  0.77613000  0.98561000  1.0
  O  O103  1  0.60291000  0.72387000  0.48561000  1.0
  O  O104  1  0.63559000  0.45048000  0.87682000  1.0
  O  O105  1  0.36441000  0.04952000  0.37682000  1.0
  O  O106  1  0.36441000  0.54951000  0.12318000  1.0
  O  O107  1  0.63559000  0.95049000  0.62318000  1.0
  O  O108  1  0.56918000  0.22254000  0.73410000  1.0
  O  O109  1  0.43082000  0.27746000  0.23410000  1.0
  O  O110  1  0.43082000  0.77746000  0.26590000  1.0
  O  O111  1  0.56918000  0.72254000  0.76590000  1.0
  O  O112  1  0.77232000  0.69678000  0.88400000  1.0
  O  O113  1  0.22768000  0.80322000  0.38400000  1.0
  O  O114  1  0.22768000  0.30322000  0.11600000  1.0
  O  O115  1  0.77232000  0.19678000  0.61600000  1.0
  O  O116  1  0.68271000  0.34322000  0.14501000  1.0
  O  O117  1  0.31729000  0.15678000  0.64501000  1.0
  O  O118  1  0.31729000  0.65678000  0.85499000  1.0
  O  O119  1  0.68271000  0.84323000  0.35499000  1.0
  O  O120  1  0.83645000  0.24843000  0.84056000  1.0
  O  O121  1  0.16355000  0.25157000  0.34056000  1.0
  O  O122  1  0.16355000  0.75157000  0.15944000  1.0
  O  O123  1  0.83645000  0.74842000  0.65944000  1.0
