# generated using pymatgen
data_Cu3H20C16(NO10)2
_symmetry_space_group_name_H-M   'P 1'
_cell_length_a   7.27178000
_cell_length_b   8.03292000
_cell_length_c   10.84280000
_cell_angle_alpha   77.86030000
_cell_angle_beta   85.76340000
_cell_angle_gamma   75.69940000
_symmetry_Int_Tables_number   1
_chemical_formula_structural   Cu3H20C16(NO10)2
_chemical_formula_sum   'Cu3 H20 C16 N2 O20'
_cell_volume   599.85579426
_cell_formula_units_Z   1
loop_
 _symmetry_equiv_pos_site_id
 _symmetry_equiv_pos_as_xyz
  1  'x, y, z'
loop_
 _atom_site_type_symbol
 _atom_site_label
 _atom_site_symmetry_multiplicity
 _atom_site_fract_x
 _atom_site_fract_y
 _atom_site_fract_z
 _atom_site_occupancy
  Cu  Cu0  1  0.50000000  0.50000000  0.50000000  1.0
  Cu  Cu1  1  0.59697000  0.13076000  0.68099000  1.0
  Cu  Cu2  1  0.40303000  0.86924000  0.31901000  1.0
  H  H3  1  0.42114000  0.31016000  0.02063000  1.0
  H  H4  1  0.57886000  0.68984000  0.97937000  1.0
  H  H5  1  0.22910000  0.43137000  0.19397000  1.0
  H  H6  1  0.77090000  0.56864000  0.80603000  1.0
  H  H7  1  0.98348000  0.71621000  0.14102000  1.0
  H  H8  1  0.01653000  0.28380000  0.85898000  1.0
  H  H9  1  0.10888000  0.71376000  0.49552000  1.0
  H  H10  1  0.89111000  0.28624000  0.50448000  1.0
  H  H11  1  0.08490000  0.64617000  0.37333000  1.0
  H  H12  1  0.91509000  0.35384000  0.62667000  1.0
  H  H13  1  0.41343000  0.22493000  0.48395000  1.0
  H  H14  1  0.58657000  0.77506000  0.51605000  1.0
  H  H15  1  0.39414000  0.91085000  0.75937000  1.0
  H  H16  1  0.60587000  0.08914000  0.24063000  1.0
  H  H17  1  0.42802000  0.98249000  0.87800000  1.0
  H  H18  1  0.57199000  0.01750000  0.12200000  1.0
  H  H19  1  0.73700000  0.01826000  0.48252000  1.0
  H  H20  1  0.26300000  0.98174000  0.51748000  1.0
  H  H21  1  0.82952000  0.87857000  0.60379000  1.0
  H  H22  1  0.17048000  0.12144000  0.39621000  1.0
  C  C23  1  0.41977000  0.44607000  0.77363000  1.0
  C  C24  1  0.58022000  0.55392000  0.22637000  1.0
  C  C25  1  0.29904000  0.52665000  0.87430000  1.0
  C  C26  1  0.70096000  0.47334000  0.12570000  1.0
  C  C27  1  0.31904000  0.43602000  0.99955000  1.0
  C  C28  1  0.68096000  0.56398000  0.00046000  1.0
  C  C29  1  0.21051000  0.50386000  0.09702000  1.0
  C  C30  1  0.78949000  0.49614000  0.90298000  1.0
  C  C31  1  0.07508000  0.66075000  0.06865000  1.0
  C  C32  1  0.92493000  0.33926000  0.93135000  1.0
  C  C33  1  0.05271000  0.74950000  0.94282000  1.0
  C  C34  1  0.94730000  0.25050000  0.05718000  1.0
  C  C35  1  0.16601000  0.68865000  0.84323000  1.0
  C  C36  1  0.83399000  0.31135000  0.15677000  1.0
  C  C37  1  0.14007000  0.78420000  0.70677000  1.0
  C  C38  1  0.85994000  0.21580000  0.29323000  1.0
  N  N39  1  0.89875000  0.90658000  0.91732000  1.0
  N  N40  1  0.10125000  0.09343000  0.08268000  1.0
  O  O41  1  0.43887000  0.55009000  0.67048000  1.0
  O  O42  1  0.56112000  0.44991000  0.32952000  1.0
  O  O43  1  0.49318000  0.28168000  0.80150000  1.0
  O  O44  1  0.50681000  0.71832000  0.19850000  1.0
  O  O45  1  0.23151000  0.90052000  0.66595000  1.0
  O  O46  1  0.76849000  0.09948000  0.33406000  1.0
  O  O47  1  0.02761000  0.73621000  0.64465000  1.0
  O  O48  1  0.97239000  0.26379000  0.35535000  1.0
  O  O49  1  0.88068000  0.99360000  0.80721000  1.0
  O  O50  1  0.11932000  0.00640000  0.19278000  1.0
  O  O51  1  0.79158000  0.94680000  0.00682000  1.0
  O  O52  1  0.20843000  0.05320000  0.99318000  1.0
  O  O53  1  0.17229000  0.69048000  0.41407000  1.0
  O  O54  1  0.82770000  0.30953000  0.58592000  1.0
  O  O55  1  0.42225000  0.28401000  0.55305000  1.0
  O  O56  1  0.57776000  0.71598000  0.44696000  1.0
  O  O57  1  0.49651000  0.92466000  0.81166000  1.0
  O  O58  1  0.50350000  0.07533000  0.18834000  1.0
  O  O59  1  0.70661000  0.96069000  0.57170000  1.0
  O  O60  1  0.29339000  0.03931000  0.42829000  1.0
