# generated using pymatgen
data_CoH16C24(NO)6
_symmetry_space_group_name_H-M   'P 1'
_cell_length_a   6.06929000
_cell_length_b   10.59450000
_cell_length_c   17.46520000
_cell_angle_alpha   90.00000000
_cell_angle_beta   90.00000000
_cell_angle_gamma   95.75250000
_symmetry_Int_Tables_number   1
_chemical_formula_structural   CoH16C24(NO)6
_chemical_formula_sum   'Co2 H32 C48 N12 O12'
_cell_volume   1117.37602514
_cell_formula_units_Z   2
loop_
 _symmetry_equiv_pos_site_id
 _symmetry_equiv_pos_as_xyz
  1  'x, y, z'
loop_
 _atom_site_type_symbol
 _atom_site_label
 _atom_site_symmetry_multiplicity
 _atom_site_fract_x
 _atom_site_fract_y
 _atom_site_fract_z
 _atom_site_occupancy
  Co  Co0  1  0.00000000  0.50001000  0.00000000  1.0
  Co  Co1  1  0.50000000  0.00000000  0.50000000  1.0
  H  H2  1  0.56770000  0.35236000  0.97778000  1.0
  H  H3  1  0.93229000  0.14766000  0.47777000  1.0
  H  H4  1  0.43229000  0.64767000  0.02223000  1.0
  H  H5  1  0.06772000  0.85233000  0.52223000  1.0
  H  H6  1  0.49636000  0.27247000  0.42431000  1.0
  H  H7  1  0.00364000  0.22754000  0.92431000  1.0
  H  H8  1  0.50364000  0.72752000  0.57569000  1.0
  H  H9  1  0.99635000  0.77248000  0.07569000  1.0
  H  H10  1  0.20378000  0.12178000  0.62378000  1.0
  H  H11  1  0.29624000  0.37822000  0.12378000  1.0
  H  H12  1  0.79622000  0.87820000  0.37622000  1.0
  H  H13  1  0.70381000  0.62180000  0.87622000  1.0
  H  H14  1  0.33039000  0.47466000  0.44327000  1.0
  H  H15  1  0.16959000  0.02535000  0.94327000  1.0
  H  H16  1  0.66960000  0.52534000  0.55673000  1.0
  H  H17  1  0.83038000  0.97466000  0.05673000  1.0
  H  H18  1  0.10676000  0.50499000  0.56213000  1.0
  H  H19  1  0.39323000  0.99500000  0.06212000  1.0
  H  H20  1  0.89322000  0.49499000  0.43787000  1.0
  H  H21  1  0.60675000  0.00501000  0.93787000  1.0
  H  H22  1  0.55644000  0.28022000  0.73425000  1.0
  H  H23  1  0.94355000  0.21979000  0.23424000  1.0
  H  H24  1  0.44355000  0.71978000  0.26576000  1.0
  H  H25  1  0.05646000  0.78022000  0.76575000  1.0
  H  H26  1  0.37514000  0.24996000  0.86191000  1.0
  H  H27  1  0.12484000  0.25005000  0.36190000  1.0
  H  H28  1  0.62483000  0.75005000  0.13810000  1.0
  H  H29  1  0.87517000  0.74995000  0.63809000  1.0
  H  H30  1  0.97905000  0.23028000  0.69541000  1.0
  H  H31  1  0.52095000  0.26971000  0.19541000  1.0
  H  H32  1  0.02094000  0.76970000  0.30459000  1.0
  H  H33  1  0.47906000  0.73030000  0.80458000  1.0
  C  C34  1  0.94223000  0.44583000  0.84679000  1.0
  C  C35  1  0.55778000  0.05417000  0.34680000  1.0
  C  C36  1  0.05778000  0.55417000  0.15321000  1.0
  C  C37  1  0.44222000  0.94583000  0.65321000  1.0
  C  C38  1  0.16575000  0.52242000  0.85300000  1.0
  C  C39  1  0.33426000  0.97758000  0.35301000  1.0
  C  C40  1  0.83426000  0.47758000  0.14699000  1.0
  C  C41  1  0.66575000  0.02242000  0.64699000  1.0
  C  C42  1  0.84091000  0.39515000  0.78006000  1.0
  C  C43  1  0.65909000  0.10484000  0.28006000  1.0
  C  C44  1  0.15908000  0.60483000  0.21994000  1.0
  C  C45  1  0.34093000  0.89516000  0.71994000  1.0
  C  C46  1  0.23480000  0.20224000  0.58510000  1.0
  C  C47  1  0.26521000  0.29775000  0.08510000  1.0
  C  C48  1  0.76519000  0.79774000  0.41490000  1.0
  C  C49  1  0.73483000  0.70226000  0.91490000  1.0
  C  C50  1  0.93950000  0.42093000  0.70223000  1.0
  C  C51  1  0.56048000  0.07906000  0.20223000  1.0
  C  C52  1  0.06047000  0.57905000  0.29777000  1.0
  C  C53  1  0.43952000  0.92095000  0.79777000  1.0
  C  C54  1  0.63924000  0.36030000  0.92069000  1.0
  C  C55  1  0.86076000  0.13972000  0.42068000  1.0
  C  C56  1  0.36074000  0.63971000  0.07932000  1.0
  C  C57  1  0.13926000  0.86028000  0.57931000  1.0
  C  C58  1  0.14111000  0.31491000  0.60201000  1.0
  C  C59  1  0.35888000  0.18508000  0.10201000  1.0
  C  C60  1  0.85888000  0.68507000  0.39799000  1.0
  C  C61  1  0.64113000  0.81493000  0.89799000  1.0
  C  C62  1  0.17665000  0.41660000  0.55066000  1.0
  C  C63  1  0.32334000  0.08339000  0.05066000  1.0
  C  C64  1  0.82335000  0.58339000  0.44934000  1.0
  C  C65  1  0.67664000  0.91661000  0.94934000  1.0
  C  C66  1  0.53395000  0.30606000  0.85639000  1.0
  C  C67  1  0.96604000  0.19395000  0.35638000  1.0
  C  C68  1  0.46603000  0.69393000  0.14362000  1.0
  C  C69  1  0.03397000  0.80606000  0.64361000  1.0
  C  C70  1  0.39341000  0.28576000  0.47415000  1.0
  C  C71  1  0.10657000  0.21424000  0.97415000  1.0
  C  C72  1  0.60657000  0.71423000  0.52585000  1.0
  C  C73  1  0.89343000  0.78578000  0.02585000  1.0
  C  C74  1  0.63578000  0.32266000  0.78534000  1.0
  C  C75  1  0.86422000  0.17734000  0.28533000  1.0
  C  C76  1  0.36422000  0.67733000  0.21467000  1.0
  C  C77  1  0.13579000  0.82267000  0.71467000  1.0
  C  C78  1  0.30310000  0.39967000  0.48570000  1.0
  C  C79  1  0.19688000  0.10032000  0.98571000  1.0
  C  C80  1  0.69688000  0.60031000  0.51429000  1.0
  C  C81  1  0.80311000  0.89969000  0.01429000  1.0
  N  N82  1  0.84006000  0.42688000  0.91589000  1.0
  N  N83  1  0.65995000  0.07313000  0.41589000  1.0
  N  N84  1  0.15993000  0.57312000  0.08411000  1.0
  N  N85  1  0.34008000  0.92687000  0.58411000  1.0
  N  N86  1  0.35834000  0.18748000  0.52299000  1.0
  N  N87  1  0.14168000  0.31252000  0.02299000  1.0
  N  N88  1  0.64168000  0.81251000  0.47701000  1.0
  N  N89  1  0.85834000  0.68749000  0.97701000  1.0
  N  N90  1  0.02083000  0.31714000  0.66995000  1.0
  N  N91  1  0.47917000  0.18286000  0.16995000  1.0
  N  N92  1  0.97916000  0.68285000  0.33005000  1.0
  N  N93  1  0.52084000  0.81715000  0.83005000  1.0
  O  O94  1  0.22136000  0.54987000  0.92346000  1.0
  O  O95  1  0.27864000  0.95014000  0.42347000  1.0
  O  O96  1  0.77864000  0.45015000  0.07653000  1.0
  O  O97  1  0.72137000  0.04985000  0.57654000  1.0
  O  O98  1  0.28197000  0.55448000  0.79590000  1.0
  O  O99  1  0.21804000  0.94553000  0.29591000  1.0
  O  O100  1  0.71805000  0.44552000  0.20409000  1.0
  O  O101  1  0.78197000  0.05447000  0.70409000  1.0
  O  O102  1  0.93436000  0.52503000  0.67099000  1.0
  O  O103  1  0.56563000  0.97497000  0.17099000  1.0
  O  O104  1  0.06564000  0.47496000  0.32901000  1.0
  O  O105  1  0.43436000  0.02504000  0.82901000  1.0
