# generated using pymatgen
data_CdH20(C4N7)2
_symmetry_space_group_name_H-M   'P 1'
_cell_length_a   7.15758000
_cell_length_b   8.03697000
_cell_length_c   8.24549000
_cell_angle_alpha   61.46100000
_cell_angle_beta   65.78170000
_cell_angle_gamma   74.51480000
_symmetry_Int_Tables_number   1
_chemical_formula_structural   CdH20(C4N7)2
_chemical_formula_sum   'Cd1 H20 C8 N14'
_cell_volume   378.52114599
_cell_formula_units_Z   1
loop_
 _symmetry_equiv_pos_site_id
 _symmetry_equiv_pos_as_xyz
  1  'x, y, z'
loop_
 _atom_site_type_symbol
 _atom_site_label
 _atom_site_symmetry_multiplicity
 _atom_site_fract_x
 _atom_site_fract_y
 _atom_site_fract_z
 _atom_site_occupancy
  Cd  Cd0  1  0.00000000  0.50000000  0.50000000  1.0
  H  H1  1  0.52179000  0.34009000  0.42214000  1.0
  H  H2  1  0.47820000  0.65991000  0.57786000  1.0
  H  H3  1  0.64387000  0.45495000  0.16537000  1.0
  H  H4  1  0.35612000  0.54505000  0.83463000  1.0
  H  H5  1  0.31130000  0.63272000  0.14902000  1.0
  H  H6  1  0.68870000  0.36728000  0.85097000  1.0
  H  H7  1  0.31964000  0.08038000  0.56219000  1.0
  H  H8  1  0.68035000  0.91962000  0.43782000  1.0
  H  H9  1  0.39177000  0.66681000  0.28903000  1.0
  H  H10  1  0.60824000  0.33319000  0.71097000  1.0
  H  H11  1  0.29714000  0.99156000  0.41156000  1.0
  H  H12  1  0.70285000  0.00844000  0.58844000  1.0
  H  H13  1  0.37320000  0.32726000  0.12923000  1.0
  H  H14  1  0.62680000  0.67274000  0.87077000  1.0
  H  H15  1  0.97906000  0.11027000  0.59997000  1.0
  H  H16  1  0.02093000  0.88973000  0.40003000  1.0
  H  H17  1  0.01541000  0.22109000  0.36235000  1.0
  H  H18  1  0.98459000  0.77891000  0.63765000  1.0
  H  H19  1  0.57524000  0.17065000  0.20538000  1.0
  H  H20  1  0.42475000  0.82935000  0.79463000  1.0
  C  C21  1  0.73800000  0.88074000  0.01885000  1.0
  C  C22  1  0.26201000  0.11927000  0.98114000  1.0
  C  C23  1  0.49652000  0.40520000  0.28063000  1.0
  C  C24  1  0.50348000  0.59480000  0.71937000  1.0
  C  C25  1  0.43404000  0.25659000  0.25194000  1.0
  C  C26  1  0.56596000  0.74340000  0.74806000  1.0
  C  C27  1  0.28149000  0.12170000  0.43116000  1.0
  C  C28  1  0.71850000  0.87830000  0.56885000  1.0
  N  N29  1  0.93542000  0.86616000  0.90196000  1.0
  N  N30  1  0.06458000  0.13385000  0.09804000  1.0
  N  N31  1  0.03508000  0.73903000  0.02288000  1.0
  N  N32  1  0.96492000  0.26098000  0.97712000  1.0
  N  N33  1  0.90040000  0.67932000  0.20707000  1.0
  N  N34  1  0.09961000  0.32069000  0.79293000  1.0
  N  N35  1  0.71354000  0.76514000  0.20944000  1.0
  N  N36  1  0.28647000  0.23486000  0.79056000  1.0
  N  N37  1  0.59147000  0.00560000  0.93901000  1.0
  N  N38  1  0.40853000  0.99441000  0.06099000  1.0
  N  N39  1  0.33748000  0.56643000  0.28028000  1.0
  N  N40  1  0.66252000  0.43356000  0.71972000  1.0
  N  N41  1  0.06566000  0.20621000  0.46899000  1.0
  N  N42  1  0.93434000  0.79380000  0.53101000  1.0
