# generated using pymatgen
data_CoH15C15N2O5
_symmetry_space_group_name_H-M   'P 1'
_cell_length_a   8.15155000
_cell_length_b   14.00270000
_cell_length_c   14.56800000
_cell_angle_alpha   89.99640000
_cell_angle_beta   89.99260000
_cell_angle_gamma   97.99660000
_symmetry_Int_Tables_number   1
_chemical_formula_structural   CoH15C15N2O5
_chemical_formula_sum   'Co4 H60 C60 N8 O20'
_cell_volume   1646.67656759
_cell_formula_units_Z   4
loop_
 _symmetry_equiv_pos_site_id
 _symmetry_equiv_pos_as_xyz
  1  'x, y, z'
loop_
 _atom_site_type_symbol
 _atom_site_label
 _atom_site_symmetry_multiplicity
 _atom_site_fract_x
 _atom_site_fract_y
 _atom_site_fract_z
 _atom_site_occupancy
  Co  Co0  1  0.08620000  0.87917000  0.91109000  1.0
  Co  Co1  1  0.41371000  0.12087000  0.41103000  1.0
  Co  Co2  1  0.91366000  0.12089000  0.08890000  1.0
  Co  Co3  1  0.58637000  0.87909000  0.58894000  1.0
  H  H4  1  0.25635000  0.76292000  0.83117000  1.0
  H  H5  1  0.24372000  0.23712000  0.33108000  1.0
  H  H6  1  0.74351000  0.23708000  0.16881000  1.0
  H  H7  1  0.75638000  0.76287000  0.66887000  1.0
  H  H8  1  0.39078000  0.83018000  0.88606000  1.0
  H  H9  1  0.10915000  0.16987000  0.38592000  1.0
  H  H10  1  0.60915000  0.16985000  0.11386000  1.0
  H  H11  1  0.89089000  0.83013000  0.61400000  1.0
  H  H12  1  0.50295000  0.17585000  0.69061000  1.0
  H  H13  1  0.99701000  0.82419000  0.19058000  1.0
  H  H14  1  0.49717000  0.82406000  0.30938000  1.0
  H  H15  1  0.00285000  0.17592000  0.80942000  1.0
  H  H16  1  0.32437000  0.07263000  0.95701000  1.0
  H  H17  1  0.17557000  0.92735000  0.45695000  1.0
  H  H18  1  0.67539000  0.92740000  0.04297000  1.0
  H  H19  1  0.82468000  0.07265000  0.54302000  1.0
  H  H20  1  0.46904000  0.24059000  0.93819000  1.0
  H  H21  1  0.03093000  0.75939000  0.43814000  1.0
  H  H22  1  0.53084000  0.75937000  0.06181000  1.0
  H  H23  1  0.96925000  0.24068000  0.56186000  1.0
  H  H24  1  0.64271000  0.18854000  0.90538000  1.0
  H  H25  1  0.85725000  0.81140000  0.40535000  1.0
  H  H26  1  0.35719000  0.81140000  0.09467000  1.0
  H  H27  1  0.14288000  0.18863000  0.59469000  1.0
  H  H28  1  0.67390000  0.28878000  0.76133000  1.0
  H  H29  1  0.82610000  0.71115000  0.26132000  1.0
  H  H30  1  0.32611000  0.71114000  0.23871000  1.0
  H  H31  1  0.17399000  0.28889000  0.73872000  1.0
  H  H32  1  0.66737000  0.36305000  0.85905000  1.0
  H  H33  1  0.83261000  0.63690000  0.35908000  1.0
  H  H34  1  0.33262000  0.63688000  0.14097000  1.0
  H  H35  1  0.16749000  0.36316000  0.64097000  1.0
  H  H36  1  0.48978000  0.33769000  0.78770000  1.0
  H  H37  1  0.01023000  0.66224000  0.28770000  1.0
  H  H38  1  0.51024000  0.66226000  0.21230000  1.0
  H  H39  1  0.98984000  0.33778000  0.71234000  1.0
  H  H40  1  0.74731000  0.79921000  0.87458000  1.0
  H  H41  1  0.75263000  0.20087000  0.37449000  1.0
  H  H42  1  0.25263000  0.20080000  0.12540000  1.0
  H  H43  1  0.24740000  0.79912000  0.62547000  1.0
  H  H44  1  0.54077000  0.65824000  0.90753000  1.0
  H  H45  1  0.95919000  0.34178000  0.40752000  1.0
  H  H46  1  0.45930000  0.34170000  0.09245000  1.0
  H  H47  1  0.04075000  0.65824000  0.59248000  1.0
  H  H48  1  0.90653000  0.55262000  0.08169000  1.0
  H  H49  1  0.59342000  0.44734000  0.58171000  1.0
  H  H50  1  0.09364000  0.44747000  0.91836000  1.0
  H  H51  1  0.40643000  0.55252000  0.41834000  1.0
  H  H52  1  0.10040000  0.70090000  0.03894000  1.0
  H  H53  1  0.39949000  0.29913000  0.53891000  1.0
  H  H54  1  0.89964000  0.29925000  0.96110000  1.0
  H  H55  1  0.60047000  0.70070000  0.46113000  1.0
  H  H56  1  0.64213000  0.43852000  0.00875000  1.0
  H  H57  1  0.85790000  0.56148000  0.50879000  1.0
  H  H58  1  0.35804000  0.56150000  0.99129000  1.0
  H  H59  1  0.14194000  0.43847000  0.49128000  1.0
  H  H60  1  0.56789000  0.50353000  0.09870000  1.0
  H  H61  1  0.93208000  0.49643000  0.59872000  1.0
  H  H62  1  0.43229000  0.49649000  0.90134000  1.0
  H  H63  1  0.06775000  0.50351000  0.40136000  1.0
  C  C64  1  0.22308000  0.98490000  0.75180000  1.0
  C  C65  1  0.27692000  0.01513000  0.25177000  1.0
  C  C66  1  0.77686000  0.01511000  0.24818000  1.0
  C  C67  1  0.72312000  0.98490000  0.74820000  1.0
  C  C68  1  0.32584000  0.04737000  0.69474000  1.0
  C  C69  1  0.17414000  0.95265000  0.19472000  1.0
  C  C70  1  0.67416000  0.95260000  0.30524000  1.0
  C  C71  1  0.82580000  0.04741000  0.80526000  1.0
  C  C72  1  0.42461000  0.12595000  0.73494000  1.0
  C  C73  1  0.07534000  0.87406000  0.23493000  1.0
  C  C74  1  0.57543000  0.87399000  0.26504000  1.0
  C  C75  1  0.92460000  0.12602000  0.76506000  1.0
  C  C76  1  0.42590000  0.13840000  0.83004000  1.0
  C  C77  1  0.07405000  0.86160000  0.33001000  1.0
  C  C78  1  0.57404000  0.86157000  0.16995000  1.0
  C  C79  1  0.92602000  0.13845000  0.66997000  1.0
  C  C80  1  0.32574000  0.06876000  0.88222000  1.0
  C  C81  1  0.17419000  0.93124000  0.38217000  1.0
  C  C82  1  0.67410000  0.93123000  0.11776000  1.0
  C  C83  1  0.82596000  0.06879000  0.61780000  1.0
  C  C84  1  0.09540000  0.90577000  0.71638000  1.0
  C  C85  1  0.40462000  0.09424000  0.21630000  1.0
  C  C86  1  0.90452000  0.09425000  0.28359000  1.0
  C  C87  1  0.59544000  0.90576000  0.78364000  1.0
  C  C88  1  0.34442000  0.03060000  0.59373000  1.0
  C  C89  1  0.15559000  0.96943000  0.09369000  1.0
  C  C90  1  0.65562000  0.96938000  0.40625000  1.0
  C  C91  1  0.84433000  0.03063000  0.90631000  1.0
  C  C92  1  0.53505000  0.21887000  0.87759000  1.0
  C  C93  1  0.96493000  0.78111000  0.37756000  1.0
  C  C94  1  0.46490000  0.78110000  0.12242000  1.0
  C  C95  1  0.03518000  0.21893000  0.62246000  1.0
  C  C96  1  0.59423000  0.30661000  0.81794000  1.0
  C  C97  1  0.90578000  0.69335000  0.31794000  1.0
  C  C98  1  0.40577000  0.69334000  0.18208000  1.0
  C  C99  1  0.09431000  0.30669000  0.68210000  1.0
  C  C100  1  0.77904000  0.74203000  0.91857000  1.0
  C  C101  1  0.72089000  0.25802000  0.41851000  1.0
  C  C102  1  0.22095000  0.25800000  0.08143000  1.0
  C  C103  1  0.27909000  0.74193000  0.58149000  1.0
  C  C104  1  0.66336000  0.66205000  0.93811000  1.0
  C  C105  1  0.83659000  0.33797000  0.43810000  1.0
  C  C106  1  0.33671000  0.33794000  0.06188000  1.0
  C  C107  1  0.16334000  0.66200000  0.56192000  1.0
  C  C108  1  0.70503000  0.59106000  0.99781000  1.0
  C  C109  1  0.79494000  0.40894000  0.49782000  1.0
  C  C110  1  0.29507000  0.40895000  0.00221000  1.0
  C  C111  1  0.20494000  0.59100000  0.50223000  1.0
  C  C112  1  0.86596000  0.60543000  0.03470000  1.0
  C  C113  1  0.63400000  0.39457000  0.53471000  1.0
  C  C114  1  0.13414000  0.39464000  0.96532000  1.0
  C  C115  1  0.36589000  0.60533000  0.46534000  1.0
  C  C116  1  0.97481000  0.68742000  0.01161000  1.0
  C  C117  1  0.52510000  0.31261000  0.51157000  1.0
  C  C118  1  0.02524000  0.31268000  0.98841000  1.0
  C  C119  1  0.47484000  0.68727000  0.48846000  1.0
  C  C120  1  0.58445000  0.50357000  0.02352000  1.0
  C  C121  1  0.91556000  0.49641000  0.52354000  1.0
  C  C122  1  0.41571000  0.49644000  0.97651000  1.0
  C  C123  1  0.08431000  0.50355000  0.47653000  1.0
  N  N124  1  0.22660000  0.99495000  0.84417000  1.0
  N  N125  1  0.27335000  0.00507000  0.34414000  1.0
  N  N126  1  0.77323000  0.00506000  0.15580000  1.0
  N  N127  1  0.72680000  0.99494000  0.65582000  1.0
  N  N128  1  0.93247000  0.75549000  0.95425000  1.0
  N  N129  1  0.56744000  0.24457000  0.45418000  1.0
  N  N130  1  0.06752000  0.24459000  0.04576000  1.0
  N  N131  1  0.43256000  0.75535000  0.54584000  1.0
  O  O132  1  0.03447000  0.84203000  0.77535000  1.0
  O  O133  1  0.46552000  0.15799000  0.27526000  1.0
  O  O134  1  0.96531000  0.15801000  0.22461000  1.0
  O  O135  1  0.53468000  0.84199000  0.72467000  1.0
  O  O136  1  0.05337000  0.90649000  0.63318000  1.0
  O  O137  1  0.44664000  0.09345000  0.13310000  1.0
  O  O138  1  0.94666000  0.09347000  0.36679000  1.0
  O  O139  1  0.55328000  0.90660000  0.86683000  1.0
  O  O140  1  0.39163000  0.95245000  0.56766000  1.0
  O  O141  1  0.10840000  0.04758000  0.06761000  1.0
  O  O142  1  0.60840000  0.04751000  0.43234000  1.0
  O  O143  1  0.89152000  0.95248000  0.93241000  1.0
  O  O144  1  0.31954000  0.09963000  0.54097000  1.0
  O  O145  1  0.18044000  0.90037000  0.04094000  1.0
  O  O146  1  0.68050000  0.90033000  0.45902000  1.0
  O  O147  1  0.81946000  0.09972000  0.95903000  1.0
  O  O148  1  0.28222000  0.78501000  0.89369000  1.0
  O  O149  1  0.21773000  0.21503000  0.39359000  1.0
  O  O150  1  0.71769000  0.21505000  0.10627000  1.0
  O  O151  1  0.78235000  0.78494000  0.60635000  1.0
