# generated using pymatgen
data_ZnH12C11S(NO)4
_symmetry_space_group_name_H-M   'P 1'
_cell_length_a   9.39812000
_cell_length_b   12.75190000
_cell_length_c   13.23520000
_cell_angle_alpha   90.00030000
_cell_angle_beta   90.00040000
_cell_angle_gamma   72.20200000
_symmetry_Int_Tables_number   1
_chemical_formula_structural   ZnH12C11S(NO)4
_chemical_formula_sum   'Zn4 H48 C44 S4 N16 O16'
_cell_volume   1510.24439286
_cell_formula_units_Z   4
loop_
 _symmetry_equiv_pos_site_id
 _symmetry_equiv_pos_as_xyz
  1  'x, y, z'
loop_
 _atom_site_type_symbol
 _atom_site_label
 _atom_site_symmetry_multiplicity
 _atom_site_fract_x
 _atom_site_fract_y
 _atom_site_fract_z
 _atom_site_occupancy
  Zn  Zn0  1  0.26205000  0.33924000  0.69765000  1.0
  Zn  Zn1  1  0.73795000  0.16075000  0.19765000  1.0
  Zn  Zn2  1  0.73795000  0.66076000  0.30235000  1.0
  Zn  Zn3  1  0.26205000  0.83925000  0.80235000  1.0
  H  H4  1  0.86678000  0.87959000  0.38612000  1.0
  H  H5  1  0.13322000  0.62041000  0.88611000  1.0
  H  H6  1  0.13322000  0.12041000  0.61388000  1.0
  H  H7  1  0.86678000  0.37959000  0.11388000  1.0
  H  H8  1  0.74504000  0.00920000  0.34720000  1.0
  H  H9  1  0.25496000  0.49080000  0.84719000  1.0
  H  H10  1  0.25495000  0.99080000  0.65280000  1.0
  H  H11  1  0.74504000  0.50920000  0.15281000  1.0
  H  H12  1  0.20016000  0.95176000  0.36223000  1.0
  H  H13  1  0.79984000  0.54824000  0.86223000  1.0
  H  H14  1  0.79984000  0.04824000  0.63777000  1.0
  H  H15  1  0.20016000  0.45176000  0.13777000  1.0
  H  H16  1  0.34833000  0.79075000  0.45019000  1.0
  H  H17  1  0.65167000  0.70924000  0.95019000  1.0
  H  H18  1  0.65167000  0.20925000  0.54980000  1.0
  H  H19  1  0.34833000  0.29075000  0.04981000  1.0
  H  H20  1  0.47462000  0.63834000  0.56263000  1.0
  H  H21  1  0.52539000  0.86165000  0.06263000  1.0
  H  H22  1  0.52539000  0.36166000  0.43737000  1.0
  H  H23  1  0.47460000  0.13835000  0.93737000  1.0
  H  H24  1  0.47345000  0.46953000  0.65884000  1.0
  H  H25  1  0.52656000  0.03047000  0.15884000  1.0
  H  H26  1  0.52656000  0.53047000  0.34116000  1.0
  H  H27  1  0.47344000  0.96953000  0.84116000  1.0
  H  H28  1  0.02827000  0.51615000  0.59181000  1.0
  H  H29  1  0.97174000  0.98385000  0.09180000  1.0
  H  H30  1  0.97173000  0.48385000  0.40820000  1.0
  H  H31  1  0.02826000  0.01615000  0.90820000  1.0
  H  H32  1  0.01348000  0.68171000  0.48502000  1.0
  H  H33  1  0.98652000  0.81828000  0.98502000  1.0
  H  H34  1  0.98652000  0.31829000  0.51498000  1.0
  H  H35  1  0.01347000  0.18172000  0.01498000  1.0
  H  H36  1  0.72521000  0.20954000  0.81999000  1.0
  H  H37  1  0.27480000  0.29046000  0.31998000  1.0
  H  H38  1  0.27479000  0.79046000  0.18002000  1.0
  H  H39  1  0.72520000  0.70954000  0.68002000  1.0
  H  H40  1  0.73067000  0.33530000  0.76729000  1.0
  H  H41  1  0.26933000  0.16470000  0.26728000  1.0
  H  H42  1  0.26933000  0.66470000  0.23272000  1.0
  H  H43  1  0.73067000  0.83530000  0.73272000  1.0
  H  H44  1  0.84747000  0.33189000  0.92950000  1.0
  H  H45  1  0.15253000  0.16811000  0.42949000  1.0
  H  H46  1  0.15254000  0.66811000  0.07050000  1.0
  H  H47  1  0.84746000  0.83189000  0.57051000  1.0
  H  H48  1  0.66284000  0.42240000  0.94456000  1.0
  H  H49  1  0.33716000  0.07760000  0.44456000  1.0
  H  H50  1  0.33716000  0.57760000  0.05544000  1.0
  H  H51  1  0.66284000  0.92240000  0.55544000  1.0
  C  C52  1  0.97034000  0.99296000  0.34420000  1.0
  C  C53  1  0.02966000  0.50704000  0.84419000  1.0
  C  C54  1  0.02965000  0.00704000  0.65580000  1.0
  C  C55  1  0.97034000  0.49297000  0.15580000  1.0
  C  C56  1  0.24227000  0.77220000  0.45971000  1.0
  C  C57  1  0.75774000  0.72779000  0.95972000  1.0
  C  C58  1  0.75774000  0.22780000  0.54029000  1.0
  C  C59  1  0.24226000  0.27220000  0.04029000  1.0
  C  C60  1  0.24371000  0.67379000  0.51640000  1.0
  C  C61  1  0.75630000  0.82620000  0.01640000  1.0
  C  C62  1  0.75630000  0.32621000  0.48360000  1.0
  C  C63  1  0.24370000  0.17379000  0.98360000  1.0
  C  C64  1  0.37428000  0.61281000  0.56646000  1.0
  C  C65  1  0.62572000  0.88719000  0.06646000  1.0
  C  C66  1  0.62572000  0.38719000  0.43354000  1.0
  C  C67  1  0.37427000  0.11281000  0.93354000  1.0
  C  C68  1  0.37347000  0.51981000  0.62054000  1.0
  C  C69  1  0.62654000  0.98019000  0.12054000  1.0
  C  C70  1  0.62653000  0.48020000  0.37946000  1.0
  C  C71  1  0.37346000  0.01981000  0.87946000  1.0
  C  C72  1  0.12483000  0.54562000  0.58176000  1.0
  C  C73  1  0.87518000  0.95437000  0.08176000  1.0
  C  C74  1  0.87517000  0.45438000  0.41824000  1.0
  C  C75  1  0.12482000  0.04562000  0.91824000  1.0
  C  C76  1  0.11647000  0.63786000  0.52420000  1.0
  C  C77  1  0.88354000  0.86214000  0.02420000  1.0
  C  C78  1  0.88354000  0.36214000  0.47580000  1.0
  C  C79  1  0.11646000  0.13786000  0.97580000  1.0
  C  C80  1  0.51410000  0.33691000  0.81259000  1.0
  C  C81  1  0.48590000  0.16309000  0.31259000  1.0
  C  C82  1  0.48590000  0.66309000  0.18741000  1.0
  C  C83  1  0.51410000  0.83691000  0.68741000  1.0
  C  C84  1  0.68219000  0.29932000  0.82922000  1.0
  C  C85  1  0.31781000  0.20068000  0.32921000  1.0
  C  C86  1  0.31781000  0.70068000  0.17078000  1.0
  C  C87  1  0.68219000  0.79933000  0.67079000  1.0
  C  C88  1  0.72903000  0.33605000  0.93012000  1.0
  C  C89  1  0.27097000  0.16395000  0.43011000  1.0
  C  C90  1  0.27097000  0.66396000  0.06988000  1.0
  C  C91  1  0.72902000  0.83605000  0.56989000  1.0
  C  C92  1  0.69955000  0.26922000  0.01785000  1.0
  C  C93  1  0.30045000  0.23078000  0.51785000  1.0
  C  C94  1  0.30045000  0.73078000  0.98215000  1.0
  C  C95  1  0.69955000  0.76922000  0.48215000  1.0
  S  S96  1  0.96425000  0.11561000  0.28884000  1.0
  S  S97  1  0.03575000  0.38438000  0.78883000  1.0
  S  S98  1  0.03575000  0.88438000  0.71117000  1.0
  S  S99  1  0.96425000  0.61562000  0.21117000  1.0
  N  N100  1  0.85430000  0.95813000  0.35989000  1.0
  N  N101  1  0.14570000  0.54187000  0.85988000  1.0
  N  N102  1  0.14570000  0.04187000  0.64011000  1.0
  N  N103  1  0.85430000  0.45814000  0.14011000  1.0
  N  N104  1  0.10840000  0.92619000  0.37459000  1.0
  N  N105  1  0.89160000  0.57381000  0.87458000  1.0
  N  N106  1  0.89160000  0.07381000  0.62541000  1.0
  N  N107  1  0.10839000  0.42619000  0.12541000  1.0
  N  N108  1  0.11542000  0.83358000  0.42542000  1.0
  N  N109  1  0.88458000  0.66641000  0.92541000  1.0
  N  N110  1  0.88457000  0.16642000  0.57458000  1.0
  N  N111  1  0.11542000  0.33359000  0.07458000  1.0
  N  N112  1  0.25146000  0.48643000  0.62887000  1.0
  N  N113  1  0.74855000  0.01356000  0.12887000  1.0
  N  N114  1  0.74854000  0.51357000  0.37113000  1.0
  N  N115  1  0.25146000  0.98644000  0.87113000  1.0
  O  O116  1  0.46364000  0.27544000  0.75354000  1.0
  O  O117  1  0.53636000  0.22455000  0.25353000  1.0
  O  O118  1  0.53636000  0.72456000  0.24646000  1.0
  O  O119  1  0.46364000  0.77545000  0.74646000  1.0
  O  O120  1  0.43637000  0.42623000  0.85079000  1.0
  O  O121  1  0.56363000  0.07377000  0.35079000  1.0
  O  O122  1  0.56363000  0.57377000  0.14922000  1.0
  O  O123  1  0.43637000  0.92623000  0.64921000  1.0
  O  O124  1  0.60017000  0.22340000  0.01313000  1.0
  O  O125  1  0.39983000  0.27660000  0.51312000  1.0
  O  O126  1  0.39983000  0.77660000  0.98687000  1.0
  O  O127  1  0.60017000  0.72340000  0.48688000  1.0
  O  O128  1  0.78538000  0.26221000  0.09711000  1.0
  O  O129  1  0.21463000  0.23779000  0.59711000  1.0
  O  O130  1  0.21462000  0.73779000  0.90289000  1.0
  O  O131  1  0.78537000  0.76221000  0.40290000  1.0
