# generated using pymatgen
data_CoH24C21(NO)4
_symmetry_space_group_name_H-M   'P 1'
_cell_length_a   9.69621000
_cell_length_b   10.14570000
_cell_length_c   11.03150000
_cell_angle_alpha   93.76440000
_cell_angle_beta   97.88390000
_cell_angle_gamma   101.28600000
_symmetry_Int_Tables_number   1
_chemical_formula_structural   CoH24C21(NO)4
_chemical_formula_sum   'Co2 H48 C42 N8 O8'
_cell_volume   1049.38729529
_cell_formula_units_Z   2
loop_
 _symmetry_equiv_pos_site_id
 _symmetry_equiv_pos_as_xyz
  1  'x, y, z'
loop_
 _atom_site_type_symbol
 _atom_site_label
 _atom_site_symmetry_multiplicity
 _atom_site_fract_x
 _atom_site_fract_y
 _atom_site_fract_z
 _atom_site_occupancy
  Co  Co0  1  0.72328000  0.61706000  0.68723000  1.0
  Co  Co1  1  0.27672000  0.38294000  0.31277000  1.0
  H  H2  1  0.76117000  0.10655000  0.69323000  1.0
  H  H3  1  0.23883000  0.89345000  0.30678000  1.0
  H  H4  1  0.37758000  0.26195000  0.65663000  1.0
  H  H5  1  0.62242000  0.73805000  0.34337000  1.0
  H  H6  1  0.35445000  0.83217000  0.62624000  1.0
  H  H7  1  0.64555000  0.16783000  0.37376000  1.0
  H  H8  1  0.14592000  0.10141000  0.65936000  1.0
  H  H9  1  0.85408000  0.89858000  0.34064000  1.0
  H  H10  1  0.13746000  0.92337000  0.64433000  1.0
  H  H11  1  0.86255000  0.07662000  0.35567000  1.0
  H  H12  1  0.15119000  0.01849000  0.51478000  1.0
  H  H13  1  0.84882000  0.98151000  0.48522000  1.0
  H  H14  1  0.61720000  0.43463000  0.43419000  1.0
  H  H15  1  0.38280000  0.56537000  0.56581000  1.0
  H  H16  1  0.99821000  0.72434000  0.55023000  1.0
  H  H17  1  0.00178000  0.27566000  0.44977000  1.0
  H  H18  1  0.99915000  0.61899000  0.31207000  1.0
  H  H19  1  0.00085000  0.38101000  0.68793000  1.0
  H  H20  1  0.66157000  0.34451000  0.22722000  1.0
  H  H21  1  0.33843000  0.65549000  0.77278000  1.0
  H  H22  1  0.81949000  0.41797000  0.16942000  1.0
  H  H23  1  0.18051000  0.58203000  0.83058000  1.0
  H  H24  1  0.71847000  0.61774000  0.11934000  1.0
  H  H25  1  0.28152000  0.38226000  0.88066000  1.0
  H  H26  1  0.57976000  0.56656000  0.20658000  1.0
  H  H27  1  0.42024000  0.43344000  0.79342000  1.0
  H  H28  1  0.60777000  0.41866000  0.96250000  1.0
  H  H29  1  0.39222000  0.58134000  0.03751000  1.0
  H  H30  1  0.47881000  0.36474000  0.05725000  1.0
  H  H31  1  0.52119000  0.63526000  0.94275000  1.0
  H  H32  1  0.96195000  0.88117000  0.78468000  1.0
  H  H33  1  0.03806000  0.11883000  0.21532000  1.0
  H  H34  1  0.84856000  0.51899000  0.94655000  1.0
  H  H35  1  0.15144000  0.48101000  0.05345000  1.0
  H  H36  1  0.07077000  0.69170000  0.10572000  1.0
  H  H37  1  0.92922000  0.30830000  0.89427000  1.0
  H  H38  1  0.16780000  0.96284000  0.09844000  1.0
  H  H39  1  0.83220000  0.03716000  0.90156000  1.0
  H  H40  1  0.14548000  0.01956000  0.94961000  1.0
  H  H41  1  0.85453000  0.98044000  0.05039000  1.0
  H  H42  1  0.29589000  0.85637000  0.88207000  1.0
  H  H43  1  0.70410000  0.14362000  0.11793000  1.0
  H  H44  1  0.32799000  0.81828000  0.03662000  1.0
  H  H45  1  0.67201000  0.18171000  0.96338000  1.0
  H  H46  1  0.43283000  0.06920000  0.09767000  1.0
  H  H47  1  0.56717000  0.93080000  0.90233000  1.0
  H  H48  1  0.41188000  0.09507000  0.93963000  1.0
  H  H49  1  0.58812000  0.90492000  0.06037000  1.0
  C  C50  1  0.56479000  0.95734000  0.65933000  1.0
  C  C51  1  0.43521000  0.04267000  0.34068000  1.0
  C  C52  1  0.64544000  0.08912000  0.67915000  1.0
  C  C53  1  0.35456000  0.91088000  0.32086000  1.0
  C  C54  1  0.57814000  0.19878000  0.68101000  1.0
  C  C55  1  0.42186000  0.80122000  0.31900000  1.0
  C  C56  1  0.42907000  0.17566000  0.65910000  1.0
  C  C57  1  0.57093000  0.82434000  0.34091000  1.0
  C  C58  1  0.34619000  0.04428000  0.63999000  1.0
  C  C59  1  0.65381000  0.95572000  0.36002000  1.0
  C  C60  1  0.41597000  0.93568000  0.64144000  1.0
  C  C61  1  0.58403000  0.06432000  0.35856000  1.0
  C  C62  1  0.64059000  0.84291000  0.66086000  1.0
  C  C63  1  0.35941000  0.15709000  0.33914000  1.0
  C  C64  1  0.66827000  0.33857000  0.70796000  1.0
  C  C65  1  0.33173000  0.66143000  0.29204000  1.0
  C  C66  1  0.18648000  0.02029000  0.61423000  1.0
  C  C67  1  0.81352000  0.97971000  0.38577000  1.0
  C  C68  1  0.72102000  0.49951000  0.43642000  1.0
  C  C69  1  0.27897000  0.50049000  0.56358000  1.0
  C  C70  1  0.91863000  0.64913000  0.49082000  1.0
  C  C71  1  0.08137000  0.35087000  0.50919000  1.0
  C  C72  1  0.91872000  0.59989000  0.37185000  1.0
  C  C73  1  0.08128000  0.40011000  0.62815000  1.0
  C  C74  1  0.73206000  0.44029000  0.21571000  1.0
  C  C75  1  0.26794000  0.55971000  0.78429000  1.0
  C  C76  1  0.64592000  0.52936000  0.14434000  1.0
  C  C77  1  0.35408000  0.47063000  0.85567000  1.0
  C  C78  1  0.54700000  0.45519000  0.03047000  1.0
  C  C79  1  0.45300000  0.54481000  0.96953000  1.0
  C  C80  1  0.96068000  0.80524000  0.84932000  1.0
  C  C81  1  0.03933000  0.19476000  0.15068000  1.0
  C  C82  1  0.90400000  0.62055000  0.93772000  1.0
  C  C83  1  0.09600000  0.37945000  0.06227000  1.0
  C  C84  1  0.01269000  0.70418000  0.01687000  1.0
  C  C85  1  0.98731000  0.29583000  0.98312000  1.0
  C  C86  1  0.16570000  0.93385000  0.00037000  1.0
  C  C87  1  0.83430000  0.06615000  0.99963000  1.0
  C  C88  1  0.30615000  0.89816000  0.97833000  1.0
  C  C89  1  0.69385000  0.10184000  0.02166000  1.0
  C  C90  1  0.42902000  0.01989000  0.00493000  1.0
  C  C91  1  0.57098000  0.98010000  0.99507000  1.0
  N  N92  1  0.79515000  0.58602000  0.53012000  1.0
  N  N93  1  0.20485000  0.41398000  0.46988000  1.0
  N  N94  1  0.79298000  0.50523000  0.33905000  1.0
  N  N95  1  0.20702000  0.49477000  0.66095000  1.0
  N  N96  1  0.87190000  0.68463000  0.83370000  1.0
  N  N97  1  0.12810000  0.31537000  0.16629000  1.0
  N  N98  1  0.04634000  0.82073000  0.95918000  1.0
  N  N99  1  0.95366000  0.17928000  0.04081000  1.0
  O  O100  1  0.56986000  0.72350000  0.67469000  1.0
  O  O101  1  0.43014000  0.27650000  0.32531000  1.0
  O  O102  1  0.77128000  0.86282000  0.65271000  1.0
  O  O103  1  0.22872000  0.13718000  0.34729000  1.0
  O  O104  1  0.79920000  0.35478000  0.74623000  1.0
  O  O105  1  0.20081000  0.64523000  0.25375000  1.0
  O  O106  1  0.60296000  0.43738000  0.69058000  1.0
  O  O107  1  0.39703000  0.56262000  0.30942000  1.0
