# generated using pymatgen
data_CuH10C13(NO2)2
_symmetry_space_group_name_H-M   'P 1'
_cell_length_a   11.73830000
_cell_length_b   12.50180000
_cell_length_c   13.16640000
_cell_angle_alpha   89.99980000
_cell_angle_beta   64.86700000
_cell_angle_gamma   89.99990000
_symmetry_Int_Tables_number   1
_chemical_formula_structural   CuH10C13(NO2)2
_chemical_formula_sum   'Cu4 H40 C52 N8 O16'
_cell_volume   1749.23833857
_cell_formula_units_Z   4
loop_
 _symmetry_equiv_pos_site_id
 _symmetry_equiv_pos_as_xyz
  1  'x, y, z'
loop_
 _atom_site_type_symbol
 _atom_site_label
 _atom_site_symmetry_multiplicity
 _atom_site_fract_x
 _atom_site_fract_y
 _atom_site_fract_z
 _atom_site_occupancy
  Cu  Cu0  1  0.07449000  0.06542000  0.52402000  1.0
  Cu  Cu1  1  0.42551000  0.56542000  0.97598000  1.0
  Cu  Cu2  1  0.92551000  0.93458000  0.47597000  1.0
  Cu  Cu3  1  0.57450000  0.43458000  0.02403000  1.0
  H  H4  1  0.21403000  0.69917000  0.30153000  1.0
  H  H5  1  0.28598000  0.19917000  0.19846000  1.0
  H  H6  1  0.78597000  0.30082000  0.69847000  1.0
  H  H7  1  0.71403000  0.80083000  0.80153000  1.0
  H  H8  1  0.52401000  0.55216000  0.33999000  1.0
  H  H9  1  0.97599000  0.05216000  0.16001000  1.0
  H  H10  1  0.47599000  0.44784000  0.66002000  1.0
  H  H11  1  0.02401000  0.94784000  0.83998000  1.0
  H  H12  1  0.31585000  0.80809000  0.56172000  1.0
  H  H13  1  0.18415000  0.30809000  0.93828000  1.0
  H  H14  1  0.68414000  0.19191000  0.43828000  1.0
  H  H15  1  0.81585000  0.69191000  0.06171000  1.0
  H  H16  1  0.46266000  0.68726000  0.60832000  1.0
  H  H17  1  0.03734000  0.18726000  0.89168000  1.0
  H  H18  1  0.53734000  0.31274000  0.39168000  1.0
  H  H19  1  0.96266000  0.81274000  0.10832000  1.0
  H  H20  1  0.55547000  0.59084000  0.50861000  1.0
  H  H21  1  0.94453000  0.09084000  0.99139000  1.0
  H  H22  1  0.44453000  0.40916000  0.49139000  1.0
  H  H23  1  0.05547000  0.90916000  0.00861000  1.0
  H  H24  1  0.56998000  0.83264000  0.34842000  1.0
  H  H25  1  0.93003000  0.33264000  0.15158000  1.0
  H  H26  1  0.43001000  0.16736000  0.65158000  1.0
  H  H27  1  0.06999000  0.66737000  0.84841000  1.0
  H  H28  1  0.78441000  0.94762000  0.31986000  1.0
  H  H29  1  0.71559000  0.44762000  0.18014000  1.0
  H  H30  1  0.21559000  0.05238000  0.68014000  1.0
  H  H31  1  0.28442000  0.55238000  0.81986000  1.0
  H  H32  1  0.80971000  0.71607000  0.59943000  1.0
  H  H33  1  0.69029000  0.21608000  0.90057000  1.0
  H  H34  1  0.19029000  0.28392000  0.40056000  1.0
  H  H35  1  0.30971000  0.78392000  0.09944000  1.0
  H  H36  1  0.74043000  0.60594000  0.55999000  1.0
  H  H37  1  0.75957000  0.10594000  0.94001000  1.0
  H  H38  1  0.25957000  0.39406000  0.44000000  1.0
  H  H39  1  0.24042000  0.89406000  0.06000000  1.0
  H  H40  1  0.64429000  0.69242000  0.66892000  1.0
  H  H41  1  0.85571000  0.19242000  0.83108000  1.0
  H  H42  1  0.35572000  0.30758000  0.33107000  1.0
  H  H43  1  0.14428000  0.80758000  0.16893000  1.0
  C  C44  1  0.25283000  0.75980000  0.43706000  1.0
  C  C45  1  0.24718000  0.25980000  0.06294000  1.0
  C  C46  1  0.74717000  0.24020000  0.56294000  1.0
  C  C47  1  0.75282000  0.74020000  0.93706000  1.0
  C  C48  1  0.27250000  0.69202000  0.34692000  1.0
  C  C49  1  0.22751000  0.19202000  0.15307000  1.0
  C  C50  1  0.72750000  0.30797000  0.65308000  1.0
  C  C51  1  0.77249000  0.80798000  0.84692000  1.0
  C  C52  1  0.37111000  0.61824000  0.31166000  1.0
  C  C53  1  0.12890000  0.11824000  0.18834000  1.0
  C  C54  1  0.62889000  0.38175000  0.68835000  1.0
  C  C55  1  0.87110000  0.88176000  0.81166000  1.0
  C  C56  1  0.44640000  0.60926000  0.36994000  1.0
  C  C57  1  0.05361000  0.10926000  0.13006000  1.0
  C  C58  1  0.55360000  0.39074000  0.63007000  1.0
  C  C59  1  0.94639000  0.89074000  0.86993000  1.0
  C  C60  1  0.42613000  0.67584000  0.46137000  1.0
  C  C61  1  0.07387000  0.17584000  0.03863000  1.0
  C  C62  1  0.57386000  0.32416000  0.53863000  1.0
  C  C63  1  0.92613000  0.82416000  0.96137000  1.0
  C  C64  1  0.32994000  0.75219000  0.49378000  1.0
  C  C65  1  0.17006000  0.25219000  0.00622000  1.0
  C  C66  1  0.67006000  0.24781000  0.50622000  1.0
  C  C67  1  0.82994000  0.74781000  0.99378000  1.0
  C  C68  1  0.51380000  0.67112000  0.51785000  1.0
  C  C69  1  0.98620000  0.17112000  0.98215000  1.0
  C  C70  1  0.48619000  0.32888000  0.48216000  1.0
  C  C71  1  0.01380000  0.82888000  0.01784000  1.0
  C  C72  1  0.63401000  0.82476000  0.38764000  1.0
  C  C73  1  0.86600000  0.32476000  0.11236000  1.0
  C  C74  1  0.36599000  0.17524000  0.61236000  1.0
  C  C75  1  0.13401000  0.67524000  0.88764000  1.0
  C  C76  1  0.74028000  0.88026000  0.37422000  1.0
  C  C77  1  0.75972000  0.38026000  0.12578000  1.0
  C  C78  1  0.25972000  0.11974000  0.62578000  1.0
  C  C79  1  0.24028000  0.61975000  0.87423000  1.0
  C  C80  1  0.71258000  0.76024000  0.50260000  1.0
  C  C81  1  0.78742000  0.26024000  0.99740000  1.0
  C  C82  1  0.28742000  0.23976000  0.49739000  1.0
  C  C83  1  0.21257000  0.73975000  0.00261000  1.0
  C  C84  1  0.72723000  0.69011000  0.58742000  1.0
  C  C85  1  0.77277000  0.19012000  0.91258000  1.0
  C  C86  1  0.27277000  0.30988000  0.41258000  1.0
  C  C87  1  0.22723000  0.80988000  0.08743000  1.0
  C  C88  1  0.15527000  0.84576000  0.46559000  1.0
  C  C89  1  0.34473000  0.34577000  0.03441000  1.0
  C  C90  1  0.84473000  0.15424000  0.53441000  1.0
  C  C91  1  0.65527000  0.65424000  0.96559000  1.0
  C  C92  1  0.40513000  0.55845000  0.20433000  1.0
  C  C93  1  0.09487000  0.05844000  0.29567000  1.0
  C  C94  1  0.59487000  0.44156000  0.79567000  1.0
  C  C95  1  0.90514000  0.94156000  0.70433000  1.0
  N  N96  1  0.61702000  0.74890000  0.46959000  1.0
  N  N97  1  0.88298000  0.24890000  0.03041000  1.0
  N  N98  1  0.38298000  0.25110000  0.53041000  1.0
  N  N99  1  0.11702000  0.75110000  0.96959000  1.0
  N  N100  1  0.78824000  0.83998000  0.44559000  1.0
  N  N101  1  0.71176000  0.33998000  0.05441000  1.0
  N  N102  1  0.21176000  0.16002000  0.55440000  1.0
  N  N103  1  0.28824000  0.66001000  0.94560000  1.0
  O  O104  1  0.18113000  0.93373000  0.49975000  1.0
  O  O105  1  0.31887000  0.43373000  0.00025000  1.0
  O  O106  1  0.81887000  0.06627000  0.50025000  1.0
  O  O107  1  0.68113000  0.56627000  0.99975000  1.0
  O  O108  1  0.05764000  0.82390000  0.45037000  1.0
  O  O109  1  0.44236000  0.32390000  0.04964000  1.0
  O  O110  1  0.94236000  0.17610000  0.54963000  1.0
  O  O111  1  0.55764000  0.67610000  0.95036000  1.0
  O  O112  1  0.35640000  0.59293000  0.14066000  1.0
  O  O113  1  0.14360000  0.09293000  0.35934000  1.0
  O  O114  1  0.64360000  0.40706000  0.85934000  1.0
  O  O115  1  0.85639000  0.90707000  0.64066000  1.0
  O  O116  1  0.48398000  0.48217000  0.18344000  1.0
  O  O117  1  0.01603000  0.98217000  0.31656000  1.0
  O  O118  1  0.51603000  0.51782000  0.81657000  1.0
  O  O119  1  0.98398000  0.01783000  0.68343000  1.0
