# generated using pymatgen
data_AgH5C5O4
_symmetry_space_group_name_H-M   'P 1'
_cell_length_a   5.50076000
_cell_length_b   10.13740000
_cell_length_c   11.97010229
_cell_angle_alpha   77.56653711
_cell_angle_beta   76.73031058
_cell_angle_gamma   89.99130000
_symmetry_Int_Tables_number   1
_chemical_formula_structural   AgH5C5O4
_chemical_formula_sum   'Ag4 H20 C20 O16'
_cell_volume   633.58200297
_cell_formula_units_Z   4
loop_
 _symmetry_equiv_pos_site_id
 _symmetry_equiv_pos_as_xyz
  1  'x, y, z'
loop_
 _atom_site_type_symbol
 _atom_site_label
 _atom_site_symmetry_multiplicity
 _atom_site_fract_x
 _atom_site_fract_y
 _atom_site_fract_z
 _atom_site_occupancy
  Ag  Ag0  1  0.31843000  0.95281000  0.95469000  1.0
  Ag  Ag1  1  0.27326000  0.54723000  0.04535000  1.0
  Ag  Ag2  1  0.68158000  0.04720000  0.04530000  1.0
  Ag  Ag3  1  0.72675000  0.45277000  0.95465000  1.0
  H  H4  1  0.98256000  0.84264000  0.50770000  1.0
  H  H5  1  0.49005000  0.65758000  0.49205000  1.0
  H  H6  1  0.01742000  0.15734000  0.49231000  1.0
  H  H7  1  0.50996000  0.34242000  0.50794000  1.0
  H  H8  1  0.74134000  0.90129000  0.61042000  1.0
  H  H9  1  0.35181000  0.59921000  0.38916000  1.0
  H  H10  1  0.25865000  0.09870000  0.38958000  1.0
  H  H11  1  0.64819000  0.40080000  0.61085000  1.0
  H  H12  1  0.28715000  0.86118000  0.61965000  1.0
  H  H13  1  0.90672000  0.63859000  0.38053000  1.0
  H  H14  1  0.71285000  0.13882000  0.38035000  1.0
  H  H15  1  0.09330000  0.36142000  0.61947000  1.0
  H  H16  1  0.09245000  0.98743000  0.66884000  1.0
  H  H17  1  0.76105000  0.51252000  0.33123000  1.0
  H  H18  1  0.90755000  0.01256000  0.33115000  1.0
  H  H19  1  0.23895000  0.48748000  0.66877000  1.0
  H  H20  1  0.17874000  0.75590000  0.82596000  1.0
  H  H21  1  0.00537000  0.74376000  0.17414000  1.0
  H  H22  1  0.82126000  0.24410000  0.17404000  1.0
  H  H23  1  0.99464000  0.25624000  0.82586000  1.0
  C  C24  1  0.82320000  0.69595000  0.66624000  1.0
  C  C25  1  0.49015000  0.80438000  0.33346000  1.0
  C  C26  1  0.17678000  0.30406000  0.33377000  1.0
  C  C27  1  0.50987000  0.19563000  0.66653000  1.0
  C  C28  1  0.90537000  0.83908000  0.60134000  1.0
  C  C29  1  0.50684000  0.66120000  0.39839000  1.0
  C  C30  1  0.09463000  0.16092000  0.39866000  1.0
  C  C31  1  0.49317000  0.33879000  0.60161000  1.0
  C  C32  1  0.09681000  0.88100000  0.66340000  1.0
  C  C33  1  0.76026000  0.61897000  0.33662000  1.0
  C  C34  1  0.90318000  0.11900000  0.33659000  1.0
  C  C35  1  0.23975000  0.38102000  0.66338000  1.0
  C  C36  1  0.02071000  0.78557000  0.78620000  1.0
  C  C37  1  0.80751000  0.71437000  0.21378000  1.0
  C  C38  1  0.97928000  0.21442000  0.21381000  1.0
  C  C39  1  0.19249000  0.28563000  0.78622000  1.0
  C  C40  1  0.82179000  0.84898000  0.86788000  1.0
  C  C41  1  0.69010000  0.65110000  0.13204000  1.0
  C  C42  1  0.17822000  0.15104000  0.13212000  1.0
  C  C43  1  0.30989000  0.34890000  0.86796000  1.0
  O  O44  1  0.59686000  0.83218000  0.86395000  1.0
  O  O45  1  0.46126000  0.66806000  0.13591000  1.0
  O  O46  1  0.40314000  0.16783000  0.13604000  1.0
  O  O47  1  0.53875000  0.33192000  0.86409000  1.0
  O  O48  1  0.90393000  0.91987000  0.92885000  1.0
  O  O49  1  0.83307000  0.58012000  0.07109000  1.0
  O  O50  1  0.09604000  0.08015000  0.07115000  1.0
  O  O51  1  0.16695000  0.41989000  0.92890000  1.0
  O  O52  1  0.69821000  0.61278000  0.64080000  1.0
  O  O53  1  0.33999000  0.88772000  0.35873000  1.0
  O  O54  1  0.30176000  0.38722000  0.35921000  1.0
  O  O55  1  0.66004000  0.11228000  0.64127000  1.0
  O  O56  1  0.91468000  0.66409000  0.76560000  1.0
  O  O57  1  0.68140000  0.83603000  0.23421000  1.0
  O  O58  1  0.08531000  0.33591000  0.23441000  1.0
  O  O59  1  0.31860000  0.16396000  0.76579000  1.0
