# generated using pymatgen
data_Zn4H4C24S4N4O21
_symmetry_space_group_name_H-M   'P 1'
_cell_length_a   19.57360000
_cell_length_b   19.61360000
_cell_length_c   33.29380000
_cell_angle_alpha   79.00290000
_cell_angle_beta   79.12310000
_cell_angle_gamma   63.85920000
_symmetry_Int_Tables_number   1
_chemical_formula_structural   Zn4H4C24S4N4O21
_chemical_formula_sum   'Zn16 H16 C96 S16 N16 O84'
_cell_volume   11183.96550002
_cell_formula_units_Z   4
loop_
 _symmetry_equiv_pos_site_id
 _symmetry_equiv_pos_as_xyz
  1  'x, y, z'
loop_
 _atom_site_type_symbol
 _atom_site_label
 _atom_site_symmetry_multiplicity
 _atom_site_fract_x
 _atom_site_fract_y
 _atom_site_fract_z
 _atom_site_occupancy
  Zn  Zn0  1  0.59987000  0.94449000  0.52250000  1.0
  Zn  Zn1  1  0.51735000  0.01286000  0.44029000  1.0
  Zn  Zn2  1  0.43629000  0.94196000  0.51742000  1.0
  Zn  Zn3  1  0.44692000  0.09787000  0.52278000  1.0
  Zn  Zn4  1  0.65111000  0.30494000  0.72820000  1.0
  Zn  Zn5  1  0.81096000  0.30920000  0.73560000  1.0
  Zn  Zn6  1  0.73573000  0.22985000  0.81127000  1.0
  Zn  Zn7  1  0.80291000  0.15021000  0.72895000  1.0
  Zn  Zn8  1  0.23657000  0.73182000  0.31135000  1.0
  Zn  Zn9  1  0.30342000  0.64930000  0.23005000  1.0
  Zn  Zn10  1  0.15129000  0.80465000  0.22826000  1.0
  Zn  Zn11  1  0.31115000  0.80949000  0.23553000  1.0
  Zn  Zn12  1  0.93642000  0.44168000  0.01735000  1.0
  Zn  Zn13  1  0.94622000  0.59702000  0.02401000  1.0
  Zn  Zn14  1  0.09977000  0.44450000  0.02223000  1.0
  Zn  Zn15  1  0.01412000  0.51526000  0.94029000  1.0
  H  H16  1  0.49863000  0.20357000  0.60013000  1.0
  H  H17  1  0.75614000  0.04876000  0.64746000  1.0
  H  H18  1  0.54489000  0.25255000  0.64886000  1.0
  H  H19  1  0.70819000  0.99805000  0.60042000  1.0
  H  H20  1  0.34648000  0.84584000  0.45249000  1.0
  H  H21  1  0.40153000  0.90352000  0.30073000  1.0
  H  H22  1  0.29717000  0.79929000  0.40402000  1.0
  H  H23  1  0.44674000  0.95406000  0.34918000  1.0
  H  H24  1  0.79669000  0.29750000  0.90489000  1.0
  H  H25  1  0.94759000  0.45065000  0.84933000  1.0
  H  H26  1  0.84584000  0.34484000  0.95307000  1.0
  H  H27  1  0.90216000  0.39972000  0.80121000  1.0
  H  H28  1  0.04713000  0.75268000  0.14793000  1.0
  H  H29  1  0.20815000  0.49690000  0.10069000  1.0
  H  H30  1  0.00098000  0.70487000  0.09862000  1.0
  H  H31  1  0.25597000  0.54640000  0.14838000  1.0
  C  C32  1  0.68379000  0.93481000  0.43975000  1.0
  C  C33  1  0.42758000  0.93150000  0.43222000  1.0
  C  C34  1  0.55872000  0.81914000  0.56186000  1.0
  C  C35  1  0.31607000  0.06353000  0.56178000  1.0
  C  C36  1  0.57234000  0.06878000  0.56911000  1.0
  C  C37  1  0.44280000  0.17872000  0.43996000  1.0
  C  C38  1  0.68980000  0.43302000  0.69052000  1.0
  C  C39  1  0.81933000  0.31634000  0.82154000  1.0
  C  C40  1  0.56867000  0.30828000  0.81095000  1.0
  C  C41  1  0.81002000  0.06462000  0.81128000  1.0
  C  C42  1  0.68101000  0.18256000  0.67965000  1.0
  C  C43  1  0.93117000  0.18834000  0.69143000  1.0
  C  C44  1  0.31292000  0.56540000  0.31220000  1.0
  C  C45  1  0.18173000  0.68080000  0.18029000  1.0
  C  C46  1  0.06990000  0.80667000  0.31122000  1.0
  C  C47  1  0.18940000  0.93311000  0.19064000  1.0
  C  C48  1  0.31924000  0.81927000  0.32085000  1.0
  C  C49  1  0.43054000  0.68910000  0.19076000  1.0
  C  C50  1  0.81656000  0.56178000  0.06253000  1.0
  C  C51  1  0.07317000  0.56885000  0.06857000  1.0
  C  C52  1  0.05899000  0.31903000  0.06173000  1.0
  C  C53  1  0.18173000  0.43746000  0.93876000  1.0
  C  C54  1  0.92719000  0.43033000  0.93236000  1.0
  C  C55  1  0.93775000  0.67980000  0.94082000  1.0
  C  C56  1  0.60073000  0.09802000  0.59760000  1.0
  C  C57  1  0.65310000  0.15339000  0.65090000  1.0
  C  C58  1  0.55459000  0.16999000  0.61095000  1.0
  C  C59  1  0.69964000  0.08181000  0.63719000  1.0
  C  C60  1  0.58036000  0.19724000  0.63782000  1.0
  C  C61  1  0.67318000  0.05388000  0.61097000  1.0
  C  C62  1  0.39928000  0.90261000  0.40354000  1.0
  C  C63  1  0.34690000  0.84849000  0.34966000  1.0
  C  C64  1  0.35752000  0.85871000  0.41925000  1.0
  C  C65  1  0.38930000  0.89177000  0.33397000  1.0
  C  C66  1  0.33060000  0.83252000  0.39239000  1.0
  C  C67  1  0.41468000  0.91948000  0.36082000  1.0
  C  C68  1  0.54608000  0.69354000  0.59811000  1.0
  C  C69  1  0.70659000  0.55341000  0.64923000  1.0
  C  C70  1  0.58384000  0.74113000  0.58486000  1.0
  C  C71  1  0.66810000  0.50671000  0.66324000  1.0
  C  C72  1  0.66086000  0.62327000  0.62715000  1.0
  C  C73  1  0.58925000  0.62674000  0.62323000  1.0
  C  C74  1  0.42309000  0.27129000  0.37084000  1.0
  C  C75  1  0.32438000  0.47244000  0.38075000  1.0
  C  C76  1  0.41483000  0.25318000  0.41350000  1.0
  C  C77  1  0.33384000  0.49047000  0.33817000  1.0
  C  C78  1  0.36007000  0.39266000  0.39292000  1.0
  C  C79  1  0.39336000  0.35128000  0.35896000  1.0
  C  C80  1  0.77628000  0.92434000  0.37114000  1.0
  C  C81  1  0.97808000  0.82591000  0.38058000  1.0
  C  C82  1  0.75869000  0.91443000  0.41374000  1.0
  C  C83  1  0.99561000  0.83440000  0.33789000  1.0
  C  C84  1  0.89805000  0.85532000  0.39268000  1.0
  C  C85  1  0.85607000  0.88877000  0.35884000  1.0
  C  C86  1  0.19462000  0.16037000  0.60205000  1.0
  C  C87  1  0.04801000  0.09545000  0.64647000  1.0
  C  C88  1  0.23862000  0.09203000  0.58529000  1.0
  C  C89  1  0.00457000  0.16325000  0.66392000  1.0
  C  C90  1  0.11896000  0.09283000  0.62556000  1.0
  C  C91  1  0.12673000  0.16043000  0.62606000  1.0
  C  C92  1  0.84689000  0.34574000  0.85035000  1.0
  C  C93  1  0.89920000  0.40066000  0.90391000  1.0
  C  C94  1  0.83035000  0.33046000  0.89310000  1.0
  C  C95  1  0.91504000  0.41661000  0.86114000  1.0
  C  C96  1  0.85717000  0.35710000  0.91980000  1.0
  C  C97  1  0.88966000  0.38859000  0.83447000  1.0
  C  C98  1  0.47619000  0.32821000  0.88003000  1.0
  C  C99  1  0.27460000  0.42701000  0.87013000  1.0
  C  C100  1  0.49414000  0.33679000  0.83739000  1.0
  C  C101  1  0.25665000  0.41700000  0.91269000  1.0
  C  C102  1  0.35448000  0.39143000  0.85798000  1.0
  C  C103  1  0.39610000  0.35777000  0.89194000  1.0
  C  C104  1  0.87936000  0.91536000  0.82344000  1.0
  C  C105  1  0.87709000  0.82967000  0.92906000  1.0
  C  C106  1  0.83966000  0.98819000  0.83571000  1.0
  C  C107  1  0.91550000  0.75667000  0.91677000  1.0
  C  C108  1  0.86064000  0.88749000  0.89499000  1.0
  C  C109  1  0.88989000  0.85725000  0.85729000  1.0
  C  C110  1  0.15408000  0.65219000  0.15106000  1.0
  C  C111  1  0.10178000  0.59798000  0.09702000  1.0
  C  C112  1  0.08212000  0.69704000  0.13719000  1.0
  C  C113  1  0.17361000  0.55298000  0.11101000  1.0
  C  C114  1  0.05635000  0.67040000  0.10999000  1.0
  C  C115  1  0.19999000  0.58026000  0.13760000  1.0
  C  C116  1  0.54698000  0.59601000  0.14581000  1.0
  C  C117  1  0.69480000  0.65949000  0.10199000  1.0
  C  C118  1  0.50361000  0.66412000  0.16298000  1.0
  C  C119  1  0.73880000  0.59080000  0.08560000  1.0
  C  C120  1  0.62635000  0.66024000  0.12558000  1.0
  C  C121  1  0.61829000  0.59277000  0.12517000  1.0
  C  C122  1  0.20645000  0.05340000  0.14922000  1.0
  C  C123  1  0.04615000  0.19360000  0.09799000  1.0
  C  C124  1  0.16785000  0.00679000  0.16329000  1.0
  C  C125  1  0.08407000  0.24106000  0.08473000  1.0
  C  C126  1  0.08912000  0.12685000  0.12320000  1.0
  C  C127  1  0.16076000  0.12326000  0.12712000  1.0
  S  S128  1  0.67309000  0.70291000  0.60223000  1.0
  S  S129  1  0.57660000  0.54749000  0.64836000  1.0
  S  S130  1  0.36869000  0.33415000  0.43889000  1.0
  S  S131  1  0.38469000  0.40956000  0.31295000  1.0
  S  S132  1  0.84014000  0.86351000  0.43878000  1.0
  S  S133  1  0.91402000  0.88038000  0.31275000  1.0
  S  S134  1  0.19583000  0.02853000  0.59804000  1.0
  S  S135  1  0.04977000  0.22456000  0.65366000  1.0
  S  S136  1  0.41287000  0.38303000  0.81203000  1.0
  S  S137  1  0.33785000  0.36573000  0.93791000  1.0
  S  S138  1  0.81708000  0.98559000  0.88882000  1.0
  S  S139  1  0.93338000  0.75910000  0.86356000  1.0
  S  S140  1  0.54921000  0.72502000  0.15273000  1.0
  S  S141  1  0.69542000  0.52783000  0.09814000  1.0
  S  S142  1  0.07636000  0.04766000  0.14839000  1.0
  S  S143  1  0.17325000  0.20273000  0.10219000  1.0
  N  N144  1  0.47377000  0.70277000  0.58696000  1.0
  N  N145  1  0.78594000  0.53590000  0.65264000  1.0
  N  N146  1  0.45158000  0.21968000  0.33931000  1.0
  N  N147  1  0.27935000  0.52427000  0.41149000  1.0
  N  N148  1  0.72425000  0.96975000  0.34037000  1.0
  N  N149  1  0.03029000  0.79736000  0.41197000  1.0
  N  N150  1  0.20882000  0.22887000  0.59536000  1.0
  N  N151  1  0.02644000  0.03379000  0.64494000  1.0
  N  N152  1  0.52823000  0.29863000  0.91148000  1.0
  N  N153  1  0.22271000  0.47196000  0.83925000  1.0
  N  N154  1  0.91343000  0.89517000  0.78209000  1.0
  N  N155  1  0.85897000  0.85111000  0.97064000  1.0
  N  N156  1  0.52519000  0.53442000  0.14470000  1.0
  N  N157  1  0.70940000  0.72780000  0.09518000  1.0
  N  N158  1  0.28588000  0.03595000  0.15240000  1.0
  N  N159  1  0.97392000  0.20289000  0.08670000  1.0
  O  O160  1  0.50041000  0.99882000  0.50097000  1.0
  O  O161  1  0.68600000  0.93311000  0.47811000  1.0
  O  O162  1  0.45595000  0.97948000  0.41623000  1.0
  O  O163  1  0.48752000  0.85843000  0.56017000  1.0
  O  O164  1  0.62573000  0.94962000  0.42230000  1.0
  O  O165  1  0.61299000  0.83967000  0.54691000  1.0
  O  O166  1  0.42131000  0.90609000  0.47045000  1.0
  O  O167  1  0.33360000  0.00478000  0.54388000  1.0
  O  O168  1  0.51188000  0.11649000  0.55307000  1.0
  O  O169  1  0.35801000  0.09743000  0.56233000  1.0
  O  O170  1  0.61050000  0.99865000  0.56298000  1.0
  O  O171  1  0.49635000  0.12163000  0.42426000  1.0
  O  O172  1  0.41058000  0.18066000  0.47723000  1.0
  O  O173  1  0.74942000  0.24967000  0.75080000  1.0
  O  O174  1  0.64785000  0.39789000  0.69106000  1.0
  O  O175  1  0.84585000  0.32236000  0.78352000  1.0
  O  O176  1  0.62551000  0.25458000  0.82690000  1.0
  O  O177  1  0.74512000  0.41285000  0.71125000  1.0
  O  O178  1  0.56693000  0.34008000  0.77358000  1.0
  O  O179  1  0.77157000  0.28746000  0.83708000  1.0
  O  O180  1  0.79136000  0.12075000  0.83156000  1.0
  O  O181  1  0.75116000  0.14481000  0.68603000  1.0
  O  O182  1  0.80371000  0.06806000  0.77365000  1.0
  O  O183  1  0.63273000  0.24274000  0.69567000  1.0
  O  O184  1  0.89839000  0.26016000  0.69449000  1.0
  O  O185  1  0.90896000  0.13760000  0.71005000  1.0
  O  O186  1  0.24983000  0.74961000  0.25062000  1.0
  O  O187  1  0.29933000  0.62325000  0.32936000  1.0
  O  O188  1  0.25099000  0.64141000  0.18802000  1.0
  O  O189  1  0.06739000  0.83859000  0.27384000  1.0
  O  O190  1  0.31294000  0.56344000  0.27400000  1.0
  O  O191  1  0.12736000  0.75357000  0.32695000  1.0
  O  O192  1  0.13400000  0.74223000  0.19530000  1.0
  O  O193  1  0.14749000  0.89796000  0.19115000  1.0
  O  O194  1  0.34674000  0.82375000  0.28289000  1.0
  O  O195  1  0.24457000  0.91311000  0.21145000  1.0
  O  O196  1  0.27026000  0.79190000  0.33635000  1.0
  O  O197  1  0.40903000  0.63809000  0.20975000  1.0
  O  O198  1  0.39762000  0.76092000  0.19377000  1.0
  O  O199  1  0.00030000  0.49889000  0.00079000  1.0
  O  O200  1  0.83359000  0.50411000  0.04381000  1.0
  O  O201  1  0.01236000  0.61640000  0.05278000  1.0
  O  O202  1  0.11320000  0.33966000  0.04677000  1.0
  O  O203  1  0.85929000  0.59422000  0.06424000  1.0
  O  O204  1  0.98778000  0.35828000  0.06004000  1.0
  O  O205  1  0.11142000  0.49877000  0.06227000  1.0
  O  O206  1  0.18480000  0.43351000  0.97723000  1.0
  O  O207  1  0.95507000  0.47861000  0.91614000  1.0
  O  O208  1  0.12312000  0.45452000  0.92128000  1.0
  O  O209  1  0.92108000  0.40532000  0.97064000  1.0
  O  O210  1  0.90527000  0.67508000  0.97733000  1.0
  O  O211  1  0.98695000  0.62465000  0.92115000  1.0
  O  O212  1  0.44091000  0.66721000  0.61180000  1.0
  O  O213  1  0.45172000  0.74076000  0.55412000  1.0
  O  O214  1  0.79886000  0.59264000  0.65289000  1.0
  O  O215  1  0.83431000  0.46901000  0.65313000  1.0
  O  O216  1  0.47363000  0.24637000  0.30488000  1.0
  O  O217  1  0.44887000  0.15686000  0.34751000  1.0
  O  O218  1  0.30063000  0.50189000  0.44654000  1.0
  O  O219  1  0.22306000  0.58311000  0.40185000  1.0
  O  O220  1  0.74638000  0.94861000  0.30533000  1.0
  O  O221  1  0.66571000  0.02625000  0.34990000  1.0
  O  O222  1  0.00420000  0.77473000  0.44642000  1.0
  O  O223  1  0.09294000  0.80062000  0.40363000  1.0
  O  O224  1  0.18121000  0.26940000  0.62409000  1.0
  O  O225  1  0.24299000  0.24388000  0.56224000  1.0
  O  O226  1  0.08145000  0.97110000  0.63893000  1.0
  O  O227  1  0.95807000  0.04742000  0.64750000  1.0
  O  O228  1  0.50215000  0.27502000  0.94566000  1.0
  O  O229  1  0.59106000  0.30164000  0.90350000  1.0
  O  O230  1  0.24455000  0.44989000  0.80443000  1.0
  O  O231  1  0.16444000  0.52894000  0.84851000  1.0
  O  O232  1  0.92041000  0.83161000  0.77580000  1.0
  O  O233  1  0.93562000  0.93880000  0.75742000  1.0
  O  O234  1  0.80624000  0.91600000  0.97460000  1.0
  O  O235  1  0.89760000  0.80744000  0.99789000  1.0
  O  O236  1  0.58000000  0.47132000  0.13920000  1.0
  O  O237  1  0.45673000  0.54819000  0.14727000  1.0
  O  O238  1  0.68037000  0.76938000  0.12342000  1.0
  O  O239  1  0.74520000  0.74156000  0.06240000  1.0
  O  O240  1  0.29904000  0.09290000  0.15171000  1.0
  O  O241  1  0.33411000  0.96896000  0.15354000  1.0
  O  O242  1  0.94060000  0.16788000  0.11161000  1.0
  O  O243  1  0.95239000  0.24039000  0.05367000  1.0
