# generated using pymatgen
data_Cu3H18C33N7
_symmetry_space_group_name_H-M   'P 1'
_cell_length_a   36.36830000
_cell_length_b   36.78660000
_cell_length_c   36.77980000
_cell_angle_alpha   90.00260000
_cell_angle_beta   90.01400000
_cell_angle_gamma   89.99980000
_symmetry_Int_Tables_number   1
_chemical_formula_structural   Cu3H18C33N7
_chemical_formula_sum   'Cu12 H72 C132 N28'
_cell_volume   49206.44624069
_cell_formula_units_Z   4
loop_
 _symmetry_equiv_pos_site_id
 _symmetry_equiv_pos_as_xyz
  1  'x, y, z'
loop_
 _atom_site_type_symbol
 _atom_site_label
 _atom_site_symmetry_multiplicity
 _atom_site_fract_x
 _atom_site_fract_y
 _atom_site_fract_z
 _atom_site_occupancy
  Cu  Cu0  1  0.12418000  0.90942000  0.15751000  1.0
  Cu  Cu1  1  0.16078000  0.87383000  0.08788000  1.0
  Cu  Cu2  1  0.08908000  0.83837000  0.12333000  1.0
  Cu  Cu3  1  0.87440000  0.59232000  0.65933000  1.0
  Cu  Cu4  1  0.83929000  0.62652000  0.58828000  1.0
  Cu  Cu5  1  0.91080000  0.66216000  0.62402000  1.0
  Cu  Cu6  1  0.62422000  0.09049000  0.34239000  1.0
  Cu  Cu7  1  0.66075000  0.12595000  0.41212000  1.0
  Cu  Cu8  1  0.58921000  0.16160000  0.37649000  1.0
  Cu  Cu9  1  0.37502000  0.40827000  0.84118000  1.0
  Cu  Cu10  1  0.33947000  0.37363000  0.91180000  1.0
  Cu  Cu11  1  0.41097000  0.33796000  0.87607000  1.0
  H  H12  1  0.17748000  0.97653000  0.17035000  1.0
  H  H13  1  0.22852000  0.92770000  0.07574000  1.0
  H  H14  1  0.02213000  0.82537000  0.17798000  1.0
  H  H15  1  0.07027000  0.92281000  0.22405000  1.0
  H  H16  1  0.17392000  0.81978000  0.02183000  1.0
  H  H17  1  0.07650000  0.77179000  0.06982000  1.0
  H  H18  1  0.82043000  0.52583000  0.67271000  1.0
  H  H19  1  0.77229000  0.57194000  0.57527000  1.0
  H  H20  1  0.97839000  0.67446000  0.67803000  1.0
  H  H21  1  0.92791000  0.57922000  0.72626000  1.0
  H  H22  1  0.82695000  0.67986000  0.52153000  1.0
  H  H23  1  0.92376000  0.72840000  0.57017000  1.0
  H  H24  1  0.67750000  0.02337000  0.32956000  1.0
  H  H25  1  0.72853000  0.07214000  0.42424000  1.0
  H  H26  1  0.52222000  0.17459000  0.32187000  1.0
  H  H27  1  0.57033000  0.07714000  0.27581000  1.0
  H  H28  1  0.67368000  0.17977000  0.47840000  1.0
  H  H29  1  0.57689000  0.22838000  0.42980000  1.0
  H  H30  1  0.32118000  0.47485000  0.82786000  1.0
  H  H31  1  0.27227000  0.42802000  0.92459000  1.0
  H  H32  1  0.47833000  0.32546000  0.82185000  1.0
  H  H33  1  0.42861000  0.42144000  0.77436000  1.0
  H  H34  1  0.32693000  0.32005000  0.97833000  1.0
  H  H35  1  0.42371000  0.27151000  0.92971000  1.0
  H  H36  1  0.33772000  0.00583000  0.13791000  1.0
  H  H37  1  0.38565000  0.05394000  0.13861000  1.0
  H  H38  1  0.30377000  0.13409000  0.11148000  1.0
  H  H39  1  0.25578000  0.08601000  0.11103000  1.0
  H  H40  1  0.74446000  0.41456000  0.61132000  1.0
  H  H41  1  0.69670000  0.36627000  0.61158000  1.0
  H  H42  1  0.61436000  0.44599000  0.63854000  1.0
  H  H43  1  0.66206000  0.49434000  0.63803000  1.0
  H  H44  1  0.83770000  0.99405000  0.36202000  1.0
  H  H45  1  0.88564000  0.94593000  0.36127000  1.0
  H  H46  1  0.80378000  0.86576000  0.38838000  1.0
  H  H47  1  0.75579000  0.91385000  0.38887000  1.0
  H  H48  1  0.19797000  0.54077000  0.93342000  1.0
  H  H49  1  0.15027000  0.58907000  0.93301000  1.0
  H  H50  1  0.16091000  0.59846000  0.81675000  1.0
  H  H51  1  0.20882000  0.55037000  0.81713000  1.0
  H  H52  1  0.99438000  0.86150000  0.33536000  1.0
  H  H53  1  0.94666000  0.86172000  0.38369000  1.0
  H  H54  1  0.86424000  0.88864000  0.30399000  1.0
  H  H55  1  0.91192000  0.88818000  0.25561000  1.0
  H  H56  1  0.50589000  0.36119000  0.66394000  1.0
  H  H57  1  0.55380000  0.36160000  0.61580000  1.0
  H  H58  1  0.63581000  0.38874000  0.69586000  1.0
  H  H59  1  0.58793000  0.38805000  0.74404000  1.0
  H  H60  1  0.05242000  0.68350000  0.79129000  1.0
  H  H61  1  0.10025000  0.68288000  0.83949000  1.0
  H  H62  1  0.08933000  0.56664000  0.84864000  1.0
  H  H63  1  0.04130000  0.56724000  0.80062000  1.0
  H  H64  1  0.49440000  0.13843000  0.16449000  1.0
  H  H65  1  0.44665000  0.13818000  0.11616000  1.0
  H  H66  1  0.36427000  0.11126000  0.19587000  1.0
  H  H67  1  0.41198000  0.11176000  0.24424000  1.0
  H  H68  1  0.18424000  0.70664000  0.94849000  1.0
  H  H69  1  0.18418000  0.65883000  0.90081000  1.0
  H  H70  1  0.06634000  0.65053000  0.90922000  1.0
  H  H71  1  0.06638000  0.69814000  0.95708000  1.0
  H  H72  1  0.61305000  0.25691000  0.58770000  1.0
  H  H73  1  0.61283000  0.30472000  0.63545000  1.0
  H  H74  1  0.63777000  0.38567000  0.55452000  1.0
  H  H75  1  0.63774000  0.33792000  0.50674000  1.0
  H  H76  1  0.36301000  0.16210000  0.00677000  1.0
  H  H77  1  0.36277000  0.11435000  0.05456000  1.0
  H  H78  1  0.38779000  0.19524000  0.13555000  1.0
  H  H79  1  0.38777000  0.24305000  0.08780000  1.0
  H  H80  1  0.88779000  0.75682000  0.41201000  1.0
  H  H81  1  0.88777000  0.80462000  0.36427000  1.0
  H  H82  1  0.86279000  0.88549000  0.44529000  1.0
  H  H83  1  0.86306000  0.83773000  0.49307000  1.0
  C  C84  1  0.18526000  0.95999000  0.14718000  1.0
  C  C85  1  0.21513000  0.96422000  0.12319000  1.0
  C  C86  1  0.21143000  0.93492000  0.09879000  1.0
  C  C87  1  0.03849000  0.84914000  0.18449000  1.0
  C  C88  1  0.03416000  0.87413000  0.21320000  1.0
  C  C89  1  0.06318000  0.89898000  0.20816000  1.0
  C  C90  1  0.15019000  0.81267000  0.03820000  1.0
  C  C91  1  0.12527000  0.78365000  0.03381000  1.0
  C  C92  1  0.10021000  0.78817000  0.06269000  1.0
  C  C93  1  0.81335000  0.54172000  0.64888000  1.0
  C  C94  1  0.78432000  0.53671000  0.62403000  1.0
  C  C95  1  0.78864000  0.56542000  0.59905000  1.0
  C  C96  1  0.96138000  0.65132000  0.68518000  1.0
  C  C97  1  0.96531000  0.62668000  0.71428000  1.0
  C  C98  1  0.93561000  0.60247000  0.70982000  1.0
  C  C99  1  0.85060000  0.68703000  0.53801000  1.0
  C  C100  1  0.87541000  0.71613000  0.53376000  1.0
  C  C101  1  0.90009000  0.71197000  0.56299000  1.0
  C  C102  1  0.68526000  0.03988000  0.35275000  1.0
  C  C103  1  0.71513000  0.03563000  0.37676000  1.0
  C  C104  1  0.71144000  0.06492000  0.40117000  1.0
  C  C105  1  0.53857000  0.15082000  0.31536000  1.0
  C  C106  1  0.53424000  0.12583000  0.28665000  1.0
  C  C107  1  0.56326000  0.10097000  0.29169000  1.0
  C  C108  1  0.65001000  0.18694000  0.46195000  1.0
  C  C109  1  0.62535000  0.21617000  0.46610000  1.0
  C  C110  1  0.60053000  0.21191000  0.43700000  1.0
  C  C111  1  0.31385000  0.45873000  0.85146000  1.0
  C  C112  1  0.28463000  0.46360000  0.87614000  1.0
  C  C113  1  0.28890000  0.43481000  0.90108000  1.0
  C  C114  1  0.46159000  0.34886000  0.81497000  1.0
  C  C115  1  0.46556000  0.37355000  0.78595000  1.0
  C  C116  1  0.43607000  0.39794000  0.79057000  1.0
  C  C117  1  0.35058000  0.31288000  0.96187000  1.0
  C  C118  1  0.37535000  0.28374000  0.96608000  1.0
  C  C119  1  0.40006000  0.28795000  0.93690000  1.0
  C  C120  1  0.29333000  0.04249000  0.12441000  1.0
  C  C121  1  0.33034000  0.03400000  0.13233000  1.0
  C  C122  1  0.35715000  0.06086000  0.13265000  1.0
  C  C123  1  0.34787000  0.09718000  0.12507000  1.0
  C  C124  1  0.31111000  0.10594000  0.11718000  1.0
  C  C125  1  0.28432000  0.07905000  0.11685000  1.0
  C  C126  1  0.26595000  0.01507000  0.12400000  1.0
  C  C127  1  0.24237000  0.99144000  0.12358000  1.0
  C  C128  1  0.70667000  0.45791000  0.62461000  1.0
  C  C129  1  0.71587000  0.42139000  0.61705000  1.0
  C  C130  1  0.68922000  0.39438000  0.61728000  1.0
  C  C131  1  0.65238000  0.40295000  0.62508000  1.0
  C  C132  1  0.64292000  0.43922000  0.63266000  1.0
  C  C133  1  0.66959000  0.46621000  0.63245000  1.0
  C  C134  1  0.73389000  0.48549000  0.62436000  1.0
  C  C135  1  0.75728000  0.50929000  0.62418000  1.0
  C  C136  1  0.79333000  0.95737000  0.37552000  1.0
  C  C137  1  0.83033000  0.96587000  0.36757000  1.0
  C  C138  1  0.85713000  0.93901000  0.36722000  1.0
  C  C139  1  0.84787000  0.90269000  0.37479000  1.0
  C  C140  1  0.81111000  0.89392000  0.38269000  1.0
  C  C141  1  0.78432000  0.92080000  0.38305000  1.0
  C  C142  1  0.76595000  0.98479000  0.37595000  1.0
  C  C143  1  0.74235000  0.00840000  0.37636000  1.0
  C  C144  1  0.20686000  0.54209000  0.87531000  1.0
  C  C145  1  0.18995000  0.55362000  0.90792000  1.0
  C  C146  1  0.16323000  0.58055000  0.90769000  1.0
  C  C147  1  0.15241000  0.59695000  0.87485000  1.0
  C  C148  1  0.16907000  0.58569000  0.84224000  1.0
  C  C149  1  0.19579000  0.55874000  0.84246000  1.0
  C  C150  1  0.23409000  0.51463000  0.87558000  1.0
  C  C151  1  0.25756000  0.49088000  0.87588000  1.0
  C  C152  1  0.95655000  0.87479000  0.29203000  1.0
  C  C153  1  0.96578000  0.86720000  0.32854000  1.0
  C  C154  1  0.93915000  0.86741000  0.35557000  1.0
  C  C155  1  0.90231000  0.87520000  0.34702000  1.0
  C  C156  1  0.89281000  0.88281000  0.31075000  1.0
  C  C157  1  0.91947000  0.88263000  0.28375000  1.0
  C  C158  1  0.98375000  0.87453000  0.26443000  1.0
  C  C159  1  0.00714000  0.87431000  0.24063000  1.0
  C  C160  1  0.54349000  0.37456000  0.70743000  1.0
  C  C161  1  0.53443000  0.36700000  0.67087000  1.0
  C  C162  1  0.56118000  0.36731000  0.64395000  1.0
  C  C163  1  0.59797000  0.37521000  0.65266000  1.0
  C  C164  1  0.60729000  0.38281000  0.68897000  1.0
  C  C165  1  0.58051000  0.38250000  0.71587000  1.0
  C  C166  1  0.51618000  0.37418000  0.73491000  1.0
  C  C167  1  0.49270000  0.37385000  0.75863000  1.0
  C  C168  1  0.04340000  0.62543000  0.79250000  1.0
  C  C169  1  0.06042000  0.65796000  0.80407000  1.0
  C  C170  1  0.08721000  0.65761000  0.83094000  1.0
  C  C171  1  0.09796000  0.62471000  0.84726000  1.0
  C  C172  1  0.08120000  0.59218000  0.83595000  1.0
  C  C173  1  0.05442000  0.59252000  0.80906000  1.0
  C  C174  1  0.01607000  0.62585000  0.76513000  1.0
  C  C175  1  0.99250000  0.62627000  0.74147000  1.0
  C  C176  1  0.45659000  0.12514000  0.20781000  1.0
  C  C177  1  0.46581000  0.13271000  0.17130000  1.0
  C  C178  1  0.43916000  0.13249000  0.14427000  1.0
  C  C179  1  0.40232000  0.12470000  0.15284000  1.0
  C  C180  1  0.39284000  0.11711000  0.18910000  1.0
  C  C181  1  0.41952000  0.11730000  0.21610000  1.0
  C  C182  1  0.48380000  0.12543000  0.23541000  1.0
  C  C183  1  0.50720000  0.12567000  0.25922000  1.0
  C  C184  1  0.12531000  0.70582000  0.95623000  1.0
  C  C185  1  0.15847000  0.69412000  0.93998000  1.0
  C  C186  1  0.15843000  0.66747000  0.91327000  1.0
  C  C187  1  0.12525000  0.65150000  0.90185000  1.0
  C  C188  1  0.09211000  0.66292000  0.91787000  1.0
  C  C189  1  0.09213000  0.68961000  0.94456000  1.0
  C  C190  1  0.12534000  0.73304000  0.98340000  1.0
  C  C191  1  0.12533000  0.75655000  0.00685000  1.0
  C  C192  1  0.62542000  0.29402000  0.54382000  1.0
  C  C193  1  0.61825000  0.28519000  0.58051000  1.0
  C  C194  1  0.61821000  0.31187000  0.60720000  1.0
  C  C195  1  0.62529000  0.34833000  0.59813000  1.0
  C  C196  1  0.63243000  0.35742000  0.56168000  1.0
  C  C197  1  0.63251000  0.33071000  0.53501000  1.0
  C  C198  1  0.62546000  0.26678000  0.51657000  1.0
  C  C199  1  0.62543000  0.24329000  0.49312000  1.0
  C  C200  1  0.37541000  0.20597000  0.04389000  1.0
  C  C201  1  0.36822000  0.16930000  0.03506000  1.0
  C  C202  1  0.36816000  0.14260000  0.06173000  1.0
  C  C203  1  0.37527000  0.15166000  0.09819000  1.0
  C  C204  1  0.38245000  0.18810000  0.10729000  1.0
  C  C205  1  0.38252000  0.21478000  0.08059000  1.0
  C  C206  1  0.37544000  0.23322000  0.01665000  1.0
  C  C207  1  0.37541000  0.25668000  0.99317000  1.0
  C  C208  1  0.87546000  0.79388000  0.45594000  1.0
  C  C209  1  0.88254000  0.78508000  0.41923000  1.0
  C  C210  1  0.88244000  0.81176000  0.39254000  1.0
  C  C211  1  0.87527000  0.84820000  0.40164000  1.0
  C  C212  1  0.86820000  0.85725000  0.43811000  1.0
  C  C213  1  0.86827000  0.83055000  0.46479000  1.0
  C  C214  1  0.87551000  0.76662000  0.48317000  1.0
  C  C215  1  0.87548000  0.74316000  0.50665000  1.0
  N  N216  1  0.62522000  0.37549000  0.62529000  1.0
  N  N217  1  0.37517000  0.12451000  0.12536000  1.0
  N  N218  1  0.12522000  0.62438000  0.87464000  1.0
  N  N219  1  0.87516000  0.87537000  0.37449000  1.0
  N  N220  1  0.18170000  0.91501000  0.10768000  1.0
  N  N221  1  0.16551000  0.93054000  0.13768000  1.0
  N  N222  1  0.08304000  0.88940000  0.17882000  1.0
  N  N223  1  0.06776000  0.85850000  0.16415000  1.0
  N  N224  1  0.10962000  0.81749000  0.08251000  1.0
  N  N225  1  0.14058000  0.83269000  0.06731000  1.0
  N  N226  1  0.81793000  0.58575000  0.60843000  1.0
  N  N227  1  0.83321000  0.57107000  0.63931000  1.0
  N  N228  1  0.91578000  0.61209000  0.68047000  1.0
  N  N229  1  0.93175000  0.64234000  0.66518000  1.0
  N  N230  1  0.89059000  0.68273000  0.58289000  1.0
  N  N231  1  0.85989000  0.66729000  0.56742000  1.0
  N  N232  1  0.68172000  0.08484000  0.39227000  1.0
  N  N233  1  0.66553000  0.06934000  0.36225000  1.0
  N  N234  1  0.58311000  0.11054000  0.32105000  1.0
  N  N235  1  0.56784000  0.14144000  0.33572000  1.0
  N  N236  1  0.60982000  0.18249000  0.41726000  1.0
  N  N237  1  0.64051000  0.16703000  0.43272000  1.0
  N  N238  1  0.31828000  0.41459000  0.89182000  1.0
  N  N239  1  0.33375000  0.42943000  0.86110000  1.0
  N  N240  1  0.41629000  0.38839000  0.81999000  1.0
  N  N241  1  0.43207000  0.35797000  0.83509000  1.0
  N  N242  1  0.39061000  0.31724000  0.91705000  1.0
  N  N243  1  0.35992000  0.33268000  0.93251000  1.0
