# generated using pymatgen
data_CdH17C19N3O8
_symmetry_space_group_name_H-M   'P 1'
_cell_length_a   9.89493730
_cell_length_b   10.03680000
_cell_length_c   11.27370000
_cell_angle_alpha   88.19080000
_cell_angle_beta   86.57900798
_cell_angle_gamma   117.16518992
_symmetry_Int_Tables_number   1
_chemical_formula_structural   CdH17C19N3O8
_chemical_formula_sum   'Cd2 H34 C38 N6 O16'
_cell_volume   992.17064907
_cell_formula_units_Z   2
loop_
 _symmetry_equiv_pos_site_id
 _symmetry_equiv_pos_as_xyz
  1  'x, y, z'
loop_
 _atom_site_type_symbol
 _atom_site_label
 _atom_site_symmetry_multiplicity
 _atom_site_fract_x
 _atom_site_fract_y
 _atom_site_fract_z
 _atom_site_occupancy
  Cd  Cd0  1  0.60489000  0.31813000  0.02906000  1.0
  Cd  Cd1  1  0.39512000  0.68187000  0.97094000  1.0
  H  H2  1  0.58104000  0.55821000  0.13644000  1.0
  H  H3  1  0.41896000  0.44179000  0.86356000  1.0
  H  H4  1  0.41199000  0.44095000  0.13101000  1.0
  H  H5  1  0.58801000  0.55904000  0.86899000  1.0
  H  H6  1  0.98439000  0.12107000  0.63779000  1.0
  H  H7  1  0.01562000  0.87894000  0.36221000  1.0
  H  H8  1  0.67664000  0.10093000  0.91500000  1.0
  H  H9  1  0.32336000  0.89906000  0.08500000  1.0
  H  H10  1  0.64546000  0.19557000  0.81400000  1.0
  H  H11  1  0.35454000  0.80441000  0.18600000  1.0
  H  H12  1  0.07079000  0.44378000  0.29624000  1.0
  H  H13  1  0.92921000  0.55623000  0.70376000  1.0
  H  H14  1  0.10523000  0.83012000  0.03753000  1.0
  H  H15  1  0.89477000  0.16988000  0.96247000  1.0
  H  H16  1  0.18878000  0.18101000  0.76716000  1.0
  H  H17  1  0.81123000  0.81899000  0.23284000  1.0
  H  H18  1  0.78456000  0.75761000  0.77520000  1.0
  H  H19  1  0.21544000  0.24239000  0.22481000  1.0
  H  H20  1  0.23544000  0.45079000  0.65550000  1.0
  H  H21  1  0.76455000  0.54921000  0.34449000  1.0
  H  H22  1  0.54619000  0.73850000  0.29368000  1.0
  H  H23  1  0.45380000  0.26150000  0.70633000  1.0
  H  H24  1  0.28523000  0.54468000  0.27338000  1.0
  H  H25  1  0.71476000  0.45532000  0.72662000  1.0
  H  H26  1  0.78842000  0.09656000  0.47932000  1.0
  H  H27  1  0.21158000  0.90345000  0.52068000  1.0
  H  H28  1  0.52751000  0.95543000  0.41262000  1.0
  H  H29  1  0.47248000  0.04457000  0.58738000  1.0
  H  H30  1  0.45591000  0.05370000  0.23100000  1.0
  H  H31  1  0.54409000  0.94631000  0.76901000  1.0
  H  H32  1  0.88730000  0.41183000  0.17519000  1.0
  H  H33  1  0.11270000  0.58816000  0.82480000  1.0
  H  H34  1  0.50339000  0.64974000  0.65953000  1.0
  H  H35  1  0.49660000  0.35027000  0.34046000  1.0
  C  C36  1  0.84217000  0.62238000  0.96682000  1.0
  C  C37  1  0.15783000  0.37762000  0.03318000  1.0
  C  C38  1  0.93723000  0.77800000  0.91156000  1.0
  C  C39  1  0.06278000  0.22201000  0.08844000  1.0
  C  C40  1  0.07379000  0.87191000  0.95917000  1.0
  C  C41  1  0.92621000  0.12809000  0.04083000  1.0
  C  C42  1  0.31223000  0.11645000  0.95498000  1.0
  C  C43  1  0.68778000  0.88355000  0.04502000  1.0
  C  C44  1  0.11794000  0.06770000  0.80690000  1.0
  C  C45  1  0.88206000  0.93229000  0.19311000  1.0
  C  C46  1  0.97968000  0.97457000  0.76079000  1.0
  C  C47  1  0.02033000  0.02543000  0.23921000  1.0
  C  C48  1  0.89073000  0.82908000  0.81303000  1.0
  C  C49  1  0.10928000  0.17093000  0.18698000  1.0
  C  C50  1  0.30070000  0.51435000  0.57383000  1.0
  C  C51  1  0.69930000  0.48566000  0.42616000  1.0
  C  C52  1  0.47352000  0.67577000  0.37343000  1.0
  C  C53  1  0.52648000  0.32424000  0.62657000  1.0
  C  C54  1  0.32453000  0.56693000  0.36247000  1.0
  C  C55  1  0.67547000  0.43308000  0.63753000  1.0
  C  C56  1  0.75579000  0.13620000  0.40056000  1.0
  C  C57  1  0.24421000  0.86380000  0.59944000  1.0
  C  C58  1  0.61002000  0.05762000  0.36257000  1.0
  C  C59  1  0.38998000  0.94239000  0.63743000  1.0
  C  C60  1  0.57026000  0.10871000  0.26101000  1.0
  C  C61  1  0.42973000  0.89129000  0.73899000  1.0
  C  C62  1  0.16495000  0.01610000  0.90601000  1.0
  C  C63  1  0.83506000  0.98390000  0.09399000  1.0
  C  C64  1  0.81161000  0.31011000  0.23023000  1.0
  C  C65  1  0.18838000  0.68988000  0.76976000  1.0
  C  C66  1  0.85836000  0.26814000  0.33406000  1.0
  C  C67  1  0.14164000  0.73186000  0.66593000  1.0
  C  C68  1  0.07281000  0.36672000  0.46510000  1.0
  C  C69  1  0.92719000  0.63329000  0.53489000  1.0
  C  C70  1  0.23456000  0.48489000  0.46536000  1.0
  C  C71  1  0.76543000  0.51511000  0.53464000  1.0
  C  C72  1  0.45077000  0.62644000  0.57536000  1.0
  C  C73  1  0.54922000  0.37356000  0.42463000  1.0
  N  N74  1  0.00650000  0.36314000  0.36138000  1.0
  N  N75  1  0.99350000  0.63686000  0.63862000  1.0
  N  N76  1  0.67162000  0.23215000  0.19493000  1.0
  N  N77  1  0.32838000  0.76785000  0.80507000  1.0
  N  N78  1  0.53678000  0.70795000  0.47764000  1.0
  N  N79  1  0.46321000  0.29205000  0.52236000  1.0
  O  O80  1  0.51300000  0.44955000  0.15040000  1.0
  O  O81  1  0.48700000  0.55044000  0.84960000  1.0
  O  O82  1  0.73402000  0.53108000  0.90464000  1.0
  O  O83  1  0.26598000  0.46892000  0.09535000  1.0
  O  O84  1  0.92398000  0.01465000  0.66666667  1.0
  O  O85  1  0.07602000  0.98535000  0.33333333  1.0
  O  O86  1  0.86635000  0.58265000  0.06632000  1.0
  O  O87  1  0.13364000  0.41734000  0.93368000  1.0
  O  O88  1  0.36301000  0.06719000  0.03862000  1.0
  O  O89  1  0.63699000  0.93280000  0.96138000  1.0
  O  O90  1  0.38873000  0.25196000  0.91112000  1.0
  O  O91  1  0.61127000  0.74804000  0.08889000  1.0
  O  O92  1  0.00328000  0.28113000  0.55415000  1.0
  O  O93  1  0.99673000  0.71886000  0.44585000  1.0
  O  O94  1  0.69783000  0.20582000  0.88602000  1.0
  O  O95  1  0.30217000  0.79417000  0.11398000  1.0
