# generated using pymatgen
data_LiBH3C4N(O2F)2
_symmetry_space_group_name_H-M   'P 1'
_cell_length_a   6.15945000
_cell_length_b   8.04908000
_cell_length_c   14.98680000
_cell_angle_alpha   89.99980000
_cell_angle_beta   90.00000000
_cell_angle_gamma   89.99980000
_symmetry_Int_Tables_number   1
_chemical_formula_structural   LiBH3C4N(O2F)2
_chemical_formula_sum   'Li4 B4 H12 C16 N4 O16 F8'
_cell_volume   743.01415872
_cell_formula_units_Z   4
loop_
 _symmetry_equiv_pos_site_id
 _symmetry_equiv_pos_as_xyz
  1  'x, y, z'
loop_
 _atom_site_type_symbol
 _atom_site_label
 _atom_site_symmetry_multiplicity
 _atom_site_fract_x
 _atom_site_fract_y
 _atom_site_fract_z
 _atom_site_occupancy
  Li  Li0  1  0.74999000  0.54253000  0.46876000  1.0
  Li  Li1  1  0.25000000  0.95748000  0.96876000  1.0
  Li  Li2  1  0.75000000  0.04252000  0.03124000  1.0
  Li  Li3  1  0.25001000  0.45747000  0.53124000  1.0
  B  B4  1  0.75000000  0.56604000  0.80229000  1.0
  B  B5  1  0.25000000  0.93396000  0.30229000  1.0
  B  B6  1  0.75000000  0.06604000  0.69771000  1.0
  B  B7  1  0.25000000  0.43396000  0.19771000  1.0
  H  H8  1  0.75000000  0.13120000  0.34357000  1.0
  H  H9  1  0.25000000  0.36882000  0.84357000  1.0
  H  H10  1  0.75000000  0.63119000  0.15643000  1.0
  H  H11  1  0.24999000  0.86880000  0.65643000  1.0
  H  H12  1  0.89519000  0.15797000  0.44598000  1.0
  H  H13  1  0.10481000  0.34204000  0.94598000  1.0
  H  H14  1  0.60480000  0.65796000  0.05402000  1.0
  H  H15  1  0.39519000  0.84203000  0.55402000  1.0
  H  H16  1  0.10481000  0.84204000  0.55402000  1.0
  H  H17  1  0.89519000  0.65796000  0.05402000  1.0
  H  H18  1  0.39520000  0.34204000  0.94597000  1.0
  H  H19  1  0.60480000  0.15797000  0.44598000  1.0
  C  C20  1  0.87430000  0.55419000  0.65702000  1.0
  C  C21  1  0.12573000  0.94582000  0.15702000  1.0
  C  C22  1  0.62572000  0.05419000  0.84299000  1.0
  C  C23  1  0.37426000  0.44582000  0.34299000  1.0
  C  C24  1  0.12571000  0.44581000  0.34298000  1.0
  C  C25  1  0.87427000  0.05419000  0.84298000  1.0
  C  C26  1  0.37428000  0.94581000  0.15702000  1.0
  C  C27  1  0.62574000  0.55418000  0.65701000  1.0
  C  C28  1  0.75000000  0.92636000  0.42875000  1.0
  C  C29  1  0.25000000  0.57365000  0.92875000  1.0
  C  C30  1  0.75000000  0.42635000  0.07125000  1.0
  C  C31  1  0.25000000  0.07365000  0.57125000  1.0
  C  C32  1  0.75000000  0.10365000  0.41532000  1.0
  C  C33  1  0.25000000  0.39636000  0.91532000  1.0
  C  C34  1  0.75000000  0.60364000  0.08468000  1.0
  C  C35  1  0.25000000  0.89636000  0.58468000  1.0
  N  N36  1  0.74999000  0.78376000  0.44066000  1.0
  N  N37  1  0.25000000  0.71624000  0.94066000  1.0
  N  N38  1  0.75000000  0.28375000  0.05934000  1.0
  N  N39  1  0.25000000  0.21624000  0.55934000  1.0
  O  O40  1  0.94492000  0.56225000  0.73898000  1.0
  O  O41  1  0.05508000  0.93776000  0.23898000  1.0
  O  O42  1  0.55508000  0.06225000  0.76102000  1.0
  O  O43  1  0.44491000  0.43775000  0.26102000  1.0
  O  O44  1  0.05508000  0.43775000  0.26101000  1.0
  O  O45  1  0.94492000  0.06225000  0.76102000  1.0
  O  O46  1  0.44492000  0.93775000  0.23898000  1.0
  O  O47  1  0.55509000  0.56224000  0.73898000  1.0
  O  O48  1  0.98102000  0.54685000  0.58768000  1.0
  O  O49  1  0.01901000  0.95316000  0.08768000  1.0
  O  O50  1  0.51901000  0.04684000  0.91232000  1.0
  O  O51  1  0.48097000  0.45317000  0.41233000  1.0
  O  O52  1  0.01898000  0.45315000  0.41232000  1.0
  O  O53  1  0.98099000  0.04684000  0.91233000  1.0
  O  O54  1  0.48100000  0.95316000  0.08768000  1.0
  O  O55  1  0.51903000  0.54683000  0.58767000  1.0
  F  F56  1  0.75000000  0.71063000  0.85192000  1.0
  F  F57  1  0.25000000  0.78937000  0.35192000  1.0
  F  F58  1  0.75000000  0.21063000  0.64808000  1.0
  F  F59  1  0.25000000  0.28937000  0.14808000  1.0
  F  F60  1  0.75000000  0.42441000  0.85514000  1.0
  F  F61  1  0.25000000  0.07559000  0.35515000  1.0
  F  F62  1  0.75000000  0.92441000  0.64486000  1.0
  F  F63  1  0.25000000  0.57559000  0.14486000  1.0
