# generated using pymatgen
data_LaH13C9O8
_symmetry_space_group_name_H-M   'P 1'
_cell_length_a   9.47433000
_cell_length_b   10.72840000
_cell_length_c   16.06390000
_cell_angle_alpha   75.94930000
_cell_angle_beta   83.42510000
_cell_angle_gamma   63.85240000
_symmetry_Int_Tables_number   1
_chemical_formula_structural   LaH13C9O8
_chemical_formula_sum   'La4 H52 C36 O32'
_cell_volume   1421.80209258
_cell_formula_units_Z   4
loop_
 _symmetry_equiv_pos_site_id
 _symmetry_equiv_pos_as_xyz
  1  'x, y, z'
loop_
 _atom_site_type_symbol
 _atom_site_label
 _atom_site_symmetry_multiplicity
 _atom_site_fract_x
 _atom_site_fract_y
 _atom_site_fract_z
 _atom_site_occupancy
  La  La0  1  0.88635000  0.03188000  0.13026000  1.0
  La  La1  1  0.11366000  0.96812000  0.86974000  1.0
  La  La2  1  0.62769000  0.98187000  0.37391000  1.0
  La  La3  1  0.37231000  0.01812000  0.62609000  1.0
  H  H4  1  0.46130000  0.24429000  0.06349000  1.0
  H  H5  1  0.53870000  0.75571000  0.93651000  1.0
  H  H6  1  0.29664000  0.20565000  0.10658000  1.0
  H  H7  1  0.70336000  0.79435000  0.89342000  1.0
  H  H8  1  0.18658000  0.41509000  0.17233000  1.0
  H  H9  1  0.81343000  0.58491000  0.82767000  1.0
  H  H10  1  0.45654000  0.46871000  0.06997000  1.0
  H  H11  1  0.54346000  0.53129000  0.93002000  1.0
  H  H12  1  0.15605000  0.65317000  0.16323000  1.0
  H  H13  1  0.84395000  0.34683000  0.83677000  1.0
  H  H14  1  0.33629000  0.66368000  0.16054000  1.0
  H  H15  1  0.66372000  0.33632000  0.83946000  1.0
  H  H16  1  0.80382000  0.56189000  0.18884000  1.0
  H  H17  1  0.19617000  0.43812000  0.81116000  1.0
  H  H18  1  0.98043000  0.52342000  0.23694000  1.0
  H  H19  1  0.01956000  0.47658000  0.76306000  1.0
  H  H20  1  0.86455000  0.48401000  0.38464000  1.0
  H  H21  1  0.13545000  0.51599000  0.61535000  1.0
  H  H22  1  0.61830000  0.48625000  0.27450000  1.0
  H  H23  1  0.38170000  0.51376000  0.72550000  1.0
  H  H24  1  0.51203000  0.44053000  0.42760000  1.0
  H  H25  1  0.48797000  0.55947000  0.57240000  1.0
  H  H26  1  0.70578000  0.36922000  0.46786000  1.0
  H  H27  1  0.29421000  0.63078000  0.53214000  1.0
  H  H28  1  0.04292000  0.77034000  0.43280000  1.0
  H  H29  1  0.95707000  0.22966000  0.56721000  1.0
  H  H30  1  0.21537000  0.79596000  0.39422000  1.0
  H  H31  1  0.78463000  0.20403000  0.60578000  1.0
  H  H32  1  0.29982000  0.59733000  0.31444000  1.0
  H  H33  1  0.70017000  0.40267000  0.68556000  1.0
  H  H34  1  0.06091000  0.53733000  0.44428000  1.0
  H  H35  1  0.93909000  0.46266000  0.55572000  1.0
  H  H36  1  0.15083000  0.35317000  0.34427000  1.0
  H  H37  1  0.84918000  0.64682000  0.65573000  1.0
  H  H38  1  0.33772000  0.35043000  0.33891000  1.0
  H  H39  1  0.66229000  0.64957000  0.66109000  1.0
  H  H40  1  0.73364000  0.88405000  0.08855000  1.0
  H  H41  1  0.26636000  0.11596000  0.91145000  1.0
  H  H42  1  0.59866000  0.02930000  0.04039000  1.0
  H  H43  1  0.40134000  0.97070000  0.95961000  1.0
  H  H44  1  0.92531000  0.23281000  0.22544000  1.0
  H  H45  1  0.07469000  0.76719000  0.77456000  1.0
  H  H46  1  0.75135000  0.25089000  0.24446000  1.0
  H  H47  1  0.24865000  0.74911000  0.75554000  1.0
  H  H48  1  0.02123000  0.25391000  0.05371000  1.0
  H  H49  1  0.97877000  0.74609000  0.94629000  1.0
  H  H50  1  0.16456000  0.10900000  0.04679000  1.0
  H  H51  1  0.83544000  0.89101000  0.95321000  1.0
  H  H52  1  0.39311000  0.84444000  0.44638000  1.0
  H  H53  1  0.60688000  0.15556000  0.55361000  1.0
  H  H54  1  0.51932000  0.75388000  0.38136000  1.0
  H  H55  1  0.48068000  0.24611000  0.61864000  1.0
  C  C56  1  0.47316000  0.14669000  0.19786000  1.0
  C  C57  1  0.52684000  0.85331000  0.80214000  1.0
  C  C58  1  0.38032000  0.24504000  0.11822000  1.0
  C  C59  1  0.61968000  0.75496000  0.88178000  1.0
  C  C60  1  0.29410000  0.39332000  0.13361000  1.0
  C  C61  1  0.70590000  0.60668000  0.86638000  1.0
  C  C62  1  0.34699000  0.49336000  0.10700000  1.0
  C  C63  1  0.65301000  0.50664000  0.89300000  1.0
  C  C64  1  0.26260000  0.63966000  0.12412000  1.0
  C  C65  1  0.73740000  0.36035000  0.87588000  1.0
  C  C66  1  0.21666000  0.75552000  0.04307000  1.0
  C  C67  1  0.78334000  0.24449000  0.95693000  1.0
  C  C68  1  0.80321000  0.73156000  0.23641000  1.0
  C  C69  1  0.19679000  0.26844000  0.76359000  1.0
  C  C70  1  0.85161000  0.57338000  0.24449000  1.0
  C  C71  1  0.14839000  0.42663000  0.75551000  1.0
  C  C72  1  0.80093000  0.50313000  0.32675000  1.0
  C  C73  1  0.19906000  0.49687000  0.67324000  1.0
  C  C74  1  0.68263000  0.46537000  0.33244000  1.0
  C  C75  1  0.31736000  0.53464000  0.66756000  1.0
  C  C76  1  0.63828000  0.38401000  0.41231000  1.0
  C  C77  1  0.36171000  0.61600000  0.58769000  1.0
  C  C78  1  0.65958000  0.24045000  0.39992000  1.0
  C  C79  1  0.34041000  0.75956000  0.60008000  1.0
  C  C80  1  0.04118000  0.87438000  0.30077000  1.0
  C  C81  1  0.95882000  0.12561000  0.69924000  1.0
  C  C82  1  0.12656000  0.76465000  0.37919000  1.0
  C  C83  1  0.87343000  0.23535000  0.62081000  1.0
  C  C84  1  0.20412000  0.61712000  0.36181000  1.0
  C  C85  1  0.79587000  0.38288000  0.63819000  1.0
  C  C86  1  0.15934000  0.51380000  0.39876000  1.0
  C  C87  1  0.84066000  0.48619000  0.60125000  1.0
  C  C88  1  0.23329000  0.36777000  0.38025000  1.0
  C  C89  1  0.76671000  0.63222000  0.61975000  1.0
  C  C90  1  0.27275000  0.24641000  0.45918000  1.0
  C  C91  1  0.72725000  0.75358000  0.54083000  1.0
  O  O92  1  0.40175000  0.12843000  0.26761000  1.0
  O  O93  1  0.59826000  0.87157000  0.73239000  1.0
  O  O94  1  0.62434000  0.08663000  0.19255000  1.0
  O  O95  1  0.37566000  0.91337000  0.80745000  1.0
  O  O96  1  0.09807000  0.87526000  0.04558000  1.0
  O  O97  1  0.90193000  0.12474000  0.95442000  1.0
  O  O98  1  0.29197000  0.73533000  0.97346000  1.0
  O  O99  1  0.70803000  0.26467000  0.02654000  1.0
  O  O100  1  0.71267000  0.79061000  0.29257000  1.0
  O  O101  1  0.28733000  0.20939000  0.70743000  1.0
  O  O102  1  0.85756000  0.79418000  0.17082000  1.0
  O  O103  1  0.14245000  0.20582000  0.82918000  1.0
  O  O104  1  0.69954000  0.13303000  0.46234000  1.0
  O  O105  1  0.30046000  0.86697000  0.53766000  1.0
  O  O106  1  0.63138000  0.23169000  0.32596000  1.0
  O  O107  1  0.36862000  0.76831000  0.67404000  1.0
  O  O108  1  0.89203000  0.95054000  0.30500000  1.0
  O  O109  1  0.10797000  0.04946000  0.69500000  1.0
  O  O110  1  0.11641000  0.88890000  0.23118000  1.0
  O  O111  1  0.88359000  0.11110000  0.76883000  1.0
  O  O112  1  0.18922000  0.26194000  0.52659000  1.0
  O  O113  1  0.81079000  0.73805000  0.47341000  1.0
  O  O114  1  0.39120000  0.12687000  0.45591000  1.0
  O  O115  1  0.60880000  0.87312000  0.54409000  1.0
  O  O116  1  0.70334000  0.95604000  0.03311000  1.0
  O  O117  1  0.29665000  0.04396000  0.96689000  1.0
  O  O118  1  0.83284000  0.24410000  0.19791000  1.0
  O  O119  1  0.16716000  0.75590000  0.80209000  1.0
  O  O120  1  0.07865000  0.15694000  0.08561000  1.0
  O  O121  1  0.92135000  0.84307000  0.91439000  1.0
  O  O122  1  0.45506000  0.84885000  0.39171000  1.0
  O  O123  1  0.54494000  0.15115000  0.60828000  1.0
