# generated using pymatgen
data_KH24C12(BrO2)3
_symmetry_space_group_name_H-M   'P 1'
_cell_length_a   7.95350000
_cell_length_b   8.95202000
_cell_length_c   14.02800000
_cell_angle_alpha   104.38900000
_cell_angle_beta   90.00000000
_cell_angle_gamma   90.00000000
_symmetry_Int_Tables_number   1
_chemical_formula_structural   KH24C12(BrO2)3
_chemical_formula_sum   'K2 H48 C24 Br6 O12'
_cell_volume   967.46085187
_cell_formula_units_Z   2
loop_
 _symmetry_equiv_pos_site_id
 _symmetry_equiv_pos_as_xyz
  1  'x, y, z'
loop_
 _atom_site_type_symbol
 _atom_site_label
 _atom_site_symmetry_multiplicity
 _atom_site_fract_x
 _atom_site_fract_y
 _atom_site_fract_z
 _atom_site_occupancy
  K  K0  1  0.50000000  0.50000000  0.50000000  1.0
  K  K1  1  0.00000000  0.00000000  0.00000000  1.0
  H  H2  1  0.36615000  0.79771000  0.81402000  1.0
  H  H3  1  0.86615000  0.70229000  0.68597000  1.0
  H  H4  1  0.63385000  0.20229000  0.18598000  1.0
  H  H5  1  0.13385000  0.29771000  0.31402000  1.0
  H  H6  1  0.57415000  0.77141000  0.76546000  1.0
  H  H7  1  0.07415000  0.72859000  0.73454000  1.0
  H  H8  1  0.42585000  0.22859000  0.23454000  1.0
  H  H9  1  0.92585000  0.27141000  0.26546000  1.0
  H  H10  1  0.46927000  0.55818000  0.83996000  1.0
  H  H11  1  0.96927000  0.94182000  0.66004000  1.0
  H  H12  1  0.53073000  0.44182000  0.16004000  1.0
  H  H13  1  0.03073000  0.05818000  0.33996000  1.0
  H  H14  1  0.31395000  0.51156000  0.74454000  1.0
  H  H15  1  0.81395000  0.98844000  0.75546000  1.0
  H  H16  1  0.68605000  0.48844000  0.25546000  1.0
  H  H17  1  0.18605000  0.01156000  0.24454000  1.0
  H  H18  1  0.44044000  0.26526000  0.69312000  1.0
  H  H19  1  0.94044000  0.23474000  0.80688000  1.0
  H  H20  1  0.55956000  0.73474000  0.30688000  1.0
  H  H21  1  0.05956000  0.76526000  0.19312000  1.0
  H  H22  1  0.61459000  0.30924000  0.77639000  1.0
  H  H23  1  0.11459000  0.19076000  0.72361000  1.0
  H  H24  1  0.38541000  0.69076000  0.22361000  1.0
  H  H25  1  0.88541000  0.80924000  0.27639000  1.0
  H  H26  1  0.80613000  0.28446000  0.62586000  1.0
  H  H27  1  0.30613000  0.21554000  0.87414000  1.0
  H  H28  1  0.19387000  0.71554000  0.37414000  1.0
  H  H29  1  0.69387000  0.78446000  0.12586000  1.0
  H  H30  1  0.70442000  0.11057000  0.63520000  1.0
  H  H31  1  0.20442000  0.38943000  0.86480000  1.0
  H  H32  1  0.29558000  0.88943000  0.36480000  1.0
  H  H33  1  0.79558000  0.61057000  0.13520000  1.0
  H  H34  1  0.70527000  0.00072000  0.46043000  1.0
  H  H35  1  0.20528000  0.49928000  0.03957000  1.0
  H  H36  1  0.29472000  0.99928000  0.53957000  1.0
  H  H37  1  0.79473000  0.50072000  0.96043000  1.0
  H  H38  1  0.82704000  0.16525000  0.45164000  1.0
  H  H39  1  0.32704000  0.33475000  0.04836000  1.0
  H  H40  1  0.17296000  0.83475000  0.54836000  1.0
  H  H41  1  0.67296000  0.66525000  0.95164000  1.0
  H  H42  1  0.32535000  0.96466000  0.70495000  1.0
  H  H43  1  0.82535000  0.53534000  0.79505000  1.0
  H  H44  1  0.67465000  0.03534000  0.29505000  1.0
  H  H45  1  0.17465000  0.46466000  0.20495000  1.0
  H  H46  1  0.52191000  0.91686000  0.64162000  1.0
  H  H47  1  0.02191000  0.58314000  0.85838000  1.0
  H  H48  1  0.47809000  0.08314000  0.35838000  1.0
  H  H49  1  0.97809000  0.41686000  0.14162000  1.0
  C  C50  1  0.44453000  0.72573000  0.75524000  1.0
  C  C51  1  0.94453000  0.77428000  0.74476000  1.0
  C  C52  1  0.55547000  0.27428000  0.24476000  1.0
  C  C53  1  0.05547000  0.22572000  0.25524000  1.0
  C  C54  1  0.44070000  0.56116000  0.76339000  1.0
  C  C55  1  0.94070000  0.93884000  0.73661000  1.0
  C  C56  1  0.55930000  0.43884000  0.23661000  1.0
  C  C57  1  0.05930000  0.06116000  0.26339000  1.0
  C  C58  1  0.56801000  0.31601000  0.70321000  1.0
  C  C59  1  0.06801000  0.18399000  0.79679000  1.0
  C  C60  1  0.43199000  0.68398000  0.29679000  1.0
  C  C61  1  0.93199000  0.81601000  0.20321000  1.0
  C  C62  1  0.68268000  0.22678000  0.62366000  1.0
  C  C63  1  0.18268000  0.27322000  0.87634000  1.0
  C  C64  1  0.31732000  0.77322000  0.37634000  1.0
  C  C65  1  0.81732000  0.72678000  0.12366000  1.0
  C  C66  1  0.69781000  0.11989000  0.45137000  1.0
  C  C67  1  0.19781000  0.38011000  0.04863000  1.0
  C  C68  1  0.30218000  0.88011000  0.54863000  1.0
  C  C69  1  0.80218000  0.61989000  0.95137000  1.0
  C  C70  1  0.38899000  0.88146000  0.64429000  1.0
  C  C71  1  0.88899000  0.61854000  0.85571000  1.0
  C  C72  1  0.61101000  0.11854000  0.35571000  1.0
  C  C73  1  0.11101000  0.38146000  0.14429000  1.0
  Br  Br74  1  0.83177000  0.72488000  0.46405000  1.0
  Br  Br75  1  0.33177000  0.77512000  0.03595000  1.0
  Br  Br76  1  0.16823000  0.27512000  0.53595000  1.0
  Br  Br77  1  0.66823000  0.22488000  0.96405000  1.0
  Br  Br78  1  0.00000000  0.50000000  0.50000000  1.0
  Br  Br79  1  0.50000000  0.00000000  0.00000000  1.0
  O  O80  1  0.38117000  0.73020000  0.66052000  1.0
  O  O81  1  0.88117000  0.76980000  0.83948000  1.0
  O  O82  1  0.61883000  0.26980000  0.33948000  1.0
  O  O83  1  0.11883000  0.23020000  0.16052000  1.0
  O  O84  1  0.56128000  0.47290000  0.69674000  1.0
  O  O85  1  0.06128000  0.02710000  0.80326000  1.0
  O  O86  1  0.43872000  0.52710000  0.30326000  1.0
  O  O87  1  0.93872000  0.97290000  0.19674000  1.0
  O  O88  1  0.60382000  0.21438000  0.53060000  1.0
  O  O89  1  0.10382000  0.28562000  0.96940000  1.0
  O  O90  1  0.39618000  0.78562000  0.46940000  1.0
  O  O91  1  0.89618000  0.71438000  0.03060000  1.0
