# generated using pymatgen
data_CuH17C19N5O6
_symmetry_space_group_name_H-M   'P 1'
_cell_length_a   8.11994000
_cell_length_b   11.09890000
_cell_length_c   11.56070000
_cell_angle_alpha   75.87730000
_cell_angle_beta   71.16000000
_cell_angle_gamma   76.01990000
_symmetry_Int_Tables_number   1
_chemical_formula_structural   CuH17C19N5O6
_chemical_formula_sum   'Cu2 H34 C38 N10 O12'
_cell_volume   941.09354929
_cell_formula_units_Z   2
loop_
 _symmetry_equiv_pos_site_id
 _symmetry_equiv_pos_as_xyz
  1  'x, y, z'
loop_
 _atom_site_type_symbol
 _atom_site_label
 _atom_site_symmetry_multiplicity
 _atom_site_fract_x
 _atom_site_fract_y
 _atom_site_fract_z
 _atom_site_occupancy
  Cu  Cu0  1  0.25527000  0.20002000  0.29270000  1.0
  Cu  Cu1  1  0.74472000  0.79998000  0.70730000  1.0
  H  H2  1  0.19306000  0.15013000  0.68276000  1.0
  H  H3  1  0.80695000  0.84986000  0.31724000  1.0
  H  H4  1  0.91623000  0.30863000  0.73330000  1.0
  H  H5  1  0.08378000  0.69136000  0.26669000  1.0
  H  H6  1  0.90618000  0.49279000  0.82392000  1.0
  H  H7  1  0.09383000  0.50721000  0.17607000  1.0
  H  H8  1  0.16872000  0.52406000  0.87093000  1.0
  H  H9  1  0.83129000  0.47593000  0.12906000  1.0
  H  H10  1  0.66409000  0.41885000  0.98758000  1.0
  H  H11  1  0.33591000  0.58115000  0.01242000  1.0
  H  H12  1  0.71171000  0.26650000  0.94385000  1.0
  H  H13  1  0.28828000  0.73349000  0.05615000  1.0
  H  H14  1  0.40973000  0.03767000  0.10435000  1.0
  H  H15  1  0.59025000  0.96232000  0.89567000  1.0
  H  H16  1  0.31128000  0.94848000  0.96657000  1.0
  H  H17  1  0.68870000  0.05150000  0.03347000  1.0
  H  H18  1  0.77575000  0.12106000  0.14133000  1.0
  H  H19  1  0.22424000  0.87895000  0.85867000  1.0
  H  H20  1  0.90071000  0.20071000  0.27035000  1.0
  H  H21  1  0.09928000  0.79932000  0.72963000  1.0
  H  H22  1  0.10080000  0.43496000  0.40153000  1.0
  H  H23  1  0.89920000  0.56504000  0.59847000  1.0
  H  H24  1  0.20237000  0.57462000  0.49158000  1.0
  H  H25  1  0.79763000  0.42539000  0.50842000  1.0
  H  H26  1  0.70680000  0.31789000  0.43784000  1.0
  H  H27  1  0.29320000  0.68212000  0.56215000  1.0
  H  H28  1  0.57746000  0.18774000  0.35525000  1.0
  H  H29  1  0.42253000  0.81227000  0.64473000  1.0
  H  H30  1  0.85885000  0.15978000  0.59019000  1.0
  H  H31  1  0.14116000  0.84022000  0.40981000  1.0
  H  H32  1  0.42717000  0.95065000  0.34790000  1.0
  H  H33  1  0.57284000  0.04935000  0.65209000  1.0
  H  H34  1  0.31189000  0.02203000  0.46150000  1.0
  H  H35  1  0.68811000  0.97798000  0.53849000  1.0
  C  C36  1  0.32865000  0.35579000  0.79903000  1.0
  C  C37  1  0.67136000  0.64421000  0.20097000  1.0
  C  C38  1  0.33701000  0.25098000  0.74664000  1.0
  C  C39  1  0.66300000  0.74901000  0.25336000  1.0
  C  C40  1  0.18784000  0.23079000  0.72280000  1.0
  C  C41  1  0.81217000  0.76920000  0.27720000  1.0
  C  C42  1  0.03541000  0.31983000  0.75087000  1.0
  C  C43  1  0.96460000  0.68016000  0.24913000  1.0
  C  C44  1  0.02909000  0.42535000  0.80228000  1.0
  C  C45  1  0.97092000  0.57464000  0.19772000  1.0
  C  C46  1  0.17451000  0.44535000  0.82841000  1.0
  C  C47  1  0.82549000  0.55465000  0.17159000  1.0
  C  C48  1  0.60968000  0.34976000  0.96340000  1.0
  C  C49  1  0.39032000  0.65024000  0.03660000  1.0
  C  C50  1  0.44678000  0.31584000  0.06746000  1.0
  C  C51  1  0.55322000  0.68416000  0.93254000  1.0
  C  C52  1  0.27081000  0.05407000  0.10801000  1.0
  C  C53  1  0.72918000  0.94592000  0.89201000  1.0
  C  C54  1  0.21358000  0.00456000  0.03160000  1.0
  C  C55  1  0.78640000  0.99542000  0.96842000  1.0
  C  C56  1  0.03276000  0.02628000  0.03972000  1.0
  C  C57  1  0.96723000  0.97371000  0.96030000  1.0
  C  C58  1  0.91840000  0.09931000  0.12734000  1.0
  C  C59  1  0.08159000  0.90069000  0.87266000  1.0
  C  C60  1  0.98621000  0.14563000  0.20045000  1.0
  C  C61  1  0.01377000  0.85439000  0.79955000  1.0
  C  C62  1  0.23397000  0.41314000  0.41189000  1.0
  C  C63  1  0.76602000  0.58687000  0.58810000  1.0
  C  C64  1  0.29286000  0.49068000  0.46215000  1.0
  C  C65  1  0.70714000  0.50933000  0.53784000  1.0
  C  C66  1  0.46589000  0.45994000  0.47357000  1.0
  C  C67  1  0.53411000  0.54007000  0.52642000  1.0
  C  C68  1  0.57101000  0.34926000  0.43262000  1.0
  C  C69  1  0.42899000  0.65075000  0.56737000  1.0
  C  C70  1  0.50212000  0.27593000  0.38452000  1.0
  C  C71  1  0.49787000  0.72408000  0.61548000  1.0
  C  C72  1  0.99539000  0.14313000  0.52755000  1.0
  C  C73  1  0.00461000  0.85687000  0.47245000  1.0
  N  N74  1  0.49747000  0.34048000  0.80613000  1.0
  N  N75  1  0.50254000  0.65951000  0.19386000  1.0
  N  N76  1  0.60304000  0.23830000  0.76181000  1.0
  N  N77  1  0.39697000  0.76170000  0.23819000  1.0
  N  N78  1  0.50659000  0.18279000  0.72667000  1.0
  N  N79  1  0.49342000  0.81720000  0.27333000  1.0
  N  N80  1  0.15989000  0.12434000  0.19123000  1.0
  N  N81  1  0.84009000  0.87567000  0.80877000  1.0
  N  N82  1  0.33624000  0.30756000  0.37352000  1.0
  N  N83  1  0.66375000  0.69244000  0.62648000  1.0
  O  O84  1  0.56552000  0.41694000  0.84905000  1.0
  O  O85  1  0.43449000  0.58306000  0.15095000  1.0
  O  O86  1  0.48084000  0.21796000  0.14895000  1.0
  O  O87  1  0.51915000  0.78204000  0.85105000  1.0
  O  O88  1  0.29857000  0.38200000  0.06945000  1.0
  O  O89  1  0.70142000  0.61800000  0.93054000  1.0
  O  O90  1  0.40956000  0.02770000  0.38285000  1.0
  O  O91  1  0.59045000  0.97230000  0.61715000  1.0
  O  O92  1  0.01753000  0.21880000  0.42143000  1.0
  O  O93  1  0.98246000  0.78121000  0.57857000  1.0
  O  O94  1  0.10752000  0.05803000  0.56600000  1.0
  O  O95  1  0.89248000  0.94196000  0.43400000  1.0
