# generated using pymatgen
data_CoH28C42(SN5)2
_symmetry_space_group_name_H-M   'P 1'
_cell_length_a   14.95850000
_cell_length_b   17.25030000
_cell_length_c   17.24930000
_cell_angle_alpha   112.06300000
_cell_angle_beta   106.66900000
_cell_angle_gamma   106.86800000
_symmetry_Int_Tables_number   1
_chemical_formula_structural   CoH28C42(SN5)2
_chemical_formula_sum   'Co3 H84 C126 S6 N30'
_cell_volume   3532.58242636
_cell_formula_units_Z   3
loop_
 _symmetry_equiv_pos_site_id
 _symmetry_equiv_pos_as_xyz
  1  'x, y, z'
loop_
 _atom_site_type_symbol
 _atom_site_label
 _atom_site_symmetry_multiplicity
 _atom_site_fract_x
 _atom_site_fract_y
 _atom_site_fract_z
 _atom_site_occupancy
  Co  Co0  1  0.00000000  0.00000000  0.50000000  1.0
  Co  Co1  1  0.50000000  0.50000000  0.50000000  1.0
  Co  Co2  1  0.00000000  0.50000000  0.00000000  1.0
  H  H3  1  0.23623000  0.11086000  0.64338000  1.0
  H  H4  1  0.59316000  0.35681000  0.46784000  1.0
  H  H5  1  0.12586000  0.53248000  0.88901000  1.0
  H  H6  1  0.76377000  0.88914000  0.35662000  1.0
  H  H7  1  0.40684000  0.64319000  0.53216000  1.0
  H  H8  1  0.87414000  0.46753000  0.11099000  1.0
  H  H9  1  0.41145000  0.15082000  0.64668000  1.0
  H  H10  1  0.76486000  0.35338000  0.50366000  1.0
  H  H11  1  0.26115000  0.49575000  0.84916000  1.0
  H  H12  1  0.58855000  0.84919000  0.35332000  1.0
  H  H13  1  0.23514000  0.64662000  0.49634000  1.0
  H  H14  1  0.73885000  0.50425000  0.15084000  1.0
  H  H15  1  0.25497000  0.99987000  0.34491000  1.0
  H  H16  1  0.91006000  0.65543000  0.65690000  1.0
  H  H17  1  0.25427000  0.34491000  0.00007000  1.0
  H  H18  1  0.74503000  0.00012000  0.65508000  1.0
  H  H19  1  0.08995000  0.34457000  0.34310000  1.0
  H  H20  1  0.74573000  0.65509000  0.99993000  1.0
  H  H21  1  0.08730000  0.96693000  0.35438000  1.0
  H  H22  1  0.73324000  0.64603000  0.61566000  1.0
  H  H23  1  0.11974000  0.38755000  0.03305000  1.0
  H  H24  1  0.91270000  0.03307000  0.64562000  1.0
  H  H25  1  0.26677000  0.35397000  0.38434000  1.0
  H  H26  1  0.88026000  0.61245000  0.96695000  1.0
  H  H27  1  0.39834000  0.99798000  0.35392000  1.0
  H  H28  1  0.04414000  0.64624000  0.64393000  1.0
  H  H29  1  0.39949000  0.35568000  0.00191000  1.0
  H  H30  1  0.60166000  0.00202000  0.64608000  1.0
  H  H31  1  0.95586000  0.35376000  0.35608000  1.0
  H  H32  1  0.60051000  0.64432000  0.99808000  1.0
  H  H33  1  0.72987000  0.17088000  0.51634000  1.0
  H  H34  1  0.21327000  0.48397000  0.65481000  1.0
  H  H35  1  0.55890000  0.34516000  0.82931000  1.0
  H  H36  1  0.27013000  0.82912000  0.48366000  1.0
  H  H37  1  0.78673000  0.51603000  0.34520000  1.0
  H  H38  1  0.44110000  0.65484000  0.17068000  1.0
  H  H39  1  0.82996000  0.32398000  0.63312000  1.0
  H  H40  1  0.19644000  0.36713000  0.69092000  1.0
  H  H41  1  0.50751000  0.30964000  0.67684000  1.0
  H  H42  1  0.17004000  0.67603000  0.36688000  1.0
  H  H43  1  0.80356000  0.63287000  0.30908000  1.0
  H  H44  1  0.49248000  0.69035000  0.32315000  1.0
  H  H45  1  0.96417000  0.44407000  0.79298000  1.0
  H  H46  1  0.17086000  0.20719000  0.65109000  1.0
  H  H47  1  0.52307000  0.35017000  0.55746000  1.0
  H  H48  1  0.03583000  0.55594000  0.20702000  1.0
  H  H49  1  0.82914000  0.79281000  0.34891000  1.0
  H  H50  1  0.47693000  0.64982000  0.44253000  1.0
  H  H51  1  0.77508000  0.36199000  0.90958000  1.0
  H  H52  1  0.86585000  0.09028000  0.45227000  1.0
  H  H53  1  0.41487000  0.54786000  0.63871000  1.0
  H  H54  1  0.22492000  0.63801000  0.09042000  1.0
  H  H55  1  0.13415000  0.90972000  0.54773000  1.0
  H  H56  1  0.58513000  0.45214000  0.36129000  1.0
  H  H57  1  0.63028000  0.23732000  0.75357000  1.0
  H  H58  1  0.87700000  0.24636000  0.48373000  1.0
  H  H59  1  0.39340000  0.51585000  0.76273000  1.0
  H  H60  1  0.36972000  0.76268000  0.24643000  1.0
  H  H61  1  0.12300000  0.75364000  0.51627000  1.0
  H  H62  1  0.60660000  0.48415000  0.23727000  1.0
  H  H63  1  0.42322000  0.95649000  0.23800000  1.0
  H  H64  1  0.18512000  0.76247000  0.71925000  1.0
  H  H65  1  0.46571000  0.28120000  0.04356000  1.0
  H  H66  1  0.57678000  0.04351000  0.76200000  1.0
  H  H67  1  0.81488000  0.23753000  0.28076000  1.0
  H  H68  1  0.53429000  0.71881000  0.95644000  1.0
  H  H69  1  0.46422000  0.88085000  0.10826000  1.0
  H  H70  1  0.35574000  0.89221000  0.77327000  1.0
  H  H71  1  0.58227000  0.22746000  0.11926000  1.0
  H  H72  1  0.53578000  0.11915000  0.89174000  1.0
  H  H73  1  0.64426000  0.10779000  0.22674000  1.0
  H  H74  1  0.41774000  0.77255000  0.88074000  1.0
  H  H75  1  0.65247000  0.91510000  0.14385000  1.0
  H  H76  1  0.50802000  0.85638000  0.77114000  1.0
  H  H77  1  0.73648000  0.22917000  0.08507000  1.0
  H  H78  1  0.34753000  0.08489000  0.85615000  1.0
  H  H79  1  0.49198000  0.14362000  0.22887000  1.0
  H  H80  1  0.26353000  0.77083000  0.91493000  1.0
  H  H81  1  0.78893000  0.03020000  0.30628000  1.0
  H  H82  1  0.48186000  0.69365000  0.72307000  1.0
  H  H83  1  0.75821000  0.27656000  0.97003000  1.0
  H  H84  1  0.21108000  0.96980000  0.69372000  1.0
  H  H85  1  0.51815000  0.30635000  0.27694000  1.0
  H  H86  1  0.24178000  0.72344000  0.02997000  1.0
  C  C87  1  0.11236000  0.07736000  0.71745000  1.0
  C  C88  1  0.39554000  0.28202000  0.36031000  1.0
  C  C89  1  0.03584000  0.64008000  0.92268000  1.0
  C  C90  1  0.88764000  0.92264000  0.28255000  1.0
  C  C91  1  0.60446000  0.71799000  0.63969000  1.0
  C  C92  1  0.96416000  0.35992000  0.07732000  1.0
  C  C93  1  0.24383000  0.08881000  0.57855000  1.0
  C  C94  1  0.66550000  0.42164000  0.51098000  1.0
  C  C95  1  0.15521000  0.48969000  0.91109000  1.0
  C  C96  1  0.75617000  0.91119000  0.42144000  1.0
  C  C97  1  0.33450000  0.57836000  0.48903000  1.0
  C  C98  1  0.84479000  0.51031000  0.08891000  1.0
  C  C99  1  0.34141000  0.11037000  0.58025000  1.0
  C  C100  1  0.76125000  0.41988000  0.53029000  1.0
  C  C101  1  0.23120000  0.46975000  0.88954000  1.0
  C  C102  1  0.65859000  0.88963000  0.41975000  1.0
  C  C103  1  0.23876000  0.58012000  0.46971000  1.0
  C  C104  1  0.76880000  0.53025000  0.11046000  1.0
  C  C105  1  0.34946000  0.07815000  0.49607000  1.0
  C  C106  1  0.85337000  0.50412000  0.58264000  1.0
  C  C107  1  0.27107000  0.41774000  0.92176000  1.0
  C  C108  1  0.65054000  0.92185000  0.50392000  1.0
  C  C109  1  0.14663000  0.49588000  0.41736000  1.0
  C  C110  1  0.72893000  0.58226000  0.07824000  1.0
  C  C111  1  0.25574000  0.02545000  0.41331000  1.0
  C  C112  1  0.84250000  0.58701000  0.61369000  1.0
  C  C113  1  0.22975000  0.38774000  0.97447000  1.0
  C  C114  1  0.74426000  0.97455000  0.58669000  1.0
  C  C115  1  0.15751000  0.41299000  0.38631000  1.0
  C  C116  1  0.77024000  0.61226000  0.02553000  1.0
  C  C117  1  0.16101000  0.00720000  0.41773000  1.0
  C  C118  1  0.74348000  0.58259000  0.59166000  1.0
  C  C119  1  0.15338000  0.41053000  0.99274000  1.0
  C  C120  1  0.83899000  0.99280000  0.58227000  1.0
  C  C121  1  0.25652000  0.41741000  0.40834000  1.0
  C  C122  1  0.84662000  0.58947000  0.00726000  1.0
  C  C123  1  0.45349000  0.10095000  0.49754000  1.0
  C  C124  1  0.95583000  0.50262000  0.60357000  1.0
  C  C125  1  0.35226000  0.39629000  0.89897000  1.0
  C  C126  1  0.54651000  0.89905000  0.50245000  1.0
  C  C127  1  0.04417000  0.49738000  0.39643000  1.0
  C  C128  1  0.64774000  0.60370000  0.10102000  1.0
  C  C129  1  0.46636000  0.05454000  0.41829000  1.0
  C  C130  1  0.04785000  0.58191000  0.63628000  1.0
  C  C131  1  0.41123000  0.36345000  0.94540000  1.0
  C  C132  1  0.53364000  0.94545000  0.58171000  1.0
  C  C133  1  0.95215000  0.41809000  0.36372000  1.0
  C  C134  1  0.58877000  0.63655000  0.05460000  1.0
  C  C135  1  0.56667000  0.07988000  0.42357000  1.0
  C  C136  1  0.14281000  0.57666000  0.65638000  1.0
  C  C137  1  0.48623000  0.34337000  0.92013000  1.0
  C  C138  1  0.43333000  0.92012000  0.57643000  1.0
  C  C139  1  0.85719000  0.42334000  0.34363000  1.0
  C  C140  1  0.51377000  0.65663000  0.07987000  1.0
  C  C141  1  0.65090000  0.15135000  0.50966000  1.0
  C  C142  1  0.14099000  0.49058000  0.64186000  1.0
  C  C143  1  0.49937000  0.35799000  0.84873000  1.0
  C  C144  1  0.34910000  0.84865000  0.49034000  1.0
  C  C145  1  0.85901000  0.50942000  0.35814000  1.0
  C  C146  1  0.50062000  0.64200000  0.15126000  1.0
  C  C147  1  0.63184000  0.19366000  0.58591000  1.0
  C  C148  1  0.04579000  0.41426000  0.60791000  1.0
  C  C149  1  0.43839000  0.39198000  0.80645000  1.0
  C  C150  1  0.36816000  0.80634000  0.41409000  1.0
  C  C151  1  0.95421000  0.58574000  0.39210000  1.0
  C  C152  1  0.56160000  0.60801000  0.19355000  1.0
  C  C153  1  0.71762000  0.26773000  0.67910000  1.0
  C  C154  1  0.03844000  0.32101000  0.58870000  1.0
  C  C155  1  0.45088000  0.41148000  0.73273000  1.0
  C  C156  1  0.28238000  0.73227000  0.32089000  1.0
  C  C157  1  0.96156000  0.67899000  0.41131000  1.0
  C  C158  1  0.54911000  0.58852000  0.26726000  1.0
  C  C159  1  0.81364000  0.32747000  0.69171000  1.0
  C  C160  1  0.12169000  0.30848000  0.63582000  1.0
  C  C161  1  0.48786000  0.36478000  0.67342000  1.0
  C  C162  1  0.18636000  0.67253000  0.30829000  1.0
  C  C163  1  0.87831000  0.69152000  0.36418000  1.0
  C  C164  1  0.51213000  0.63521000  0.32658000  1.0
  C  C165  1  0.89001000  0.39565000  0.78187000  1.0
  C  C166  1  0.10796000  0.21828000  0.61381000  1.0
  C  C167  1  0.49695000  0.38721000  0.60567000  1.0
  C  C168  1  0.10999000  0.60435000  0.21813000  1.0
  C  C169  1  0.89204000  0.78172000  0.38619000  1.0
  C  C170  1  0.50305000  0.61279000  0.39432000  1.0
  C  C171  1  0.78464000  0.35022000  0.84668000  1.0
  C  C172  1  0.93815000  0.15328000  0.50348000  1.0
  C  C173  1  0.43637000  0.49692000  0.65065000  1.0
  C  C174  1  0.21536000  0.64978000  0.15332000  1.0
  C  C175  1  0.06185000  0.84672000  0.49652000  1.0
  C  C176  1  0.56363000  0.50308000  0.34935000  1.0
  C  C177  1  0.70375000  0.28110000  0.75941000  1.0
  C  C178  1  0.94449000  0.24059000  0.52170000  1.0
  C  C179  1  0.42373000  0.47834000  0.71934000  1.0
  C  C180  1  0.29625000  0.71890000  0.24059000  1.0
  C  C181  1  0.05551000  0.75941000  0.47831000  1.0
  C  C182  1  0.57627000  0.52165000  0.28066000  1.0
  C  C183  1  0.58567000  0.03321000  0.34246000  1.0
  C  C184  1  0.24284000  0.65775000  0.69071000  1.0
  C  C185  1  0.55175000  0.30910000  0.96687000  1.0
  C  C186  1  0.41433000  0.96679000  0.65754000  1.0
  C  C187  1  0.75716000  0.34225000  0.30929000  1.0
  C  C188  1  0.44825000  0.69090000  0.03313000  1.0
  C  C189  1  0.50378000  0.97089000  0.25196000  1.0
  C  C190  1  0.25157000  0.74840000  0.71932000  1.0
  C  C191  1  0.53196000  0.28089000  0.02918000  1.0
  C  C192  1  0.49622000  0.02911000  0.74804000  1.0
  C  C193  1  0.74843000  0.25160000  0.28069000  1.0
  C  C194  1  0.46804000  0.71911000  0.97082000  1.0
  C  C195  1  0.52663000  0.92824000  0.17897000  1.0
  C  C196  1  0.34732000  0.82138000  0.74960000  1.0
  C  C197  1  0.59743000  0.25077000  0.07187000  1.0
  C  C198  1  0.47337000  0.07176000  0.82103000  1.0
  C  C199  1  0.65268000  0.17862000  0.25041000  1.0
  C  C200  1  0.40257000  0.74923000  0.92814000  1.0
  C  C201  1  0.63012000  0.94783000  0.19770000  1.0
  C  C202  1  0.43188000  0.80249000  0.74998000  1.0
  C  C203  1  0.68145000  0.25011000  0.05230000  1.0
  C  C204  1  0.36988000  0.05217000  0.80229000  1.0
  C  C205  1  0.56812000  0.19752000  0.25003000  1.0
  C  C206  1  0.31855000  0.74989000  0.94770000  1.0
  C  C207  1  0.70684000  0.01214000  0.28937000  1.0
  C  C208  1  0.41683000  0.71069000  0.72222000  1.0
  C  C209  1  0.69406000  0.27749000  0.98803000  1.0
  C  C210  1  0.29316000  0.98786000  0.71063000  1.0
  C  C211  1  0.58317000  0.28932000  0.27778000  1.0
  C  C212  1  0.30593000  0.72251000  0.01197000  1.0
  S  S213  1  0.17185000  0.13667000  0.83002000  1.0
  S  S214  1  0.34143000  0.16929000  0.30598000  1.0
  S  S215  1  0.03626000  0.69299000  0.86305000  1.0
  S  S216  1  0.82815000  0.86333000  0.16998000  1.0
  S  S217  1  0.65857000  0.83072000  0.69402000  1.0
  S  S218  1  0.96374000  0.30701000  0.13695000  1.0
  N  N219  1  0.06912000  0.03331000  0.63399000  1.0
  N  N220  1  0.43578000  0.36558000  0.40011000  1.0
  N  N221  1  0.03649000  0.60089000  0.96695000  1.0
  N  N222  1  0.93088000  0.96669000  0.36602000  1.0
  N  N223  1  0.56422000  0.63443000  0.59989000  1.0
  N  N224  1  0.96352000  0.39911000  0.03306000  1.0
  N  N225  1  0.15381000  0.03790000  0.49894000  1.0
  N  N226  1  0.65512000  0.50133000  0.54078000  1.0
  N  N227  1  0.11581000  0.46104000  0.96200000  1.0
  N  N228  1  0.84619000  0.96210000  0.50105000  1.0
  N  N229  1  0.34488000  0.49867000  0.45922000  1.0
  N  N230  1  0.88420000  0.53896000  0.03800000  1.0
  N  N231  1  0.53510000  0.16874000  0.57993000  1.0
  N  N232  1  0.95509000  0.42020000  0.58897000  1.0
  N  N233  1  0.36647000  0.41087000  0.83125000  1.0
  N  N234  1  0.46490000  0.83126000  0.42007000  1.0
  N  N235  1  0.04491000  0.57980000  0.41103000  1.0
  N  N236  1  0.63353000  0.58913000  0.16875000  1.0
  N  N237  1  0.68614000  0.05433000  0.35996000  1.0
  N  N238  1  0.32561000  0.64006000  0.69385000  1.0
  N  N239  1  0.63124000  0.30571000  0.94581000  1.0
  N  N240  1  0.31386000  0.94567000  0.64004000  1.0
  N  N241  1  0.67439000  0.35994000  0.30615000  1.0
  N  N242  1  0.36875000  0.69429000  0.05418000  1.0
  N  N243  1  0.87734000  0.40667000  0.85884000  1.0
  N  N244  1  0.01854000  0.14121000  0.54780000  1.0
  N  N245  1  0.47360000  0.45326000  0.59481000  1.0
  N  N246  1  0.12266000  0.59333000  0.14116000  1.0
  N  N247  1  0.98146000  0.85879000  0.45220000  1.0
  N  N248  1  0.52640000  0.54674000  0.40519000  1.0
