# generated using pymatgen
data_MnSi4H44(C11N2)2
_symmetry_space_group_name_H-M   'P 1'
_cell_length_a   9.04874000
_cell_length_b   17.79950000
_cell_length_c   20.55540000
_cell_angle_alpha   79.04300000
_cell_angle_beta   89.99990000
_cell_angle_gamma   89.99990000
_symmetry_Int_Tables_number   1
_chemical_formula_structural   MnSi4H44(C11N2)2
_chemical_formula_sum   'Mn4 Si16 H176 C88 N16'
_cell_volume   3250.36138408
_cell_formula_units_Z   4
loop_
 _symmetry_equiv_pos_site_id
 _symmetry_equiv_pos_as_xyz
  1  'x, y, z'
loop_
 _atom_site_type_symbol
 _atom_site_label
 _atom_site_symmetry_multiplicity
 _atom_site_fract_x
 _atom_site_fract_y
 _atom_site_fract_z
 _atom_site_occupancy
  Mn  Mn0  1  0.85576000  0.93499000  0.28120000  1.0
  Mn  Mn1  1  0.35458000  0.56495000  0.71882000  1.0
  Mn  Mn2  1  0.14541000  0.06495000  0.71882000  1.0
  Mn  Mn3  1  0.64425000  0.43499000  0.28120000  1.0
  Si  Si4  1  0.62841000  0.99091000  0.37536000  1.0
  Si  Si5  1  0.12813000  0.50904000  0.62443000  1.0
  Si  Si6  1  0.37188000  0.00904000  0.62442000  1.0
  Si  Si7  1  0.87158000  0.49090000  0.37536000  1.0
  Si  Si8  1  0.81760000  0.85334000  0.43582000  1.0
  Si  Si9  1  0.31739000  0.64662000  0.56402000  1.0
  Si  Si10  1  0.18262000  0.14662000  0.56402000  1.0
  Si  Si11  1  0.68238000  0.35334000  0.43582000  1.0
  Si  Si12  1  0.60532000  0.87446000  0.19505000  1.0
  Si  Si13  1  0.10494000  0.62562000  0.80519000  1.0
  Si  Si14  1  0.39506000  0.12562000  0.80518000  1.0
  Si  Si15  1  0.89466000  0.37446000  0.19505000  1.0
  Si  Si16  1  0.80723000  0.00207000  0.12602000  1.0
  Si  Si17  1  0.30692000  0.49803000  0.87422000  1.0
  Si  Si18  1  0.19308000  0.99803000  0.87421000  1.0
  Si  Si19  1  0.69278000  0.50208000  0.12603000  1.0
  H  H20  1  0.94217000  0.04237000  0.37857000  1.0
  H  H21  1  0.44330000  0.45803000  0.62098000  1.0
  H  H22  1  0.05671000  0.95802000  0.62098000  1.0
  H  H23  1  0.55783000  0.54237000  0.37857000  1.0
  H  H24  1  0.10097000  0.15540000  0.38008000  1.0
  H  H25  1  0.60238000  0.34496000  0.61945000  1.0
  H  H26  1  0.89763000  0.84496000  0.61945000  1.0
  H  H27  1  0.39904000  0.65540000  0.38009000  1.0
  H  H28  1  0.29950000  0.11398000  0.19809000  1.0
  H  H29  1  0.79850000  0.38551000  0.80218000  1.0
  H  H30  1  0.70150000  0.88551000  0.80218000  1.0
  H  H31  1  0.20051000  0.61397000  0.19810000  1.0
  H  H32  1  0.13709000  0.00246000  0.20617000  1.0
  H  H33  1  0.63619000  0.49719000  0.79397000  1.0
  H  H34  1  0.86382000  0.99718000  0.79397000  1.0
  H  H35  1  0.36292000  0.50245000  0.20618000  1.0
  H  H36  1  0.17420000  0.26914000  0.35294000  1.0
  H  H37  1  0.67415000  0.23089000  0.64706000  1.0
  H  H38  1  0.82585000  0.73088000  0.64706000  1.0
  H  H39  1  0.32580000  0.76914000  0.35294000  1.0
  H  H40  1  0.33214000  0.38321000  0.34253000  1.0
  H  H41  1  0.83225000  0.11676000  0.65745000  1.0
  H  H42  1  0.66775000  0.61675000  0.65747000  1.0
  H  H43  1  0.16786000  0.88321000  0.34253000  1.0
  H  H44  1  0.59443000  0.31379000  0.19993000  1.0
  H  H45  1  0.09437000  0.18607000  0.80010000  1.0
  H  H46  1  0.40564000  0.68607000  0.80010000  1.0
  H  H47  1  0.90557000  0.81378000  0.19994000  1.0
  H  H48  1  0.45224000  0.19417000  0.20577000  1.0
  H  H49  1  0.95246000  0.30594000  0.79407000  1.0
  H  H50  1  0.54753000  0.80595000  0.79406000  1.0
  H  H51  1  0.04777000  0.69417000  0.20578000  1.0
  H  H52  1  0.41670000  0.90636000  0.42430000  1.0
  H  H53  1  0.91626000  0.59358000  0.57563000  1.0
  H  H54  1  0.58373000  0.09358000  0.57563000  1.0
  H  H55  1  0.08330000  0.40636000  0.42431000  1.0
  H  H56  1  0.35100000  0.99541000  0.37985000  1.0
  H  H57  1  0.85057000  0.50452000  0.62005000  1.0
  H  H58  1  0.64942000  0.00452000  0.62005000  1.0
  H  H59  1  0.14900000  0.49541000  0.37985000  1.0
  H  H60  1  0.41444000  0.92447000  0.33606000  1.0
  H  H61  1  0.91426000  0.57537000  0.66388000  1.0
  H  H62  1  0.58574000  0.07537000  0.66388000  1.0
  H  H63  1  0.08556000  0.42447000  0.33606000  1.0
  H  H64  1  0.76674000  0.06772000  0.44613000  1.0
  H  H65  1  0.26644000  0.43218000  0.55373000  1.0
  H  H66  1  0.23356000  0.93218000  0.55373000  1.0
  H  H67  1  0.73326000  0.56771000  0.44613000  1.0
  H  H68  1  0.57493000  0.08540000  0.44711000  1.0
  H  H69  1  0.07464000  0.41445000  0.55272000  1.0
  H  H70  1  0.42536000  0.91445000  0.55272000  1.0
  H  H71  1  0.92507000  0.58540000  0.44710000  1.0
  H  H72  1  0.64873000  0.00099000  0.49580000  1.0
  H  H73  1  0.14841000  0.49888000  0.50403000  1.0
  H  H74  1  0.35159000  0.99888000  0.50403000  1.0
  H  H75  1  0.85128000  0.50099000  0.49580000  1.0
  H  H76  1  0.73588000  0.10067000  0.29210000  1.0
  H  H77  1  0.23570000  0.39932000  0.70773000  1.0
  H  H78  1  0.26429000  0.89932000  0.70773000  1.0
  H  H79  1  0.76412000  0.60067000  0.29210000  1.0
  H  H80  1  0.60407000  0.04875000  0.25407000  1.0
  H  H81  1  0.10398000  0.45128000  0.74577000  1.0
  H  H82  1  0.39602000  0.95128000  0.74577000  1.0
  H  H83  1  0.89594000  0.54874000  0.25407000  1.0
  H  H84  1  0.54565000  0.11175000  0.30710000  1.0
  H  H85  1  0.04545000  0.38822000  0.69282000  1.0
  H  H86  1  0.45455000  0.88822000  0.69282000  1.0
  H  H87  1  0.95436000  0.61174000  0.30710000  1.0
  H  H88  1  0.08323000  0.89853000  0.43835000  1.0
  H  H89  1  0.58313000  0.60151000  0.56154000  1.0
  H  H90  1  0.91688000  0.10152000  0.56154000  1.0
  H  H91  1  0.41675000  0.39853000  0.43835000  1.0
  H  H92  1  0.97166000  0.93235000  0.49721000  1.0
  H  H93  1  0.47167000  0.56772000  0.50261000  1.0
  H  H94  1  0.02834000  0.06772000  0.50261000  1.0
  H  H95  1  0.52834000  0.43236000  0.49721000  1.0
  H  H96  1  0.03698000  0.83608000  0.51326000  1.0
  H  H97  1  0.53690000  0.66398000  0.48665000  1.0
  H  H98  1  0.96310000  0.16399000  0.48664000  1.0
  H  H99  1  0.46302000  0.33608000  0.51326000  1.0
  H  H100  1  0.56998000  0.81810000  0.48597000  1.0
  H  H101  1  0.06986000  0.68189000  0.51386000  1.0
  H  H102  1  0.43014000  0.18188000  0.51386000  1.0
  H  H103  1  0.93001000  0.31810000  0.48597000  1.0
  H  H104  1  0.71245000  0.78359000  0.54215000  1.0
  H  H105  1  0.21228000  0.71649000  0.45768000  1.0
  H  H106  1  0.28773000  0.21649000  0.45767000  1.0
  H  H107  1  0.78754000  0.28358000  0.54215000  1.0
  H  H108  1  0.65905000  0.88121000  0.53061000  1.0
  H  H109  1  0.15905000  0.61886000  0.46917000  1.0
  H  H110  1  0.34094000  0.11886000  0.46916000  1.0
  H  H111  1  0.84094000  0.38121000  0.53061000  1.0
  H  H112  1  0.92585000  0.75379000  0.37450000  1.0
  H  H113  1  0.42576000  0.74604000  0.62548000  1.0
  H  H114  1  0.07425000  0.24605000  0.62548000  1.0
  H  H115  1  0.57413000  0.25378000  0.37450000  1.0
  H  H116  1  0.87634000  0.71513000  0.45714000  1.0
  H  H117  1  0.37627000  0.78482000  0.54288000  1.0
  H  H118  1  0.12375000  0.28483000  0.54287000  1.0
  H  H119  1  0.62366000  0.21513000  0.45714000  1.0
  H  H120  1  0.73756000  0.73640000  0.39582000  1.0
  H  H121  1  0.23750000  0.76351000  0.60419000  1.0
  H  H122  1  0.26252000  0.26351000  0.60419000  1.0
  H  H123  1  0.76243000  0.23639000  0.39582000  1.0
  H  H124  1  0.72785000  0.78672000  0.12821000  1.0
  H  H125  1  0.22727000  0.71337000  0.87207000  1.0
  H  H126  1  0.27272000  0.21337000  0.87207000  1.0
  H  H127  1  0.77215000  0.28672000  0.12820000  1.0
  H  H128  1  0.53493000  0.77171000  0.13458000  1.0
  H  H129  1  0.03433000  0.72831000  0.86574000  1.0
  H  H130  1  0.46566000  0.22831000  0.86573000  1.0
  H  H131  1  0.96507000  0.27172000  0.13457000  1.0
  H  H132  1  0.60604000  0.85071000  0.07731000  1.0
  H  H133  1  0.10552000  0.64930000  0.92292000  1.0
  H  H134  1  0.39448000  0.14930000  0.92292000  1.0
  H  H135  1  0.89397000  0.35071000  0.07730000  1.0
  H  H136  1  0.70929000  0.76830000  0.28088000  1.0
  H  H137  1  0.20907000  0.73176000  0.71934000  1.0
  H  H138  1  0.29093000  0.23177000  0.71934000  1.0
  H  H139  1  0.79070000  0.26830000  0.28088000  1.0
  H  H140  1  0.58729000  0.82534000  0.31829000  1.0
  H  H141  1  0.08711000  0.67472000  0.68192000  1.0
  H  H142  1  0.41289000  0.17472000  0.68192000  1.0
  H  H143  1  0.91270000  0.32534000  0.31829000  1.0
  H  H144  1  0.51693000  0.75863000  0.27092000  1.0
  H  H145  1  0.01670000  0.74148000  0.72922000  1.0
  H  H146  1  0.48330000  0.24148000  0.72922000  1.0
  H  H147  1  0.98307000  0.25863000  0.27092000  1.0
  H  H148  1  0.40112000  0.95580000  0.22510000  1.0
  H  H149  1  0.90074000  0.54439000  0.77493000  1.0
  H  H150  1  0.59924000  0.04438000  0.77493000  1.0
  H  H151  1  0.09889000  0.45580000  0.22511000  1.0
  H  H152  1  0.40695000  0.96078000  0.13791000  1.0
  H  H153  1  0.90642000  0.53926000  0.86214000  1.0
  H  H154  1  0.59358000  0.03926000  0.86214000  1.0
  H  H155  1  0.09305000  0.46078000  0.13792000  1.0
  H  H156  1  0.32776000  0.87966000  0.18994000  1.0
  H  H157  1  0.82730000  0.62045000  0.81020000  1.0
  H  H158  1  0.67269000  0.12045000  0.81019000  1.0
  H  H159  1  0.17224000  0.37966000  0.18994000  1.0
  H  H160  1  0.65383000  0.96390000  0.03402000  1.0
  H  H161  1  0.15369000  0.53603000  0.96632000  1.0
  H  H162  1  0.34629000  0.03604000  0.96632000  1.0
  H  H163  1  0.84618000  0.46390000  0.03403000  1.0
  H  H164  1  0.56709000  0.03835000  0.06630000  1.0
  H  H165  1  0.06696000  0.46162000  0.93402000  1.0
  H  H166  1  0.43304000  0.96162000  0.93401000  1.0
  H  H167  1  0.93291000  0.53836000  0.06630000  1.0
  H  H168  1  0.72190000  0.05862000  0.01285000  1.0
  H  H169  1  0.22184000  0.44131000  0.98741000  1.0
  H  H170  1  0.27816000  0.94131000  0.98741000  1.0
  H  H171  1  0.77810000  0.55863000  0.01285000  1.0
  H  H172  1  0.06780000  0.94834000  0.13433000  1.0
  H  H173  1  0.56757000  0.55163000  0.86580000  1.0
  H  H174  1  0.93242000  0.05163000  0.86579000  1.0
  H  H175  1  0.43220000  0.44834000  0.13433000  1.0
  H  H176  1  0.96331000  0.91599000  0.07265000  1.0
  H  H177  1  0.46336000  0.58400000  0.92755000  1.0
  H  H178  1  0.03663000  0.08400000  0.92754000  1.0
  H  H179  1  0.53670000  0.41599000  0.07266000  1.0
  H  H180  1  0.03903000  0.00972000  0.05638000  1.0
  H  H181  1  0.53893000  0.49023000  0.94375000  1.0
  H  H182  1  0.96106000  0.99023000  0.94375000  1.0
  H  H183  1  0.46097000  0.50973000  0.05638000  1.0
  H  H184  1  0.90246000  0.10618000  0.18550000  1.0
  H  H185  1  0.40189000  0.39404000  0.81452000  1.0
  H  H186  1  0.09812000  0.89404000  0.81451000  1.0
  H  H187  1  0.59754000  0.60619000  0.18551000  1.0
  H  H188  1  0.88147000  0.13951000  0.09908000  1.0
  H  H189  1  0.38131000  0.36057000  0.90093000  1.0
  H  H190  1  0.11870000  0.86057000  0.90092000  1.0
  H  H191  1  0.61855000  0.63951000  0.09908000  1.0
  H  H192  1  0.72427000  0.12620000  0.15161000  1.0
  H  H193  1  0.22389000  0.37395000  0.84854000  1.0
  H  H194  1  0.27611000  0.87395000  0.84854000  1.0
  H  H195  1  0.77575000  0.62621000  0.15161000  1.0
  C  C196  1  0.02269000  0.06116000  0.33938000  1.0
  C  C197  1  0.52351000  0.43907000  0.66026000  1.0
  C  C198  1  0.97649000  0.93906000  0.66026000  1.0
  C  C199  1  0.47731000  0.56117000  0.33938000  1.0
  C  C200  1  0.11157000  0.12466000  0.33933000  1.0
  C  C201  1  0.61248000  0.37554000  0.66032000  1.0
  C  C202  1  0.88753000  0.87554000  0.66032000  1.0
  C  C203  1  0.38845000  0.62467000  0.33933000  1.0
  C  C204  1  0.21227000  0.14826000  0.28715000  1.0
  C  C205  1  0.71241000  0.35178000  0.71273000  1.0
  C  C206  1  0.78758000  0.85177000  0.71273000  1.0
  C  C207  1  0.28774000  0.64827000  0.28715000  1.0
  C  C208  1  0.22267000  0.10135000  0.23944000  1.0
  C  C209  1  0.72224000  0.39840000  0.76063000  1.0
  C  C210  1  0.77776000  0.89839000  0.76063000  1.0
  C  C211  1  0.27733000  0.60135000  0.23944000  1.0
  C  C212  1  0.13097000  0.03842000  0.24342000  1.0
  C  C213  1  0.63059000  0.46138000  0.75659000  1.0
  C  C214  1  0.86941000  0.96137000  0.75659000  1.0
  C  C215  1  0.36904000  0.53842000  0.24343000  1.0
  C  C216  1  0.30043000  0.21849000  0.28176000  1.0
  C  C217  1  0.80058000  0.28146000  0.71819000  1.0
  C  C218  1  0.69943000  0.78145000  0.71819000  1.0
  C  C219  1  0.19958000  0.71849000  0.28177000  1.0
  C  C220  1  0.26861000  0.27457000  0.31962000  1.0
  C  C221  1  0.76857000  0.22541000  0.68036000  1.0
  C  C222  1  0.73143000  0.72540000  0.68037000  1.0
  C  C223  1  0.23139000  0.77457000  0.31963000  1.0
  C  C224  1  0.35587000  0.33947000  0.31342000  1.0
  C  C225  1  0.85588000  0.16049000  0.68659000  1.0
  C  C226  1  0.64412000  0.66049000  0.68659000  1.0
  C  C227  1  0.14412000  0.83947000  0.31343000  1.0
  C  C228  1  0.50126000  0.30044000  0.23377000  1.0
  C  C229  1  0.00122000  0.19949000  0.76625000  1.0
  C  C230  1  0.49878000  0.69950000  0.76625000  1.0
  C  C231  1  0.99875000  0.80044000  0.23378000  1.0
  C  C232  1  0.41945000  0.23413000  0.23710000  1.0
  C  C233  1  0.91957000  0.26590000  0.76284000  1.0
  C  C234  1  0.58043000  0.76591000  0.76284000  1.0
  C  C235  1  0.08055000  0.73413000  0.23710000  1.0
  C  C236  1  0.43436000  0.95035000  0.37973000  1.0
  C  C237  1  0.93400000  0.54953000  0.62018000  1.0
  C  C238  1  0.56599000  0.04953000  0.62017000  1.0
  C  C239  1  0.06565000  0.45035000  0.37973000  1.0
  C  C240  1  0.65780000  0.04010000  0.44789000  1.0
  C  C241  1  0.15745000  0.45976000  0.55194000  1.0
  C  C242  1  0.34254000  0.95976000  0.55194000  1.0
  C  C243  1  0.84220000  0.54010000  0.44789000  1.0
  C  C244  1  0.63017000  0.06981000  0.29965000  1.0
  C  C245  1  0.12999000  0.43019000  0.70018000  1.0
  C  C246  1  0.37000000  0.93019000  0.70018000  1.0
  C  C247  1  0.86983000  0.56981000  0.29966000  1.0
  C  C248  1  0.99382000  0.88222000  0.47447000  1.0
  C  C249  1  0.49373000  0.61782000  0.52541000  1.0
  C  C250  1  0.00627000  0.11782000  0.52541000  1.0
  C  C251  1  0.50617000  0.38222000  0.47447000  1.0
  C  C252  1  0.67714000  0.83324000  0.50499000  1.0
  C  C253  1  0.17706000  0.66681000  0.49481000  1.0
  C  C254  1  0.32294000  0.16681000  0.49481000  1.0
  C  C255  1  0.82284000  0.33323000  0.50499000  1.0
  C  C256  1  0.84295000  0.75645000  0.41286000  1.0
  C  C257  1  0.34285000  0.74344000  0.58711000  1.0
  C  C258  1  0.15716000  0.24345000  0.58711000  1.0
  C  C259  1  0.65704000  0.25644000  0.41286000  1.0
  C  C260  1  0.62089000  0.81631000  0.12714000  1.0
  C  C261  1  0.12037000  0.68375000  0.87310000  1.0
  C  C262  1  0.37963000  0.18375000  0.87310000  1.0
  C  C263  1  0.87911000  0.31631000  0.12714000  1.0
  C  C264  1  0.60487000  0.80039000  0.27398000  1.0
  C  C265  1  0.10462000  0.69968000  0.72624000  1.0
  C  C266  1  0.39538000  0.19968000  0.72624000  1.0
  C  C267  1  0.89512000  0.30039000  0.27398000  1.0
  C  C268  1  0.41748000  0.92202000  0.18614000  1.0
  C  C269  1  0.91703000  0.57810000  0.81395000  1.0
  C  C270  1  0.58296000  0.07810000  0.81395000  1.0
  C  C271  1  0.08252000  0.42201000  0.18615000  1.0
  C  C272  1  0.67455000  0.01619000  0.05351000  1.0
  C  C273  1  0.17443000  0.48377000  0.94679000  1.0
  C  C274  1  0.32556000  0.98377000  0.94679000  1.0
  C  C275  1  0.82546000  0.51619000  0.05351000  1.0
  C  C276  1  0.98636000  0.96651000  0.09477000  1.0
  C  C277  1  0.48623000  0.53348000  0.90540000  1.0
  C  C278  1  0.01376000  0.03348000  0.90540000  1.0
  C  C279  1  0.51364000  0.46651000  0.09477000  1.0
  C  C280  1  0.83284000  0.10220000  0.14265000  1.0
  C  C281  1  0.33249000  0.39796000  0.85745000  1.0
  C  C282  1  0.16752000  0.89796000  0.85745000  1.0
  C  C283  1  0.66718000  0.60220000  0.14265000  1.0
  N  N284  1  0.76164000  0.92289000  0.37021000  1.0
  N  N285  1  0.26124000  0.57706000  0.62953000  1.0
  N  N286  1  0.23876000  0.07706000  0.62953000  1.0
  N  N287  1  0.73836000  0.42288000  0.37021000  1.0
  N  N288  1  0.74664000  0.93946000  0.19579000  1.0
  N  N289  1  0.24623000  0.56065000  0.80453000  1.0
  N  N290  1  0.25377000  0.06065000  0.80453000  1.0
  N  N291  1  0.75336000  0.43946000  0.19579000  1.0
  N  N292  1  0.02821000  0.01897000  0.29130000  1.0
  N  N293  1  0.52853000  0.48099000  0.70850000  1.0
  N  N294  1  0.97147000  0.98098000  0.70850000  1.0
  N  N295  1  0.47180000  0.51897000  0.29130000  1.0
  N  N296  1  0.47305000  0.35250000  0.27215000  1.0
  N  N297  1  0.97288000  0.14749000  0.72788000  1.0
  N  N298  1  0.52712000  0.64748000  0.72789000  1.0
  N  N299  1  0.02696000  0.85250000  0.27215000  1.0
