# generated using pymatgen
data_Nd2NiH22C26(N3O10)2
_symmetry_space_group_name_H-M   'P 1'
_cell_length_a   7.01786000
_cell_length_b   9.02580000
_cell_length_c   14.02880000
_cell_angle_alpha   85.22360000
_cell_angle_beta   84.20230000
_cell_angle_gamma   75.54670000
_symmetry_Int_Tables_number   1
_chemical_formula_structural   Nd2NiH22C26(N3O10)2
_chemical_formula_sum   'Nd2 Ni1 H22 C26 N6 O20'
_cell_volume   854.52885265
_cell_formula_units_Z   1
loop_
 _symmetry_equiv_pos_site_id
 _symmetry_equiv_pos_as_xyz
  1  'x, y, z'
loop_
 _atom_site_type_symbol
 _atom_site_label
 _atom_site_symmetry_multiplicity
 _atom_site_fract_x
 _atom_site_fract_y
 _atom_site_fract_z
 _atom_site_occupancy
  Nd  Nd0  1  0.50509000  0.28038000  0.09513000  1.0
  Nd  Nd1  1  0.49491000  0.71961000  0.90488000  1.0
  Ni  Ni2  1  0.50001000  0.50000000  0.50000000  1.0
  H  H3  1  0.25935000  0.09469000  0.99013000  1.0
  H  H4  1  0.74065000  0.90531000  0.00987000  1.0
  H  H5  1  0.30446000  0.02106000  0.08908000  1.0
  H  H6  1  0.69555000  0.97894000  0.91092000  1.0
  H  H7  1  0.87003000  0.38541000  0.99904000  1.0
  H  H8  1  0.12996000  0.61459000  0.00096000  1.0
  H  H9  1  0.97336000  0.23636000  0.06211000  1.0
  H  H10  1  0.02663000  0.76364000  0.93789000  1.0
  H  H11  1  0.67387000  0.71668000  0.51981000  1.0
  H  H12  1  0.32613000  0.28332000  0.48019000  1.0
  H  H13  1  0.83722000  0.54767000  0.51829000  1.0
  H  H14  1  0.16278000  0.45233000  0.48171000  1.0
  H  H15  1  0.23705000  0.90495000  0.23982000  1.0
  H  H16  1  0.76295000  0.09504000  0.76018000  1.0
  H  H17  1  0.98996000  0.43177000  0.36358000  1.0
  H  H18  1  0.01004000  0.56823000  0.63642000  1.0
  H  H19  1  0.61588000  0.89197000  0.37811000  1.0
  H  H20  1  0.38412000  0.10804000  0.62189000  1.0
  H  H21  1  0.92984000  0.73712000  0.11158000  1.0
  H  H22  1  0.07016000  0.26289000  0.88842000  1.0
  H  H23  1  0.18887000  0.84637000  0.42206000  1.0
  H  H24  1  0.81112000  0.15363000  0.57794000  1.0
  C  C25  1  0.12663000  0.45367000  0.17964000  1.0
  C  C26  1  0.87337000  0.54633000  0.82036000  1.0
  C  C27  1  0.97724000  0.57375000  0.23307000  1.0
  C  C28  1  0.02276000  0.42626000  0.76693000  1.0
  C  C29  1  0.92983000  0.54578000  0.33102000  1.0
  C  C30  1  0.07018000  0.45423000  0.66898000  1.0
  C  C31  1  0.79996000  0.65924000  0.38420000  1.0
  C  C32  1  0.20004000  0.34076000  0.61580000  1.0
  C  C33  1  0.71902000  0.80188000  0.33880000  1.0
  C  C34  1  0.28098000  0.19812000  0.66120000  1.0
  C  C35  1  0.76215000  0.82827000  0.24023000  1.0
  C  C36  1  0.23785000  0.17174000  0.75977000  1.0
  C  C37  1  0.89237000  0.71477000  0.18757000  1.0
  C  C38  1  0.10763000  0.28524000  0.81243000  1.0
  C  C39  1  0.65945000  0.97479000  0.18977000  1.0
  C  C40  1  0.34054000  0.02522000  0.81023000  1.0
  C  C41  1  0.44672000  0.68524000  0.12469000  1.0
  C  C42  1  0.55328000  0.31476000  0.87531000  1.0
  C  C43  1  0.39806000  0.67380000  0.22939000  1.0
  C  C44  1  0.60196000  0.32620000  0.77061000  1.0
  C  C45  1  0.45086000  0.56185000  0.30291000  1.0
  C  C46  1  0.54916000  0.43815000  0.69709000  1.0
  C  C47  1  0.27018000  0.76712000  0.36975000  1.0
  C  C48  1  0.72982000  0.23288000  0.63024000  1.0
  C  C49  1  0.58277000  0.40355000  0.30884000  1.0
  C  C50  1  0.41723000  0.59645000  0.69116000  1.0
  N  N51  1  0.73507000  0.62376000  0.48044000  1.0
  N  N52  1  0.26493000  0.37624000  0.51956000  1.0
  N  N53  1  0.28451000  0.80032000  0.27424000  1.0
  N  N54  1  0.71550000  0.19967000  0.72576000  1.0
  N  N55  1  0.37012000  0.62347000  0.38900000  1.0
  N  N56  1  0.62989000  0.37653000  0.61100000  1.0
  O  O57  1  0.23217000  0.34406000  0.22819000  1.0
  O  O58  1  0.76782000  0.65594000  0.77181000  1.0
  O  O59  1  0.15548000  0.46704000  0.08797000  1.0
  O  O60  1  0.84451000  0.53296000  0.91203000  1.0
  O  O61  1  0.50279000  0.05702000  0.22897000  1.0
  O  O62  1  0.49719000  0.94299000  0.77104000  1.0
  O  O63  1  0.73251000  0.01296000  0.10604000  1.0
  O  O64  1  0.26747000  0.98705000  0.89397000  1.0
  O  O65  1  0.52011000  0.56531000  0.07900000  1.0
  O  O66  1  0.47989000  0.43469000  0.92100000  1.0
  O  O67  1  0.41204000  0.81837000  0.08259000  1.0
  O  O68  1  0.58796000  0.18164000  0.91741000  1.0
  O  O69  1  0.64900000  0.33245000  0.23456000  1.0
  O  O70  1  0.35101000  0.66754000  0.76544000  1.0
  O  O71  1  0.62334000  0.35111000  0.39444000  1.0
  O  O72  1  0.37666000  0.64888000  0.60556000  1.0
  O  O73  1  0.26158000  0.12438000  0.05711000  1.0
  O  O74  1  0.73841000  0.87561000  0.94290000  1.0
  O  O75  1  0.84730000  0.29369000  0.03845000  1.0
  O  O76  1  0.15270000  0.70631000  0.96155000  1.0
