# generated using pymatgen
data_ZnH11C15NO4
_symmetry_space_group_name_H-M   'P 1'
_cell_length_a   9.00720000
_cell_length_b   13.97630000
_cell_length_c   15.35500000
_cell_angle_alpha   90.43370000
_cell_angle_beta   90.85880000
_cell_angle_gamma   100.42990000
_symmetry_Int_Tables_number   1
_chemical_formula_structural   ZnH11C15NO4
_chemical_formula_sum   'Zn2 H22 C30 N2 O8'
_cell_volume   1900.74376638
_cell_formula_units_Z   2
loop_
 _symmetry_equiv_pos_site_id
 _symmetry_equiv_pos_as_xyz
  1  'x, y, z'
loop_
 _atom_site_type_symbol
 _atom_site_label
 _atom_site_symmetry_multiplicity
 _atom_site_fract_x
 _atom_site_fract_y
 _atom_site_fract_z
 _atom_site_occupancy
  Zn  Zn0  1  0.48538000  0.39937000  0.50106000  1.0
  Zn  Zn1  1  0.51003000  0.60107000  0.49870000  1.0
  H  H2  1  0.02414000  0.61652000  0.50452000  1.0
  H  H3  1  0.38903000  0.05302000  0.37356000  1.0
  H  H4  1  0.71918000  0.78125000  0.56174000  1.0
  H  H5  1  0.38313000  0.23165000  0.37997000  1.0
  H  H6  1  0.30274000  0.72690000  0.43708000  1.0
  H  H7  1  0.59412000  0.26239000  0.62176000  1.0
  H  H8  1  0.28735000  0.90425000  0.43453000  1.0
  H  H9  1  0.61027000  0.08506000  0.62686000  1.0
  H  H10  1  0.72479000  0.66400000  0.72469000  1.0
  H  H11  1  0.56457000  0.71674000  0.74145000  1.0
  H  H12  1  0.70851000  0.72788000  0.82424000  1.0
  H  H13  1  0.97232000  0.39243000  0.49552000  1.0
  H  H14  1  0.57957000  0.29458000  0.25592000  1.0
  H  H15  1  0.72782000  0.32654000  0.18004000  1.0
  H  H16  1  0.72988000  0.38998000  0.28137000  1.0
  H  H17  1  0.38568000  0.34887000  0.93659000  1.0
  H  H18  1  0.37672000  0.61682000  0.06264000  1.0
  H  H19  1  0.39374000  0.35281000  0.77397000  1.0
  H  H20  1  0.38459000  0.61275000  0.22526000  1.0
  H  H21  1  0.61206000  0.64726000  0.94530000  1.0
  H  H22  1  0.62320000  0.38067000  0.05568000  1.0
  H  H23  1  0.72314000  0.96122000  0.56595000  1.0
  C  C24  1  0.50165000  0.49789000  0.67088000  1.0
  C  C25  1  0.56001000  0.11421000  0.57025000  1.0
  C  C26  1  0.50489000  0.94839000  0.50005000  1.0
  C  C27  1  0.50020000  0.05349000  0.50027000  1.0
  C  C28  1  0.79397000  0.53016000  0.50227000  1.0
  C  C29  1  0.20250000  0.47998000  0.49701000  1.0
  C  C30  1  0.96136000  0.54209000  0.50154000  1.0
  C  C31  1  0.03481000  0.46694000  0.49746000  1.0
  C  C32  1  0.43725000  0.41487000  0.90313000  1.0
  C  C33  1  0.43211000  0.56420000  0.09645000  1.0
  C  C34  1  0.44117000  0.41710000  0.81270000  1.0
  C  C35  1  0.49969000  0.49354000  0.32901000  1.0
  C  C36  1  0.43560000  0.56156000  0.18700000  1.0
  C  C37  1  0.50458000  0.50181000  0.76841000  1.0
  C  C38  1  0.50336000  0.49300000  0.23147000  1.0
  C  C39  1  0.56741000  0.58669000  0.81632000  1.0
  C  C40  1  0.57268000  0.42648000  0.18422000  1.0
  C  C41  1  0.56108000  0.58291000  0.90733000  1.0
  C  C42  1  0.56722000  0.43017000  0.09319000  1.0
  C  C43  1  0.49735000  0.49862000  0.95185000  1.0
  C  C44  1  0.49765000  0.49753000  0.04820000  1.0
  C  C45  1  0.64579000  0.67899000  0.77464000  1.0
  C  C46  1  0.62681000  0.91224000  0.53706000  1.0
  C  C47  1  0.65719000  0.35566000  0.22752000  1.0
  C  C48  1  0.43456000  0.09606000  0.43052000  1.0
  C  C49  1  0.62616000  0.81266000  0.53491000  1.0
  C  C50  1  0.43085000  0.19500000  0.43318000  1.0
  C  C51  1  0.39332000  0.78231000  0.46372000  1.0
  C  C52  1  0.55130000  0.21247000  0.56843000  1.0
  C  C53  1  0.38638000  0.88079000  0.46272000  1.0
  N  N54  1  0.51138000  0.74891000  0.49904000  1.0
  N  N55  1  0.48765000  0.25203000  0.50107000  1.0
  O  O56  1  0.50181000  0.41529000  0.63478000  1.0
  O  O57  1  0.51819000  0.57648000  0.36670000  1.0
  O  O58  1  0.49689000  0.57663000  0.63060000  1.0
  O  O59  1  0.47657000  0.41146000  0.36698000  1.0
  O  O60  1  0.71710000  0.44453000  0.49536000  1.0
  O  O61  1  0.27723000  0.56596000  0.48906000  1.0
  O  O62  1  0.74083000  0.60876000  0.50927000  1.0
  O  O63  1  0.25788000  0.40256000  0.50497000  1.0
