# generated using pymatgen
data_GeH26C30(N2O3)2
_symmetry_space_group_name_H-M   'P 1'
_cell_length_a   8.69865000
_cell_length_b   11.90740000
_cell_length_c   15.35900000
_cell_angle_alpha   92.94140000
_cell_angle_beta   91.73140000
_cell_angle_gamma   102.49600000
_symmetry_Int_Tables_number   1
_chemical_formula_structural   GeH26C30(N2O3)2
_chemical_formula_sum   'Ge2 H52 C60 N8 O12'
_cell_volume   1549.73397840
_cell_formula_units_Z   2
loop_
 _symmetry_equiv_pos_site_id
 _symmetry_equiv_pos_as_xyz
  1  'x, y, z'
loop_
 _atom_site_type_symbol
 _atom_site_label
 _atom_site_symmetry_multiplicity
 _atom_site_fract_x
 _atom_site_fract_y
 _atom_site_fract_z
 _atom_site_occupancy
  Ge  Ge0  1  0.27138000  0.79258000  0.22922000  1.0
  Ge  Ge1  1  0.72862000  0.20742000  0.77078000  1.0
  H  H2  1  0.40205000  0.72162000  0.92782000  1.0
  H  H3  1  0.59793000  0.27838000  0.07218000  1.0
  H  H4  1  0.18153000  0.15973000  0.35940000  1.0
  H  H5  1  0.81849000  0.84027000  0.64060000  1.0
  H  H6  1  0.90390000  0.54688000  0.05079000  1.0
  H  H7  1  0.09610000  0.45312000  0.94920000  1.0
  H  H8  1  0.87650000  0.34001000  0.07191000  1.0
  H  H9  1  0.12350000  0.65999000  0.92809000  1.0
  H  H10  1  0.00936000  0.27575000  0.20119000  1.0
  H  H11  1  0.99064000  0.72425000  0.79881000  1.0
  H  H12  1  0.16949000  0.41887000  0.30743000  1.0
  H  H13  1  0.83050000  0.58113000  0.69257000  1.0
  H  H14  1  0.05218000  0.52952000  0.41213000  1.0
  H  H15  1  0.94781000  0.47048000  0.58787000  1.0
  H  H16  1  0.16658000  0.60608000  0.50397000  1.0
  H  H17  1  0.83342000  0.39392000  0.49603000  1.0
  H  H18  1  0.23358000  0.49600000  0.44438000  1.0
  H  H19  1  0.76642000  0.50400000  0.55562000  1.0
  H  H20  1  0.39315000  0.74218000  0.49129000  1.0
  H  H21  1  0.60685000  0.25781000  0.50871000  1.0
  H  H22  1  0.63271000  0.00049000  0.42479000  1.0
  H  H23  1  0.36728000  0.99951000  0.57521000  1.0
  H  H24  1  0.71542000  0.87888000  0.43748000  1.0
  H  H25  1  0.28457000  0.12113000  0.56252000  1.0
  H  H26  1  0.57307000  0.90533000  0.51019000  1.0
  H  H27  1  0.42693000  0.09467000  0.48981000  1.0
  H  H28  1  0.78670000  0.93780000  0.31719000  1.0
  H  H29  1  0.21330000  0.06220000  0.68281000  1.0
  H  H30  1  0.94571000  0.06724000  0.21906000  1.0
  H  H31  1  0.05428000  0.93276000  0.78094000  1.0
  H  H32  1  0.81656000  0.13187000  0.08730000  1.0
  H  H33  1  0.18343000  0.86812000  0.91271000  1.0
  H  H34  1  0.53285000  0.06783000  0.05830000  1.0
  H  H35  1  0.46715000  0.93217000  0.94170000  1.0
  H  H36  1  0.33886000  0.14758000  0.13540000  1.0
  H  H37  1  0.66114000  0.85242000  0.86460000  1.0
  H  H38  1  0.14510000  0.12039000  0.08547000  1.0
  H  H39  1  0.85490000  0.87961000  0.91452000  1.0
  H  H40  1  0.30414000  0.09241000  0.02525000  1.0
  H  H41  1  0.69586000  0.90759000  0.97475000  1.0
  H  H42  1  0.98267000  0.94882000  0.07408000  1.0
  H  H43  1  0.01733000  0.05118000  0.92591000  1.0
  H  H44  1  0.77235000  0.67242000  0.13393000  1.0
  H  H45  1  0.22766000  0.32758000  0.86606000  1.0
  H  H46  1  0.81199000  0.70596000  0.02468000  1.0
  H  H47  1  0.18801000  0.29404000  0.97532000  1.0
  H  H48  1  0.76390000  0.81123000  0.09855000  1.0
  H  H49  1  0.23610000  0.18877000  0.90145000  1.0
  H  H50  1  0.44815000  0.51548000  0.15813000  1.0
  H  H51  1  0.55185000  0.48452000  0.84187000  1.0
  H  H52  1  0.02717000  0.80455000  0.44702000  1.0
  H  H53  1  0.97284000  0.19544000  0.55298000  1.0
  C  C54  1  0.04333000  0.60271000  0.17031000  1.0
  C  C55  1  0.95667000  0.39729000  0.82968000  1.0
  C  C56  1  0.95743000  0.52013000  0.10888000  1.0
  C  C57  1  0.04257000  0.47987000  0.89112000  1.0
  C  C58  1  0.94409000  0.40295000  0.12041000  1.0
  C  C59  1  0.05592000  0.59705000  0.87959000  1.0
  C  C60  1  0.01840000  0.36714000  0.19249000  1.0
  C  C61  1  0.98160000  0.63286000  0.80751000  1.0
  C  C62  1  0.10693000  0.44800000  0.25363000  1.0
  C  C63  1  0.89307000  0.55200000  0.74637000  1.0
  C  C64  1  0.11884000  0.56590000  0.24418000  1.0
  C  C65  1  0.88116000  0.43410000  0.75582000  1.0
  C  C66  1  0.25682000  0.65765000  0.38112000  1.0
  C  C67  1  0.74318000  0.34235000  0.61888000  1.0
  C  C68  1  0.17209000  0.56700000  0.43818000  1.0
  C  C69  1  0.82791000  0.43299000  0.56182000  1.0
  C  C70  1  0.37485000  0.74640000  0.42121000  1.0
  C  C71  1  0.62515000  0.25360000  0.57879000  1.0
  C  C72  1  0.47779000  0.83708000  0.38357000  1.0
  C  C73  1  0.52221000  0.16292000  0.61643000  1.0
  C  C74  1  0.60591000  0.91024000  0.44197000  1.0
  C  C75  1  0.39409000  0.08977000  0.55803000  1.0
  C  C76  1  0.56402000  0.93717000  0.25015000  1.0
  C  C77  1  0.43598000  0.06283000  0.74985000  1.0
  C  C78  1  0.72805000  0.97036000  0.26365000  1.0
  C  C79  1  0.27195000  0.02964000  0.73635000  1.0
  C  C80  1  0.81847000  0.04258000  0.20691000  1.0
  C  C81  1  0.18153000  0.95742000  0.79309000  1.0
  C  C82  1  0.74712000  0.07830000  0.13379000  1.0
  C  C83  1  0.25288000  0.92170000  0.86621000  1.0
  C  C84  1  0.58476000  0.04286000  0.11743000  1.0
  C  C85  1  0.41524000  0.95714000  0.88258000  1.0
  C  C86  1  0.49062000  0.97443000  0.17551000  1.0
  C  C87  1  0.50938000  0.02556000  0.82449000  1.0
  C  C88  1  0.21889000  0.96831000  0.11966000  1.0
  C  C89  1  0.78111000  0.03169000  0.88034000  1.0
  C  C90  1  0.25450000  0.08910000  0.09033000  1.0
  C  C91  1  0.74550000  0.91090000  0.90967000  1.0
  C  C92  1  0.06429000  0.90270000  0.10330000  1.0
  C  C93  1  0.93571000  0.09730000  0.89670000  1.0
  C  C94  1  0.99790000  0.78762000  0.11944000  1.0
  C  C95  1  0.00210000  0.21238000  0.88055000  1.0
  C  C96  1  0.82742000  0.74120000  0.09281000  1.0
  C  C97  1  0.17259000  0.25880000  0.90719000  1.0
  C  C98  1  0.39144000  0.69490000  0.07236000  1.0
  C  C99  1  0.60856000  0.30510000  0.92764000  1.0
  C  C100  1  0.44599000  0.59408000  0.03505000  1.0
  C  C101  1  0.55400000  0.40592000  0.96495000  1.0
  C  C102  1  0.47095000  0.50795000  0.08901000  1.0
  C  C103  1  0.52905000  0.49205000  0.91098000  1.0
  C  C104  1  0.47446000  0.58640000  0.94451000  1.0
  C  C105  1  0.52553000  0.41360000  0.05549000  1.0
  C  C106  1  0.15763000  0.96979000  0.34075000  1.0
  C  C107  1  0.84237000  0.03021000  0.65925000  1.0
  C  C108  1  0.07456000  0.98473000  0.42220000  1.0
  C  C109  1  0.92545000  0.01527000  0.57781000  1.0
  C  C110  1  0.01513000  0.88981000  0.47089000  1.0
  C  C111  1  0.98487000  0.11018000  0.52911000  1.0
  C  C112  1  0.06050000  0.09716000  0.45159000  1.0
  C  C113  1  0.93951000  0.90284000  0.54842000  1.0
  N  N114  1  0.08030000  0.72198000  0.16119000  1.0
  N  N115  1  0.91971000  0.27802000  0.83881000  1.0
  N  N116  1  0.46248000  0.85920000  0.29923000  1.0
  N  N117  1  0.53752000  0.14080000  0.70077000  1.0
  N  N118  1  0.21606000  0.65520000  0.29610000  1.0
  N  N119  1  0.78394000  0.34480000  0.70390000  1.0
  N  N120  1  0.32932000  0.92736000  0.16243000  1.0
  N  N121  1  0.67068000  0.07264000  0.83757000  1.0
  O  O122  1  0.39549000  0.70553000  0.15739000  1.0
  O  O123  1  0.60451000  0.29447000  0.84261000  1.0
  O  O124  1  0.34665000  0.76353000  0.02250000  1.0
  O  O125  1  0.65335000  0.23647000  0.97750000  1.0
  O  O126  1  0.45089000  0.66789000  0.89023000  1.0
  O  O127  1  0.54909000  0.33210000  0.10977000  1.0
  O  O128  1  0.12197000  0.19133000  0.40758000  1.0
  O  O129  1  0.87804000  0.80866000  0.59242000  1.0
  O  O130  1  0.14234000  0.86365000  0.31048000  1.0
  O  O131  1  0.85766000  0.13635000  0.68952000  1.0
  O  O132  1  0.23461000  0.05746000  0.30651000  1.0
  O  O133  1  0.76540000  0.94254000  0.69349000  1.0
