# generated using pymatgen
data_ZnH9C15NO8F
_symmetry_space_group_name_H-M   'P 1'
_cell_length_a   11.18090000
_cell_length_b   14.07440000
_cell_length_c   15.28580000
_cell_angle_alpha   89.99920000
_cell_angle_beta   93.85360000
_cell_angle_gamma   89.99530000
_symmetry_Int_Tables_number   1
_chemical_formula_structural   ZnH9C15NO8F
_chemical_formula_sum   'Zn2 H18 C30 N2 O16 F2'
_cell_volume   2400.00301330
_cell_formula_units_Z   2
loop_
 _symmetry_equiv_pos_site_id
 _symmetry_equiv_pos_as_xyz
  1  'x, y, z'
loop_
 _atom_site_type_symbol
 _atom_site_label
 _atom_site_symmetry_multiplicity
 _atom_site_fract_x
 _atom_site_fract_y
 _atom_site_fract_z
 _atom_site_occupancy
  Zn  Zn0  1  0.50000000  0.59792000  0.50001000  1.0
  Zn  Zn1  1  0.50001000  0.39979000  0.50000000  1.0
  H  H2  1  0.88877000  0.36830000  0.48456000  1.0
  H  H3  1  0.11129000  0.36831000  0.51546000  1.0
  H  H4  1  0.32760000  0.56606000  0.93657000  1.0
  H  H5  1  0.33333333  0.41801000  0.05464000  1.0
  H  H6  1  0.66666667  0.41795000  0.94535000  1.0
  H  H7  1  0.67248000  0.56598000  0.06345000  1.0
  H  H8  1  0.53257000  0.07089000  0.64111000  1.0
  H  H9  1  0.46738000  0.07090000  0.35889000  1.0
  H  H10  1  0.53127000  0.24883000  0.63497000  1.0
  H  H11  1  0.46873000  0.24884000  0.36503000  1.0
  H  H12  1  0.83075000  0.62937000  0.55916000  1.0
  H  H13  1  0.16923000  0.62937000  0.44083000  1.0
  H  H14  1  0.24414000  0.59565000  0.80166000  1.0
  H  H15  1  0.35219000  0.39893000  0.28544000  1.0
  H  H16  1  0.64781000  0.39887000  0.71456000  1.0
  H  H17  1  0.75592000  0.59556000  0.19837000  1.0
  H  H18  1  0.69095000  0.89785000  0.36086000  1.0
  H  H19  1  0.30900000  0.89785000  0.63915000  1.0
  C  C20  1  0.49578000  0.49910000  0.66989000  1.0
  C  C21  1  0.50422000  0.49911000  0.33012000  1.0
  C  C22  1  0.49849000  0.49380000  0.95146000  1.0
  C  C23  1  0.50155000  0.49378000  0.04855000  1.0
  C  C24  1  0.51787000  0.10727000  0.57846000  1.0
  C  C25  1  0.48208000  0.10728000  0.42154000  1.0
  C  C26  1  0.51756000  0.20594000  0.57572000  1.0
  C  C27  1  0.48243000  0.20594000  0.42427000  1.0
  C  C28  1  0.49997000  0.05616000  0.49999000  1.0
  C  C29  1  0.57320000  0.89926000  0.44578000  1.0
  C  C30  1  0.42673000  0.89926000  0.55422000  1.0
  C  C31  1  0.57054000  0.80013000  0.45019000  1.0
  C  C32  1  0.42941000  0.80013000  0.54980000  1.0
  C  C33  1  0.49995000  0.95114000  0.50000000  1.0
  C  C34  1  0.26946000  0.50205000  0.48867000  1.0
  C  C35  1  0.73056000  0.50203000  0.51135000  1.0
  C  C36  1  0.93593000  0.43479000  0.49939000  1.0
  C  C37  1  0.06411000  0.43480000  0.50062000  1.0
  C  C38  1  0.86370000  0.50863000  0.51935000  1.0
  C  C39  1  0.13631000  0.50864000  0.48066000  1.0
  C  C40  1  0.40085000  0.53450000  0.90269000  1.0
  C  C41  1  0.40809000  0.45247000  0.09142000  1.0
  C  C42  1  0.39916000  0.53771000  0.81128000  1.0
  C  C43  1  0.41354000  0.44967000  0.18306000  1.0
  C  C44  1  0.49232000  0.49593000  0.76665000  1.0
  C  C45  1  0.50770000  0.49594000  0.23336000  1.0
  C  C46  1  0.58647000  0.44962000  0.81694000  1.0
  C  C47  1  0.60088000  0.53767000  0.18873000  1.0
  C  C48  1  0.59194000  0.45243000  0.90859000  1.0
  C  C49  1  0.59921000  0.53447000  0.09733000  1.0
  N  N50  1  0.50001000  0.25436000  0.50000000  1.0
  N  N51  1  0.49999000  0.75096000  0.50000000  1.0
  O  O52  1  0.46251000  0.57326000  0.62856000  1.0
  O  O53  1  0.53747000  0.57328000  0.37145000  1.0
  O  O54  1  0.53858000  0.42427000  0.63351000  1.0
  O  O55  1  0.46142000  0.42429000  0.36651000  1.0
  O  O56  1  0.32219000  0.57900000  0.46619000  1.0
  O  O57  1  0.67781000  0.57899000  0.53383000  1.0
  O  O58  1  0.32152000  0.42627000  0.51556000  1.0
  O  O59  1  0.67850000  0.42626000  0.48447000  1.0
  O  O60  1  0.90511000  0.59338000  0.55112000  1.0
  O  O61  1  0.09489000  0.59338000  0.44887000  1.0
  O  O62  1  0.30605000  0.57903000  0.76244000  1.0
  O  O63  1  0.32550000  0.40256000  0.22198000  1.0
  O  O64  1  0.67450000  0.40249000  0.77803000  1.0
  O  O65  1  0.69401000  0.57894000  0.23758000  1.0
  O  O66  1  0.64633000  0.94523000  0.39223000  1.0
  O  O67  1  0.35358000  0.94523000  0.60777000  1.0
  F  F68  1  0.64518000  0.75184000  0.40066000  1.0
  F  F69  1  0.35482000  0.75183000  0.59936000  1.0
