# generated using pymatgen
data_AgH6C14N7O3
_symmetry_space_group_name_H-M   'P 1'
_cell_length_a   5.24958000
_cell_length_b   5.67502000
_cell_length_c   13.26840000
_cell_angle_alpha   99.63000000
_cell_angle_beta   98.09530000
_cell_angle_gamma   98.72550000
_symmetry_Int_Tables_number   1
_chemical_formula_structural   AgH6C14N7O3
_chemical_formula_sum   'Ag1 H6 C14 N7 O3'
_cell_volume   379.56125976
_cell_formula_units_Z   1
loop_
 _symmetry_equiv_pos_site_id
 _symmetry_equiv_pos_as_xyz
  1  'x, y, z'
loop_
 _atom_site_type_symbol
 _atom_site_label
 _atom_site_symmetry_multiplicity
 _atom_site_fract_x
 _atom_site_fract_y
 _atom_site_fract_z
 _atom_site_occupancy
  Ag  Ag0  1  0.53980000  0.39168000  0.00815000  1.0
  H  H1  1  0.67331000  0.82648000  0.20050000  1.0
  H  H2  1  0.43562000  0.59155000  0.79930000  1.0
  H  H3  1  0.98534000  0.96690000  0.36691000  1.0
  H  H4  1  0.60102000  0.58029000  0.63213000  1.0
  H  H5  1  0.00310000  0.21433000  0.12220000  1.0
  H  H6  1  0.84904000  0.06198000  0.88009000  1.0
  C  C7  1  0.82091000  0.72012000  0.22236000  1.0
  C  C8  1  0.56838000  0.46858000  0.77823000  1.0
  C  C9  1  0.99697000  0.80004000  0.31494000  1.0
  C  C10  1  0.66073000  0.46281000  0.68468000  1.0
  C  C11  1  0.18991000  0.66366000  0.33877000  1.0
  C  C12  1  0.83474000  0.30646000  0.66097000  1.0
  C  C13  1  0.19375000  0.44789000  0.26837000  1.0
  C  C14  1  0.90275000  0.15636000  0.73180000  1.0
  C  C15  1  0.00481000  0.37966000  0.17791000  1.0
  C  C16  1  0.79679000  0.17331000  0.82350000  1.0
  C  C17  1  0.38345000  0.74111000  0.42985000  1.0
  C  C18  1  0.94822000  0.30146000  0.56944000  1.0
  C  C19  1  0.38367000  0.29939000  0.28687000  1.0
  C  C20  1  0.07648000  0.99088000  0.71318000  1.0
  N  N21  1  0.82309000  0.51394000  0.15551000  1.0
  N  N22  1  0.63524000  0.32816000  0.84631000  1.0
  N  N23  1  0.54824000  0.80306000  0.50249000  1.0
  N  N24  1  0.04898000  0.29835000  0.49643000  1.0
  N  N25  1  0.53734000  0.17398000  0.29978000  1.0
  N  N26  1  0.21864000  0.85330000  0.70066000  1.0
  N  N27  1  0.31028000  0.85805000  0.99731000  1.0
  O  O28  1  0.18665000  0.03478000  0.99401000  1.0
  O  O29  1  0.55785000  0.89945000  0.01808000  1.0
  O  O30  1  0.18340000  0.64240000  0.97928000  1.0
