# generated using pymatgen
data_Zn4H48C54O25
_symmetry_space_group_name_H-M   'P 1'
_cell_length_a   17.19510000
_cell_length_b   17.19510000
_cell_length_c   17.19510000
_cell_angle_alpha   92.68110000
_cell_angle_beta   92.68120000
_cell_angle_gamma   92.68120000
_symmetry_Int_Tables_number   1
_chemical_formula_structural   Zn4H48C54O25
_chemical_formula_sum   'Zn8 H96 C108 O50'
_cell_volume   5066.86328669
_cell_formula_units_Z   2
loop_
 _symmetry_equiv_pos_site_id
 _symmetry_equiv_pos_as_xyz
  1  'x, y, z'
loop_
 _atom_site_type_symbol
 _atom_site_label
 _atom_site_symmetry_multiplicity
 _atom_site_fract_x
 _atom_site_fract_y
 _atom_site_fract_z
 _atom_site_occupancy
  Zn  Zn0  1  0.64290000  0.64290000  0.64290000  1.0
  Zn  Zn1  1  0.35710000  0.35710000  0.35710000  1.0
  Zn  Zn2  1  0.78374000  0.64868000  0.77005000  1.0
  Zn  Zn3  1  0.64869000  0.77004000  0.78374000  1.0
  Zn  Zn4  1  0.77004000  0.78374000  0.64869000  1.0
  Zn  Zn5  1  0.21626000  0.35131000  0.22995000  1.0
  Zn  Zn6  1  0.35131000  0.22996000  0.21626000  1.0
  Zn  Zn7  1  0.22995000  0.21626000  0.35131000  1.0
  H  H8  1  0.80994000  0.41224000  0.75791000  1.0
  H  H9  1  0.41224000  0.75791000  0.80994000  1.0
  H  H10  1  0.75791000  0.80994000  0.41224000  1.0
  H  H11  1  0.19006000  0.58776000  0.24209000  1.0
  H  H12  1  0.58776000  0.24209000  0.19006000  1.0
  H  H13  1  0.24209000  0.19006000  0.58776000  1.0
  H  H14  1  0.57125000  0.40831000  0.67390000  1.0
  H  H15  1  0.40831000  0.67391000  0.57125000  1.0
  H  H16  1  0.67390000  0.57125000  0.40831000  1.0
  H  H17  1  0.42875000  0.59169000  0.32610000  1.0
  H  H18  1  0.59168000  0.32609000  0.42875000  1.0
  H  H19  1  0.32609000  0.42875000  0.59169000  1.0
  H  H20  1  0.43731000  0.24129000  0.63728000  1.0
  H  H21  1  0.24129000  0.63728000  0.43731000  1.0
  H  H22  1  0.63728000  0.43731000  0.24129000  1.0
  H  H23  1  0.56269000  0.75871000  0.36272000  1.0
  H  H24  1  0.75871000  0.36272000  0.56269000  1.0
  H  H25  1  0.36272000  0.56269000  0.75871000  1.0
  H  H26  1  0.49292000  0.31893000  0.59655000  1.0
  H  H27  1  0.31893000  0.59655000  0.49292000  1.0
  H  H28  1  0.59654000  0.49292000  0.31893000  1.0
  H  H29  1  0.50708000  0.68107000  0.40345000  1.0
  H  H30  1  0.68107000  0.40345000  0.50708000  1.0
  H  H31  1  0.40345000  0.50708000  0.68107000  1.0
  H  H32  1  0.46355000  0.32789000  0.69574000  1.0
  H  H33  1  0.32789000  0.69574000  0.46355000  1.0
  H  H34  1  0.69574000  0.46355000  0.32789000  1.0
  H  H35  1  0.53645000  0.67211000  0.30426000  1.0
  H  H36  1  0.67211000  0.30426000  0.53645000  1.0
  H  H37  1  0.30426000  0.53645000  0.67211000  1.0
  H  H38  1  0.72266000  0.00999000  0.60224000  1.0
  H  H39  1  0.00999000  0.60223000  0.72266000  1.0
  H  H40  1  0.60224000  0.72266000  0.00999000  1.0
  H  H41  1  0.27734000  0.99002000  0.39776000  1.0
  H  H42  1  0.99001000  0.39776000  0.27734000  1.0
  H  H43  1  0.39776000  0.27734000  0.99001000  1.0
  H  H44  1  0.65056000  0.01408000  0.83748000  1.0
  H  H45  1  0.01408000  0.83747000  0.65055000  1.0
  H  H46  1  0.83748000  0.65055000  0.01408000  1.0
  H  H47  1  0.34945000  0.98592000  0.16252000  1.0
  H  H48  1  0.98592000  0.16253000  0.34945000  1.0
  H  H49  1  0.16253000  0.34944000  0.98592000  1.0
  H  H50  1  0.92617000  0.24832000  0.79960000  1.0
  H  H51  1  0.24832000  0.79960000  0.92617000  1.0
  H  H52  1  0.79961000  0.92617000  0.24832000  1.0
  H  H53  1  0.07383000  0.75168000  0.20039000  1.0
  H  H54  1  0.75168000  0.20040000  0.07383000  1.0
  H  H55  1  0.20039000  0.07383000  0.75168000  1.0
  H  H56  1  0.88092000  0.33358000  0.83659000  1.0
  H  H57  1  0.33358000  0.83659000  0.88092000  1.0
  H  H58  1  0.83659000  0.88092000  0.33358000  1.0
  H  H59  1  0.11908000  0.66642000  0.16341000  1.0
  H  H60  1  0.66642000  0.16341000  0.11908000  1.0
  H  H61  1  0.16341000  0.11908000  0.66642000  1.0
  H  H62  1  0.90759000  0.32647000  0.73672000  1.0
  H  H63  1  0.32647000  0.73672000  0.90759000  1.0
  H  H64  1  0.73673000  0.90759000  0.32647000  1.0
  H  H65  1  0.09241000  0.67353000  0.26327000  1.0
  H  H66  1  0.67353000  0.26328000  0.09241000  1.0
  H  H67  1  0.26328000  0.09241000  0.67353000  1.0
  H  H68  1  0.61664000  0.18255000  0.96236000  1.0
  H  H69  1  0.18255000  0.96235000  0.61664000  1.0
  H  H70  1  0.96236000  0.61664000  0.18255000  1.0
  H  H71  1  0.38336000  0.81744000  0.03764000  1.0
  H  H72  1  0.81745000  0.03765000  0.38337000  1.0
  H  H73  1  0.03764000  0.38336000  0.81745000  1.0
  H  H74  1  0.67745000  0.10310000  0.94031000  1.0
  H  H75  1  0.10310000  0.94030000  0.67745000  1.0
  H  H76  1  0.94031000  0.67745000  0.10310000  1.0
  H  H77  1  0.32255000  0.89690000  0.05969000  1.0
  H  H78  1  0.89690000  0.05970000  0.32255000  1.0
  H  H79  1  0.05970000  0.32255000  0.89690000  1.0
  H  H80  1  0.57560000  0.09591000  0.91091000  1.0
  H  H81  1  0.09592000  0.91091000  0.57560000  1.0
  H  H82  1  0.91091000  0.57560000  0.09591000  1.0
  H  H83  1  0.42440000  0.90408000  0.08909000  1.0
  H  H84  1  0.90409000  0.08910000  0.42440000  1.0
  H  H85  1  0.08909000  0.42440000  0.90409000  1.0
  H  H86  1  0.75315000  0.17345000  0.48047000  1.0
  H  H87  1  0.17345000  0.48046000  0.75315000  1.0
  H  H88  1  0.48047000  0.75315000  0.17345000  1.0
  H  H89  1  0.24685000  0.82655000  0.51953000  1.0
  H  H90  1  0.82655000  0.51954000  0.24685000  1.0
  H  H91  1  0.51954000  0.24685000  0.82655000  1.0
  H  H92  1  0.69535000  0.08639000  0.49599000  1.0
  H  H93  1  0.08639000  0.49598000  0.69535000  1.0
  H  H94  1  0.49599000  0.69535000  0.08639000  1.0
  H  H95  1  0.30465000  0.91361000  0.50401000  1.0
  H  H96  1  0.91361000  0.50402000  0.30465000  1.0
  H  H97  1  0.50401000  0.30465000  0.91361000  1.0
  H  H98  1  0.79430000  0.09771000  0.53510000  1.0
  H  H99  1  0.09771000  0.53510000  0.79430000  1.0
  H  H100  1  0.53510000  0.79430000  0.09771000  1.0
  H  H101  1  0.20570000  0.90229000  0.46490000  1.0
  H  H102  1  0.90229000  0.46490000  0.20570000  1.0
  H  H103  1  0.46490000  0.20570000  0.90229000  1.0
  C  C104  1  0.69748000  0.50305000  0.71249000  1.0
  C  C105  1  0.50305000  0.71250000  0.69748000  1.0
  C  C106  1  0.71249000  0.69748000  0.50305000  1.0
  C  C107  1  0.30252000  0.49695000  0.28751000  1.0
  C  C108  1  0.49695000  0.28750000  0.30252000  1.0
  C  C109  1  0.28750000  0.30252000  0.49694000  1.0
  C  C110  1  0.75186000  0.29666000  0.74218000  1.0
  C  C111  1  0.29666000  0.74218000  0.75186000  1.0
  C  C112  1  0.74217000  0.75186000  0.29666000  1.0
  C  C113  1  0.24814000  0.70334000  0.25783000  1.0
  C  C114  1  0.70334000  0.25782000  0.24814000  1.0
  C  C115  1  0.25782000  0.24814000  0.70334000  1.0
  C  C116  1  0.75678000  0.37786000  0.74086000  1.0
  C  C117  1  0.37786000  0.74086000  0.75678000  1.0
  C  C118  1  0.74086000  0.75678000  0.37786000  1.0
  C  C119  1  0.24322000  0.62214000  0.25914000  1.0
  C  C120  1  0.62214000  0.25914000  0.24322000  1.0
  C  C121  1  0.25914000  0.24322000  0.62214000  1.0
  C  C122  1  0.62073000  0.37585000  0.69317000  1.0
  C  C123  1  0.37585000  0.69317000  0.62073000  1.0
  C  C124  1  0.69317000  0.62073000  0.37585000  1.0
  C  C125  1  0.37927000  0.62415000  0.30683000  1.0
  C  C126  1  0.62415000  0.30683000  0.37927000  1.0
  C  C127  1  0.30683000  0.37927000  0.62415000  1.0
  C  C128  1  0.68184000  0.25404000  0.72003000  1.0
  C  C129  1  0.25404000  0.72003000  0.68184000  1.0
  C  C130  1  0.72003000  0.68184000  0.25404000  1.0
  C  C131  1  0.31816000  0.74596000  0.27997000  1.0
  C  C132  1  0.74595000  0.27997000  0.31816000  1.0
  C  C133  1  0.27997000  0.31816000  0.74595000  1.0
  C  C134  1  0.61635000  0.29450000  0.69592000  1.0
  C  C135  1  0.29450000  0.69592000  0.61635000  1.0
  C  C136  1  0.69592000  0.61635000  0.29450000  1.0
  C  C137  1  0.38365000  0.70550000  0.30408000  1.0
  C  C138  1  0.70550000  0.30408000  0.38365000  1.0
  C  C139  1  0.30408000  0.38365000  0.70550000  1.0
  C  C140  1  0.69106000  0.41659000  0.71583000  1.0
  C  C141  1  0.41659000  0.71583000  0.69106000  1.0
  C  C142  1  0.71583000  0.69106000  0.41659000  1.0
  C  C143  1  0.30894000  0.58341000  0.28417000  1.0
  C  C144  1  0.58341000  0.28417000  0.30894000  1.0
  C  C145  1  0.28417000  0.30894000  0.58341000  1.0
  C  C146  1  0.48265000  0.28755000  0.64976000  1.0
  C  C147  1  0.28754000  0.64976000  0.48265000  1.0
  C  C148  1  0.64976000  0.48265000  0.28755000  1.0
  C  C149  1  0.51735000  0.71245000  0.35024000  1.0
  C  C150  1  0.71245000  0.35024000  0.51735000  1.0
  C  C151  1  0.35024000  0.51735000  0.71245000  1.0
  C  C152  1  0.67957000  0.16776000  0.71956000  1.0
  C  C153  1  0.16776000  0.71956000  0.67957000  1.0
  C  C154  1  0.71956000  0.67957000  0.16776000  1.0
  C  C155  1  0.32043000  0.83224000  0.28044000  1.0
  C  C156  1  0.83224000  0.28044000  0.32043000  1.0
  C  C157  1  0.28044000  0.32043000  0.83224000  1.0
  C  C158  1  0.68744000  0.00561000  0.72005000  1.0
  C  C159  1  0.00561000  0.72004000  0.68744000  1.0
  C  C160  1  0.72005000  0.68743000  0.00561000  1.0
  C  C161  1  0.31257000  0.99439000  0.27995000  1.0
  C  C162  1  0.99438000  0.27996000  0.31256000  1.0
  C  C163  1  0.27995000  0.31256000  0.99439000  1.0
  C  C164  1  0.69975000  0.12485000  0.65243000  1.0
  C  C165  1  0.12485000  0.65242000  0.69975000  1.0
  C  C166  1  0.65243000  0.69975000  0.12485000  1.0
  C  C167  1  0.30025000  0.87515000  0.34757000  1.0
  C  C168  1  0.87514000  0.34758000  0.30025000  1.0
  C  C169  1  0.34758000  0.30025000  0.87515000  1.0
  C  C170  1  0.70492000  0.04402000  0.65261000  1.0
  C  C171  1  0.04402000  0.65261000  0.70492000  1.0
  C  C172  1  0.65262000  0.70492000  0.04401000  1.0
  C  C173  1  0.29508000  0.95599000  0.34738000  1.0
  C  C174  1  0.95598000  0.34739000  0.29508000  1.0
  C  C175  1  0.34739000  0.29508000  0.95598000  1.0
  C  C176  1  0.66431000  0.04641000  0.78669000  1.0
  C  C177  1  0.04641000  0.78669000  0.66431000  1.0
  C  C178  1  0.78669000  0.66431000  0.04641000  1.0
  C  C179  1  0.33569000  0.95359000  0.21331000  1.0
  C  C180  1  0.95359000  0.21331000  0.33569000  1.0
  C  C181  1  0.21331000  0.33569000  0.95359000  1.0
  C  C182  1  0.66199000  0.12758000  0.78629000  1.0
  C  C183  1  0.12758000  0.78629000  0.66199000  1.0
  C  C184  1  0.78629000  0.66198000  0.12758000  1.0
  C  C185  1  0.33801000  0.87242000  0.21371000  1.0
  C  C186  1  0.87242000  0.21371000  0.33802000  1.0
  C  C187  1  0.21371000  0.33801000  0.87242000  1.0
  C  C188  1  0.88566000  0.29343000  0.78530000  1.0
  C  C189  1  0.29343000  0.78530000  0.88566000  1.0
  C  C190  1  0.78530000  0.88566000  0.29343000  1.0
  C  C191  1  0.11434000  0.70657000  0.21470000  1.0
  C  C192  1  0.70657000  0.21470000  0.11434000  1.0
  C  C193  1  0.21470000  0.11434000  0.70657000  1.0
  C  C194  1  0.62768000  0.13584000  0.91933000  1.0
  C  C195  1  0.13584000  0.91933000  0.62768000  1.0
  C  C196  1  0.91933000  0.62769000  0.13584000  1.0
  C  C197  1  0.37231000  0.86416000  0.08067000  1.0
  C  C198  1  0.86416000  0.08068000  0.37232000  1.0
  C  C199  1  0.08067000  0.37231000  0.86417000  1.0
  C  C200  1  0.74085000  0.12845000  0.52168000  1.0
  C  C201  1  0.12845000  0.52167000  0.74085000  1.0
  C  C202  1  0.52168000  0.74085000  0.12845000  1.0
  C  C203  1  0.25915000  0.87155000  0.47832000  1.0
  C  C204  1  0.87155000  0.47833000  0.25915000  1.0
  C  C205  1  0.47833000  0.25915000  0.87155000  1.0
  C  C206  1  0.69646000  0.91982000  0.72120000  1.0
  C  C207  1  0.91982000  0.72120000  0.69646000  1.0
  C  C208  1  0.72121000  0.69645000  0.91982000  1.0
  C  C209  1  0.30355000  0.08018000  0.27879000  1.0
  C  C210  1  0.08018000  0.27880000  0.30354000  1.0
  C  C211  1  0.27880000  0.30354000  0.08017000  1.0
  O  O212  1  0.75989000  0.53751000  0.74276000  1.0
  O  O213  1  0.53751000  0.74276000  0.75989000  1.0
  O  O214  1  0.74275000  0.75989000  0.53751000  1.0
  O  O215  1  0.24012000  0.46249000  0.25724000  1.0
  O  O216  1  0.46249000  0.25724000  0.24011000  1.0
  O  O217  1  0.25725000  0.24011000  0.46249000  1.0
  O  O218  1  0.55079000  0.24903000  0.67545000  1.0
  O  O219  1  0.24903000  0.67546000  0.55079000  1.0
  O  O220  1  0.67545000  0.55079000  0.24904000  1.0
  O  O221  1  0.44921000  0.75097000  0.32455000  1.0
  O  O222  1  0.75096000  0.32455000  0.44921000  1.0
  O  O223  1  0.32455000  0.44921000  0.75096000  1.0
  O  O224  1  0.71526000  0.16819000  0.58994000  1.0
  O  O225  1  0.16819000  0.58993000  0.71525000  1.0
  O  O226  1  0.58994000  0.71526000  0.16819000  1.0
  O  O227  1  0.28474000  0.83181000  0.41006000  1.0
  O  O228  1  0.83181000  0.41007000  0.28475000  1.0
  O  O229  1  0.41007000  0.28474000  0.83181000  1.0
  O  O230  1  0.81305000  0.25295000  0.76393000  1.0
  O  O231  1  0.25295000  0.76393000  0.81305000  1.0
  O  O232  1  0.76393000  0.81305000  0.25295000  1.0
  O  O233  1  0.18695000  0.74705000  0.23607000  1.0
  O  O234  1  0.74705000  0.23607000  0.18695000  1.0
  O  O235  1  0.23607000  0.18695000  0.74705000  1.0
  O  O236  1  0.64424000  0.17371000  0.84964000  1.0
  O  O237  1  0.17371000  0.84964000  0.64424000  1.0
  O  O238  1  0.84964000  0.64425000  0.17371000  1.0
  O  O239  1  0.35575000  0.82629000  0.15036000  1.0
  O  O240  1  0.82629000  0.15036000  0.35576000  1.0
  O  O241  1  0.15036000  0.35576000  0.82629000  1.0
  O  O242  1  0.64059000  0.53615000  0.67919000  1.0
  O  O243  1  0.53615000  0.67920000  0.64059000  1.0
  O  O244  1  0.67919000  0.64058000  0.53615000  1.0
  O  O245  1  0.35941000  0.46385000  0.32081000  1.0
  O  O246  1  0.46385000  0.32080000  0.35941000  1.0
  O  O247  1  0.32080000  0.35942000  0.46385000  1.0
  O  O248  1  0.71210000  0.71210000  0.71210000  1.0
  O  O249  1  0.28790000  0.28790000  0.28789000  1.0
  O  O250  1  0.73618000  0.88978000  0.66750000  1.0
  O  O251  1  0.88978000  0.66750000  0.73618000  1.0
  O  O252  1  0.66751000  0.73617000  0.88977000  1.0
  O  O253  1  0.26383000  0.11023000  0.33248000  1.0
  O  O254  1  0.11022000  0.33250000  0.26382000  1.0
  O  O255  1  0.33250000  0.26382000  0.11022000  1.0
  O  O256  1  0.66493000  0.88332000  0.77579000  1.0
  O  O257  1  0.88332000  0.77578000  0.66494000  1.0
  O  O258  1  0.77580000  0.66492000  0.88332000  1.0
  O  O259  1  0.33509000  0.11668000  0.22420000  1.0
  O  O260  1  0.11668000  0.22422000  0.33507000  1.0
  O  O261  1  0.22421000  0.33507000  0.11668000  1.0
