# generated using pymatgen
data_Zn2H40(C9N2)5
_symmetry_space_group_name_H-M   'P 1'
_cell_length_a   19.95650000
_cell_length_b   20.07020000
_cell_length_c   20.46810000
_cell_angle_alpha   108.39200000
_cell_angle_beta   106.56200000
_cell_angle_gamma   112.19800000
_symmetry_Int_Tables_number   1
_chemical_formula_structural   Zn2H40(C9N2)5
_chemical_formula_sum   'Zn4 H80 C90 N20'
_cell_volume   6395.02671902
_cell_formula_units_Z   2
loop_
 _symmetry_equiv_pos_site_id
 _symmetry_equiv_pos_as_xyz
  1  'x, y, z'
loop_
 _atom_site_type_symbol
 _atom_site_label
 _atom_site_symmetry_multiplicity
 _atom_site_fract_x
 _atom_site_fract_y
 _atom_site_fract_z
 _atom_site_occupancy
  Zn  Zn0  1  0.60776000  0.60593000  0.50606000  1.0
  Zn  Zn1  1  0.39125000  0.39715000  0.49246000  1.0
  Zn  Zn2  1  0.51111000  0.59376000  0.61221000  1.0
  Zn  Zn3  1  0.49568000  0.40830000  0.39506000  1.0
  H  H4  1  0.76529000  0.61389000  0.61407000  1.0
  H  H5  1  0.50285000  0.02874000  0.45647000  1.0
  H  H6  1  0.45679000  0.97088000  0.55568000  1.0
  H  H7  1  0.53770000  0.13544000  0.67394000  1.0
  H  H8  1  0.40212000  0.60495000  0.82509000  1.0
  H  H9  1  0.47764000  0.59921000  0.76408000  1.0
  H  H10  1  0.37754000  0.60932000  0.93809000  1.0
  H  H11  1  0.43687000  0.66805000  0.14800000  1.0
  H  H12  1  0.47505000  0.66934000  0.27553000  1.0
  H  H13  1  0.26345000  0.34084000  0.70997000  1.0
  H  H14  1  0.25501000  0.41280000  0.03293000  1.0
  H  H15  1  0.25466000  0.39707000  0.36487000  1.0
  H  H16  1  0.09168000  0.97771000  0.01739000  1.0
  H  H17  1  0.61988000  0.38356000  0.31626000  1.0
  H  H18  1  0.88059000  0.65097000  0.72117000  1.0
  H  H19  1  0.21238000  0.05245000  0.29566000  1.0
  H  H20  1  0.75231000  0.66412000  0.85792000  1.0
  H  H21  1  0.77338000  0.64214000  0.48040000  1.0
  H  H22  1  0.62995000  0.58565000  0.74557000  1.0
  H  H23  1  0.50822000  0.66315000  0.39787000  1.0
  H  H24  1  0.46346000  0.20198000  0.28916000  1.0
  H  H25  1  0.37029000  0.11201000  0.21473000  1.0
  H  H26  1  0.54944000  0.78737000  0.68571000  1.0
  H  H27  1  0.44396000  0.16708000  0.19041000  1.0
  H  H28  1  0.33018000  0.19577000  0.16135000  1.0
  H  H29  1  0.42254000  0.28569000  0.23404000  1.0
  H  H30  1  0.14124000  0.25956000  0.32105000  1.0
  H  H31  1  0.10048000  0.15438000  0.25868000  1.0
  H  H32  1  0.08171000  0.18358000  0.34012000  1.0
  H  H33  1  0.18897000  0.14702000  0.36981000  1.0
  H  H34  1  0.23113000  0.25213000  0.43013000  1.0
  H  H35  1  0.41818000  0.74414000  0.54508000  1.0
  H  H36  1  0.31055000  0.69635000  0.50953000  1.0
  H  H37  1  0.66122000  0.79237000  0.53334000  1.0
  H  H38  1  0.37693000  0.77220000  0.60826000  1.0
  H  H39  1  0.31776000  0.63390000  0.59836000  1.0
  H  H40  1  0.42373000  0.67846000  0.63276000  1.0
  H  H41  1  0.08311000  0.63454000  0.37619000  1.0
  H  H42  1  0.33285000  0.23513000  0.50897000  1.0
  H  H43  1  0.38629000  0.18463000  0.52771000  1.0
  H  H44  1  0.34540000  0.21658000  0.58998000  1.0
  H  H45  1  0.49671000  0.31162000  0.65200000  1.0
  H  H46  1  0.44522000  0.36423000  0.63558000  1.0
  H  H47  1  0.92437000  0.50135000  0.26330000  1.0
  H  H48  1  0.36673000  0.39886000  0.25556000  1.0
  H  H49  1  0.95289000  0.31235000  0.37693000  1.0
  H  H50  1  0.00187000  0.37878000  0.47814000  1.0
  H  H51  1  0.90442000  0.28944000  0.43395000  1.0
  H  H52  1  0.88963000  0.41312000  0.46038000  1.0
  H  H53  1  0.84189000  0.34761000  0.35966000  1.0
  H  H54  1  0.68277000  0.13108000  0.72934000  1.0
  H  H55  1  0.62161000  0.05324000  0.41160000  1.0
  H  H56  1  0.72198000  0.12380000  0.48841000  1.0
  H  H57  1  0.70065000  0.03180000  0.41454000  1.0
  H  H58  1  0.71221000  0.01903000  0.53531000  1.0
  H  H59  1  0.02858000  0.65013000  0.49109000  1.0
  H  H60  1  0.61244000  0.94896000  0.45896000  1.0
  H  H61  1  0.23616000  0.34674000  0.82270000  1.0
  H  H62  1  0.28935000  0.41361000  0.15981000  1.0
  H  H63  1  0.19098000  0.12411000  0.11727000  1.0
  H  H64  1  0.99637000  0.68746000  0.71568000  1.0
  H  H65  1  0.00946000  0.78679000  0.74687000  1.0
  H  H66  1  0.09568000  0.77488000  0.76839000  1.0
  H  H67  1  0.08067000  0.81849000  0.88817000  1.0
  H  H68  1  0.06047000  0.71816000  0.85496000  1.0
  H  H69  1  0.88489000  0.76237000  0.97675000  1.0
  H  H70  1  0.07404000  0.54098000  0.52163000  1.0
  H  H71  1  0.19761000  0.95041000  0.32313000  1.0
  H  H72  1  0.10674000  0.95238000  0.31104000  1.0
  H  H73  1  0.10828000  0.86138000  0.29827000  1.0
  H  H74  1  0.03811000  0.84479000  0.16782000  1.0
  H  H75  1  0.12981000  0.84842000  0.18140000  1.0
  H  H76  1  0.28318000  0.35178000  0.59216000  1.0
  H  H77  1  0.72796000  0.45729000  0.53134000  1.0
  H  H78  1  0.73074000  0.38458000  0.56242000  1.0
  H  H79  1  0.74958000  0.38381000  0.48216000  1.0
  H  H80  1  0.60820000  0.27063000  0.43710000  1.0
  H  H81  1  0.96944000  0.39193000  0.29342000  1.0
  H  H82  1  0.60523000  0.34134000  0.40405000  1.0
  H  H83  1  0.72912000  0.18885000  0.63032000  1.0
  C  C84  1  0.72074000  0.60234000  0.63587000  1.0
  C  C85  1  0.63295000  0.77817000  0.56909000  1.0
  C  C86  1  0.40714000  0.46225000  0.30047000  1.0
  C  C87  1  0.49836000  0.33898000  0.56084000  1.0
  C  C88  1  0.35185000  0.57890000  0.51852000  1.0
  C  C89  1  0.41953000  0.53485000  0.29718000  1.0
  C  C90  1  0.27870000  0.51792000  0.44927000  1.0
  C  C91  1  0.60703000  0.82276000  0.61304000  1.0
  C  C92  1  0.26809000  0.18305000  0.27323000  1.0
  C  C93  1  0.03992000  0.53214000  0.46417000  1.0
  C  C94  1  0.01630000  0.59284000  0.44735000  1.0
  C  C95  1  0.54929000  0.31218000  0.54116000  1.0
  C  C96  1  0.79306000  0.51406000  0.38241000  1.0
  C  C97  1  0.20576000  0.51881000  0.42523000  1.0
  C  C98  1  0.95292000  0.45751000  0.40154000  1.0
  C  C99  1  0.43457000  0.53988000  0.71297000  1.0
  C  C100  1  0.92746000  0.51902000  0.38458000  1.0
  C  C101  1  0.98196000  0.44928000  0.33734000  1.0
  C  C102  1  0.07073000  0.52295000  0.40030000  1.0
  C  C103  1  0.95816000  0.51010000  0.32073000  1.0
  C  C104  1  0.04531000  0.58407000  0.38336000  1.0
  C  C105  1  0.85452000  0.51678000  0.38019000  1.0
  C  C106  1  0.36510000  0.47354000  0.70182000  1.0
  C  C107  1  0.14391000  0.52259000  0.41110000  1.0
  C  C108  1  0.64285000  0.10899000  0.66866000  1.0
  C  C109  1  0.66858000  0.14001000  0.61381000  1.0
  C  C110  1  0.56874000  0.25781000  0.55948000  1.0
  C  C111  1  0.64608000  0.44651000  0.35911000  1.0
  C  C112  1  0.60686000  0.89364000  0.61574000  1.0
  C  C113  1  0.56226000  0.11010000  0.63807000  1.0
  C  C114  1  0.58785000  0.14281000  0.58290000  1.0
  C  C115  1  0.51717000  0.01992000  0.57214000  1.0
  C  C116  1  0.59794000  0.01715000  0.60325000  1.0
  C  C117  1  0.72571000  0.51319000  0.39196000  1.0
  C  C118  1  0.54280000  0.05078000  0.51721000  1.0
  C  C119  1  0.62365000  0.04954000  0.54748000  1.0
  C  C120  1  0.58025000  0.20638000  0.57196000  1.0
  C  C121  1  0.60334000  0.95177000  0.61174000  1.0
  C  C122  1  0.38736000  0.54056000  0.22695000  1.0
  C  C123  1  0.33587000  0.41356000  0.62573000  1.0
  C  C124  1  0.32244000  0.46958000  0.15755000  1.0
  C  C125  1  0.30225000  0.46864000  0.08664000  1.0
  C  C126  1  0.34589000  0.54006000  0.08280000  1.0
  C  C127  1  0.40477000  0.61309000  0.15211000  1.0
  C  C128  1  0.47995000  0.59710000  0.37281000  1.0
  C  C129  1  0.42551000  0.61326000  0.22298000  1.0
  C  C130  1  0.35227000  0.55114000  0.88744000  1.0
  C  C131  1  0.36649000  0.54791000  0.82463000  1.0
  C  C132  1  0.30681000  0.47798000  0.88785000  1.0
  C  C133  1  0.33750000  0.47252000  0.76040000  1.0
  C  C134  1  0.28748000  0.39996000  0.75908000  1.0
  C  C135  1  0.72460000  0.57867000  0.44294000  1.0
  C  C136  1  0.27208000  0.40274000  0.82179000  1.0
  C  C137  1  0.80697000  0.65236000  0.78023000  1.0
  C  C138  1  0.80906000  0.68081000  0.85373000  1.0
  C  C139  1  0.29440000  0.45581000  0.41716000  1.0
  C  C140  1  0.88256000  0.73541000  0.92024000  1.0
  C  C141  1  0.95656000  0.76343000  0.91580000  1.0
  C  C142  1  0.95665000  0.73001000  0.84347000  1.0
  C  C143  1  0.88165000  0.67491000  0.77746000  1.0
  C  C144  1  0.11994000  0.99527000  0.07877000  1.0
  C  C145  1  0.17521000  0.07634000  0.13445000  1.0
  C  C146  1  0.09582000  0.93353000  0.10045000  1.0
  C  C147  1  0.56899000  0.34463000  0.49283000  1.0
  C  C148  1  0.20867000  0.09796000  0.21357000  1.0
  C  C149  1  0.18449000  0.03553000  0.23442000  1.0
  C  C150  1  0.57583000  0.77549000  0.64694000  1.0
  C  C151  1  0.12842000  0.95355000  0.17980000  1.0
  C  C152  1  0.65204000  0.58875000  0.70327000  1.0
  C  C153  1  0.73060000  0.61153000  0.70978000  1.0
  C  C154  1  0.37661000  0.22500000  0.22172000  1.0
  C  C155  1  0.41603000  0.17353000  0.22942000  1.0
  C  C156  1  0.20504000  0.20569000  0.36945000  1.0
  C  C157  1  0.12752000  0.20046000  0.31940000  1.0
  C  C158  1  0.36663000  0.65379000  0.58139000  1.0
  C  C159  1  0.36832000  0.72062000  0.55967000  1.0
  C  C160  1  0.45600000  0.31604000  0.60649000  1.0
  C  C161  1  0.33990000  0.23740000  0.27560000  1.0
  C  C162  1  0.37532000  0.23333000  0.55543000  1.0
  C  C163  1  0.90181000  0.38823000  0.41167000  1.0
  C  C164  1  0.94240000  0.33945000  0.42600000  1.0
  C  C165  1  0.65700000  0.01489000  0.49787000  1.0
  C  C166  1  0.67642000  0.05827000  0.45046000  1.0
  C  C167  1  0.03667000  0.75579000  0.84031000  1.0
  C  C168  1  0.03401000  0.75067000  0.76346000  1.0
  C  C169  1  0.10464000  0.88634000  0.20207000  1.0
  C  C170  1  0.13090000  0.91445000  0.28833000  1.0
  C  C171  1  0.62156000  0.33403000  0.45619000  1.0
  C  C172  1  0.26880000  0.22762000  0.34260000  1.0
  C  C173  1  0.71304000  0.39352000  0.51132000  1.0
  N  N174  1  0.64340000  0.57834000  0.59074000  1.0
  N  N175  1  0.29954000  0.47422000  0.95320000  1.0
  N  N176  1  0.02913000  0.83248000  0.97763000  1.0
  N  N177  1  0.48851000  0.38405000  0.52615000  1.0
  N  N178  1  0.03379000  0.85280000  0.04501000  1.0
  N  N179  1  0.44554000  0.52115000  0.64953000  1.0
  N  N180  1  0.60211000  0.47010000  0.38912000  1.0
  N  N181  1  0.38397000  0.44253000  0.59468000  1.0
  N  N182  1  0.65092000  0.55247000  0.44069000  1.0
  N  N183  1  0.53206000  0.38780000  0.48472000  1.0
  N  N184  1  0.60114000  0.56999000  0.63216000  1.0
  N  N185  1  0.37080000  0.47780000  0.46335000  1.0
  N  N186  1  0.50181000  0.56324000  0.41610000  1.0
  N  N187  1  0.58169000  0.70812000  0.62420000  1.0
  N  N188  1  0.38058000  0.30826000  0.34217000  1.0
  N  N189  1  0.33666000  0.30273000  0.38309000  1.0
  N  N190  1  0.61772000  0.71031000  0.57606000  1.0
  N  N191  1  0.45723000  0.48061000  0.37132000  1.0
  N  N192  1  0.40598000  0.55385000  0.52401000  1.0
  N  N193  1  0.34159000  0.54339000  0.01439000  1.0
