# generated using pymatgen
data_Mn7H116C166S20(NO8)6
_symmetry_space_group_name_H-M   'P 1'
_cell_length_a   14.16360000
_cell_length_b   15.08850000
_cell_length_c   21.82540000
_cell_angle_alpha   73.91210000
_cell_angle_beta   71.16370000
_cell_angle_gamma   82.09870000
_symmetry_Int_Tables_number   1
_chemical_formula_structural   Mn7H116C166S20(NO8)6
_chemical_formula_sum   'Mn7 H116 C166 S20 N6 O48'
_cell_volume   4235.66436095
_cell_formula_units_Z   1
loop_
 _symmetry_equiv_pos_site_id
 _symmetry_equiv_pos_as_xyz
  1  'x, y, z'
loop_
 _atom_site_type_symbol
 _atom_site_label
 _atom_site_symmetry_multiplicity
 _atom_site_fract_x
 _atom_site_fract_y
 _atom_site_fract_z
 _atom_site_occupancy
  Mn  Mn0  1  0.50000000  0.00002000  0.49998000  1.0
  Mn  Mn1  1  0.67591000  0.19403000  0.27077000  1.0
  Mn  Mn2  1  0.32408000  0.80597000  0.72922000  1.0
  Mn  Mn3  1  0.50204000  0.04296000  0.32427000  1.0
  Mn  Mn4  1  0.49800000  0.95703000  0.67571000  1.0
  Mn  Mn5  1  0.85583000  0.36624000  0.20693000  1.0
  Mn  Mn6  1  0.14417000  0.63376000  0.79311000  1.0
  H  H7  1  0.40784000  0.74529000  0.42043000  1.0
  H  H8  1  0.59224000  0.25469000  0.57958000  1.0
  H  H9  1  0.36133000  0.78708000  0.53014000  1.0
  H  H10  1  0.63876000  0.21291000  0.46988000  1.0
  H  H11  1  0.30697000  0.50287000  0.63344000  1.0
  H  H12  1  0.69298000  0.49712000  0.36655000  1.0
  H  H13  1  0.46950000  0.50729000  0.29320000  1.0
  H  H14  1  0.53052000  0.49273000  0.70680000  1.0
  H  H15  1  0.49894000  0.33956000  0.29258000  1.0
  H  H16  1  0.50106000  0.66046000  0.70741000  1.0
  H  H17  1  0.41563000  0.26582000  0.50720000  1.0
  H  H18  1  0.58438000  0.73417000  0.49279000  1.0
  H  H19  1  0.20542000  0.01569000  0.37576000  1.0
  H  H20  1  0.79458000  0.98431000  0.62424000  1.0
  H  H21  1  0.23136000  0.86467000  0.56914000  1.0
  H  H22  1  0.76874000  0.13520000  0.43081000  1.0
  H  H23  1  0.07013000  0.79267000  0.59477000  1.0
  H  H24  1  0.92997000  0.20719000  0.40519000  1.0
  H  H25  1  0.59675000  0.75476000  0.86890000  1.0
  H  H26  1  0.40326000  0.24524000  0.13109000  1.0
  H  H27  1  0.23831000  0.72680000  0.00140000  1.0
  H  H28  1  0.76168000  0.27319000  0.99858000  1.0
  H  H29  1  0.28683000  0.82957000  0.88521000  1.0
  H  H30  1  0.71318000  0.17042000  0.11477000  1.0
  H  H31  1  0.46086000  0.36507000  0.21100000  1.0
  H  H32  1  0.53913000  0.63496000  0.78900000  1.0
  H  H33  1  0.33029000  0.47064000  0.16905000  1.0
  H  H34  1  0.66969000  0.52941000  0.83096000  1.0
  H  H35  1  0.69014000  0.53036000  0.05812000  1.0
  H  H36  1  0.30986000  0.46963000  0.94187000  1.0
  H  H37  1  0.91567000  0.61532000  0.01663000  1.0
  H  H38  1  0.08429000  0.38468000  0.98339000  1.0
  H  H39  1  0.89947000  0.67638000  0.07842000  1.0
  H  H40  1  0.10051000  0.32360000  0.92160000  1.0
  H  H41  1  0.81766000  0.58685000  0.09436000  1.0
  H  H42  1  0.18232000  0.41313000  0.90567000  1.0
  H  H43  1  0.47524000  0.81632000  0.15949000  1.0
  H  H44  1  0.52472000  0.18364000  0.84052000  1.0
  H  H45  1  0.41552000  0.73864000  0.23774000  1.0
  H  H46  1  0.58443000  0.26135000  0.76228000  1.0
  H  H47  1  0.53850000  0.71170000  0.19052000  1.0
  H  H48  1  0.46144000  0.28825000  0.80950000  1.0
  H  H49  1  0.09636000  0.66180000  0.01275000  1.0
  H  H50  1  0.90364000  0.33818000  0.98725000  1.0
  H  H51  1  0.07313000  0.58875000  0.96848000  1.0
  H  H52  1  0.92683000  0.41126000  0.03152000  1.0
  H  H53  1  0.18448000  0.57092000  0.99189000  1.0
  H  H54  1  0.81550000  0.42906000  0.00809000  1.0
  H  H55  1  0.08127000  0.39260000  0.12681000  1.0
  H  H56  1  0.91873000  0.60740000  0.87319000  1.0
  H  H57  1  0.13436000  0.48058000  0.14433000  1.0
  H  H58  1  0.86564000  0.51943000  0.85566000  1.0
  H  H59  1  0.19098000  0.44589000  0.06825000  1.0
  H  H60  1  0.80901000  0.55410000  0.93174000  1.0
  H  H61  1  0.65686000  0.84496000  0.46454000  1.0
  H  H62  1  0.34310000  0.15506000  0.53550000  1.0
  H  H63  1  0.77147000  0.76949000  0.53230000  1.0
  H  H64  1  0.22851000  0.23053000  0.46775000  1.0
  H  H65  1  0.88305000  0.03025000  0.33191000  1.0
  H  H66  1  0.11699000  0.96967000  0.66809000  1.0
  H  H67  1  0.83462000  0.92240000  0.16005000  1.0
  H  H68  1  0.16526000  0.07759000  0.83998000  1.0
  H  H69  1  0.81105000  0.05353000  0.21351000  1.0
  H  H70  1  0.18883000  0.94646000  0.78651000  1.0
  H  H71  1  0.01292000  0.21043000  0.03439000  1.0
  H  H72  1  0.98707000  0.78951000  0.96568000  1.0
  H  H73  1  0.03046000  0.37437000  0.35627000  1.0
  H  H74  1  0.96959000  0.62565000  0.64372000  1.0
  H  H75  1  0.93649000  0.42578000  0.31621000  1.0
  H  H76  1  0.06354000  0.57425000  0.68380000  1.0
  H  H77  1  0.06288000  0.45914000  0.27900000  1.0
  H  H78  1  0.93715000  0.54089000  0.72099000  1.0
  H  H79  1  0.13047000  0.23835000  0.17319000  1.0
  H  H80  1  0.86946000  0.76165000  0.82682000  1.0
  H  H81  1  0.09302000  0.15428000  0.25113000  1.0
  H  H82  1  0.90695000  0.84575000  0.74889000  1.0
  H  H83  1  0.22084000  0.18333000  0.21529000  1.0
  H  H84  1  0.77914000  0.81669000  0.78468000  1.0
  H  H85  1  0.18373000  0.29788000  0.33247000  1.0
  H  H86  1  0.81635000  0.70216000  0.66748000  1.0
  H  H87  1  0.22640000  0.37849000  0.25325000  1.0
  H  H88  1  0.77362000  0.62154000  0.74669000  1.0
  H  H89  1  0.27172000  0.26061000  0.26408000  1.0
  H  H90  1  0.72831000  0.73942000  0.73585000  1.0
  H  H91  1  0.60893000  0.74692000  0.30847000  1.0
  H  H92  1  0.39102000  0.25300000  0.69154000  1.0
  H  H93  1  0.67598000  0.83128000  0.23850000  1.0
  H  H94  1  0.32401000  0.16863000  0.76152000  1.0
  H  H95  1  0.65538000  0.72267000  0.22809000  1.0
  H  H96  1  0.34457000  0.27725000  0.77193000  1.0
  H  H97  1  0.35989000  0.98677000  0.26746000  1.0
  H  H98  1  0.64015000  0.01325000  0.73251000  1.0
  H  H99  1  0.32551000  0.86984000  0.28829000  1.0
  H  H100  1  0.67449000  0.13018000  0.71173000  1.0
  H  H101  1  0.38043000  0.92745000  0.20351000  1.0
  H  H102  1  0.61955000  0.07252000  0.79650000  1.0
  H  H103  1  0.14071000  0.42654000  0.74890000  1.0
  H  H104  1  0.85930000  0.57347000  0.25109000  1.0
  H  H105  1  0.22502000  0.32993000  0.66126000  1.0
  H  H106  1  0.77493000  0.67010000  0.33871000  1.0
  H  H107  1  0.72623000  0.04151000  0.94780000  1.0
  H  H108  1  0.27386000  0.95843000  0.05226000  1.0
  H  H109  1  0.80949000  0.94625000  0.86018000  1.0
  H  H110  1  0.19057000  0.05372000  0.13985000  1.0
  H  H111  1  0.07462000  0.31847000  0.56069000  1.0
  H  H112  1  0.92536000  0.68164000  0.43925000  1.0
  H  H113  1  0.03544000  0.44985000  0.62157000  1.0
  H  H114  1  0.96457000  0.55027000  0.37838000  1.0
  H  H115  1  0.18211000  0.81688000  0.26892000  1.0
  H  H116  1  0.81782000  0.18319000  0.73112000  1.0
  H  H117  1  0.22557000  0.68277000  0.20889000  1.0
  H  H118  1  0.77434000  0.31730000  0.79114000  1.0
  H  H119  1  0.72226000  0.90315000  0.10050000  1.0
  H  H120  1  0.27771000  0.09682000  0.89954000  1.0
  H  H121  1  0.73205000  0.79389000  0.02637000  1.0
  H  H122  1  0.26789000  0.20610000  0.97366000  1.0
  C  C123  1  0.38474000  0.69319000  0.46751000  1.0
  C  C124  1  0.61531000  0.30681000  0.53249000  1.0
  C  C125  1  0.35734000  0.71634000  0.52841000  1.0
  C  C126  1  0.64271000  0.28365000  0.47159000  1.0
  C  C127  1  0.32559000  0.64834000  0.58872000  1.0
  C  C128  1  0.67442000  0.35165000  0.41129000  1.0
  C  C129  1  0.38667000  0.60085000  0.46541000  1.0
  C  C130  1  0.61334000  0.39916000  0.53459000  1.0
  C  C131  1  0.32849000  0.55642000  0.58708000  1.0
  C  C132  1  0.67149000  0.44357000  0.41292000  1.0
  C  C133  1  0.36067000  0.53168000  0.52611000  1.0
  C  C134  1  0.63933000  0.46831000  0.47388000  1.0
  C  C135  1  0.36873000  0.43287000  0.52650000  1.0
  C  C136  1  0.63126000  0.56712000  0.47349000  1.0
  C  C137  1  0.40609000  0.40989000  0.46094000  1.0
  C  C138  1  0.59394000  0.59010000  0.53905000  1.0
  C  C139  1  0.42490000  0.47944000  0.40034000  1.0
  C  C140  1  0.57513000  0.52055000  0.59967000  1.0
  C  C141  1  0.41616000  0.57808000  0.39992000  1.0
  C  C142  1  0.58389000  0.42192000  0.60008000  1.0
  C  C143  1  0.45584000  0.45329000  0.33961000  1.0
  C  C144  1  0.54418000  0.54671000  0.66038000  1.0
  C  C145  1  0.47158000  0.36056000  0.33928000  1.0
  C  C146  1  0.52842000  0.63945000  0.66071000  1.0
  C  C147  1  0.45879000  0.29168000  0.39930000  1.0
  C  C148  1  0.54120000  0.70833000  0.60068000  1.0
  C  C149  1  0.42523000  0.31713000  0.45983000  1.0
  C  C150  1  0.57478000  0.68287000  0.54016000  1.0
  C  C151  1  0.48414000  0.19305000  0.39844000  1.0
  C  C152  1  0.51583000  0.80696000  0.60154000  1.0
  C  C153  1  0.33089000  0.97788000  0.45048000  1.0
  C  C154  1  0.66914000  0.02211000  0.54949000  1.0
  C  C155  1  0.23032000  0.94145000  0.46959000  1.0
  C  C156  1  0.76971000  0.05853000  0.53039000  1.0
  C  C157  1  0.17622000  0.96673000  0.42364000  1.0
  C  C158  1  0.82380000  0.03325000  0.57636000  1.0
  C  C159  1  0.19058000  0.88110000  0.53246000  1.0
  C  C160  1  0.80950000  0.11882000  0.46751000  1.0
  C  C161  1  0.10057000  0.84150000  0.54702000  1.0
  C  C162  1  0.89952000  0.15838000  0.45295000  1.0
  C  C163  1  0.04711000  0.86443000  0.50028000  1.0
  C  C164  1  0.95297000  0.13548000  0.49970000  1.0
  C  C165  1  0.47210000  0.85222000  0.79890000  1.0
  C  C166  1  0.52791000  0.14778000  0.20109000  1.0
  C  C167  1  0.51810000  0.74858000  0.89753000  1.0
  C  C168  1  0.48191000  0.25142000  0.10246000  1.0
  C  C169  1  0.38941000  0.68128000  0.99904000  1.0
  C  C170  1  0.61059000  0.31872000  0.00094000  1.0
  C  C171  1  0.49177000  0.69108000  0.96235000  1.0
  C  C172  1  0.50823000  0.30893000  0.03764000  1.0
  C  C173  1  0.35774000  0.61608000  0.06518000  1.0
  C  C174  1  0.64226000  0.38394000  0.93482000  1.0
  C  C175  1  0.31629000  0.73346000  0.97147000  1.0
  C  C176  1  0.68371000  0.26652000  0.02851000  1.0
  C  C177  1  0.34323000  0.79021000  0.90738000  1.0
  C  C178  1  0.65677000  0.20977000  0.09260000  1.0
  C  C179  1  0.44461000  0.79634000  0.86931000  1.0
  C  C180  1  0.55540000  0.20365000  0.13068000  1.0
  C  C181  1  0.48191000  0.42484000  0.16899000  1.0
  C  C182  1  0.51809000  0.57517000  0.83100000  1.0
  C  C183  1  0.40954000  0.48215000  0.14527000  1.0
  C  C184  1  0.59045000  0.51788000  0.85473000  1.0
  C  C185  1  0.43692000  0.55581000  0.08857000  1.0
  C  C186  1  0.56308000  0.44422000  0.91142000  1.0
  C  C187  1  0.53951000  0.57082000  0.05516000  1.0
  C  C188  1  0.46049000  0.42920000  0.94483000  1.0
  C  C189  1  0.57140000  0.64182000  0.99126000  1.0
  C  C190  1  0.42861000  0.35819000  0.00873000  1.0
  C  C191  1  0.61157000  0.51618000  0.08242000  1.0
  C  C192  1  0.38843000  0.48382000  0.91757000  1.0
  C  C193  1  0.58373000  0.44349000  0.13925000  1.0
  C  C194  1  0.41626000  0.55651000  0.86074000  1.0
  C  C195  1  0.66028000  0.38439000  0.16881000  1.0
  C  C196  1  0.33971000  0.61561000  0.83118000  1.0
  C  C197  1  0.89466000  0.60813000  0.07070000  1.0
  C  C198  1  0.10531000  0.39186000  0.92932000  1.0
  C  C199  1  0.48647000  0.76818000  0.20497000  1.0
  C  C200  1  0.51349000  0.23178000  0.79504000  1.0
  C  C201  1  0.10488000  0.59049000  0.00769000  1.0
  C  C202  1  0.89511000  0.40950000  0.99231000  1.0
  C  C203  1  0.11964000  0.45745000  0.10487000  1.0
  C  C204  1  0.88035000  0.54254000  0.89512000  1.0
  C  C205  1  0.68663000  0.99820000  0.36426000  1.0
  C  C206  1  0.31338000  0.00178000  0.63573000  1.0
  C  C207  1  0.76142000  0.94358000  0.39590000  1.0
  C  C208  1  0.23859000  0.05637000  0.60409000  1.0
  C  C209  1  0.73231000  0.86692000  0.45005000  1.0
  C  C210  1  0.26766000  0.13307000  0.54998000  1.0
  C  C211  1  0.79598000  0.82517000  0.48752000  1.0
  C  C212  1  0.20399000  0.17485000  0.51251000  1.0
  C  C213  1  0.89158000  0.85761000  0.47017000  1.0
  C  C214  1  0.10841000  0.14238000  0.52984000  1.0
  C  C215  1  0.92448000  0.92927000  0.41165000  1.0
  C  C216  1  0.07553000  0.07069000  0.58834000  1.0
  C  C217  1  0.85892000  0.97216000  0.37499000  1.0
  C  C218  1  0.14109000  0.02778000  0.62500000  1.0
  C  C219  1  0.87136000  0.98680000  0.13261000  1.0
  C  C220  1  0.12858000  0.01317000  0.86742000  1.0
  C  C221  1  0.85882000  0.05954000  0.16237000  1.0
  C  C222  1  0.14109000  0.94045000  0.83766000  1.0
  C  C223  1  0.90870000  0.14128000  0.12625000  1.0
  C  C224  1  0.09123000  0.85870000  0.87378000  1.0
  C  C225  1  0.97276000  0.14793000  0.06169000  1.0
  C  C226  1  0.02720000  0.85202000  0.93836000  1.0
  C  C227  1  0.98613000  0.07497000  0.03146000  1.0
  C  C228  1  0.01383000  0.92497000  0.96861000  1.0
  C  C229  1  0.93388000  0.99354000  0.06717000  1.0
  C  C230  1  0.06609000  0.00640000  0.93288000  1.0
  C  C231  1  0.05489000  0.08494000  0.96310000  1.0
  C  C232  1  0.94507000  0.91502000  0.03696000  1.0
  C  C233  1  0.89379000  0.22140000  0.15591000  1.0
  C  C234  1  0.10616000  0.77858000  0.84411000  1.0
  C  C235  1  0.03411000  0.32570000  0.27188000  1.0
  C  C236  1  0.96591000  0.67433000  0.72811000  1.0
  C  C237  1  0.01486000  0.40105000  0.30806000  1.0
  C  C238  1  0.98517000  0.59898000  0.69194000  1.0
  C  C239  1  0.14334000  0.21047000  0.22216000  1.0
  C  C240  1  0.85662000  0.78955000  0.77783000  1.0
  C  C241  1  0.20607000  0.30670000  0.27816000  1.0
  C  C242  1  0.79397000  0.69334000  0.72179000  1.0
  C  C243  1  0.95336000  0.81951000  0.51535000  1.0
  C  C244  1  0.04667000  0.18045000  0.48465000  1.0
  C  C245  1  0.29001000  0.67377000  0.65424000  1.0
  C  C246  1  0.70997000  0.32620000  0.34577000  1.0
  C  C247  1  0.08394000  0.93004000  0.43886000  1.0
  C  C248  1  0.91610000  0.06991000  0.56114000  1.0
  C  C249  1  0.62297000  0.77669000  0.25454000  1.0
  C  C250  1  0.37700000  0.22324000  0.74547000  1.0
  C  C251  1  0.02613000  0.96268000  0.39044000  1.0
  C  C252  1  0.97390000  0.03729000  0.60955000  1.0
  C  C253  1  0.48119000  0.88556000  0.26426000  1.0
  C  C254  1  0.51883000  0.11443000  0.73573000  1.0
  C  C255  1  0.38096000  0.92006000  0.25486000  1.0
  C  C256  1  0.61905000  0.07994000  0.74514000  1.0
  C  C257  1  0.96045000  0.53803000  0.10401000  1.0
  C  C258  1  0.03953000  0.46196000  0.89600000  1.0
  C  C259  1  0.11393000  0.36276000  0.74804000  1.0
  C  C260  1  0.88604000  0.63727000  0.25194000  1.0
  C  C261  1  0.15770000  0.31214000  0.70333000  1.0
  C  C262  1  0.84225000  0.68790000  0.29664000  1.0
  C  C263  1  0.00495000  0.22261000  0.78542000  1.0
  C  C264  1  0.99501000  0.77743000  0.21457000  1.0
  C  C265  1  0.93594000  0.15732000  0.81943000  1.0
  C  C266  1  0.06403000  0.84271000  0.18058000  1.0
  C  C267  1  0.78990000  0.06211000  0.90385000  1.0
  C  C268  1  0.21015000  0.93785000  0.09619000  1.0
  C  C269  1  0.83340000  0.01270000  0.85834000  1.0
  C  C270  1  0.16665000  0.98728000  0.14168000  1.0
  C  C271  1  0.16615000  0.53374000  0.44666000  1.0
  C  C272  1  0.83394000  0.46637000  0.55334000  1.0
  C  C273  1  0.19380000  0.59672000  0.38583000  1.0
  C  C274  1  0.80630000  0.40340000  0.61418000  1.0
  C  C275  1  0.09590000  0.38934000  0.53721000  1.0
  C  C276  1  0.90411000  0.61077000  0.46274000  1.0
  C  C277  1  0.07537000  0.45777000  0.56882000  1.0
  C  C278  1  0.92466000  0.54233000  0.43114000  1.0
  C  C279  1  0.19380000  0.74430000  0.29272000  1.0
  C  C280  1  0.80622000  0.25579000  0.70728000  1.0
  C  C281  1  0.21556000  0.67508000  0.26173000  1.0
  C  C282  1  0.78446000  0.32501000  0.73827000  1.0
  C  C283  1  0.67229000  0.90896000  0.07058000  1.0
  C  C284  1  0.32765000  0.09103000  0.92946000  1.0
  C  C285  1  0.67788000  0.85196000  0.03169000  1.0
  C  C286  1  0.32205000  0.14804000  0.96834000  1.0
  C  C287  1  0.53648000  0.97335000  0.01185000  1.0
  C  C288  1  0.46348000  0.02667000  0.98819000  1.0
  S  S289  1  0.00435000  0.32421000  0.80967000  1.0
  S  S290  1  0.99565000  0.67581000  0.19032000  1.0
  S  S291  1  0.10098000  0.21230000  0.71246000  1.0
  S  S292  1  0.89895000  0.78776000  0.28751000  1.0
  S  S293  1  0.93420000  0.05923000  0.79134000  1.0
  S  S294  1  0.06576000  0.94081000  0.20865000  1.0
  S  S295  1  0.83855000  0.16728000  0.89187000  1.0
  S  S296  1  0.16144000  0.83273000  0.10814000  1.0
  S  S297  1  0.18414000  0.71605000  0.37729000  1.0
  S  S298  1  0.81594000  0.28407000  0.62271000  1.0
  S  S299  1  0.23131000  0.56442000  0.30995000  1.0
  S  S300  1  0.76881000  0.43566000  0.69006000  1.0
  S  S301  1  0.16421000  0.41598000  0.45322000  1.0
  S  S302  1  0.83586000  0.58414000  0.54673000  1.0
  S  S303  1  0.11981000  0.56536000  0.52249000  1.0
  S  S304  1  0.88027000  0.43473000  0.47750000  1.0
  S  S305  1  0.59342000  0.87324000  0.98583000  1.0
  S  S306  1  0.40652000  0.12679000  0.01421000  1.0
  S  S307  1  0.58196000  0.99958000  0.07070000  1.0
  S  S308  1  0.41802000  0.00042000  0.92934000  1.0
  N  N309  1  0.05761000  0.52716000  0.07150000  1.0
  N  N310  1  0.94238000  0.47283000  0.92850000  1.0
  N  N311  1  0.12564000  0.28318000  0.25792000  1.0
  N  N312  1  0.87436000  0.71685000  0.74205000  1.0
  N  N313  1  0.52964000  0.81435000  0.23966000  1.0
  N  N314  1  0.47034000  0.18562000  0.76035000  1.0
  O  O315  1  0.34653000  0.37129000  0.57945000  1.0
  O  O316  1  0.65343000  0.62869000  0.42054000  1.0
  O  O317  1  0.43530000  0.63961000  0.34662000  1.0
  O  O318  1  0.56479000  0.36038000  0.65338000  1.0
  O  O319  1  0.46939000  0.13414000  0.45429000  1.0
  O  O320  1  0.53056000  0.86586000  0.54569000  1.0
  O  O321  1  0.51848000  0.17297000  0.34133000  1.0
  O  O322  1  0.48150000  0.82704000  0.65865000  1.0
  O  O323  1  0.71892000  0.05988000  0.31070000  1.0
  O  O324  1  0.28109000  0.94012000  0.68930000  1.0
  O  O325  1  0.59333000  0.98198000  0.39244000  1.0
  O  O326  1  0.40666000  0.01801000  0.60756000  1.0
  O  O327  1  0.37764000  0.95270000  0.49424000  1.0
  O  O328  1  0.62239000  0.04731000  0.50572000  1.0
  O  O329  1  0.36371000  0.02966000  0.39209000  1.0
  O  O330  1  0.63630000  0.97028000  0.60784000  1.0
  O  O331  1  0.66112000  0.65821000  0.96256000  1.0
  O  O332  1  0.33888000  0.34178000  0.03744000  1.0
  O  O333  1  0.26815000  0.61092000  0.09960000  1.0
  O  O334  1  0.73185000  0.38913000  0.90040000  1.0
  O  O335  1  0.62812000  0.30990000  0.21209000  1.0
  O  O336  1  0.37186000  0.69010000  0.78790000  1.0
  O  O337  1  0.74827000  0.41145000  0.15012000  1.0
  O  O338  1  0.25172000  0.58855000  0.84988000  1.0
  O  O339  1  0.92476000  0.49044000  0.16359000  1.0
  O  O340  1  0.07525000  0.50955000  0.83642000  1.0
  O  O341  1  0.82616000  0.21874000  0.21266000  1.0
  O  O342  1  0.17381000  0.78125000  0.78737000  1.0
  O  O343  1  0.94553000  0.29149000  0.12602000  1.0
  O  O344  1  0.05442000  0.70850000  0.87401000  1.0
  O  O345  1  0.96621000  0.30117000  0.25502000  1.0
  O  O346  1  0.03379000  0.69886000  0.74499000  1.0
  O  O347  1  0.52003000  0.92033000  0.29675000  1.0
  O  O348  1  0.48002000  0.07967000  0.70321000  1.0
  O  O349  1  0.10203000  0.15605000  0.93235000  1.0
  O  O350  1  0.89791000  0.84390000  0.06771000  1.0
  O  O351  1  0.56189000  0.86681000  0.76477000  1.0
  O  O352  1  0.43813000  0.13319000  0.23522000  1.0
  O  O353  1  0.39952000  0.88613000  0.77332000  1.0
  O  O354  1  0.60049000  0.11385000  0.22666000  1.0
  O  O355  1  0.92629000  0.75339000  0.56496000  1.0
  O  O356  1  0.07377000  0.24658000  0.43502000  1.0
  O  O357  1  0.24757000  0.61212000  0.70573000  1.0
  O  O358  1  0.75240000  0.38787000  0.29427000  1.0
  O  O359  1  0.30396000  0.75567000  0.65407000  1.0
  O  O360  1  0.69603000  0.24431000  0.34594000  1.0
  O  O361  1  0.06085000  0.01695000  0.33534000  1.0
  O  O362  1  0.93918000  0.98304000  0.66469000  1.0
