# generated using pymatgen
data_Zn4H24C44N4O15
_symmetry_space_group_name_H-M   'P 1'
_cell_length_a   15.60910000
_cell_length_b   19.10100000
_cell_length_c   19.33030000
_cell_angle_alpha   94.76120000
_cell_angle_beta   103.23400000
_cell_angle_gamma   96.69460000
_symmetry_Int_Tables_number   1
_chemical_formula_structural   Zn4H24C44N4O15
_chemical_formula_sum   'Zn4 H24 C44 N4 O15'
_cell_volume   5536.03085575
_cell_formula_units_Z   1
loop_
 _symmetry_equiv_pos_site_id
 _symmetry_equiv_pos_as_xyz
  1  'x, y, z'
loop_
 _atom_site_type_symbol
 _atom_site_label
 _atom_site_symmetry_multiplicity
 _atom_site_fract_x
 _atom_site_fract_y
 _atom_site_fract_z
 _atom_site_occupancy
  Zn  Zn0  1  0.43388000  0.55447000  0.54839000  1.0
  Zn  Zn1  1  0.57637000  0.45299000  0.56872000  1.0
  Zn  Zn2  1  0.57895000  0.55940000  0.45066000  1.0
  Zn  Zn3  1  0.42102000  0.43042000  0.42129000  1.0
  H  H4  1  0.84716000  0.55154000  0.67649000  1.0
  H  H5  1  0.34178000  0.42269000  0.06432000  1.0
  H  H6  1  0.15151000  0.54220000  0.67778000  1.0
  H  H7  1  0.35467000  0.42080000  0.19656000  1.0
  H  H8  1  0.63186000  0.47442000  0.78649000  1.0
  H  H9  1  0.58806000  0.56394000  0.10927000  1.0
  H  H10  1  0.64442000  0.47948000  0.91914000  1.0
  H  H11  1  0.59829000  0.56513000  0.24112000  1.0
  H  H12  1  0.84590000  0.50558000  0.45551000  1.0
  H  H13  1  0.15410000  0.42478000  0.33850000  1.0
  H  H14  1  0.23455000  0.51396000  0.58812000  1.0
  H  H15  1  0.47663000  0.90305000  0.61999000  1.0
  H  H16  1  0.56397000  0.23894000  0.59577000  1.0
  H  H17  1  0.54618000  0.04951000  0.59241000  1.0
  H  H18  1  0.01230000  0.55639000  0.71029000  1.0
  H  H19  1  0.90700000  0.45994000  0.38784000  1.0
  H  H20  1  0.01654000  0.39760000  0.26103000  1.0
  H  H21  1  0.47488000  0.77088000  0.61157000  1.0
  H  H22  1  0.45152000  0.21569000  0.36799000  1.0
  H  H23  1  0.56187000  0.90710000  0.42356000  1.0
  H  H24  1  0.45186000  0.08335000  0.36465000  1.0
  H  H25  1  0.56788000  0.77572000  0.41905000  1.0
  H  H26  1  0.37089000  0.53629000  0.75640000  1.0
  H  H27  1  0.37970000  0.53389000  0.88783000  1.0
  C  C28  1  0.50835000  0.31297000  0.48504000  1.0
  C  C29  1  0.88394000  0.51479000  0.51095000  1.0
  C  C30  1  0.88437000  0.54198000  0.63616000  1.0
  C  C31  1  0.52013000  0.68747000  0.51068000  1.0
  C  C32  1  0.16420000  0.47016000  0.44556000  1.0
  C  C33  1  0.52106000  0.76586000  0.51479000  1.0
  C  C34  1  0.54649000  0.80406000  0.46198000  1.0
  C  C35  1  0.54351000  0.87656000  0.46440000  1.0
  C  C36  1  0.51797000  0.91195000  0.52159000  1.0
  C  C37  1  0.49565000  0.87439000  0.57592000  1.0
  C  C38  1  0.49504000  0.80142000  0.57144000  1.0
  C  C39  1  0.02461000  0.43958000  0.35664000  1.0
  C  C40  1  0.53376000  0.13124000  0.54485000  1.0
  C  C41  1  0.53845000  0.20502000  0.54533000  1.0
  C  C42  1  0.50300000  0.08718000  0.47791000  1.0
  C  C43  1  0.49566000  0.50189000  0.68580000  1.0
  C  C44  1  0.50812000  0.23437000  0.48212000  1.0
  C  C45  1  0.47528000  0.19113000  0.41627000  1.0
  C  C46  1  0.47484000  0.11866000  0.41448000  1.0
  C  C47  1  0.47752000  0.49251000  0.22630000  1.0
  C  C48  1  0.54320000  0.53335000  0.20187000  1.0
  C  C49  1  0.53764000  0.53288000  0.12918000  1.0
  C  C50  1  0.97892000  0.46349000  0.40550000  1.0
  C  C51  1  0.46481000  0.49228000  0.07979000  1.0
  C  C52  1  0.39787000  0.45296000  0.10392000  1.0
  C  C53  1  0.40502000  0.45212000  0.17684000  1.0
  C  C54  1  0.43438000  0.52133000  0.86482000  1.0
  C  C55  1  0.48495000  0.49283000  0.30476000  1.0
  C  C56  1  0.42956000  0.52223000  0.79224000  1.0
  C  C57  1  0.51190000  0.50483000  0.91017000  1.0
  C  C58  1  0.50030000  0.50401000  0.76389000  1.0
  C  C59  1  0.57756000  0.48790000  0.80941000  1.0
  C  C60  1  0.58438000  0.49026000  0.88245000  1.0
  C  C61  1  0.02401000  0.48937000  0.47640000  1.0
  C  C62  1  0.74002000  0.52520000  0.54318000  1.0
  C  C63  1  0.26336000  0.47766000  0.45990000  1.0
  C  C64  1  0.97536000  0.54391000  0.65455000  1.0
  C  C65  1  0.83840000  0.52864000  0.56335000  1.0
  C  C66  1  0.11739000  0.44284000  0.37673000  1.0
  C  C67  1  0.11865000  0.49218000  0.49802000  1.0
  C  C68  1  0.97596000  0.51114000  0.52898000  1.0
  C  C69  1  0.02285000  0.52840000  0.60221000  1.0
  C  C70  1  0.11676000  0.52869000  0.62163000  1.0
  C  C71  1  0.16290000  0.51251000  0.57175000  1.0
  N  N72  1  0.51598000  0.98552000  0.52875000  1.0
  N  N73  1  0.49955000  0.01399000  0.47022000  1.0
  N  N74  1  0.45263000  0.48963000  0.00483000  1.0
  N  N75  1  0.52380000  0.50337000  0.98461000  1.0
  O  O76  1  0.50125000  0.49919000  0.49556000  1.0
  O  O77  1  0.69860000  0.50210000  0.58855000  1.0
  O  O78  1  0.29651000  0.43069000  0.42719000  1.0
  O  O79  1  0.70413000  0.54435000  0.48263000  1.0
  O  O80  1  0.30693000  0.53177000  0.50165000  1.0
  O  O81  1  0.55859000  0.10335000  0.60648000  1.0
  O  O82  1  0.97629000  0.41319000  0.28900000  1.0
  O  O83  1  0.44007000  0.53648000  0.64849000  1.0
  O  O84  1  0.42727000  0.45056000  0.32411000  1.0
  O  O85  1  0.56121000  0.35082000  0.53896000  1.0
  O  O86  1  0.56159000  0.65931000  0.46821000  1.0
  O  O87  1  0.45512000  0.33514000  0.43372000  1.0
  O  O88  1  0.47714000  0.65508000  0.55021000  1.0
  O  O89  1  0.54857000  0.46524000  0.66252000  1.0
  O  O90  1  0.54863000  0.53533000  0.34622000  1.0
