# generated using pymatgen
data_ZnH12C21NO6
_symmetry_space_group_name_H-M   'P 1'
_cell_length_a   10.95680000
_cell_length_b   14.80300000
_cell_length_c   16.16750000
_cell_angle_alpha   89.49500000
_cell_angle_beta   88.34880000
_cell_angle_gamma   89.90070000
_symmetry_Int_Tables_number   1
_chemical_formula_structural   ZnH12C21NO6
_chemical_formula_sum   'Zn2 H24 C42 N2 O12'
_cell_volume   2621.07004128
_cell_formula_units_Z   2
loop_
 _symmetry_equiv_pos_site_id
 _symmetry_equiv_pos_as_xyz
  1  'x, y, z'
loop_
 _atom_site_type_symbol
 _atom_site_label
 _atom_site_symmetry_multiplicity
 _atom_site_fract_x
 _atom_site_fract_y
 _atom_site_fract_z
 _atom_site_occupancy
  Zn  Zn0  1  0.49509000  0.59595000  0.49855000  1.0
  Zn  Zn1  1  0.49709000  0.40713000  0.50145000  1.0
  H  H2  1  0.29975000  0.23937000  0.21498000  1.0
  H  H3  1  0.69911000  0.72369000  0.81219000  1.0
  H  H4  1  0.31315000  0.40727000  0.20457000  1.0
  H  H5  1  0.80123000  0.57615000  0.83903000  1.0
  H  H6  1  0.20169000  0.50288000  0.30672000  1.0
  H  H7  1  0.91048000  0.49625000  0.72425000  1.0
  H  H8  1  0.05713000  0.26506000  0.42852000  1.0
  H  H9  1  0.81353000  0.70853000  0.55526000  1.0
  H  H10  1  0.17055000  0.16840000  0.32739000  1.0
  H  H11  1  0.70556000  0.78986000  0.66987000  1.0
  H  H12  1  0.56106000  0.64174000  0.91511000  1.0
  H  H13  1  0.48729000  0.36288000  0.08315000  1.0
  H  H14  1  0.58081000  0.64532000  0.06825000  1.0
  H  H15  1  0.46678000  0.35967000  0.93021000  1.0
  H  H16  1  0.50954000  0.09462000  0.62557000  1.0
  H  H17  1  0.48265000  0.90983000  0.37020000  1.0
  H  H18  1  0.51555000  0.95389000  0.69512000  1.0
  H  H19  1  0.47659000  0.05088000  0.30071000  1.0
  H  H20  1  0.92805000  0.44401000  0.27452000  1.0
  H  H21  1  0.80281000  0.50725000  0.31977000  1.0
  H  H22  1  0.77676000  0.39648000  0.28069000  1.0
  H  H23  1  0.06258000  0.71521000  0.62384000  1.0
  H  H24  1  0.19341000  0.69579000  0.55536000  1.0
  H  H25  1  0.21073000  0.69386000  0.66524000  1.0
  C  C26  1  0.48091000  0.49680000  0.66157000  1.0
  C  C27  1  0.52108000  0.51429000  0.33833000  1.0
  C  C28  1  0.86825000  0.49921000  0.50485000  1.0
  C  C29  1  0.12357000  0.49692000  0.49552000  1.0
  C  C30  1  0.93348000  0.54788000  0.56352000  1.0
  C  C31  1  0.05828000  0.44636000  0.43827000  1.0
  C  C32  1  0.55607000  0.58298000  0.03759000  1.0
  C  C33  1  0.49188000  0.42194000  0.96083000  1.0
  C  C34  1  0.53396000  0.50462000  0.08614000  1.0
  C  C35  1  0.51155000  0.50072000  0.91241000  1.0
  C  C36  1  0.50326000  0.42374000  0.04600000  1.0
  C  C37  1  0.54506000  0.58103000  0.95241000  1.0
  C  C38  1  0.53723000  0.50772000  0.17353000  1.0
  C  C39  1  0.49782000  0.49940000  0.82566000  1.0
  C  C40  1  0.48661000  0.49889000  0.75090000  1.0
  C  C41  1  0.53361000  0.51071000  0.24892000  1.0
  C  C42  1  0.50410000  0.95922000  0.57640000  1.0
  C  C43  1  0.48787000  0.04521000  0.41940000  1.0
  C  C44  1  0.49620000  0.90853000  0.50298000  1.0
  C  C45  1  0.49565000  0.09583000  0.49288000  1.0
  C  C46  1  0.48834000  0.95130000  0.42538000  1.0
  C  C47  1  0.50361000  0.05310000  0.57043000  1.0
  C  C48  1  0.26071000  0.49720000  0.49300000  1.0
  C  C49  1  0.73096000  0.49868000  0.50695000  1.0
  C  C50  1  0.49583000  0.81287000  0.50694000  1.0
  C  C51  1  0.49631000  0.19148000  0.48913000  1.0
  C  C52  1  0.25690000  0.37550000  0.25331000  1.0
  C  C53  1  0.80497000  0.60607000  0.77706000  1.0
  C  C54  1  0.19408000  0.42945000  0.31079000  1.0
  C  C55  1  0.86589000  0.56086000  0.71260000  1.0
  C  C56  1  0.12216000  0.39019000  0.37452000  1.0
  C  C57  1  0.86965000  0.59738000  0.63224000  1.0
  C  C58  1  0.11312000  0.29576000  0.37904000  1.0
  C  C59  1  0.81218000  0.68059000  0.61787000  1.0
  C  C60  1  0.17694000  0.24185000  0.32221000  1.0
  C  C61  1  0.75162000  0.72593000  0.68229000  1.0
  C  C62  1  0.24920000  0.28155000  0.25920000  1.0
  C  C63  1  0.74771000  0.68869000  0.76200000  1.0
  C  C64  1  0.93013000  0.44812000  0.44394000  1.0
  C  C65  1  0.06175000  0.54507000  0.55853000  1.0
  C  C66  1  0.84242000  0.43932000  0.31177000  1.0
  C  C67  1  0.14910000  0.67797000  0.61517000  1.0
  N  N68  1  0.49810000  0.26978000  0.48963000  1.0
  N  N69  1  0.49479000  0.73449000  0.50741000  1.0
  O  O70  1  0.48666000  0.57311000  0.62439000  1.0
  O  O71  1  0.52588000  0.43887000  0.37661000  1.0
  O  O72  1  0.47254000  0.41922000  0.62910000  1.0
  O  O73  1  0.50587000  0.59230000  0.36950000  1.0
  O  O74  1  0.31241000  0.57415000  0.48970000  1.0
  O  O75  1  0.67846000  0.42361000  0.52103000  1.0
  O  O76  1  0.31370000  0.42087000  0.49388000  1.0
  O  O77  1  0.67909000  0.57421000  0.49328000  1.0
  O  O78  1  0.51192000  0.91252000  0.64872000  1.0
  O  O79  1  0.48055000  0.09203000  0.34724000  1.0
  O  O80  1  0.86279000  0.39721000  0.39054000  1.0
  O  O81  1  0.12960000  0.58220000  0.62038000  1.0
