# generated using pymatgen
data_GdH9(CO2)4
_symmetry_space_group_name_H-M   'P 1'
_cell_length_a   6.81361000
_cell_length_b   10.77410000
_cell_length_c   11.15270000
_cell_angle_alpha   83.83420000
_cell_angle_beta   89.99990000
_cell_angle_gamma   89.99990000
_symmetry_Int_Tables_number   1
_chemical_formula_structural   GdH9(CO2)4
_chemical_formula_sum   'Gd4 H36 C16 O32'
_cell_volume   813.98933575
_cell_formula_units_Z   4
loop_
 _symmetry_equiv_pos_site_id
 _symmetry_equiv_pos_as_xyz
  1  'x, y, z'
loop_
 _atom_site_type_symbol
 _atom_site_label
 _atom_site_symmetry_multiplicity
 _atom_site_fract_x
 _atom_site_fract_y
 _atom_site_fract_z
 _atom_site_occupancy
  Gd  Gd0  1  0.97580000  0.84667000  0.09621000  1.0
  Gd  Gd1  1  0.47580000  0.15333000  0.40379000  1.0
  Gd  Gd2  1  0.02420000  0.15333000  0.90379000  1.0
  Gd  Gd3  1  0.52420000  0.84667000  0.59621000  1.0
  H  H4  1  0.82596000  0.62133000  0.26210000  1.0
  H  H5  1  0.32596000  0.37868000  0.23790000  1.0
  H  H6  1  0.17404000  0.37868000  0.73789000  1.0
  H  H7  1  0.67404000  0.62132000  0.76211000  1.0
  H  H8  1  0.01586000  0.56910000  0.20192000  1.0
  H  H9  1  0.51586000  0.43090000  0.29808000  1.0
  H  H10  1  0.98414000  0.43090000  0.79808000  1.0
  H  H11  1  0.48414000  0.56910000  0.70192000  1.0
  H  H12  1  0.89842000  0.97623000  0.32032000  1.0
  H  H13  1  0.39842000  0.02377000  0.17967000  1.0
  H  H14  1  0.10158000  0.02377000  0.67968000  1.0
  H  H15  1  0.60158000  0.97623000  0.82033000  1.0
  H  H16  1  0.82437000  0.83774000  0.34791000  1.0
  H  H17  1  0.32437000  0.16226000  0.15209000  1.0
  H  H18  1  0.17563000  0.16226000  0.65209000  1.0
  H  H19  1  0.67563000  0.83774000  0.84791000  1.0
  H  H20  1  0.20043000  0.52322000  0.94925000  1.0
  H  H21  1  0.70043000  0.47678000  0.55075000  1.0
  H  H22  1  0.79957000  0.47678000  0.05075000  1.0
  H  H23  1  0.29958000  0.52322000  0.44925000  1.0
  H  H24  1  0.25832000  0.65641000  0.84696000  1.0
  H  H25  1  0.75832000  0.34358000  0.65304000  1.0
  H  H26  1  0.74168000  0.34358000  0.15304000  1.0
  H  H27  1  0.24168000  0.65642000  0.34696000  1.0
  H  H28  1  0.50447000  0.70768000  0.96704000  1.0
  H  H29  1  0.00446000  0.29232000  0.53296000  1.0
  H  H30  1  0.49553000  0.29232000  0.03296000  1.0
  H  H31  1  0.99554000  0.70768000  0.46704000  1.0
  H  H32  1  0.46617000  0.61189000  0.10615000  1.0
  H  H33  1  0.96616000  0.38811000  0.39385000  1.0
  H  H34  1  0.53384000  0.38811000  0.89385000  1.0
  H  H35  1  0.03384000  0.61189000  0.60615000  1.0
  H  H36  1  0.84264000  0.09053000  0.14351000  1.0
  H  H37  1  0.34264000  0.90947000  0.35649000  1.0
  H  H38  1  0.15736000  0.90947000  0.85649000  1.0
  H  H39  1  0.65736000  0.09053000  0.64351000  1.0
  C  C40  1  0.45870000  0.80858000  0.11987000  1.0
  C  C41  1  0.95869000  0.19142000  0.38012000  1.0
  C  C42  1  0.54130000  0.19142000  0.88012000  1.0
  C  C43  1  0.04130000  0.80858000  0.61988000  1.0
  C  C44  1  0.95304000  0.64089000  0.89396000  1.0
  C  C45  1  0.45303000  0.35911000  0.60604000  1.0
  C  C46  1  0.04696000  0.35911000  0.10604000  1.0
  C  C47  1  0.54697000  0.64090000  0.39396000  1.0
  C  C48  1  0.16835000  0.62328000  0.92644000  1.0
  C  C49  1  0.66835000  0.37671000  0.57356000  1.0
  C  C50  1  0.83165000  0.37672000  0.07356000  1.0
  C  C51  1  0.33165000  0.62329000  0.42644000  1.0
  C  C52  1  0.41837000  0.69750000  0.05064000  1.0
  C  C53  1  0.91836000  0.30250000  0.44936000  1.0
  C  C54  1  0.58164000  0.30250000  0.94936000  1.0
  C  C55  1  0.08164000  0.69751000  0.55064000  1.0
  O  O56  1  0.95309000  0.64791000  0.22146000  1.0
  O  O57  1  0.45308000  0.35209000  0.27854000  1.0
  O  O58  1  0.04691000  0.35209000  0.77854000  1.0
  O  O59  1  0.54691000  0.64791000  0.72146000  1.0
  O  O60  1  0.85412000  0.72238000  0.94204000  1.0
  O  O61  1  0.35411000  0.27762000  0.55797000  1.0
  O  O62  1  0.14589000  0.27762000  0.05796000  1.0
  O  O63  1  0.64589000  0.72238000  0.44204000  1.0
  O  O64  1  0.21346000  0.69232000  0.02474000  1.0
  O  O65  1  0.71346000  0.30768000  0.47526000  1.0
  O  O66  1  0.78654000  0.30768000  0.97526000  1.0
  O  O67  1  0.28654000  0.69232000  0.52474000  1.0
  O  O68  1  0.63446000  0.83807000  0.13480000  1.0
  O  O69  1  0.13445000  0.16193000  0.36519000  1.0
  O  O70  1  0.36554000  0.16193000  0.86519000  1.0
  O  O71  1  0.86554000  0.83807000  0.63481000  1.0
  O  O72  1  0.88545000  0.57249000  0.81771000  1.0
  O  O73  1  0.38545000  0.42751000  0.68229000  1.0
  O  O74  1  0.11455000  0.42751000  0.18229000  1.0
  O  O75  1  0.61455000  0.57249000  0.31771000  1.0
  O  O76  1  0.93281000  0.88846000  0.31046000  1.0
  O  O77  1  0.43281000  0.11154000  0.18954000  1.0
  O  O78  1  0.06719000  0.11154000  0.68954000  1.0
  O  O79  1  0.56719000  0.88846000  0.81046000  1.0
  O  O80  1  0.91629000  0.05319000  0.08198000  1.0
  O  O81  1  0.41629000  0.94681000  0.41802000  1.0
  O  O82  1  0.08371000  0.94681000  0.91802000  1.0
  O  O83  1  0.58371000  0.05319000  0.58198000  1.0
  O  O84  1  0.31169000  0.86556000  0.16075000  1.0
  O  O85  1  0.81170000  0.13443000  0.33925000  1.0
  O  O86  1  0.68831000  0.13443000  0.83925000  1.0
  O  O87  1  0.18831000  0.86557000  0.66075000  1.0
