# generated using pymatgen
data_CdH18C24(BrN2)2
_symmetry_space_group_name_H-M   'P 1'
_cell_length_a   9.21062000
_cell_length_b   9.98750000
_cell_length_c   13.60320000
_cell_angle_alpha   101.94400000
_cell_angle_beta   106.64300000
_cell_angle_gamma   99.93500000
_symmetry_Int_Tables_number   1
_chemical_formula_structural   CdH18C24(BrN2)2
_chemical_formula_sum   'Cd2 H36 C48 Br4 N8'
_cell_volume   1136.56089035
_cell_formula_units_Z   2
loop_
 _symmetry_equiv_pos_site_id
 _symmetry_equiv_pos_as_xyz
  1  'x, y, z'
loop_
 _atom_site_type_symbol
 _atom_site_label
 _atom_site_symmetry_multiplicity
 _atom_site_fract_x
 _atom_site_fract_y
 _atom_site_fract_z
 _atom_site_occupancy
  Cd  Cd0  1  0.64445000  0.16156000  0.24503000  1.0
  Cd  Cd1  1  0.35555000  0.83845000  0.75497000  1.0
  H  H2  1  0.73078000  0.90531000  0.78061000  1.0
  H  H3  1  0.26922000  0.09470000  0.21940000  1.0
  H  H4  1  0.98731000  0.87806000  0.89817000  1.0
  H  H5  1  0.01269000  0.12194000  0.10184000  1.0
  H  H6  1  0.98322000  0.75720000  0.03910000  1.0
  H  H7  1  0.01679000  0.24279000  0.96091000  1.0
  H  H8  1  0.47895000  0.67874000  0.92524000  1.0
  H  H9  1  0.52106000  0.32126000  0.07476000  1.0
  H  H10  1  0.51831000  0.72561000  0.09545000  1.0
  H  H11  1  0.48169000  0.27439000  0.90454000  1.0
  H  H12  1  0.50513000  0.64017000  0.24962000  1.0
  H  H13  1  0.49487000  0.35982000  0.75038000  1.0
  H  H14  1  0.89856000  0.46048000  0.24553000  1.0
  H  H15  1  0.10144000  0.53952000  0.75447000  1.0
  H  H16  1  0.90935000  0.54278000  0.08813000  1.0
  H  H17  1  0.09065000  0.45721000  0.91187000  1.0
  H  H18  1  0.73733000  0.18653000  0.50229000  1.0
  H  H19  1  0.26268000  0.81347000  0.49772000  1.0
  H  H20  1  0.74583000  0.26133000  0.69209000  1.0
  H  H21  1  0.25418000  0.73867000  0.30791000  1.0
  H  H22  1  0.73734000  0.50488000  0.77276000  1.0
  H  H23  1  0.26265000  0.49512000  0.22724000  1.0
  H  H24  1  0.70672000  0.67808000  0.66542000  1.0
  H  H25  1  0.29327000  0.32192000  0.33458000  1.0
  H  H26  1  0.59438000  0.76343000  0.48344000  1.0
  H  H27  1  0.40562000  0.23657000  0.51656000  1.0
  H  H28  1  0.68815000  0.77662000  0.38928000  1.0
  H  H29  1  0.31185000  0.22338000  0.61072000  1.0
  H  H30  1  0.72776000  0.01341000  0.57433000  1.0
  H  H31  1  0.27223000  0.98658000  0.42567000  1.0
  H  H32  1  0.97094000  0.18140000  0.71383000  1.0
  H  H33  1  0.02905000  0.81860000  0.28616000  1.0
  H  H34  1  0.21139000  0.09272000  0.76930000  1.0
  H  H35  1  0.78861000  0.90729000  0.23069000  1.0
  H  H36  1  0.99632000  0.70167000  0.55316000  1.0
  H  H37  1  0.00368000  0.29834000  0.44684000  1.0
  C  C38  1  0.73548000  0.84614000  0.84014000  1.0
  C  C39  1  0.26452000  0.15386000  0.15986000  1.0
  C  C40  1  0.87591000  0.83299000  0.90600000  1.0
  C  C41  1  0.12409000  0.16701000  0.09401000  1.0
  C  C42  1  0.87313000  0.76271000  0.98413000  1.0
  C  C43  1  0.12687000  0.23728000  0.01587000  1.0
  C  C44  1  0.72955000  0.70622000  0.99443000  1.0
  C  C45  1  0.27045000  0.29377000  0.00557000  1.0
  C  C46  1  0.59417000  0.72125000  0.92202000  1.0
  C  C47  1  0.40583000  0.27874000  0.07798000  1.0
  C  C48  1  0.71679000  0.64265000  0.08114000  1.0
  C  C49  1  0.28320000  0.35734000  0.91886000  1.0
  C  C50  1  0.60049000  0.66536000  0.12648000  1.0
  C  C51  1  0.39951000  0.33464000  0.87352000  1.0
  C  C52  1  0.59454000  0.61902000  0.21497000  1.0
  C  C53  1  0.40547000  0.38098000  0.78503000  1.0
  C  C54  1  0.70386000  0.54769000  0.26044000  1.0
  C  C55  1  0.29615000  0.45231000  0.73956000  1.0
  C  C56  1  0.81534000  0.51841000  0.21247000  1.0
  C  C57  1  0.18466000  0.48159000  0.78752000  1.0
  C  C58  1  0.82164000  0.56595000  0.12413000  1.0
  C  C59  1  0.17836000  0.43404000  0.87587000  1.0
  C  C60  1  0.70552000  0.50748000  0.35805000  1.0
  C  C61  1  0.29449000  0.49252000  0.64196000  1.0
  C  C62  1  0.72136000  0.39202000  0.47926000  1.0
  C  C63  1  0.27864000  0.60798000  0.52074000  1.0
  C  C64  1  0.73406000  0.29329000  0.53874000  1.0
  C  C65  1  0.26594000  0.70671000  0.46127000  1.0
  C  C66  1  0.73920000  0.33653000  0.64418000  1.0
  C  C67  1  0.26080000  0.66348000  0.35582000  1.0
  C  C68  1  0.73084000  0.47407000  0.68961000  1.0
  C  C69  1  0.26915000  0.52593000  0.31039000  1.0
  C  C70  1  0.71480000  0.57254000  0.63068000  1.0
  C  C71  1  0.28520000  0.42746000  0.36932000  1.0
  C  C72  1  0.71039000  0.52878000  0.52542000  1.0
  C  C73  1  0.28961000  0.47122000  0.47458000  1.0
  C  C74  1  0.69985000  0.74819000  0.46441000  1.0
  C  C75  1  0.30015000  0.25181000  0.53559000  1.0
  C  C76  1  0.84384000  0.84562000  0.55085000  1.0
  C  C77  1  0.15616000  0.15439000  0.44915000  1.0
  C  C78  1  0.83764000  0.98203000  0.59785000  1.0
  C  C79  1  0.16236000  0.01797000  0.40215000  1.0
  C  C80  1  0.97083000  0.07397000  0.67611000  1.0
  C  C81  1  0.02917000  0.92603000  0.32389000  1.0
  C  C82  1  0.10534000  0.02572000  0.70696000  1.0
  C  C83  1  0.89466000  0.97429000  0.29304000  1.0
  C  C84  1  0.98470000  0.80706000  0.58605000  1.0
  C  C85  1  0.01530000  0.19295000  0.41395000  1.0
  Br  Br86  1  0.72461000  0.13953000  0.07405000  1.0
  Br  Br87  1  0.27539000  0.86048000  0.92595000  1.0
  Br  Br88  1  0.49907000  0.97016000  0.31704000  1.0
  Br  Br89  1  0.50090000  0.02984000  0.68295000  1.0
  N  N90  1  0.59673000  0.78918000  0.84727000  1.0
  N  N91  1  0.40327000  0.21082000  0.15273000  1.0
  N  N92  1  0.71744000  0.38181000  0.37488000  1.0
  N  N93  1  0.28257000  0.61819000  0.62512000  1.0
  N  N94  1  0.70017000  0.59948000  0.44707000  1.0
  N  N95  1  0.29984000  0.40052000  0.55293000  1.0
  N  N96  1  0.11195000  0.89449000  0.66295000  1.0
  N  N97  1  0.88804000  0.10552000  0.33705000  1.0
