# generated using pymatgen
data_Zn2H21C41SN2(O2F3)4
_symmetry_space_group_name_H-M   'P 1'
_cell_length_a   8.12637000
_cell_length_b   21.45740000
_cell_length_c   26.38290000
_cell_angle_alpha   100.63400000
_cell_angle_beta   89.99990000
_cell_angle_gamma   90.00000000
_symmetry_Int_Tables_number   1
_chemical_formula_structural   Zn2H21C41SN2(O2F3)4
_chemical_formula_sum   'Zn8 H84 C164 S4 N8 O32 F48'
_cell_volume   4521.39932652
_cell_formula_units_Z   4
loop_
 _symmetry_equiv_pos_site_id
 _symmetry_equiv_pos_as_xyz
  1  'x, y, z'
loop_
 _atom_site_type_symbol
 _atom_site_label
 _atom_site_symmetry_multiplicity
 _atom_site_fract_x
 _atom_site_fract_y
 _atom_site_fract_z
 _atom_site_occupancy
  Zn  Zn0  1  0.87428000  0.05668000  0.36123000  1.0
  Zn  Zn1  1  0.87428000  0.44331000  0.13877000  1.0
  Zn  Zn2  1  0.12572000  0.94331000  0.63877000  1.0
  Zn  Zn3  1  0.12572000  0.55669000  0.86123000  1.0
  Zn  Zn4  1  0.19645000  0.01599000  0.28855000  1.0
  Zn  Zn5  1  0.19645000  0.48401000  0.21145000  1.0
  Zn  Zn6  1  0.80354000  0.98401000  0.71145000  1.0
  Zn  Zn7  1  0.80354000  0.51599000  0.78855000  1.0
  H  H8  1  0.74525000  0.86415000  0.36721000  1.0
  H  H9  1  0.74524000  0.63585000  0.13279000  1.0
  H  H10  1  0.25476000  0.13585000  0.63279000  1.0
  H  H11  1  0.25476000  0.36415000  0.86722000  1.0
  H  H12  1  0.73561000  0.75133000  0.37740000  1.0
  H  H13  1  0.73561000  0.74867000  0.12260000  1.0
  H  H14  1  0.26440000  0.24867000  0.62261000  1.0
  H  H15  1  0.26439000  0.25133000  0.87740000  1.0
  H  H16  1  0.26418000  0.74026000  0.36241000  1.0
  H  H17  1  0.26418000  0.75974000  0.13759000  1.0
  H  H18  1  0.73583000  0.25974000  0.63759000  1.0
  H  H19  1  0.73582000  0.24026000  0.86241000  1.0
  H  H20  1  0.26824000  0.84932000  0.34415000  1.0
  H  H21  1  0.26824000  0.65068000  0.15585000  1.0
  H  H22  1  0.73176000  0.15067000  0.65585000  1.0
  H  H23  1  0.73176000  0.34933000  0.84416000  1.0
  H  H24  1  0.72391000  0.58802000  0.40180000  1.0
  H  H25  1  0.72390000  0.91198000  0.09820000  1.0
  H  H26  1  0.27610000  0.41197000  0.59820000  1.0
  H  H27  1  0.27610000  0.08802000  0.90180000  1.0
  H  H28  1  0.51965000  0.53456000  0.33970000  1.0
  H  H29  1  0.51964000  0.96544000  0.16030000  1.0
  H  H30  1  0.48036000  0.46544000  0.66030000  1.0
  H  H31  1  0.48036000  0.03456000  0.83970000  1.0
  H  H32  1  0.74042000  0.61414000  0.21873000  1.0
  H  H33  1  0.74043000  0.88587000  0.28127000  1.0
  H  H34  1  0.25957000  0.38586000  0.78127000  1.0
  H  H35  1  0.25958000  0.11414000  0.71874000  1.0
  H  H36  1  0.94483000  0.67096000  0.28060000  1.0
  H  H37  1  0.94483000  0.82904000  0.21939000  1.0
  H  H38  1  0.05518000  0.32903000  0.71940000  1.0
  H  H39  1  0.05518000  0.17097000  0.78061000  1.0
  H  H40  1  0.56881000  0.10893000  0.25037000  1.0
  H  H41  1  0.56881000  0.39107000  0.24963000  1.0
  H  H42  1  0.43118000  0.89107000  0.74963000  1.0
  H  H43  1  0.43117000  0.60893000  0.75037000  1.0
  H  H44  1  0.42004000  0.13709000  0.17593000  1.0
  H  H45  1  0.42004000  0.36290000  0.32407000  1.0
  H  H46  1  0.57995000  0.86291000  0.82407000  1.0
  H  H47  1  0.57996000  0.63709000  0.67593000  1.0
  H  H48  1  0.84752000  0.08374000  0.08020000  1.0
  H  H49  1  0.84752000  0.41626000  0.41980000  1.0
  H  H50  1  0.15247000  0.91626000  0.91980000  1.0
  H  H51  1  0.15247000  0.58374000  0.58020000  1.0
  H  H52  1  0.99617000  0.05950000  0.15564000  1.0
  H  H53  1  0.99616000  0.44050000  0.34437000  1.0
  H  H54  1  0.00383000  0.94049000  0.84436000  1.0
  H  H55  1  0.00383000  0.55950000  0.65564000  1.0
  H  H56  1  0.62757000  0.23547000  0.13381000  1.0
  H  H57  1  0.62756000  0.26453000  0.36619000  1.0
  H  H58  1  0.37244000  0.76453000  0.86619000  1.0
  H  H59  1  0.37244000  0.73547000  0.63381000  1.0
  H  H60  1  0.48758000  0.33977000  0.15504000  1.0
  H  H61  1  0.48758000  0.16023000  0.34495000  1.0
  H  H62  1  0.51243000  0.66023000  0.84495000  1.0
  H  H63  1  0.51243000  0.83977000  0.65505000  1.0
  H  H64  1  0.05254000  0.25880000  0.07665000  1.0
  H  H65  1  0.05253000  0.24120000  0.42336000  1.0
  H  H66  1  0.94748000  0.74120000  0.92336000  1.0
  H  H67  1  0.94748000  0.75880000  0.57665000  1.0
  H  H68  1  0.19148000  0.15555000  0.05348000  1.0
  H  H69  1  0.19146000  0.34445000  0.44652000  1.0
  H  H70  1  0.80853000  0.84445000  0.94652000  1.0
  H  H71  1  0.80853000  0.65555000  0.55348000  1.0
  H  H72  1  0.50432000  0.01926000  0.38868000  1.0
  H  H73  1  0.50431000  0.48074000  0.11132000  1.0
  H  H74  1  0.49568000  0.98074000  0.61132000  1.0
  H  H75  1  0.49568000  0.51926000  0.88868000  1.0
  H  H76  1  0.81424000  0.16991000  0.45632000  1.0
  H  H77  1  0.81424000  0.33009000  0.04367000  1.0
  H  H78  1  0.18576000  0.83008000  0.54367000  1.0
  H  H79  1  0.18575000  0.66992000  0.95632000  1.0
  H  H80  1  0.52549000  0.17586000  0.51413000  1.0
  H  H81  1  0.52548000  0.32414000  0.98587000  1.0
  H  H82  1  0.47452000  0.82414000  0.48587000  1.0
  H  H83  1  0.47451000  0.67586000  0.01413000  1.0
  H  H84  1  0.21349000  0.17111000  0.50582000  1.0
  H  H85  1  0.21347000  0.32889000  0.99418000  1.0
  H  H86  1  0.78652000  0.82889000  0.49418000  1.0
  H  H87  1  0.78652000  0.67111000  0.00582000  1.0
  H  H88  1  0.94869000  0.11342000  0.53126000  1.0
  H  H89  1  0.94868000  0.38658000  0.96874000  1.0
  H  H90  1  0.05132000  0.88659000  0.46874000  1.0
  H  H91  1  0.05132000  0.61341000  0.03126000  1.0
  C  C92  1  0.01429000  0.92940000  0.34501000  1.0
  C  C93  1  0.01429000  0.57060000  0.15498000  1.0
  C  C94  1  0.98571000  0.07060000  0.65499000  1.0
  C  C95  1  0.98570000  0.42940000  0.84502000  1.0
  C  C96  1  0.00773000  0.86341000  0.35523000  1.0
  C  C97  1  0.00772000  0.63659000  0.14477000  1.0
  C  C98  1  0.99228000  0.13659000  0.64477000  1.0
  C  C99  1  0.99227000  0.36342000  0.85523000  1.0
  C  C100  1  0.85782000  0.83617000  0.36553000  1.0
  C  C101  1  0.85781000  0.66383000  0.13447000  1.0
  C  C102  1  0.14219000  0.16383000  0.63447000  1.0
  C  C103  1  0.14218000  0.33618000  0.86553000  1.0
  C  C104  1  0.85346000  0.77339000  0.37206000  1.0
  C  C105  1  0.85345000  0.72660000  0.12793000  1.0
  C  C106  1  0.14656000  0.22660000  0.62794000  1.0
  C  C107  1  0.14655000  0.27340000  0.87206000  1.0
  C  C108  1  0.99894000  0.73789000  0.37160000  1.0
  C  C109  1  0.99893000  0.76211000  0.12839000  1.0
  C  C110  1  0.00107000  0.26211000  0.62839000  1.0
  C  C111  1  0.00107000  0.23789000  0.87161000  1.0
  C  C112  1  0.14912000  0.76619000  0.36290000  1.0
  C  C113  1  0.14912000  0.73381000  0.13710000  1.0
  C  C114  1  0.85089000  0.23380000  0.63710000  1.0
  C  C115  1  0.85088000  0.26620000  0.86290000  1.0
  C  C116  1  0.15275000  0.82794000  0.35325000  1.0
  C  C117  1  0.15274000  0.67206000  0.14675000  1.0
  C  C118  1  0.84726000  0.17206000  0.64675000  1.0
  C  C119  1  0.84725000  0.32794000  0.85325000  1.0
  C  C120  1  0.98226000  0.66962000  0.38152000  1.0
  C  C121  1  0.98225000  0.83038000  0.11848000  1.0
  C  C122  1  0.01776000  0.33038000  0.61848000  1.0
  C  C123  1  0.01776000  0.16962000  0.88152000  1.0
  C  C124  1  0.94047000  0.67623000  0.43999000  1.0
  C  C125  1  0.94046000  0.82377000  0.06000000  1.0
  C  C126  1  0.05954000  0.32376000  0.56000000  1.0
  C  C127  1  0.05954000  0.17624000  0.94000000  1.0
  C  C128  1  0.14433000  0.63019000  0.37042000  1.0
  C  C129  1  0.14431000  0.86981000  0.12958000  1.0
  C  C130  1  0.85568000  0.36981000  0.62958000  1.0
  C  C131  1  0.85569000  0.13019000  0.87043000  1.0
  C  C132  1  0.84941000  0.63404000  0.34583000  1.0
  C  C133  1  0.84940000  0.86596000  0.15417000  1.0
  C  C134  1  0.15060000  0.36596000  0.65417000  1.0
  C  C135  1  0.15060000  0.13404000  0.84583000  1.0
  C  C136  1  0.72978000  0.59497000  0.36201000  1.0
  C  C137  1  0.72977000  0.90503000  0.13799000  1.0
  C  C138  1  0.27023000  0.40503000  0.63799000  1.0
  C  C139  1  0.27023000  0.09498000  0.86202000  1.0
  C  C140  1  0.61429000  0.56416000  0.32700000  1.0
  C  C141  1  0.61428000  0.93584000  0.17300000  1.0
  C  C142  1  0.38572000  0.43584000  0.67300000  1.0
  C  C143  1  0.38572000  0.06417000  0.82700000  1.0
  C  C144  1  0.61851000  0.57063000  0.27518000  1.0
  C  C145  1  0.61850000  0.92937000  0.22481000  1.0
  C  C146  1  0.38149000  0.42937000  0.72482000  1.0
  C  C147  1  0.38150000  0.07063000  0.77519000  1.0
  C  C148  1  0.73925000  0.60905000  0.25901000  1.0
  C  C149  1  0.73925000  0.89095000  0.24099000  1.0
  C  C150  1  0.26075000  0.39094000  0.74099000  1.0
  C  C151  1  0.26076000  0.10906000  0.75901000  1.0
  C  C152  1  0.85280000  0.64072000  0.29385000  1.0
  C  C153  1  0.85279000  0.85927000  0.20615000  1.0
  C  C154  1  0.14721000  0.35927000  0.70615000  1.0
  C  C155  1  0.14722000  0.14073000  0.79385000  1.0
  C  C156  1  0.49479000  0.53814000  0.23686000  1.0
  C  C157  1  0.49480000  0.96186000  0.26314000  1.0
  C  C158  1  0.50520000  0.46186000  0.76314000  1.0
  C  C159  1  0.50521000  0.03814000  0.73686000  1.0
  C  C160  1  0.88086000  0.06568000  0.25233000  1.0
  C  C161  1  0.88085000  0.43433000  0.24767000  1.0
  C  C162  1  0.11914000  0.93432000  0.74767000  1.0
  C  C163  1  0.11913000  0.56567000  0.75233000  1.0
  C  C164  1  0.79254000  0.08349000  0.20765000  1.0
  C  C165  1  0.79254000  0.41651000  0.29235000  1.0
  C  C166  1  0.20745000  0.91651000  0.79235000  1.0
  C  C167  1  0.20745000  0.58349000  0.70765000  1.0
  C  C168  1  0.62995000  0.10521000  0.21324000  1.0
  C  C169  1  0.62994000  0.39479000  0.28676000  1.0
  C  C170  1  0.37005000  0.89479000  0.78675000  1.0
  C  C171  1  0.37004000  0.60521000  0.71324000  1.0
  C  C172  1  0.54654000  0.12030000  0.17122000  1.0
  C  C173  1  0.54654000  0.37970000  0.32878000  1.0
  C  C174  1  0.45345000  0.87970000  0.82878000  1.0
  C  C175  1  0.45345000  0.62030000  0.67122000  1.0
  C  C176  1  0.62279000  0.11302000  0.12277000  1.0
  C  C177  1  0.62278000  0.38699000  0.37723000  1.0
  C  C178  1  0.37721000  0.88698000  0.87723000  1.0
  C  C179  1  0.37721000  0.61301000  0.62277000  1.0
  C  C180  1  0.78540000  0.09099000  0.11731000  1.0
  C  C181  1  0.78540000  0.40901000  0.38269000  1.0
  C  C182  1  0.21459000  0.90901000  0.88269000  1.0
  C  C183  1  0.21459000  0.59099000  0.61731000  1.0
  C  C184  1  0.87008000  0.07694000  0.15966000  1.0
  C  C185  1  0.87008000  0.42306000  0.34034000  1.0
  C  C186  1  0.12991000  0.92306000  0.84034000  1.0
  C  C187  1  0.12991000  0.57694000  0.65966000  1.0
  C  C188  1  0.51702000  0.12591000  0.07752000  1.0
  C  C189  1  0.51702000  0.37409000  0.42248000  1.0
  C  C190  1  0.48298000  0.87409000  0.92248000  1.0
  C  C191  1  0.48298000  0.62591000  0.57752000  1.0
  C  C192  1  0.40217000  0.06692000  0.06292000  1.0
  C  C193  1  0.40216000  0.43308000  0.43708000  1.0
  C  C194  1  0.59784000  0.93308000  0.93708000  1.0
  C  C195  1  0.59783000  0.56692000  0.56292000  1.0
  C  C196  1  0.62247000  0.13402000  0.02975000  1.0
  C  C197  1  0.62247000  0.36598000  0.47025000  1.0
  C  C198  1  0.37753000  0.86598000  0.97025000  1.0
  C  C199  1  0.37753000  0.63402000  0.52975000  1.0
  C  C200  1  0.41992000  0.18799000  0.09226000  1.0
  C  C201  1  0.41990000  0.31201000  0.40774000  1.0
  C  C202  1  0.58009000  0.81201000  0.90773000  1.0
  C  C203  1  0.58009000  0.68799000  0.59226000  1.0
  C  C204  1  0.50188000  0.24051000  0.12084000  1.0
  C  C205  1  0.50188000  0.25949000  0.37916000  1.0
  C  C206  1  0.49812000  0.75949000  0.87916000  1.0
  C  C207  1  0.49812000  0.74051000  0.62084000  1.0
  C  C208  1  0.42394000  0.29894000  0.13294000  1.0
  C  C209  1  0.42393000  0.20106000  0.36706000  1.0
  C  C210  1  0.57607000  0.70106000  0.86706000  1.0
  C  C211  1  0.57607000  0.79894000  0.63294000  1.0
  C  C212  1  0.26165000  0.30574000  0.11686000  1.0
  C  C213  1  0.26164000  0.19426000  0.38314000  1.0
  C  C214  1  0.73836000  0.69426000  0.88314000  1.0
  C  C215  1  0.73837000  0.80573000  0.61686000  1.0
  C  C216  1  0.17913000  0.25345000  0.08865000  1.0
  C  C217  1  0.17912000  0.24655000  0.41134000  1.0
  C  C218  1  0.82088000  0.74656000  0.91135000  1.0
  C  C219  1  0.82088000  0.75344000  0.58866000  1.0
  C  C220  1  0.25791000  0.19509000  0.07610000  1.0
  C  C221  1  0.25789000  0.30491000  0.42390000  1.0
  C  C222  1  0.74210000  0.80492000  0.92390000  1.0
  C  C223  1  0.74211000  0.69508000  0.57610000  1.0
  C  C224  1  0.17738000  0.36807000  0.13119000  1.0
  C  C225  1  0.17738000  0.13192000  0.36881000  1.0
  C  C226  1  0.82263000  0.63193000  0.86882000  1.0
  C  C227  1  0.82263000  0.86807000  0.63118000  1.0
  C  C228  1  0.55258000  0.05947000  0.41597000  1.0
  C  C229  1  0.55257000  0.44052000  0.08403000  1.0
  C  C230  1  0.44742000  0.94052000  0.58403000  1.0
  C  C231  1  0.44743000  0.55948000  0.91597000  1.0
  C  C232  1  0.70727000  0.13930000  0.45175000  1.0
  C  C233  1  0.70727000  0.36070000  0.04825000  1.0
  C  C234  1  0.29273000  0.86069000  0.54825000  1.0
  C  C235  1  0.29272000  0.63931000  0.95175000  1.0
  C  C236  1  0.56610000  0.14291000  0.48035000  1.0
  C  C237  1  0.56609000  0.35709000  0.01965000  1.0
  C  C238  1  0.43391000  0.85708000  0.51965000  1.0
  C  C239  1  0.43389000  0.64292000  0.98035000  1.0
  C  C240  1  0.31242000  0.07766000  0.47442000  1.0
  C  C241  1  0.31241000  0.42233000  0.02558000  1.0
  C  C242  1  0.68758000  0.92233000  0.52558000  1.0
  C  C243  1  0.68757000  0.57767000  0.97442000  1.0
  C  C244  1  0.19710000  0.11992000  0.49862000  1.0
  C  C245  1  0.19709000  0.38008000  0.00138000  1.0
  C  C246  1  0.80290000  0.88008000  0.50138000  1.0
  C  C247  1  0.80290000  0.61992000  0.99862000  1.0
  C  C248  1  0.05413000  0.08870000  0.51156000  1.0
  C  C249  1  0.05412000  0.41130000  0.98845000  1.0
  C  C250  1  0.94588000  0.91130000  0.48845000  1.0
  C  C251  1  0.94587000  0.58870000  0.01155000  1.0
  C  C252  1  0.06097000  0.02333000  0.49693000  1.0
  C  C253  1  0.06096000  0.47667000  0.00307000  1.0
  C  C254  1  0.93903000  0.97667000  0.50308000  1.0
  C  C255  1  0.93903000  0.52333000  0.99693000  1.0
  S  S256  1  0.24850000  0.99977000  0.46780000  1.0
  S  S257  1  0.24849000  0.50022000  0.03221000  1.0
  S  S258  1  0.75150000  0.00023000  0.53220000  1.0
  S  S259  1  0.75149000  0.49977000  0.96780000  1.0
  N  N260  1  0.69747000  0.08710000  0.41229000  1.0
  N  N261  1  0.69747000  0.41290000  0.08771000  1.0
  N  N262  1  0.30252000  0.91290000  0.58771000  1.0
  N  N263  1  0.30253000  0.58710000  0.91229000  1.0
  N  N264  1  0.46881000  0.09210000  0.45734000  1.0
  N  N265  1  0.46880000  0.40789000  0.04266000  1.0
  N  N266  1  0.53120000  0.90789000  0.54266000  1.0
  N  N267  1  0.53119000  0.59211000  0.95734000  1.0
  O  O268  1  0.91302000  0.96944000  0.36972000  1.0
  O  O269  1  0.91302000  0.53056000  0.13028000  1.0
  O  O270  1  0.08697000  0.03056000  0.63028000  1.0
  O  O271  1  0.08697000  0.46944000  0.86973000  1.0
  O  O272  1  0.12075000  0.93963000  0.31246000  1.0
  O  O273  1  0.12076000  0.56038000  0.18754000  1.0
  O  O274  1  0.87924000  0.06037000  0.68754000  1.0
  O  O275  1  0.87924000  0.43963000  0.81246000  1.0
  O  O276  1  0.37989000  0.50806000  0.25700000  1.0
  O  O277  1  0.37989000  0.99193000  0.24300000  1.0
  O  O278  1  0.62011000  0.49193000  0.74301000  1.0
  O  O279  1  0.62011000  0.00807000  0.75700000  1.0
  O  O280  1  0.50520000  0.54187000  0.19018000  1.0
  O  O281  1  0.50521000  0.95814000  0.30982000  1.0
  O  O282  1  0.49478000  0.45813000  0.80982000  1.0
  O  O283  1  0.49480000  0.04186000  0.69018000  1.0
  O  O284  1  0.79690000  0.06745000  0.29349000  1.0
  O  O285  1  0.79690000  0.43254000  0.20650000  1.0
  O  O286  1  0.20310000  0.93255000  0.70651000  1.0
  O  O287  1  0.20310000  0.56746000  0.79349000  1.0
  O  O288  1  0.03163000  0.05015000  0.24595000  1.0
  O  O289  1  0.03161000  0.44987000  0.25405000  1.0
  O  O290  1  0.96837000  0.94986000  0.75404000  1.0
  O  O291  1  0.96838000  0.55014000  0.74595000  1.0
  O  O292  1  0.02730000  0.37147000  0.11765000  1.0
  O  O293  1  0.02730000  0.12853000  0.38235000  1.0
  O  O294  1  0.97271000  0.62853000  0.88235000  1.0
  O  O295  1  0.97271000  0.87147000  0.61765000  1.0
  O  O296  1  0.26191000  0.41358000  0.15606000  1.0
  O  O297  1  0.26191000  0.08642000  0.34395000  1.0
  O  O298  1  0.73810000  0.58642000  0.84395000  1.0
  O  O299  1  0.73810000  0.91358000  0.65605000  1.0
  F  F300  1  0.04260000  0.71877000  0.46961000  1.0
  F  F301  1  0.04260000  0.78124000  0.03039000  1.0
  F  F302  1  0.95740000  0.28123000  0.53039000  1.0
  F  F303  1  0.95740000  0.21877000  0.96961000  1.0
  F  F304  1  0.78433000  0.69846000  0.45050000  1.0
  F  F305  1  0.78433000  0.80153000  0.04949000  1.0
  F  F306  1  0.21567000  0.30153000  0.54949000  1.0
  F  F307  1  0.21567000  0.19847000  0.95051000  1.0
  F  F308  1  0.95267000  0.62101000  0.45807000  1.0
  F  F309  1  0.95265000  0.87900000  0.04193000  1.0
  F  F310  1  0.04733000  0.37899000  0.54193000  1.0
  F  F311  1  0.04736000  0.12101000  0.95807000  1.0
  F  F312  1  0.26786000  0.65212000  0.40427000  1.0
  F  F313  1  0.26784000  0.84789000  0.09573000  1.0
  F  F314  1  0.73215000  0.34788000  0.59574000  1.0
  F  F315  1  0.73216000  0.15212000  0.90427000  1.0
  F  F316  1  0.20157000  0.63178000  0.32229000  1.0
  F  F317  1  0.20155000  0.86822000  0.17771000  1.0
  F  F318  1  0.79845000  0.36822000  0.67771000  1.0
  F  F319  1  0.79845000  0.13178000  0.82230000  1.0
  F  F320  1  0.12019000  0.56841000  0.37338000  1.0
  F  F321  1  0.12016000  0.93159000  0.12662000  1.0
  F  F322  1  0.87983000  0.43158000  0.62662000  1.0
  F  F323  1  0.87983000  0.06841000  0.87338000  1.0
  F  F324  1  0.48785000  0.01219000  0.06030000  1.0
  F  F325  1  0.48785000  0.48781000  0.43971000  1.0
  F  F326  1  0.51214000  0.98781000  0.93970000  1.0
  F  F327  1  0.51215000  0.51219000  0.56030000  1.0
  F  F328  1  0.28239000  0.06690000  0.09918000  1.0
  F  F329  1  0.28238000  0.43310000  0.40083000  1.0
  F  F330  1  0.71761000  0.93310000  0.90082000  1.0
  F  F331  1  0.71762000  0.56690000  0.59917000  1.0
  F  F332  1  0.32431000  0.06417000  0.01679000  1.0
  F  F333  1  0.32430000  0.43583000  0.48321000  1.0
  F  F334  1  0.67569000  0.93583000  0.98321000  1.0
  F  F335  1  0.67569000  0.56417000  0.51679000  1.0
  F  F336  1  0.69883000  0.07991000  0.00649000  1.0
  F  F337  1  0.69883000  0.42009000  0.49351000  1.0
  F  F338  1  0.30117000  0.92009000  0.99351000  1.0
  F  F339  1  0.30118000  0.57991000  0.50649000  1.0
  F  F340  1  0.74228000  0.17851000  0.04402000  1.0
  F  F341  1  0.74228000  0.32149000  0.45598000  1.0
  F  F342  1  0.25772000  0.82149000  0.95598000  1.0
  F  F343  1  0.25773000  0.67851000  0.54402000  1.0
  F  F344  1  0.52991000  0.15458000  0.99319000  1.0
  F  F345  1  0.52992000  0.34541000  0.50681000  1.0
  F  F346  1  0.47009000  0.84541000  0.00681000  1.0
  F  F347  1  0.47008000  0.65458000  0.49319000  1.0
