# generated using pymatgen
data_LuH6(CO)8
_symmetry_space_group_name_H-M   'P 1'
_cell_length_a   8.72594000
_cell_length_b   8.72593000
_cell_length_c   12.47940000
_cell_angle_alpha   83.53690000
_cell_angle_beta   83.53660000
_cell_angle_gamma   87.27320000
_symmetry_Int_Tables_number   1
_chemical_formula_structural   LuH6(CO)8
_chemical_formula_sum   'Lu4 H24 C32 O32'
_cell_volume   937.57923348
_cell_formula_units_Z   4
loop_
 _symmetry_equiv_pos_site_id
 _symmetry_equiv_pos_as_xyz
  1  'x, y, z'
loop_
 _atom_site_type_symbol
 _atom_site_label
 _atom_site_symmetry_multiplicity
 _atom_site_fract_x
 _atom_site_fract_y
 _atom_site_fract_z
 _atom_site_occupancy
  Lu  Lu0  1  0.19280000  0.26575000  0.22242000  1.0
  Lu  Lu1  1  0.73425000  0.80720000  0.27758000  1.0
  Lu  Lu2  1  0.80720000  0.73425000  0.77758000  1.0
  Lu  Lu3  1  0.26574000  0.19280000  0.72242000  1.0
  H  H4  1  0.18002000  0.55157000  0.97700000  1.0
  H  H5  1  0.44843000  0.81998000  0.52300000  1.0
  H  H6  1  0.81999000  0.44842000  0.02299000  1.0
  H  H7  1  0.55157000  0.18002000  0.47701000  1.0
  H  H8  1  0.38156000  0.59531000  0.96546000  1.0
  H  H9  1  0.40469000  0.61845000  0.53454000  1.0
  H  H10  1  0.61845000  0.40469000  0.03454000  1.0
  H  H11  1  0.59531000  0.38155000  0.46546000  1.0
  H  H12  1  0.36405000  0.62246000  0.16039000  1.0
  H  H13  1  0.37754000  0.63596000  0.33961000  1.0
  H  H14  1  0.63595000  0.37754000  0.83961000  1.0
  H  H15  1  0.62246000  0.36404000  0.66039000  1.0
  H  H16  1  0.21011000  0.73839000  0.10575000  1.0
  H  H17  1  0.26161000  0.78989000  0.39425000  1.0
  H  H18  1  0.78989000  0.26161000  0.89424000  1.0
  H  H19  1  0.73840000  0.21010000  0.60575000  1.0
  H  H20  1  0.31504000  0.32022000  0.98985000  1.0
  H  H21  1  0.67978000  0.68496000  0.51015000  1.0
  H  H22  1  0.68496000  0.67978000  0.01015000  1.0
  H  H23  1  0.32022000  0.31504000  0.48985000  1.0
  H  H24  1  0.06942000  0.58769000  0.23827000  1.0
  H  H25  1  0.41231000  0.93058000  0.26173000  1.0
  H  H26  1  0.93058000  0.41231000  0.76173000  1.0
  H  H27  1  0.58769000  0.06942000  0.73827000  1.0
  C  C28  1  0.08009000  0.43330000  0.45478000  1.0
  C  C29  1  0.56670000  0.91991000  0.04522000  1.0
  C  C30  1  0.91992000  0.56670000  0.54522000  1.0
  C  C31  1  0.43330000  0.08008000  0.95478000  1.0
  C  C32  1  0.97131000  0.56359000  0.42857000  1.0
  C  C33  1  0.43642000  0.02869000  0.07142000  1.0
  C  C34  1  0.02869000  0.43642000  0.57142000  1.0
  C  C35  1  0.56359000  0.97130000  0.92858000  1.0
  C  C36  1  0.03135000  0.08926000  0.04138000  1.0
  C  C37  1  0.91073000  0.96865000  0.45862000  1.0
  C  C38  1  0.96865000  0.91073000  0.95862000  1.0
  C  C39  1  0.08927000  0.03135000  0.54138000  1.0
  C  C40  1  0.97539000  0.93185000  0.07378000  1.0
  C  C41  1  0.06814000  0.02461000  0.42622000  1.0
  C  C42  1  0.02461000  0.06815000  0.92622000  1.0
  C  C43  1  0.93185000  0.97538000  0.57378000  1.0
  C  C44  1  0.80524000  0.30860000  0.25872000  1.0
  C  C45  1  0.69141000  0.19476000  0.24128000  1.0
  C  C46  1  0.19476000  0.69141000  0.74128000  1.0
  C  C47  1  0.30859000  0.80525000  0.75871000  1.0
  C  C48  1  0.68399000  0.43186000  0.25093000  1.0
  C  C49  1  0.56814000  0.31601000  0.24907000  1.0
  C  C50  1  0.31601000  0.56814000  0.74907000  1.0
  C  C51  1  0.43185000  0.68400000  0.75093000  1.0
  C  C52  1  0.28507000  0.54249000  0.01911000  1.0
  C  C53  1  0.45751000  0.71494000  0.48089000  1.0
  C  C54  1  0.71493000  0.45751000  0.98089000  1.0
  C  C55  1  0.54249000  0.28507000  0.51912000  1.0
  C  C56  1  0.25655000  0.62008000  0.12194000  1.0
  C  C57  1  0.37993000  0.74346000  0.37806000  1.0
  C  C58  1  0.74345000  0.37992000  0.87806000  1.0
  C  C59  1  0.62007000  0.25654000  0.62195000  1.0
  O  O60  1  0.17887000  0.35177000  0.40259000  1.0
  O  O61  1  0.64823000  0.82113000  0.09741000  1.0
  O  O62  1  0.82114000  0.64823000  0.59741000  1.0
  O  O63  1  0.35177000  0.17886000  0.90259000  1.0
  O  O64  1  0.93974000  0.64251000  0.34195000  1.0
  O  O65  1  0.35749000  0.06026000  0.15805000  1.0
  O  O66  1  0.06026000  0.35750000  0.65805000  1.0
  O  O67  1  0.64251000  0.93973000  0.84195000  1.0
  O  O68  1  0.06921000  0.19846000  0.08910000  1.0
  O  O69  1  0.80154000  0.93079000  0.41091000  1.0
  O  O70  1  0.93079000  0.80154000  0.91090000  1.0
  O  O71  1  0.19845000  0.06921000  0.58909000  1.0
  O  O72  1  0.94611000  0.84823000  0.16223000  1.0
  O  O73  1  0.15177000  0.05389000  0.33777000  1.0
  O  O74  1  0.05389000  0.15177000  0.83778000  1.0
  O  O75  1  0.84823000  0.94611000  0.66223000  1.0
  O  O76  1  0.94346000  0.30439000  0.27780000  1.0
  O  O77  1  0.69562000  0.05655000  0.22220000  1.0
  O  O78  1  0.05654000  0.69562000  0.72219000  1.0
  O  O79  1  0.30438000  0.94346000  0.77780000  1.0
  O  O80  1  0.67705000  0.57657000  0.24339000  1.0
  O  O81  1  0.42342000  0.32295000  0.25661000  1.0
  O  O82  1  0.32294000  0.42343000  0.75661000  1.0
  O  O83  1  0.57658000  0.67705000  0.74339000  1.0
  O  O84  1  0.32285000  0.38240000  0.05132000  1.0
  O  O85  1  0.61760000  0.67715000  0.44868000  1.0
  O  O86  1  0.67716000  0.61760000  0.94868000  1.0
  O  O87  1  0.38240000  0.32285000  0.55132000  1.0
  O  O88  1  0.14649000  0.52783000  0.19227000  1.0
  O  O89  1  0.47217000  0.85351000  0.30773000  1.0
  O  O90  1  0.85351000  0.47217000  0.80773000  1.0
  O  O91  1  0.52783000  0.14649000  0.69227000  1.0
