# generated using pymatgen
data_H14PbC10(N2O3)2
_symmetry_space_group_name_H-M   'P 1'
_cell_length_a   8.19095000
_cell_length_b   8.44483000
_cell_length_c   11.29070000
_cell_angle_alpha   81.53240000
_cell_angle_beta   77.98280000
_cell_angle_gamma   66.43750000
_symmetry_Int_Tables_number   1
_chemical_formula_structural   H14PbC10(N2O3)2
_chemical_formula_sum   'H28 Pb2 C20 N8 O12'
_cell_volume   698.39980113
_cell_formula_units_Z   2
loop_
 _symmetry_equiv_pos_site_id
 _symmetry_equiv_pos_as_xyz
  1  'x, y, z'
loop_
 _atom_site_type_symbol
 _atom_site_label
 _atom_site_symmetry_multiplicity
 _atom_site_fract_x
 _atom_site_fract_y
 _atom_site_fract_z
 _atom_site_occupancy
  H  H0  1  0.92321000  0.99895000  0.78386000  1.0
  H  H1  1  0.07679000  0.00104000  0.21614000  1.0
  H  H2  1  0.92140000  0.21125000  0.77279000  1.0
  H  H3  1  0.07860000  0.78875000  0.22722000  1.0
  H  H4  1  0.98414000  0.07097000  0.90263000  1.0
  H  H5  1  0.01585000  0.92902000  0.09738000  1.0
  H  H6  1  0.30847000  0.18459000  0.78409000  1.0
  H  H7  1  0.69153000  0.81541000  0.21592000  1.0
  H  H8  1  0.60844000  0.27577000  0.88063000  1.0
  H  H9  1  0.39156000  0.72424000  0.11936000  1.0
  H  H10  1  0.50893000  0.12058000  0.90085000  1.0
  H  H11  1  0.49107000  0.87942000  0.09913000  1.0
  H  H12  1  0.67421000  0.09623000  0.98861000  1.0
  H  H13  1  0.32579000  0.90378000  0.01138000  1.0
  H  H14  1  0.15232000  0.28361000  0.02684000  1.0
  H  H15  1  0.84768000  0.71638000  0.97316000  1.0
  H  H16  1  0.19310000  0.81713000  0.63562000  1.0
  H  H17  1  0.80690000  0.18287000  0.36438000  1.0
  H  H18  1  0.57023000  0.36892000  0.13679000  1.0
  H  H19  1  0.42977000  0.63109000  0.86320000  1.0
  H  H20  1  0.01214000  0.18998000  0.47494000  1.0
  H  H21  1  0.98786000  0.81002000  0.52507000  1.0
  H  H22  1  0.83328000  0.15897000  0.55520000  1.0
  H  H23  1  0.16672000  0.84104000  0.44481000  1.0
  H  H24  1  0.66002000  0.53764000  0.30110000  1.0
  H  H25  1  0.33998000  0.46236000  0.69889000  1.0
  H  H26  1  0.47290000  0.70269000  0.34281000  1.0
  H  H27  1  0.52711000  0.29732000  0.65719000  1.0
  Pb  Pb28  1  0.71773000  0.55981000  0.54616000  1.0
  Pb  Pb29  1  0.28228000  0.44020000  0.45384000  1.0
  C  C30  1  0.99368000  0.07584000  0.80365000  1.0
  C  C31  1  0.00632000  0.92416000  0.19635000  1.0
  C  C32  1  0.18521000  0.01319000  0.74290000  1.0
  C  C33  1  0.81479000  0.98680000  0.25711000  1.0
  C  C34  1  0.32141000  0.07351000  0.74015000  1.0
  C  C35  1  0.67859000  0.92649000  0.25986000  1.0
  C  C36  1  0.47275000  0.96509000  0.66425000  1.0
  C  C37  1  0.52725000  0.03491000  0.33576000  1.0
  C  C38  1  0.65625000  0.96721000  0.62580000  1.0
  C  C39  1  0.34375000  0.03280000  0.37421000  1.0
  C  C40  1  0.55845000  0.19138000  0.94878000  1.0
  C  C41  1  0.44155000  0.80862000  0.05121000  1.0
  C  C42  1  0.41433000  0.29045000  0.04444000  1.0
  C  C43  1  0.58566000  0.70957000  0.95557000  1.0
  C  C44  1  0.23062000  0.32334000  0.07386000  1.0
  C  C45  1  0.76940000  0.67664000  0.92613000  1.0
  C  C46  1  0.16689000  0.42058000  0.17722000  1.0
  C  C47  1  0.83309000  0.57941000  0.82278000  1.0
  C  C48  1  0.98437000  0.48120000  0.25430000  1.0
  C  C49  1  0.01563000  0.51878000  0.74569000  1.0
  N  N50  1  0.43180000  0.84615000  0.62255000  1.0
  N  N51  1  0.56820000  0.15385000  0.37746000  1.0
  N  N52  1  0.25950000  0.87574000  0.67262000  1.0
  N  N53  1  0.74050000  0.12426000  0.32738000  1.0
  N  N54  1  0.30236000  0.44896000  0.20897000  1.0
  N  N55  1  0.69764000  0.55103000  0.79102000  1.0
  N  N56  1  0.44887000  0.36992000  0.12769000  1.0
  N  N57  1  0.55112000  0.63007000  0.87230000  1.0
  O  O58  1  0.77447000  0.84395000  0.56432000  1.0
  O  O59  1  0.22553000  0.15605000  0.43569000  1.0
  O  O60  1  0.68574000  0.09187000  0.65587000  1.0
  O  O61  1  0.31425000  0.90814000  0.34414000  1.0
  O  O62  1  0.97266000  0.54167000  0.35495000  1.0
  O  O63  1  0.02734000  0.45834000  0.64504000  1.0
  O  O64  1  0.85591000  0.46828000  0.21553000  1.0
  O  O65  1  0.14408000  0.53171000  0.78448000  1.0
  O  O66  1  0.87637000  0.23197000  0.48824000  1.0
  O  O67  1  0.12364000  0.76802000  0.51176000  1.0
  O  O68  1  0.54322000  0.57691000  0.36180000  1.0
  O  O69  1  0.45677000  0.42311000  0.63820000  1.0
