# generated using pymatgen
data_CuH12C11(NO)4
_symmetry_space_group_name_H-M   'P 1'
_cell_length_a   8.33407000
_cell_length_b   8.33411000
_cell_length_c   10.16330000
_cell_angle_alpha   69.58060000
_cell_angle_beta   69.58020000
_cell_angle_gamma   86.61740000
_symmetry_Int_Tables_number   1
_chemical_formula_structural   CuH12C11(NO)4
_chemical_formula_sum   'Cu2 H24 C22 N8 O8'
_cell_volume   618.40182304
_cell_formula_units_Z   2
loop_
 _symmetry_equiv_pos_site_id
 _symmetry_equiv_pos_as_xyz
  1  'x, y, z'
loop_
 _atom_site_type_symbol
 _atom_site_label
 _atom_site_symmetry_multiplicity
 _atom_site_fract_x
 _atom_site_fract_y
 _atom_site_fract_z
 _atom_site_occupancy
  Cu  Cu0  1  0.50000000  0.00000000  0.50000000  1.0
  Cu  Cu1  1  0.00000000  0.50000000  0.00000000  1.0
  H  H2  1  0.31517000  0.12450000  0.25387000  1.0
  H  H3  1  0.87550000  0.68483000  0.24613000  1.0
  H  H4  1  0.68483000  0.87550000  0.74613000  1.0
  H  H5  1  0.12450000  0.31518000  0.75387000  1.0
  H  H6  1  0.21114000  0.68574000  0.64977000  1.0
  H  H7  1  0.31425000  0.78885000  0.85024000  1.0
  H  H8  1  0.78886000  0.31425000  0.35023000  1.0
  H  H9  1  0.68576000  0.21115000  0.14976000  1.0
  H  H10  1  0.96359000  0.68942000  0.51914000  1.0
  H  H11  1  0.31056000  0.03639000  0.98087000  1.0
  H  H12  1  0.03641000  0.31058000  0.48086000  1.0
  H  H13  1  0.68944000  0.96361000  0.01913000  1.0
  H  H14  1  0.88853000  0.94257000  0.31157000  1.0
  H  H15  1  0.05743000  0.11146000  0.18842000  1.0
  H  H16  1  0.11147000  0.05743000  0.68843000  1.0
  H  H17  1  0.94257000  0.88854000  0.81157000  1.0
  H  H18  1  0.70360000  0.43394000  0.62071000  1.0
  H  H19  1  0.56605000  0.29641000  0.87929000  1.0
  H  H20  1  0.29640000  0.56606000  0.37929000  1.0
  H  H21  1  0.43395000  0.70359000  0.12071000  1.0
  H  H22  1  0.49016000  0.41937000  0.63234000  1.0
  H  H23  1  0.58062000  0.50984000  0.86765000  1.0
  H  H24  1  0.50984000  0.58063000  0.36766000  1.0
  H  H25  1  0.41938000  0.49016000  0.13235000  1.0
  C  C26  1  0.25788000  0.00491000  0.34472000  1.0
  C  C27  1  0.99510000  0.74213000  0.15528000  1.0
  C  C28  1  0.74212000  0.99509000  0.65528000  1.0
  C  C29  1  0.00490000  0.25788000  0.84472000  1.0
  C  C30  1  0.19491000  0.77681000  0.54939000  1.0
  C  C31  1  0.22319000  0.80510000  0.95061000  1.0
  C  C32  1  0.80509000  0.22319000  0.45061000  1.0
  C  C33  1  0.77681000  0.19490000  0.04939000  1.0
  C  C34  1  0.07434000  0.77567000  0.48592000  1.0
  C  C35  1  0.22433000  0.92565000  0.01409000  1.0
  C  C36  1  0.92566000  0.22433000  0.51408000  1.0
  C  C37  1  0.77568000  0.07435000  0.98591000  1.0
  C  C38  1  0.02669000  0.97331000  0.25000000  1.0
  C  C39  1  0.97331000  0.02669000  0.75000000  1.0
  C  C40  1  0.59009000  0.67091000  0.57623000  1.0
  C  C41  1  0.32911000  0.40990000  0.92376000  1.0
  C  C42  1  0.40991000  0.32909000  0.42377000  1.0
  C  C43  1  0.67089000  0.59010000  0.07624000  1.0
  C  C44  1  0.57700000  0.48016000  0.66486000  1.0
  C  C45  1  0.51982000  0.42300000  0.83515000  1.0
  C  C46  1  0.42300000  0.51984000  0.33514000  1.0
  C  C47  1  0.48018000  0.57701000  0.16485000  1.0
  N  N48  1  0.30763000  0.92080000  0.46047000  1.0
  N  N49  1  0.07920000  0.69237000  0.03953000  1.0
  N  N50  1  0.69237000  0.07920000  0.53953000  1.0
  N  N51  1  0.92080000  0.30763000  0.96047000  1.0
  N  N52  1  0.11630000  0.92010000  0.35673000  1.0
  N  N53  1  0.07989000  0.88370000  0.14327000  1.0
  N  N54  1  0.88370000  0.07989000  0.64327000  1.0
  N  N55  1  0.92011000  0.11630000  0.85672000  1.0
  O  O56  1  0.50041000  0.76813000  0.64558000  1.0
  O  O57  1  0.23190000  0.49959000  0.85440000  1.0
  O  O58  1  0.49959000  0.23187000  0.35441000  1.0
  O  O59  1  0.76810000  0.50041000  0.14561000  1.0
  O  O60  1  0.68275000  0.72637000  0.43946000  1.0
  O  O61  1  0.27362000  0.31723000  0.06055000  1.0
  O  O62  1  0.31725000  0.27363000  0.56053000  1.0
  O  O63  1  0.72638000  0.68277000  0.93945000  1.0
