# generated using pymatgen
data_Zr3H5C27S5Cl5O18
_symmetry_space_group_name_H-M   'P 1'
_cell_length_a   16.44800000
_cell_length_b   16.45340000
_cell_length_c   16.45350833
_cell_angle_alpha   88.80629521
_cell_angle_beta   60.30082847
_cell_angle_gamma   60.30720000
_symmetry_Int_Tables_number   1
_chemical_formula_structural   Zr3H5C27S5Cl5O18
_chemical_formula_sum   'Zr6 H10 C54 S10 Cl10 O36'
_cell_volume   3207.68317269
_cell_formula_units_Z   2
loop_
 _symmetry_equiv_pos_site_id
 _symmetry_equiv_pos_as_xyz
  1  'x, y, z'
loop_
 _atom_site_type_symbol
 _atom_site_label
 _atom_site_symmetry_multiplicity
 _atom_site_fract_x
 _atom_site_fract_y
 _atom_site_fract_z
 _atom_site_occupancy
  Zr  Zr0  1  0.51399000  0.09740000  0.59761000  1.0
  Zr  Zr1  1  0.49153000  0.89688000  0.39720000  1.0
  Zr  Zr2  1  0.29157000  0.10505000  0.60571000  1.0
  Zr  Zr3  1  0.71409000  0.88867000  0.38948000  1.0
  Zr  Zr4  1  0.50296000  0.10604000  0.38826000  1.0
  Zr  Zr5  1  0.50280000  0.88792000  0.60663000  1.0
  H  H6  1  0.34556000  0.24680000  0.57555000  1.0
  H  H7  1  0.66023000  0.91876000  0.24763000  1.0
  H  H8  1  0.32825000  0.91678000  0.58851000  1.0
  H  H9  1  0.67722000  0.90607000  0.57792000  1.0
  H  H10  1  0.03012000  0.36560000  0.86508000  1.0
  H  H11  1  0.30701000  0.34979000  0.84548000  1.0
  H  H12  1  0.97506000  0.62934000  0.12879000  1.0
  H  H13  1  0.69803000  0.64916000  0.14477000  1.0
  H  H14  1  0.89361000  0.36710000  0.99397000  1.0
  H  H15  1  0.11080000  0.50021000  0.12782000  1.0
  C  C16  1  0.52056000  0.26085000  0.48308000  1.0
  C  C17  1  0.48475000  0.01142000  0.23382000  1.0
  C  C18  1  0.49882000  0.72653000  0.50459000  1.0
  C  C19  1  0.50585000  0.99055000  0.76842000  1.0
  C  C20  1  0.25368000  0.25976000  0.76389000  1.0
  C  C21  1  0.78015000  0.99597000  0.48838000  1.0
  C  C22  1  0.75160000  0.73049000  0.23493000  1.0
  C  C23  1  0.22533000  0.00628000  0.49860000  1.0
  C  C24  1  0.22995000  0.26872000  0.49723000  1.0
  C  C25  1  0.23141000  0.00273000  0.77632000  1.0
  C  C26  1  0.77428000  0.71831000  0.49204000  1.0
  C  C27  1  0.77600000  0.99724000  0.22595000  1.0
  C  C28  1  0.50957000  0.57662000  0.56432000  1.0
  C  C29  1  0.51525000  0.40831000  0.42080000  1.0
  C  C30  1  0.50430000  0.63492000  0.50205000  1.0
  C  C31  1  0.51989000  0.35025000  0.48334000  1.0
  C  C32  1  0.51168000  0.49082000  0.45032000  1.0
  C  C33  1  0.51375000  0.49376000  0.53448000  1.0
  C  C34  1  0.48869000  0.07449000  0.08708000  1.0
  C  C35  1  0.49395000  0.93135000  0.91882000  1.0
  C  C36  1  0.48438000  0.01173000  0.14492000  1.0
  C  C37  1  0.49950000  0.99352000  0.86044000  1.0
  C  C38  1  0.48974000  0.96114000  0.00172000  1.0
  C  C39  1  0.49190000  0.04524000  0.00470000  1.0
  C  C40  1  0.02472000  0.07199000  0.91846000  1.0
  C  C41  1  0.98359000  0.93072000  0.08772000  1.0
  C  C42  1  0.14137000  0.00471000  0.86608000  1.0
  C  C43  1  0.86685000  0.99771000  0.13944000  1.0
  C  C44  1  0.04113000  0.95813000  0.00730000  1.0
  C  C45  1  0.96727000  0.04518000  0.99942000  1.0
  C  C46  1  0.02242000  0.40759000  0.56456000  1.0
  C  C47  1  0.98108000  0.57667000  0.42315000  1.0
  C  C48  1  0.13913000  0.35565000  0.49723000  1.0
  C  C49  1  0.86443000  0.62896000  0.49041000  1.0
  C  C50  1  0.03857000  0.49588000  0.45007000  1.0
  C  C51  1  0.96481000  0.48811000  0.53727000  1.0
  C  C52  1  0.05858000  0.39431000  0.89686000  1.0
  C  C53  1  0.21617000  0.38528000  0.88492000  1.0
  C  C54  1  0.14367000  0.46585000  0.96657000  1.0
  C  C55  1  0.02402000  0.51365000  0.01748000  1.0
  C  C56  1  0.94651000  0.59760000  0.10017000  1.0
  C  C57  1  0.78886000  0.60970000  0.10927000  1.0
  C  C58  1  0.86126000  0.52813000  0.02861000  1.0
  C  C59  1  0.98094000  0.47704000  0.98082000  1.0
  C  C60  1  0.17353000  0.34831000  0.85115000  1.0
  C  C61  1  0.83156000  0.64336000  0.14628000  1.0
  C  C62  1  0.15373000  0.94037000  0.42701000  1.0
  C  C63  1  0.85177000  0.06779000  0.55401000  1.0
  C  C64  1  0.13920000  0.00595000  0.49336000  1.0
  C  C65  1  0.86628000  0.00117000  0.48873000  1.0
  C  C66  1  0.95684000  0.04574000  0.53104000  1.0
  C  C67  1  0.04868000  0.96335000  0.44902000  1.0
  C  C68  1  0.80711000  0.50071000  0.99307000  1.0
  C  C69  1  0.19735000  0.50160000  0.99445000  1.0
  S  S70  1  0.50437000  0.58877000  0.40748000  1.0
  S  S71  1  0.52010000  0.39625000  0.57774000  1.0
  S  S72  1  0.48379000  0.91757000  0.09900000  1.0
  S  S73  1  0.49934000  0.08809000  0.90671000  1.0
  S  S74  1  0.18041000  0.90907000  0.91633000  1.0
  S  S75  1  0.82792000  0.09390000  0.08977000  1.0
  S  S76  1  0.17793000  0.40535000  0.40103000  1.0
  S  S77  1  0.82548000  0.57896000  0.58633000  1.0
  S  S78  1  0.99786000  0.09554000  0.58160000  1.0
  S  S79  1  0.00763000  0.91254000  0.39949000  1.0
  Cl  Cl80  1  0.51064000  0.59760000  0.66471000  1.0
  Cl  Cl81  1  0.51336000  0.38765000  0.32070000  1.0
  Cl  Cl82  1  0.49062000  0.17455000  0.10781000  1.0
  Cl  Cl83  1  0.49280000  0.83102000  0.89783000  1.0
  Cl  Cl84  1  0.95301000  0.17548000  0.89357000  1.0
  Cl  Cl85  1  0.05495000  0.82684000  0.11213000  1.0
  Cl  Cl86  1  0.95118000  0.38326000  0.66856000  1.0
  Cl  Cl87  1  0.05273000  0.60133000  0.31945000  1.0
  Cl  Cl88  1  0.27779000  0.84278000  0.33058000  1.0
  Cl  Cl89  1  0.72773000  0.16473000  0.65112000  1.0
  O  O90  1  0.52326000  0.22413000  0.55176000  1.0
  O  O91  1  0.48237000  0.94259000  0.27038000  1.0
  O  O92  1  0.49325000  0.76456000  0.43729000  1.0
  O  O93  1  0.51169000  0.05769000  0.73024000  1.0
  O  O94  1  0.21272000  0.22915000  0.73408000  1.0
  O  O95  1  0.81285000  0.92697000  0.42199000  1.0
  O  O96  1  0.79271000  0.76018000  0.26544000  1.0
  O  O97  1  0.19264000  0.07269000  0.56758000  1.0
  O  O98  1  0.33149000  0.23657000  0.42730000  1.0
  O  O99  1  0.33292000  0.93145000  0.74226000  1.0
  O  O100  1  0.67274000  0.75224000  0.56319000  1.0
  O  O101  1  0.67446000  0.06701000  0.25791000  1.0
  O  O102  1  0.20072000  0.07165000  0.73872000  1.0
  O  O103  1  0.80491000  0.75577000  0.42295000  1.0
  O  O104  1  0.80600000  0.92631000  0.26157000  1.0
  O  O105  1  0.19990000  0.23290000  0.56798000  1.0
  O  O106  1  0.35836000  0.22230000  0.72556000  1.0
  O  O107  1  0.32752000  0.93782000  0.43329000  1.0
  O  O108  1  0.64688000  0.76882000  0.27254000  1.0
  O  O109  1  0.67796000  0.06132000  0.55681000  1.0
  O  O110  1  0.50604000  0.92182000  0.73337000  1.0
  O  O111  1  0.51603000  0.22798000  0.41672000  1.0
  O  O112  1  0.48984000  0.07753000  0.26640000  1.0
  O  O113  1  0.49917000  0.76137000  0.57304000  1.0
  O  O114  1  0.62821000  0.93102000  0.55450000  1.0
  O  O115  1  0.37733000  0.94012000  0.56352000  1.0
  O  O116  1  0.61541000  0.94099000  0.31866000  1.0
  O  O117  1  0.39037000  0.17578000  0.55329000  1.0
  O  O118  1  0.41051000  0.04576000  0.45560000  1.0
  O  O119  1  0.59521000  0.03878000  0.44870000  1.0
  O  O120  1  0.58569000  0.86531000  0.45644000  1.0
  O  O121  1  0.41990000  0.03812000  0.62916000  1.0
  O  O122  1  0.83934000  0.40530000  0.97692000  1.0
  O  O123  1  0.73519000  0.55989000  0.98084000  1.0
  O  O124  1  0.16485000  0.51755000  0.08995000  1.0
  O  O125  1  0.26905000  0.51424000  0.93562000  1.0
