# generated using pymatgen
data_CuH13C7N2O5
_symmetry_space_group_name_H-M   'P 1'
_cell_length_a   7.50281000
_cell_length_b   8.71731014
_cell_length_c   8.81327000
_cell_angle_alpha   76.68787497
_cell_angle_beta   86.93920000
_cell_angle_gamma   65.01805270
_symmetry_Int_Tables_number   1
_chemical_formula_structural   CuH13C7N2O5
_chemical_formula_sum   'Cu2 H26 C14 N4 O10'
_cell_volume   507.82805187
_cell_formula_units_Z   2
loop_
 _symmetry_equiv_pos_site_id
 _symmetry_equiv_pos_as_xyz
  1  'x, y, z'
loop_
 _atom_site_type_symbol
 _atom_site_label
 _atom_site_symmetry_multiplicity
 _atom_site_fract_x
 _atom_site_fract_y
 _atom_site_fract_z
 _atom_site_occupancy
  Cu  Cu0  1  0.50000000  0.00000000  0.00000000  1.0
  Cu  Cu1  1  0.50000000  0.50000000  0.00000000  1.0
  H  H2  1  0.67781000  0.09147000  0.17038000  1.0
  H  H3  1  0.32219000  0.90853000  0.82961000  1.0
  H  H4  1  0.82000000  0.90088000  0.13039000  1.0
  H  H5  1  0.18001000  0.09911000  0.86961000  1.0
  H  H6  1  0.84240000  0.32156000  0.95232000  1.0
  H  H7  1  0.15761000  0.67844000  0.04769000  1.0
  H  H8  1  0.70119000  0.27343000  0.85115000  1.0
  H  H9  1  0.29881000  0.72657000  0.14886000  1.0
  H  H10  1  0.22452000  0.30577000  0.01209000  1.0
  H  H11  1  0.77547000  0.69423000  0.98791000  1.0
  H  H12  1  0.30904000  0.38409000  0.85733000  1.0
  H  H13  1  0.69095000  0.61591000  0.14267000  1.0
  H  H14  1  0.53445000  0.96008000  0.37863000  1.0
  H  H15  1  0.46555000  0.03992000  0.62137000  1.0
  H  H16  1  0.79560000  0.86055000  0.40887000  1.0
  H  H17  1  0.20439000  0.13946000  0.59113000  1.0
  H  H18  1  0.67392000  0.75379000  0.33492000  1.0
  H  H19  1  0.32608000  0.24621000  0.66508000  1.0
  H  H20  1  0.31219000  0.79147000  0.41866000  1.0
  H  H21  1  0.68782000  0.20852000  0.58134000  1.0
  H  H22  1  0.78848000  0.58355000  0.75291000  1.0
  H  H23  1  0.21150000  0.41646000  0.24709000  1.0
  H  H24  1  0.90092000  0.39456000  0.67566000  1.0
  H  H25  1  0.09908000  0.60544000  0.32434000  1.0
  H  H26  1  0.64411000  0.52608000  0.64183000  1.0
  H  H27  1  0.35589000  0.47391000  0.35817000  1.0
  C  C28  1  0.67261000  0.88034000  0.33272000  1.0
  C  C29  1  0.32739000  0.11966000  0.66728000  1.0
  C  C30  1  0.14543000  0.08009000  0.19241000  1.0
  C  C31  1  0.85455000  0.91993000  0.80758000  1.0
  C  C32  1  0.06469000  0.03874000  0.34883000  1.0
  C  C33  1  0.93531000  0.96126000  0.65116000  1.0
  C  C34  1  0.17401000  0.88191000  0.45473000  1.0
  C  C35  1  0.82598000  0.11809000  0.54526000  1.0
  C  C36  1  0.88776000  0.15847000  0.39514000  1.0
  C  C37  1  0.11225000  0.84152000  0.60486000  1.0
  C  C38  1  0.75586000  0.32690000  0.28752000  1.0
  C  C39  1  0.24415000  0.67310000  0.71248000  1.0
  C  C40  1  0.76738000  0.47482000  0.72772000  1.0
  C  C41  1  0.23262000  0.52518000  0.27228000  1.0
  N  N42  1  0.68649000  0.96928000  0.17153000  1.0
  N  N43  1  0.31351000  0.03072000  0.82847000  1.0
  N  N44  1  0.72446000  0.37492000  0.87272000  1.0
  N  N45  1  0.27555000  0.62508000  0.12728000  1.0
  O  O46  1  0.29993000  0.95668000  0.15816000  1.0
  O  O47  1  0.70007000  0.04333000  0.84184000  1.0
  O  O48  1  0.06159000  0.23234000  0.10747000  1.0
  O  O49  1  0.93841000  0.76766000  0.89254000  1.0
  O  O50  1  0.74587000  0.46728000  0.30981000  1.0
  O  O51  1  0.25413000  0.53272000  0.69019000  1.0
  O  O52  1  0.65321000  0.30884000  0.18585000  1.0
  O  O53  1  0.34680000  0.69116000  0.81416000  1.0
  O  O54  1  0.34662000  0.31019000  0.96609000  1.0
  O  O55  1  0.65339000  0.68980000  0.03391000  1.0
