# generated using pymatgen
data_CdH10C14N2O5
_symmetry_space_group_name_H-M   'P 1'
_cell_length_a   11.06350000
_cell_length_b   15.90131835
_cell_length_c   15.90530000
_cell_angle_alpha   114.78600178
_cell_angle_beta   103.41300000
_cell_angle_gamma   103.38229355
_symmetry_Int_Tables_number   1
_chemical_formula_structural   CdH10C14N2O5
_chemical_formula_sum   'Cd6 H60 C84 N12 O30'
_cell_volume   2293.53127939
_cell_formula_units_Z   6
loop_
 _symmetry_equiv_pos_site_id
 _symmetry_equiv_pos_as_xyz
  1  'x, y, z'
loop_
 _atom_site_type_symbol
 _atom_site_label
 _atom_site_symmetry_multiplicity
 _atom_site_fract_x
 _atom_site_fract_y
 _atom_site_fract_z
 _atom_site_occupancy
  Cd  Cd0  1  0.46718000  0.61508000  0.24109000  1.0
  Cd  Cd1  1  0.22632000  0.75909000  0.37409000  1.0
  Cd  Cd2  1  0.85237000  0.62606000  0.38498000  1.0
  Cd  Cd3  1  0.53281000  0.38492000  0.75890000  1.0
  Cd  Cd4  1  0.77369000  0.24092000  0.62591000  1.0
  Cd  Cd5  1  0.14764000  0.37395000  0.61503000  1.0
  H  H6  1  0.30974000  0.26599000  0.04245000  1.0
  H  H7  1  0.26736000  0.95769000  0.22342000  1.0
  H  H8  1  0.04377000  0.77684000  0.73433000  1.0
  H  H9  1  0.69026000  0.73401000  0.95755000  1.0
  H  H10  1  0.73265000  0.04231000  0.77658000  1.0
  H  H11  1  0.95624000  0.22316000  0.26567000  1.0
  H  H12  1  0.28918000  0.09892000  0.91132000  1.0
  H  H13  1  0.37793000  0.08880000  0.18745000  1.0
  H  H14  1  0.19035000  0.81279000  0.90136000  1.0
  H  H15  1  0.71082000  0.90108000  0.08867000  1.0
  H  H16  1  0.62207000  0.91120000  0.81255000  1.0
  H  H17  1  0.80964000  0.18720000  0.09863000  1.0
  H  H18  1  0.44818000  0.09038000  0.82262000  1.0
  H  H19  1  0.62558000  0.17748000  0.26766000  1.0
  H  H20  1  0.35793000  0.73256000  0.90985000  1.0
  H  H21  1  0.55182000  0.90962000  0.17738000  1.0
  H  H22  1  0.37441000  0.82252000  0.73233000  1.0
  H  H23  1  0.64207000  0.26744000  0.09015000  1.0
  H  H24  1  0.62498000  0.24656000  0.86382000  1.0
  H  H25  1  0.76119000  0.13626000  0.38271000  1.0
  H  H26  1  0.37842000  0.61746000  0.75363000  1.0
  H  H27  1  0.37502000  0.75344000  0.13618000  1.0
  H  H28  1  0.23881000  0.86374000  0.61728000  1.0
  H  H29  1  0.62158000  0.38254000  0.24637000  1.0
  H  H30  1  0.79175000  0.61601000  0.10337000  1.0
  H  H31  1  0.68802000  0.89658000  0.51283000  1.0
  H  H32  1  0.17514000  0.48741000  0.38395000  1.0
  H  H33  1  0.20825000  0.38399000  0.89663000  1.0
  H  H34  1  0.31198000  0.10342000  0.48717000  1.0
  H  H35  1  0.82487000  0.51259000  0.61605000  1.0
  H  H36  1  0.99700000  0.76260000  0.15817000  1.0
  H  H37  1  0.83863000  0.84154000  0.60435000  1.0
  H  H38  1  0.23418000  0.39584000  0.23743000  1.0
  H  H39  1  0.00300000  0.23740000  0.84184000  1.0
  H  H40  1  0.16136000  0.15846000  0.39565000  1.0
  H  H41  1  0.76582000  0.60416000  0.76257000  1.0
  H  H42  1  0.13028000  0.75116000  0.05048000  1.0
  H  H43  1  0.07965000  0.94900000  0.70027000  1.0
  H  H44  1  0.37910000  0.29969000  0.24891000  1.0
  H  H45  1  0.86972000  0.24884000  0.94952000  1.0
  H  H46  1  0.92035000  0.05100000  0.29973000  1.0
  H  H47  1  0.62090000  0.70031000  0.75109000  1.0
  H  H48  1  0.06001000  0.59463000  0.88939000  1.0
  H  H49  1  0.17039000  0.11011000  0.70479000  1.0
  H  H50  1  0.46526000  0.29501000  0.40540000  1.0
  H  H51  1  0.93999000  0.40537000  0.11061000  1.0
  H  H52  1  0.82962000  0.88989000  0.29521000  1.0
  H  H53  1  0.53474000  0.70499000  0.59460000  1.0
  H  H54  1  0.69053000  0.78579000  0.32951000  1.0
  H  H55  1  0.36089000  0.67037000  0.45630000  1.0
  H  H56  1  0.90470000  0.54370000  0.21417000  1.0
  H  H57  1  0.30947000  0.21421000  0.67049000  1.0
  H  H58  1  0.63911000  0.32963000  0.54370000  1.0
  H  H59  1  0.09530000  0.45630000  0.78583000  1.0
  H  H60  1  0.57071000  0.82447000  0.34519000  1.0
  H  H61  1  0.22540000  0.65473000  0.47930000  1.0
  H  H62  1  0.74622000  0.52067000  0.17556000  1.0
  H  H63  1  0.42929000  0.17553000  0.65481000  1.0
  H  H64  1  0.77460000  0.34527000  0.52070000  1.0
  H  H65  1  0.25378000  0.47933000  0.82444000  1.0
  C  C66  1  0.48720000  0.44466000  0.10763000  1.0
  C  C67  1  0.37980000  0.89253000  0.33707000  1.0
  C  C68  1  0.04254000  0.66317000  0.55557000  1.0
  C  C69  1  0.51280000  0.55534000  0.89237000  1.0
  C  C70  1  0.62020000  0.10747000  0.66292000  1.0
  C  C71  1  0.95746000  0.33683000  0.44443000  1.0
  C  C72  1  0.47903000  0.34763000  0.02850000  1.0
  C  C73  1  0.45060000  0.97164000  0.31907000  1.0
  C  C74  1  0.13131000  0.68110000  0.65264000  1.0
  C  C75  1  0.52097000  0.65237000  0.97150000  1.0
  C  C76  1  0.54940000  0.02836000  0.68093000  1.0
  C  C77  1  0.86869000  0.31890000  0.34736000  1.0
  C  C78  1  0.37862000  0.25946000  0.00308000  1.0
  C  C79  1  0.37561000  0.99703000  0.25624000  1.0
  C  C80  1  0.11919000  0.74396000  0.74083000  1.0
  C  C81  1  0.62138000  0.74054000  0.99691000  1.0
  C  C82  1  0.62439000  0.00296000  0.74375000  1.0
  C  C83  1  0.88080000  0.25603000  0.25916000  1.0
  C  C84  1  0.36721000  0.16709000  0.92974000  1.0
  C  C85  1  0.43755000  0.07037000  0.23722000  1.0
  C  C86  1  0.20018000  0.76302000  0.83318000  1.0
  C  C87  1  0.63279000  0.83291000  0.07026000  1.0
  C  C88  1  0.56245000  0.92963000  0.76278000  1.0
  C  C89  1  0.79981000  0.23698000  0.16681000  1.0
  C  C90  1  0.45599000  0.16223000  0.87970000  1.0
  C  C91  1  0.57634000  0.12039000  0.28242000  1.0
  C  C92  1  0.29386000  0.71782000  0.83805000  1.0
  C  C93  1  0.54401000  0.83777000  0.12030000  1.0
  C  C94  1  0.42365000  0.87961000  0.71758000  1.0
  C  C95  1  0.70614000  0.28218000  0.16195000  1.0
  C  C96  1  0.55447000  0.24926000  0.90181000  1.0
  C  C97  1  0.65272000  0.09828000  0.34739000  1.0
  C  C98  1  0.30525000  0.65282000  0.75099000  1.0
  C  C99  1  0.44553000  0.75074000  0.09819000  1.0
  C  C100  1  0.34728000  0.90172000  0.65260000  1.0
  C  C101  1  0.69474000  0.34717000  0.24900000  1.0
  C  C102  1  0.56677000  0.34223000  0.97614000  1.0
  C  C103  1  0.59066000  0.02398000  0.36605000  1.0
  C  C104  1  0.22448000  0.63414000  0.65805000  1.0
  C  C105  1  0.43323000  0.65777000  0.02386000  1.0
  C  C106  1  0.40934000  0.97602000  0.63394000  1.0
  C  C107  1  0.77552000  0.36586000  0.34195000  1.0
  C  C108  1  0.81321000  0.52396000  0.96760000  1.0
  C  C109  1  0.84531000  0.03223000  0.55637000  1.0
  C  C110  1  0.28876000  0.44369000  0.47602000  1.0
  C  C111  1  0.18679000  0.47604000  0.03240000  1.0
  C  C112  1  0.15469000  0.96777000  0.44363000  1.0
  C  C113  1  0.71125000  0.55631000  0.52398000  1.0
  C  C114  1  0.85289000  0.61234000  0.05818000  1.0
  C  C115  1  0.79439000  0.94168000  0.55422000  1.0
  C  C116  1  0.24008000  0.44596000  0.38766000  1.0
  C  C117  1  0.14711000  0.38766000  0.94182000  1.0
  C  C118  1  0.20561000  0.05832000  0.44578000  1.0
  C  C119  1  0.75993000  0.55404000  0.61234000  1.0
  C  C120  1  0.96563000  0.69410000  0.08739000  1.0
  C  C121  1  0.87802000  0.91233000  0.60663000  1.0
  C  C122  1  0.27125000  0.39353000  0.30592000  1.0
  C  C123  1  0.03436000  0.30590000  0.91262000  1.0
  C  C124  1  0.12198000  0.08767000  0.39337000  1.0
  C  C125  1  0.72873000  0.60646000  0.69408000  1.0
  C  C126  1  0.04050000  0.68772000  0.02670000  1.0
  C  C127  1  0.01360000  0.97285000  0.66071000  1.0
  C  C128  1  0.35262000  0.33927000  0.31231000  1.0
  C  C129  1  0.95949000  0.31228000  0.97330000  1.0
  C  C130  1  0.98640000  0.02715000  0.33929000  1.0
  C  C131  1  0.64738000  0.66073000  0.68769000  1.0
  C  C132  1  0.00115000  0.60016000  0.93640000  1.0
  C  C133  1  0.06453000  0.06314000  0.66342000  1.0
  C  C134  1  0.40080000  0.33646000  0.39983000  1.0
  C  C135  1  0.99885000  0.39984000  0.06360000  1.0
  C  C136  1  0.93547000  0.93686000  0.33658000  1.0
  C  C137  1  0.59920000  0.66353000  0.60016000  1.0
  C  C138  1  0.88625000  0.51758000  0.90442000  1.0
  C  C139  1  0.98157000  0.09529000  0.61299000  1.0
  C  C140  1  0.36832000  0.38695000  0.48240000  1.0
  C  C141  1  0.11375000  0.48242000  0.09558000  1.0
  C  C142  1  0.01842000  0.90470000  0.38700000  1.0
  C  C143  1  0.63168000  0.61305000  0.51760000  1.0
  C  C144  1  0.85012000  0.42577000  0.80698000  1.0
  C  C145  1  0.04289000  0.19275000  0.61862000  1.0
  C  C146  1  0.42402000  0.38123000  0.57417000  1.0
  C  C147  1  0.14987000  0.57423000  0.19302000  1.0
  C  C148  1  0.95711000  0.80725000  0.38138000  1.0
  C  C149  1  0.57598000  0.61877000  0.42583000  1.0
  N  N150  1  0.67772000  0.42792000  0.00618000  1.0
  N  N151  1  0.67154000  0.99386000  0.42168000  1.0
  N  N152  1  0.24968000  0.57846000  0.57231000  1.0
  N  N153  1  0.32228000  0.57208000  0.99382000  1.0
  N  N154  1  0.32846000  0.00614000  0.57832000  1.0
  N  N155  1  0.75032000  0.42154000  0.42769000  1.0
  N  N156  1  0.69620000  0.44118000  0.93675000  1.0
  N  N157  1  0.75917000  0.06318000  0.50449000  1.0
  N  N158  1  0.25457000  0.49561000  0.55885000  1.0
  N  N159  1  0.30379000  0.55882000  0.06325000  1.0
  N  N160  1  0.24083000  0.93682000  0.49551000  1.0
  N  N161  1  0.74543000  0.50439000  0.44115000  1.0
  O  O162  1  0.40494000  0.44240000  0.15201000  1.0
  O  O163  1  0.25320000  0.84808000  0.29045000  1.0
  O  O164  1  0.96265000  0.70991000  0.55770000  1.0
  O  O165  1  0.59506000  0.55760000  0.84799000  1.0
  O  O166  1  0.74681000  0.15192000  0.70955000  1.0
  O  O167  1  0.03735000  0.29009000  0.44230000  1.0
  O  O168  1  0.57401000  0.52617000  0.12783000  1.0
  O  O169  1  0.44653000  0.87240000  0.39843000  1.0
  O  O170  1  0.04787000  0.60172000  0.47411000  1.0
  O  O171  1  0.42599000  0.47383000  0.87217000  1.0
  O  O172  1  0.55347000  0.12760000  0.60156000  1.0
  O  O173  1  0.95214000  0.39828000  0.52589000  1.0
  O  O174  1  0.72871000  0.36306000  0.75703000  1.0
  O  O175  1  0.97142000  0.24274000  0.60580000  1.0
  O  O176  1  0.36544000  0.39406000  0.63699000  1.0
  O  O177  1  0.27129000  0.63694000  0.24297000  1.0
  O  O178  1  0.02858000  0.75726000  0.39420000  1.0
  O  O179  1  0.63456000  0.60594000  0.36301000  1.0
  O  O180  1  0.93989000  0.40935000  0.77261000  1.0
  O  O181  1  0.16703000  0.22714000  0.63669000  1.0
  O  O182  1  0.53011000  0.36312000  0.59044000  1.0
  O  O183  1  0.06011000  0.59065000  0.22739000  1.0
  O  O184  1  0.83297000  0.77286000  0.36331000  1.0
  O  O185  1  0.46989000  0.63688000  0.40957000  1.0
  O  O186  1  0.59414000  0.77316000  0.29771000  1.0
  O  O187  1  0.29627000  0.70218000  0.47543000  1.0
  O  O188  1  0.82097000  0.52446000  0.22683000  1.0
  O  O189  1  0.40586000  0.22684000  0.70229000  1.0
  O  O190  1  0.70373000  0.29782000  0.52457000  1.0
  O  O191  1  0.17903000  0.47554000  0.77317000  1.0
