# generated using pymatgen
data_Zn3H68C82(N3O10)2
_symmetry_space_group_name_H-M   'P 1'
_cell_length_a   9.50931000
_cell_length_b   17.12120000
_cell_length_c   19.60690000
_cell_angle_alpha   114.49500000
_cell_angle_beta   89.99960000
_cell_angle_gamma   89.99970000
_symmetry_Int_Tables_number   1
_chemical_formula_structural   Zn3H68C82(N3O10)2
_chemical_formula_sum   'Zn3 H68 C82 N6 O20'
_cell_volume   2904.90756830
_cell_formula_units_Z   1
loop_
 _symmetry_equiv_pos_site_id
 _symmetry_equiv_pos_as_xyz
  1  'x, y, z'
loop_
 _atom_site_type_symbol
 _atom_site_label
 _atom_site_symmetry_multiplicity
 _atom_site_fract_x
 _atom_site_fract_y
 _atom_site_fract_z
 _atom_site_occupancy
  Zn  Zn0  1  0.16193000  0.00000000  0.00000000  1.0
  Zn  Zn1  1  0.49530000  0.22829000  0.08125000  1.0
  Zn  Zn2  1  0.49530000  0.77172000  0.91875000  1.0
  H  H3  1  0.92584000  0.10037000  0.02158000  1.0
  H  H4  1  0.92585000  0.89963000  0.97842000  1.0
  H  H5  1  0.06648000  0.15636000  0.06055000  1.0
  H  H6  1  0.06648000  0.84363000  0.93945000  1.0
  H  H7  1  0.40678000  0.01832000  0.16231000  1.0
  H  H8  1  0.40678000  0.98168000  0.83769000  1.0
  H  H9  1  0.28574000  0.10303000  0.21211000  1.0
  H  H10  1  0.28574000  0.89697000  0.78789000  1.0
  H  H11  1  0.32674000  0.85342000  0.07624000  1.0
  H  H12  1  0.32674000  0.14658000  0.92375000  1.0
  H  H13  1  0.25123000  0.73809000  0.11490000  1.0
  H  H14  1  0.25122000  0.26191000  0.88510000  1.0
  H  H15  1  0.84432000  0.96974000  0.28878000  1.0
  H  H16  1  0.84432000  0.03026000  0.71122000  1.0
  H  H17  1  0.18654000  0.04664000  0.31638000  1.0
  H  H18  1  0.18655000  0.95335000  0.68362000  1.0
  H  H19  1  0.71441000  0.13959000  0.16444000  1.0
  H  H20  1  0.71441000  0.86041000  0.83556000  1.0
  H  H21  1  0.77376000  0.85602000  0.32913000  1.0
  H  H22  1  0.77377000  0.14398000  0.67087000  1.0
  H  H23  1  0.09548000  0.68843000  0.18888000  1.0
  H  H24  1  0.09547000  0.31157000  0.81113000  1.0
  H  H25  1  0.50383000  0.42888000  0.12716000  1.0
  H  H26  1  0.50384000  0.57113000  0.87284000  1.0
  H  H27  1  0.83207000  0.27372000  0.14590000  1.0
  H  H28  1  0.83208000  0.72628000  0.85411000  1.0
  H  H29  1  0.25256000  0.17030000  0.43341000  1.0
  H  H30  1  0.25255000  0.82968000  0.56658000  1.0
  H  H31  1  0.93455000  0.32575000  0.39305000  1.0
  H  H32  1  0.93454000  0.67425000  0.60696000  1.0
  H  H33  1  0.78284000  0.26312000  0.28123000  1.0
  H  H34  1  0.78284000  0.73688000  0.71878000  1.0
  H  H35  1  0.62951000  0.01557000  0.10180000  1.0
  H  H36  1  0.62951000  0.98443000  0.89820000  1.0
  H  H37  1  0.65988000  0.94362000  0.14537000  1.0
  H  H38  1  0.65987000  0.05638000  0.85463000  1.0
  H  H39  1  0.89848000  0.71519000  0.27916000  1.0
  H  H40  1  0.89848000  0.28481000  0.72084000  1.0
  H  H41  1  0.05748000  0.28928000  0.99784000  1.0
  H  H42  1  0.05748000  0.71072000  0.00216000  1.0
  H  H43  1  0.02846000  0.37107000  0.08930000  1.0
  H  H44  1  0.02846000  0.62893000  0.91070000  1.0
  H  H45  1  0.12806000  0.31064000  0.47185000  1.0
  H  H46  1  0.12805000  0.68935000  0.52816000  1.0
  H  H47  1  0.77590000  0.58138000  0.22388000  1.0
  H  H48  1  0.77591000  0.41862000  0.77612000  1.0
  H  H49  1  0.63912000  0.56353000  0.15743000  1.0
  H  H50  1  0.63913000  0.43647000  0.84257000  1.0
  H  H51  1  0.84088000  0.61178000  0.11291000  1.0
  H  H52  1  0.84087000  0.38822000  0.88710000  1.0
  H  H53  1  0.95620000  0.54036000  0.12810000  1.0
  H  H54  1  0.95620000  0.45964000  0.87191000  1.0
  H  H55  1  0.90995000  0.43118000  0.01322000  1.0
  H  H56  1  0.90994000  0.56882000  0.98678000  1.0
  H  H57  1  0.72691000  0.44509000  0.02262000  1.0
  H  H58  1  0.72691000  0.55491000  0.97738000  1.0
  H  H59  1  0.17084000  0.45461000  0.17213000  1.0
  H  H60  1  0.17084000  0.54540000  0.82787000  1.0
  H  H61  1  0.29069000  0.58565000  0.25824000  1.0
  H  H62  1  0.29069000  0.41435000  0.74176000  1.0
  H  H63  1  0.48355000  0.62004000  0.00401000  1.0
  H  H64  1  0.48354000  0.37995000  0.99598000  1.0
  H  H65  1  0.44070000  0.71189000  0.27968000  1.0
  H  H66  1  0.44069000  0.28810000  0.72031000  1.0
  H  H67  1  0.60771000  0.74929000  0.09082000  1.0
  H  H68  1  0.60771000  0.25070000  0.90917000  1.0
  H  H69  1  0.58757000  0.79609000  0.22908000  1.0
  H  H70  1  0.58756000  0.20391000  0.77091000  1.0
  C  C71  1  0.16626000  0.94171000  0.14254000  1.0
  C  C72  1  0.16626000  0.05829000  0.85746000  1.0
  C  C73  1  0.31963000  0.05730000  0.15603000  1.0
  C  C74  1  0.31963000  0.94270000  0.84396000  1.0
  C  C75  1  0.37054000  0.10635000  0.11196000  1.0
  C  C76  1  0.37054000  0.89365000  0.88804000  1.0
  C  C77  1  0.05512000  0.95976000  0.19221000  1.0
  C  C78  1  0.05512000  0.04024000  0.80779000  1.0
  C  C79  1  0.23932000  0.86294000  0.11486000  1.0
  C  C80  1  0.23932000  0.13705000  0.88514000  1.0
  C  C81  1  0.98222000  0.04415000  0.21870000  1.0
  C  C82  1  0.98222000  0.95585000  0.78130000  1.0
  C  C83  1  0.01144000  0.89490000  0.21571000  1.0
  C  C84  1  0.01144000  0.10510000  0.78429000  1.0
  C  C85  1  0.19750000  0.79982000  0.13674000  1.0
  C  C86  1  0.19749000  0.20018000  0.86326000  1.0
  C  C87  1  0.02275000  0.11472000  0.28630000  1.0
  C  C88  1  0.02276000  0.88528000  0.71371000  1.0
  C  C89  1  0.87248000  0.05457000  0.17659000  1.0
  C  C90  1  0.87248000  0.94543000  0.82342000  1.0
  C  C91  1  0.89865000  0.90806000  0.26683000  1.0
  C  C92  1  0.89865000  0.09195000  0.73318000  1.0
  C  C93  1  0.08361000  0.81385000  0.18723000  1.0
  C  C94  1  0.08360000  0.18615000  0.81277000  1.0
  C  C95  1  0.13216000  0.10790000  0.33293000  1.0
  C  C96  1  0.13216000  0.89209000  0.66707000  1.0
  C  C97  1  0.94973000  0.19511000  0.30916000  1.0
  C  C98  1  0.94973000  0.80489000  0.69085000  1.0
  C  C99  1  0.79939000  0.13341000  0.19910000  1.0
  C  C100  1  0.79939000  0.86659000  0.80091000  1.0
  C  C101  1  0.85944000  0.84453000  0.28908000  1.0
  C  C102  1  0.85944000  0.15548000  0.71093000  1.0
  C  C103  1  0.03979000  0.74969000  0.21082000  1.0
  C  C104  1  0.03978000  0.25031000  0.78919000  1.0
  C  C105  1  0.60523000  0.40614000  0.13700000  1.0
  C  C106  1  0.60523000  0.59386000  0.86301000  1.0
  C  C107  1  0.77343000  0.32895000  0.14783000  1.0
  C  C108  1  0.77344000  0.67105000  0.85217000  1.0
  C  C109  1  0.20903000  0.29069000  0.07847000  1.0
  C  C110  1  0.20903000  0.70931000  0.92152000  1.0
  C  C111  1  0.16870000  0.17703000  0.39826000  1.0
  C  C112  1  0.16870000  0.82296000  0.60174000  1.0
  C  C113  1  0.99045000  0.26490000  0.37646000  1.0
  C  C114  1  0.99044000  0.73509000  0.62354000  1.0
  C  C115  1  0.83817000  0.20200000  0.26390000  1.0
  C  C116  1  0.83818000  0.79801000  0.73611000  1.0
  C  C117  1  0.69589000  0.96214000  0.10067000  1.0
  C  C118  1  0.69589000  0.03786000  0.89933000  1.0
  C  C119  1  0.93031000  0.76466000  0.26083000  1.0
  C  C120  1  0.93031000  0.23534000  0.73918000  1.0
  C  C121  1  0.10951000  0.33805000  0.04718000  1.0
  C  C122  1  0.10952000  0.66196000  0.95282000  1.0
  C  C123  1  0.09782000  0.25641000  0.42025000  1.0
  C  C124  1  0.09782000  0.74358000  0.57976000  1.0
  C  C125  1  0.67276000  0.88778000  0.02498000  1.0
  C  C126  1  0.67276000  0.11222000  0.97502000  1.0
  C  C127  1  0.74291000  0.54128000  0.16616000  1.0
  C  C128  1  0.74292000  0.45872000  0.83384000  1.0
  C  C129  1  0.84920000  0.54620000  0.10959000  1.0
  C  C130  1  0.84920000  0.45380000  0.89041000  1.0
  C  C131  1  0.24311000  0.46556000  0.07086000  1.0
  C  C132  1  0.24311000  0.53444000  0.92914000  1.0
  C  C133  1  0.82670000  0.47995000  0.02837000  1.0
  C  C134  1  0.82670000  0.52005000  0.97163000  1.0
  C  C135  1  0.23277000  0.49195000  0.14958000  1.0
  C  C136  1  0.23278000  0.50805000  0.85041000  1.0
  C  C137  1  0.32142000  0.51323000  0.04121000  1.0
  C  C138  1  0.32142000  0.48677000  0.95878000  1.0
  C  C139  1  0.29992000  0.56547000  0.19780000  1.0
  C  C140  1  0.29991000  0.43453000  0.80219000  1.0
  C  C141  1  0.39344000  0.58841000  0.09083000  1.0
  C  C142  1  0.39344000  0.41158000  0.90916000  1.0
  C  C143  1  0.38182000  0.61562000  0.17054000  1.0
  C  C144  1  0.38182000  0.38437000  0.82946000  1.0
  C  C145  1  0.47759000  0.63855000  0.06415000  1.0
  C  C146  1  0.47759000  0.36144000  0.93584000  1.0
  C  C147  1  0.45227000  0.69141000  0.21929000  1.0
  C  C148  1  0.45227000  0.30859000  0.78070000  1.0
  C  C149  1  0.54646000  0.71112000  0.11291000  1.0
  C  C150  1  0.54646000  0.28887000  0.88708000  1.0
  C  C151  1  0.53348000  0.73819000  0.19131000  1.0
  C  C152  1  0.53348000  0.26181000  0.80868000  1.0
  N  N153  1  0.63424000  0.32634000  0.12936000  1.0
  N  N154  1  0.63425000  0.67367000  0.87064000  1.0
  N  N155  1  0.72210000  0.45381000  0.15919000  1.0
  N  N156  1  0.72211000  0.54620000  0.84081000  1.0
  N  N157  1  0.83058000  0.40585000  0.16655000  1.0
  N  N158  1  0.83059000  0.59415000  0.83346000  1.0
  O  O159  1  0.20504000  0.00319000  0.11630000  1.0
  O  O160  1  0.20504000  0.99681000  0.88370000  1.0
  O  O161  1  0.32248000  0.08962000  0.04764000  1.0
  O  O162  1  0.32248000  0.91037000  0.95236000  1.0
  O  O163  1  0.03036000  0.09868000  0.02683000  1.0
  O  O164  1  0.03036000  0.90131000  0.97317000  1.0
  O  O165  1  0.46383000  0.16400000  0.14431000  1.0
  O  O166  1  0.46384000  0.83600000  0.85569000  1.0
  O  O167  1  0.34124000  0.29874000  0.06895000  1.0
  O  O168  1  0.34124000  0.70127000  0.93104000  1.0
  O  O169  1  0.55683000  0.15266000  0.97840000  1.0
  O  O170  1  0.55684000  0.84734000  0.02160000  1.0
  O  O171  1  0.84055000  0.98544000  0.11060000  1.0
  O  O172  1  0.84055000  0.01456000  0.88940000  1.0
  O  O173  1  0.15329000  0.24823000  0.10997000  1.0
  O  O174  1  0.15328000  0.75176000  0.89002000  1.0
  O  O175  1  0.17553000  0.39497000  0.02030000  1.0
  O  O176  1  0.17554000  0.60503000  0.97970000  1.0
  O  O177  1  0.75686000  0.87150000  0.97165000  1.0
  O  O178  1  0.75685000  0.12851000  0.02835000  1.0
