# generated using pymatgen
data_AlH12C24(NO4)3
_symmetry_space_group_name_H-M   'P 1'
_cell_length_a   4.03504000
_cell_length_b   28.50200000
_cell_length_c   28.50458481
_cell_angle_alpha   120.00300000
_cell_angle_beta   90.00099991
_cell_angle_gamma   89.99940000
_symmetry_Int_Tables_number   1
_chemical_formula_structural   AlH12C24(NO4)3
_chemical_formula_sum   'Al2 H24 C48 N6 O24'
_cell_volume   2838.93469026
_cell_formula_units_Z   2
loop_
 _symmetry_equiv_pos_site_id
 _symmetry_equiv_pos_as_xyz
  1  'x, y, z'
loop_
 _atom_site_type_symbol
 _atom_site_label
 _atom_site_symmetry_multiplicity
 _atom_site_fract_x
 _atom_site_fract_y
 _atom_site_fract_z
 _atom_site_occupancy
  Al  Al0  1  0.02260000  0.00002000  0.50001000  1.0
  Al  Al1  1  0.02256000  0.33332000  0.16666000  1.0
  H  H2  1  0.44496000  0.48303000  0.30248000  1.0
  H  H3  1  0.40025000  0.58260000  0.35136000  1.0
  H  H4  1  0.51694000  0.58119000  0.19979000  1.0
  H  H5  1  0.51690000  0.75216000  0.46690000  1.0
  H  H6  1  0.40025000  0.75074000  0.31532000  1.0
  H  H7  1  0.44494000  0.85030000  0.36420000  1.0
  H  H8  1  0.45633000  0.66549000  0.27878000  1.0
  H  H9  1  0.45627000  0.66785000  0.38790000  1.0
  H  H10  1  0.44502000  0.19747000  0.18054000  1.0
  H  H11  1  0.40028000  0.14863000  0.23124000  1.0
  H  H12  1  0.51695000  0.30023000  0.38139000  1.0
  H  H13  1  0.51705000  0.03311000  0.28528000  1.0
  H  H14  1  0.40021000  0.18471000  0.43543000  1.0
  H  H15  1  0.44491000  0.13584000  0.48611000  1.0
  H  H16  1  0.45631000  0.22124000  0.38670000  1.0
  H  H17  1  0.45639000  0.11208000  0.27995000  1.0
  H  H18  1  0.44504000  0.31944000  0.01696000  1.0
  H  H19  1  0.40030000  0.26876000  0.91741000  1.0
  H  H20  1  0.51677000  0.11858000  0.91880000  1.0
  H  H21  1  0.51679000  0.21476000  0.74786000  1.0
  H  H22  1  0.40031000  0.06457000  0.74925000  1.0
  H  H23  1  0.44504000  0.01390000  0.64970000  1.0
  H  H24  1  0.45629000  0.11328000  0.83451000  1.0
  H  H25  1  0.45627000  0.22006000  0.83215000  1.0
  C  C26  1  0.52150000  0.05149000  0.58162000  1.0
  C  C27  1  0.52150000  0.91839000  0.46986000  1.0
  C  C28  1  0.52154000  0.03016000  0.44854000  1.0
  C  C29  1  0.52146000  0.41494000  0.19681000  1.0
  C  C30  1  0.52150000  0.30317000  0.21812000  1.0
  C  C31  1  0.52151000  0.28185000  0.08504000  1.0
  C  C32  1  0.50449000  0.47549000  0.22398000  1.0
  C  C33  1  0.46078000  0.50503000  0.28037000  1.0
  C  C34  1  0.43626000  0.56113000  0.30759000  1.0
  C  C35  1  0.45857000  0.59037000  0.27978000  1.0
  C  C36  1  0.49679000  0.56072000  0.22330000  1.0
  C  C37  1  0.51937000  0.50456000  0.19647000  1.0
  C  C38  1  0.45159000  0.64926000  0.30636000  1.0
  C  C39  1  0.45157000  0.68409000  0.36033000  1.0
  C  C40  1  0.49678000  0.77263000  0.44339000  1.0
  C  C41  1  0.45858000  0.74296000  0.38690000  1.0
  C  C42  1  0.43624000  0.77220000  0.35909000  1.0
  C  C43  1  0.46075000  0.82830000  0.38631000  1.0
  C  C44  1  0.50451000  0.85784000  0.44269000  1.0
  C  C45  1  0.51942000  0.82878000  0.47021000  1.0
  C  C46  1  0.50457000  0.27600000  0.25150000  1.0
  C  C47  1  0.46089000  0.21960000  0.22465000  1.0
  C  C48  1  0.43635000  0.19240000  0.25354000  1.0
  C  C49  1  0.45868000  0.22021000  0.31058000  1.0
  C  C50  1  0.49683000  0.27671000  0.33741000  1.0
  C  C51  1  0.51940000  0.30353000  0.30808000  1.0
  C  C52  1  0.45163000  0.19365000  0.34290000  1.0
  C  C53  1  0.45165000  0.13968000  0.32376000  1.0
  C  C54  1  0.49686000  0.05662000  0.32925000  1.0
  C  C55  1  0.45865000  0.11312000  0.35608000  1.0
  C  C56  1  0.43628000  0.14093000  0.41312000  1.0
  C  C57  1  0.46080000  0.11372000  0.44201000  1.0
  C  C58  1  0.50456000  0.05733000  0.41516000  1.0
  C  C59  1  0.51943000  0.02981000  0.35859000  1.0
  C  C60  1  0.50449000  0.24847000  0.02449000  1.0
  C  C61  1  0.46086000  0.27532000  0.99496000  1.0
  C  C62  1  0.43631000  0.24645000  0.93887000  1.0
  C  C63  1  0.45857000  0.18940000  0.90962000  1.0
  C  C64  1  0.49674000  0.16257000  0.93927000  1.0
  C  C65  1  0.51931000  0.19188000  0.99542000  1.0
  C  C66  1  0.45158000  0.15710000  0.85074000  1.0
  C  C67  1  0.45158000  0.17625000  0.81592000  1.0
  C  C68  1  0.49671000  0.17077000  0.72739000  1.0
  C  C69  1  0.45854000  0.14394000  0.75704000  1.0
  C  C70  1  0.43625000  0.08688000  0.72779000  1.0
  C  C71  1  0.46078000  0.05802000  0.67170000  1.0
  C  C72  1  0.50446000  0.08487000  0.64217000  1.0
  C  C73  1  0.51926000  0.14146000  0.67124000  1.0
  N  N74  1  0.57592000  0.47613000  0.13742000  1.0
  N  N75  1  0.57595000  0.85722000  0.52926000  1.0
  N  N76  1  0.57597000  0.36258000  0.33869000  1.0
  N  N77  1  0.57603000  0.97076000  0.32798000  1.0
  N  N78  1  0.57577000  0.16125000  0.02384000  1.0
  N  N79  1  0.57577000  0.17208000  0.64282000  1.0
  O  O80  1  0.28743000  0.99825000  0.44359000  1.0
  O  O81  1  0.28744000  0.05644000  0.55465000  1.0
  O  O82  1  0.28743000  0.94537000  0.50179000  1.0
  O  O83  1  0.76090000  0.04447000  0.48181000  1.0
  O  O84  1  0.76086000  0.93734000  0.45555000  1.0
  O  O85  1  0.76088000  0.01823000  0.56267000  1.0
  O  O86  1  0.28746000  0.27690000  0.11201000  1.0
  O  O87  1  0.28739000  0.38797000  0.16489000  1.0
  O  O88  1  0.28741000  0.33509000  0.22307000  1.0
  O  O89  1  0.76091000  0.31512000  0.10400000  1.0
  O  O90  1  0.76088000  0.28886000  0.18486000  1.0
  O  O91  1  0.76084000  0.39599000  0.21112000  1.0
  O  O92  1  0.72114000  0.43188000  0.11705000  1.0
  O  O93  1  0.47918000  0.49870000  0.11239000  1.0
  O  O94  1  0.72110000  0.90147000  0.54964000  1.0
  O  O95  1  0.47928000  0.83463000  0.55428000  1.0
  O  O96  1  0.72110000  0.38295000  0.31481000  1.0
  O  O97  1  0.47938000  0.38763000  0.38630000  1.0
  O  O98  1  0.72114000  0.95038000  0.35186000  1.0
  O  O99  1  0.47946000  0.94571000  0.28037000  1.0
  O  O100  1  0.72094000  0.18510000  0.06808000  1.0
  O  O101  1  0.47896000  0.11365000  0.00125000  1.0
  O  O102  1  0.72091000  0.14823000  0.59858000  1.0
  O  O103  1  0.47906000  0.21970000  0.66543000  1.0
