# generated using pymatgen
data_Zn2H24C41S2N2(O4F3)2
_symmetry_space_group_name_H-M   'P 1'
_cell_length_a   10.98640000
_cell_length_b   21.77606831
_cell_length_c   23.63860000
_cell_angle_alpha   105.99381454
_cell_angle_beta   101.54240000
_cell_angle_gamma   104.23888360
_symmetry_Int_Tables_number   1
_chemical_formula_structural   Zn2H24C41S2N2(O4F3)2
_chemical_formula_sum   'Zn8 H96 C164 S8 N8 O32 F24'
_cell_volume   5046.94711347
_cell_formula_units_Z   4
loop_
 _symmetry_equiv_pos_site_id
 _symmetry_equiv_pos_as_xyz
  1  'x, y, z'
loop_
 _atom_site_type_symbol
 _atom_site_label
 _atom_site_symmetry_multiplicity
 _atom_site_fract_x
 _atom_site_fract_y
 _atom_site_fract_z
 _atom_site_occupancy
  Zn  Zn0  1  0.66988000  0.56126000  0.80641000  1.0
  Zn  Zn1  1  0.33011000  0.43874000  0.19359000  1.0
  Zn  Zn2  1  0.75058000  0.60827000  0.93914000  1.0
  Zn  Zn3  1  0.24942000  0.39173000  0.06086000  1.0
  Zn  Zn4  1  0.23088000  0.11084000  0.93340000  1.0
  Zn  Zn5  1  0.76913000  0.88916000  0.06660000  1.0
  Zn  Zn6  1  0.14724000  0.06001000  0.79963000  1.0
  Zn  Zn7  1  0.85277000  0.93999000  0.20036000  1.0
  H  H8  1  0.05780000  0.92945000  0.97149000  1.0
  H  H9  1  0.94219000  0.07055000  0.02851000  1.0
  H  H10  1  0.41502000  0.31252000  0.95936000  1.0
  H  H11  1  0.58498000  0.68748000  0.04064000  1.0
  H  H12  1  0.95218000  0.85766000  0.77442000  1.0
  H  H13  1  0.04780000  0.14234000  0.22558000  1.0
  H  H14  1  0.82888000  0.74195000  0.77242000  1.0
  H  H15  1  0.17111000  0.25805000  0.22758000  1.0
  H  H16  1  0.34946000  0.23797000  0.76415000  1.0
  H  H17  1  0.65053000  0.76203000  0.23585000  1.0
  H  H18  1  0.54786000  0.42617000  0.96457000  1.0
  H  H19  1  0.45212000  0.57382000  0.03543000  1.0
  H  H20  1  0.93812000  0.81491000  0.96949000  1.0
  H  H21  1  0.06187000  0.18509000  0.03051000  1.0
  H  H22  1  0.48760000  0.35260000  0.76983000  1.0
  H  H23  1  0.51240000  0.64740000  0.23018000  1.0
  H  H24  1  0.97756000  0.77701000  0.15768000  1.0
  H  H25  1  0.02246000  0.22299000  0.84232000  1.0
  H  H26  1  0.80688000  0.56871000  0.14251000  1.0
  H  H27  1  0.19312000  0.43129000  0.85749000  1.0
  H  H28  1  0.73716000  0.54094000  0.02956000  1.0
  H  H29  1  0.26284000  0.45907000  0.97044000  1.0
  H  H30  1  0.90064000  0.73983000  0.04416000  1.0
  H  H31  1  0.09937000  0.26017000  0.95585000  1.0
  H  H32  1  0.26456000  0.53658000  0.77780000  1.0
  H  H33  1  0.73543000  0.46342000  0.22220000  1.0
  H  H34  1  0.86632000  0.14621000  0.96355000  1.0
  H  H35  1  0.13368000  0.85378000  0.03645000  1.0
  H  H36  1  0.38762000  0.64013000  0.97250000  1.0
  H  H37  1  0.61238000  0.35987000  0.02750000  1.0
  H  H38  1  0.03050000  0.52718000  0.77586000  1.0
  H  H39  1  0.96950000  0.47283000  0.22414000  1.0
  H  H40  1  0.15366000  0.62692000  0.97125000  1.0
  H  H41  1  0.84634000  0.37308000  0.02875000  1.0
  H  H42  1  0.74328000  0.03598000  0.76992000  1.0
  H  H43  1  0.25672000  0.96402000  0.23008000  1.0
  H  H44  1  0.85114000  0.94702000  0.57186000  1.0
  H  H45  1  0.14886000  0.05298000  0.42814000  1.0
  H  H46  1  0.86824000  0.60041000  0.24277000  1.0
  H  H47  1  0.13177000  0.39959000  0.75723000  1.0
  H  H48  1  0.94566000  0.03882000  0.67360000  1.0
  H  H49  1  0.05434000  0.96118000  0.32640000  1.0
  H  H50  1  0.20328000  0.94559000  0.73567000  1.0
  H  H51  1  0.79671000  0.05440000  0.26433000  1.0
  H  H52  1  0.06226000  0.77554000  0.54886000  1.0
  H  H53  1  0.93775000  0.22447000  0.45115000  1.0
  H  H54  1  0.11780000  0.84842000  0.63833000  1.0
  H  H55  1  0.88220000  0.15158000  0.36167000  1.0
  H  H56  1  0.63173000  0.12964000  0.96241000  1.0
  H  H57  1  0.36827000  0.87035000  0.03759000  1.0
  H  H58  1  0.50802000  0.02118000  0.76854000  1.0
  H  H59  1  0.49198000  0.97882000  0.23146000  1.0
  H  H60  1  0.62109000  0.72561000  0.36449000  1.0
  H  H61  1  0.37891000  0.27439000  0.63551000  1.0
  H  H62  1  0.69863000  0.66235000  0.35284000  1.0
  H  H63  1  0.30137000  0.33765000  0.64716000  1.0
  H  H64  1  0.75415000  0.73403000  0.33192000  1.0
  H  H65  1  0.24586000  0.26598000  0.66808000  1.0
  H  H66  1  0.18688000  0.85170000  0.39651000  1.0
  H  H67  1  0.81312000  0.14831000  0.60349000  1.0
  H  H68  1  0.15308000  0.79183000  0.43391000  1.0
  H  H69  1  0.84691000  0.20817000  0.56609000  1.0
  H  H70  1  0.04404000  0.83774000  0.42198000  1.0
  H  H71  1  0.95596000  0.16226000  0.57802000  1.0
  H  H72  1  0.48882000  0.28843000  0.14549000  1.0
  H  H73  1  0.51118000  0.71157000  0.85450000  1.0
  H  H74  1  0.32499000  0.08412000  0.14187000  1.0
  H  H75  1  0.67500000  0.91588000  0.85813000  1.0
  H  H76  1  0.39753000  0.46726000  0.57509000  1.0
  H  H77  1  0.60248000  0.53274000  0.42491000  1.0
  H  H78  1  0.47985000  0.55097000  0.68119000  1.0
  H  H79  1  0.52015000  0.44903000  0.31881000  1.0
  H  H80  1  0.66972000  0.36792000  0.63453000  1.0
  H  H81  1  0.33028000  0.63208000  0.36547000  1.0
  H  H82  1  0.74186000  0.45681000  0.73683000  1.0
  H  H83  1  0.25813000  0.54319000  0.26317000  1.0
  H  H84  1  0.61558000  0.29880000  0.54504000  1.0
  H  H85  1  0.38442000  0.70120000  0.45496000  1.0
  H  H86  1  0.39118000  0.24625000  0.03263000  1.0
  H  H87  1  0.60882000  0.75375000  0.96737000  1.0
  H  H88  1  0.23445000  0.05098000  0.02909000  1.0
  H  H89  1  0.76554000  0.94902000  0.97091000  1.0
  H  H90  1  0.17246000  0.25187000  0.36305000  1.0
  H  H91  1  0.82754000  0.74813000  0.63695000  1.0
  H  H92  1  0.30397000  0.25852000  0.32939000  1.0
  H  H93  1  0.69603000  0.74149000  0.67061000  1.0
  H  H94  1  0.24697000  0.18735000  0.35080000  1.0
  H  H95  1  0.75303000  0.81265000  0.64919000  1.0
  H  H96  1  0.40221000  0.11961000  0.24058000  1.0
  H  H97  1  0.59778000  0.88039000  0.75942000  1.0
  H  H98  1  0.72979000  0.37363000  0.38410000  1.0
  H  H99  1  0.27021000  0.62637000  0.61590000  1.0
  H  H100  1  0.59490000  0.35934000  0.41512000  1.0
  H  H101  1  0.40511000  0.64066000  0.58488000  1.0
  H  H102  1  0.70816000  0.31496000  0.42351000  1.0
  H  H103  1  0.29184000  0.68503000  0.57649000  1.0
  C  C104  1  0.00899000  0.88801000  0.92806000  1.0
  C  C105  1  0.99099000  0.11199000  0.07193000  1.0
  C  C106  1  0.43173000  0.32144000  0.91803000  1.0
  C  C107  1  0.56827000  0.67856000  0.08197000  1.0
  C  C108  1  0.94784000  0.84715000  0.81658000  1.0
  C  C109  1  0.05216000  0.15286000  0.18342000  1.0
  C  C110  1  0.88024000  0.78368000  0.81544000  1.0
  C  C111  1  0.11974000  0.21632000  0.18455000  1.0
  C  C112  1  0.39432000  0.27979000  0.80761000  1.0
  C  C113  1  0.60569000  0.72021000  0.19240000  1.0
  C  C114  1  0.33957000  0.58875000  0.87508000  1.0
  C  C115  1  0.66042000  0.41125000  0.12492000  1.0
  C  C116  1  0.07877000  0.57607000  0.87351000  1.0
  C  C117  1  0.92123000  0.42394000  0.12649000  1.0
  C  C118  1  0.50573000  0.38450000  0.92100000  1.0
  C  C119  1  0.49427000  0.61550000  0.07900000  1.0
  C  C120  1  0.94262000  0.82432000  0.92693000  1.0
  C  C121  1  0.05736000  0.17567000  0.07306000  1.0
  C  C122  1  0.47018000  0.34269000  0.81075000  1.0
  C  C123  1  0.52982000  0.65731000  0.18925000  1.0
  C  C124  1  0.80631000  0.70370000  0.86967000  1.0
  C  C125  1  0.19368000  0.29630000  0.13032000  1.0
  C  C126  1  0.41656000  0.06851000  0.86436000  1.0
  C  C127  1  0.58345000  0.93148000  0.13564000  1.0
  C  C128  1  0.60492000  0.46346000  0.87071000  1.0
  C  C129  1  0.39508000  0.53654000  0.12929000  1.0
  C  C130  1  0.55623000  0.07426000  0.86543000  1.0
  C  C131  1  0.44378000  0.92574000  0.13457000  1.0
  C  C132  1  0.81884000  0.09208000  0.86660000  1.0
  C  C133  1  0.18116000  0.90792000  0.13340000  1.0
  C  C134  1  0.95857000  0.09986000  0.86669000  1.0
  C  C135  1  0.04143000  0.90014000  0.13331000  1.0
  C  C136  1  0.29633000  0.20136000  0.85926000  1.0
  C  C137  1  0.70368000  0.79864000  0.14074000  1.0
  C  C138  1  0.89920000  0.67608000  0.16088000  1.0
  C  C139  1  0.10080000  0.32392000  0.83912000  1.0
  C  C140  1  0.94016000  0.57266000  0.87224000  1.0
  C  C141  1  0.05984000  0.42734000  0.12776000  1.0
  C  C142  1  0.52624000  0.39535000  0.86748000  1.0
  C  C143  1  0.47376000  0.60465000  0.13252000  1.0
  C  C144  1  0.92603000  0.72377000  0.13147000  1.0
  C  C145  1  0.07397000  0.27623000  0.86853000  1.0
  C  C146  1  0.08291000  0.96810000  0.87381000  1.0
  C  C147  1  0.91710000  0.03190000  0.12619000  1.0
  C  C148  1  0.93945000  0.69508000  0.22752000  1.0
  C  C149  1  0.06055000  0.30492000  0.77248000  1.0
  C  C150  1  0.47844000  0.59456000  0.87507000  1.0
  C  C151  1  0.52155000  0.40544000  0.12492000  1.0
  C  C152  1  0.01248000  0.89963000  0.87294000  1.0
  C  C153  1  0.98751000  0.10038000  0.12706000  1.0
  C  C154  1  0.37532000  0.26889000  0.86138000  1.0
  C  C155  1  0.62468000  0.73111000  0.13862000  1.0
  C  C156  1  0.83081000  0.60868000  0.12331000  1.0
  C  C157  1  0.16919000  0.39133000  0.87669000  1.0
  C  C158  1  0.79139000  0.59245000  0.06015000  1.0
  C  C159  1  0.20861000  0.40755000  0.93985000  1.0
  C  C160  1  0.88310000  0.70354000  0.06787000  1.0
  C  C161  1  0.11691000  0.29647000  0.93213000  1.0
  C  C162  1  0.23868000  0.55634000  0.81967000  1.0
  C  C163  1  0.76131000  0.44366000  0.18033000  1.0
  C  C164  1  0.96708000  0.65614000  0.37228000  1.0
  C  C165  1  0.03293000  0.34387000  0.62772000  1.0
  C  C166  1  0.03415000  0.75881000  0.34072000  1.0
  C  C167  1  0.96584000  0.24119000  0.65928000  1.0
  C  C168  1  0.78759000  0.11842000  0.92100000  1.0
  C  C169  1  0.21242000  0.88158000  0.07900000  1.0
  C  C170  1  0.30890000  0.61450000  0.92973000  1.0
  C  C171  1  0.69109000  0.38550000  0.07027000  1.0
  C  C172  1  0.10941000  0.55068000  0.81876000  1.0
  C  C173  1  0.89059000  0.44933000  0.18124000  1.0
  C  C174  1  0.17912000  0.60748000  0.92909000  1.0
  C  C175  1  0.82088000  0.39252000  0.07091000  1.0
  C  C176  1  0.71746000  0.05638000  0.81170000  1.0
  C  C177  1  0.28253000  0.94361000  0.18830000  1.0
  C  C178  1  0.92893000  0.94398000  0.60661000  1.0
  C  C179  1  0.07107000  0.05602000  0.39339000  1.0
  C  C180  1  0.92001000  0.65435000  0.26258000  1.0
  C  C181  1  0.08000000  0.34565000  0.73742000  1.0
  C  C182  1  0.98189000  0.99584000  0.66319000  1.0
  C  C183  1  0.01812000  0.00416000  0.33681000  1.0
  C  C184  1  0.97614000  0.88854000  0.59513000  1.0
  C  C185  1  0.02386000  0.11146000  0.40487000  1.0
  C  C186  1  0.87771000  0.77202000  0.87069000  1.0
  C  C187  1  0.12228000  0.22798000  0.12931000  1.0
  C  C188  1  0.12504000  0.94338000  0.69791000  1.0
  C  C189  1  0.87496000  0.05662000  0.30209000  1.0
  C  C190  1  0.96599000  0.62687000  0.46170000  1.0
  C  C191  1  0.03402000  0.37313000  0.53830000  1.0
  C  C192  1  0.95054000  0.67667000  0.42964000  1.0
  C  C193  1  0.04946000  0.32333000  0.57036000  1.0
  C  C194  1  0.97198000  0.68991000  0.32722000  1.0
  C  C195  1  0.02803000  0.31009000  0.67278000  1.0
  C  C196  1  0.97787000  0.78024000  0.51958000  1.0
  C  C197  1  0.02213000  0.21976000  0.48042000  1.0
  C  C198  1  0.07639000  0.88944000  0.64321000  1.0
  C  C199  1  0.92361000  0.11056000  0.35679000  1.0
  C  C200  1  0.98138000  0.58671000  0.35784000  1.0
  C  C201  1  0.01862000  0.41329000  0.64216000  1.0
  C  C202  1  0.92764000  0.83249000  0.53699000  1.0
  C  C203  1  0.07236000  0.16751000  0.46301000  1.0
  C  C204  1  0.65730000  0.10926000  0.92050000  1.0
  C  C205  1  0.34270000  0.89073000  0.07950000  1.0
  C  C206  1  0.02401000  0.57910000  0.42165000  1.0
  C  C207  1  0.97599000  0.42090000  0.57836000  1.0
  C  C208  1  0.58736000  0.04780000  0.81106000  1.0
  C  C209  1  0.41264000  0.95220000  0.18894000  1.0
  C  C210  1  0.71589000  0.71694000  0.36653000  1.0
  C  C211  1  0.28412000  0.28306000  0.63347000  1.0
  C  C212  1  0.80982000  0.75234000  0.42931000  1.0
  C  C213  1  0.19018000  0.24766000  0.57069000  1.0
  C  C214  1  0.10823000  0.81282000  0.40121000  1.0
  C  C215  1  0.89176000  0.18718000  0.59879000  1.0
  C  C216  1  0.91323000  0.73491000  0.45844000  1.0
  C  C217  1  0.08677000  0.26509000  0.54156000  1.0
  C  C218  1  0.43440000  0.23509000  0.12181000  1.0
  C  C219  1  0.56559000  0.76491000  0.87819000  1.0
  C  C220  1  0.46694000  0.21212000  0.22088000  1.0
  C  C221  1  0.53305000  0.78788000  0.77912000  1.0
  C  C222  1  0.34327000  0.12216000  0.12012000  1.0
  C  C223  1  0.65672000  0.87784000  0.87988000  1.0
  C  C224  1  0.41560000  0.19010000  0.15435000  1.0
  C  C225  1  0.58439000  0.80990000  0.84565000  1.0
  C  C226  1  0.47409000  0.46251000  0.60922000  1.0
  C  C227  1  0.52591000  0.53749000  0.39078000  1.0
  C  C228  1  0.51991000  0.50972000  0.66833000  1.0
  C  C229  1  0.48009000  0.49028000  0.33167000  1.0
  C  C230  1  0.62465000  0.40752000  0.64196000  1.0
  C  C231  1  0.37535000  0.59248000  0.35804000  1.0
  C  C232  1  0.52560000  0.40889000  0.59468000  1.0
  C  C233  1  0.47440000  0.59111000  0.40532000  1.0
  C  C234  1  0.66589000  0.45683000  0.69936000  1.0
  C  C235  1  0.33410000  0.54317000  0.30064000  1.0
  C  C236  1  0.53129000  0.30404000  0.51623000  1.0
  C  C237  1  0.46871000  0.69596000  0.48377000  1.0
  C  C238  1  0.48049000  0.35577000  0.53484000  1.0
  C  C239  1  0.51951000  0.64423000  0.46516000  1.0
  C  C240  1  0.37992000  0.21196000  0.05859000  1.0
  C  C241  1  0.62008000  0.78804000  0.94141000  1.0
  C  C242  1  0.29211000  0.10295000  0.05713000  1.0
  C  C243  1  0.70789000  0.89705000  0.94287000  1.0
  C  C244  1  0.46593000  0.25936000  0.45500000  1.0
  C  C245  1  0.53408000  0.74064000  0.54500000  1.0
  C  C246  1  0.36188000  0.27708000  0.42680000  1.0
  C  C247  1  0.63813000  0.72292000  0.57320000  1.0
  C  C248  1  0.53093000  0.10990000  0.35445000  1.0
  C  C249  1  0.46907000  0.89010000  0.64555000  1.0
  C  C250  1  0.51548000  0.17906000  0.36832000  1.0
  C  C251  1  0.48452000  0.82094000  0.63168000  1.0
  C  C252  1  0.26618000  0.24210000  0.36441000  1.0
  C  C253  1  0.73382000  0.75790000  0.63559000  1.0
  C  C254  1  0.51903000  0.15160000  0.45871000  1.0
  C  C255  1  0.48096000  0.84839000  0.54129000  1.0
  C  C256  1  0.57688000  0.10376000  0.41863000  1.0
  C  C257  1  0.42312000  0.89624000  0.58137000  1.0
  C  C258  1  0.45472000  0.17349000  0.25810000  1.0
  C  C259  1  0.54527000  0.82651000  0.74190000  1.0
  C  C260  1  0.57623000  0.27938000  0.33273000  1.0
  C  C261  1  0.42376000  0.72061000  0.66727000  1.0
  C  C262  1  0.50221000  0.20084000  0.42614000  1.0
  C  C263  1  0.49778000  0.79915000  0.57386000  1.0
  C  C264  1  0.65628000  0.33472000  0.39166000  1.0
  C  C265  1  0.34371000  0.66527000  0.60834000  1.0
  C  C266  1  0.51486000  0.21108000  0.32191000  1.0
  C  C267  1  0.48514000  0.78892000  0.67809000  1.0
  S  S268  1  0.79619000  0.82383000  0.47740000  1.0
  S  S269  1  0.20382000  0.17617000  0.52261000  1.0
  S  S270  1  0.02478000  0.77786000  0.27471000  1.0
  S  S271  1  0.97522000  0.22214000  0.72529000  1.0
  S  S272  1  0.55628000  0.29544000  0.26500000  1.0
  S  S273  1  0.44372000  0.70456000  0.73500000  1.0
  S  S274  1  0.34858000  0.34800000  0.47595000  1.0
  S  S275  1  0.65142000  0.65200000  0.52405000  1.0
  N  N276  1  0.81606000  0.63893000  0.03262000  1.0
  N  N277  1  0.18394000  0.36107000  0.96738000  1.0
  N  N278  1  0.07896000  0.99622000  0.70826000  1.0
  N  N279  1  0.92104000  0.00378000  0.29174000  1.0
  N  N280  1  0.30901000  0.14699000  0.02663000  1.0
  N  N281  1  0.69099000  0.85301000  0.97337000  1.0
  N  N282  1  0.61397000  0.50722000  0.71299000  1.0
  N  N283  1  0.38603000  0.49278000  0.28701000  1.0
  O  O284  1  0.64422000  0.51042000  0.92279000  1.0
  O  O285  1  0.35578000  0.48958000  0.07721000  1.0
  O  O286  1  0.82572000  0.69362000  0.92081000  1.0
  O  O287  1  0.17426000  0.30637000  0.07919000  1.0
  O  O288  1  0.30141000  0.19346000  0.91097000  1.0
  O  O289  1  0.69861000  0.80654000  0.08903000  1.0
  O  O290  1  0.73226000  0.66099000  0.81781000  1.0
  O  O291  1  0.26772000  0.33900000  0.18219000  1.0
  O  O292  1  0.13312000  0.01499000  0.92590000  1.0
  O  O293  1  0.86688000  0.98501000  0.07410000  1.0
  O  O294  1  0.62460000  0.46969000  0.82108000  1.0
  O  O295  1  0.37540000  0.53031000  0.17892000  1.0
  O  O296  1  0.23118000  0.15740000  0.80660000  1.0
  O  O297  1  0.76882000  0.84260000  0.19340000  1.0
  O  O298  1  0.91204000  0.58158000  0.92281000  1.0
  O  O299  1  0.08795000  0.41842000  0.07719000  1.0
  O  O300  1  0.56749000  0.62472000  0.92614000  1.0
  O  O301  1  0.43250000  0.37527000  0.07386000  1.0
  O  O302  1  0.08566000  0.97440000  0.82215000  1.0
  O  O303  1  0.91435000  0.02560000  0.17785000  1.0
  O  O304  1  0.33386000  0.05042000  0.81169000  1.0
  O  O305  1  0.66615000  0.94958000  0.18831000  1.0
  O  O306  1  0.86238000  0.56248000  0.82017000  1.0
  O  O307  1  0.13762000  0.43752000  0.17983000  1.0
  O  O308  1  0.04561000  0.12504000  0.91859000  1.0
  O  O309  1  0.95439000  0.87496000  0.08140000  1.0
  O  O310  1  0.97924000  0.07989000  0.81435000  1.0
  O  O311  1  0.02078000  0.92012000  0.18564000  1.0
  O  O312  1  0.39216000  0.08371000  0.91580000  1.0
  O  O313  1  0.60785000  0.91629000  0.08420000  1.0
  O  O314  1  0.49613000  0.56830000  0.82318000  1.0
  O  O315  1  0.50387000  0.43170000  0.17682000  1.0
  F  F316  1  0.15853000  0.60260000  0.44353000  1.0
  F  F317  1  0.84149000  0.39741000  0.55647000  1.0
  F  F318  1  0.04495000  0.65646000  0.52171000  1.0
  F  F319  1  0.95505000  0.34354000  0.47830000  1.0
  F  F320  1  0.98262000  0.51450000  0.42059000  1.0
  F  F321  1  0.01739000  0.48551000  0.57941000  1.0
  F  F322  1  0.06944000  0.57730000  0.32527000  1.0
  F  F323  1  0.93057000  0.42270000  0.67473000  1.0
  F  F324  1  0.84689000  0.58939000  0.46456000  1.0
  F  F325  1  0.15311000  0.41061000  0.53544000  1.0
  F  F326  1  0.86273000  0.53687000  0.32378000  1.0
  F  F327  1  0.13728000  0.46314000  0.67623000  1.0
  F  F328  1  0.71160000  0.12836000  0.43959000  1.0
  F  F329  1  0.28841000  0.87164000  0.56041000  1.0
  F  F330  1  0.61742000  0.10030000  0.32101000  1.0
  F  F331  1  0.38257000  0.89970000  0.67899000  1.0
  F  F332  1  0.59873000  0.18152000  0.51856000  1.0
  F  F333  1  0.40126000  0.81847000  0.48144000  1.0
  F  F334  1  0.41232000  0.05960000  0.32158000  1.0
  F  F335  1  0.58767000  0.94039000  0.67842000  1.0
  F  F336  1  0.53838000  0.03964000  0.41887000  1.0
  F  F337  1  0.46163000  0.96036000  0.58112000  1.0
  F  F338  1  0.40040000  0.11420000  0.46205000  1.0
  F  F339  1  0.59960000  0.88579000  0.53795000  1.0
