# generated using pymatgen
data_NiH18C8(IO2)2
_symmetry_space_group_name_H-M   'P 1'
_cell_length_a   6.88715000
_cell_length_b   13.54640000
_cell_length_c   14.44780000
_cell_angle_alpha   90.00000000
_cell_angle_beta   90.00000000
_cell_angle_gamma   90.00000000
_symmetry_Int_Tables_number   1
_chemical_formula_structural   NiH18C8(IO2)2
_chemical_formula_sum   'Ni4 H72 C32 I8 O16'
_cell_volume   1347.92323119
_cell_formula_units_Z   4
loop_
 _symmetry_equiv_pos_site_id
 _symmetry_equiv_pos_as_xyz
  1  'x, y, z'
loop_
 _atom_site_type_symbol
 _atom_site_label
 _atom_site_symmetry_multiplicity
 _atom_site_fract_x
 _atom_site_fract_y
 _atom_site_fract_z
 _atom_site_occupancy
  Ni  Ni0  1  0.00000000  0.24987000  0.25000000  1.0
  Ni  Ni1  1  0.50000000  0.25013000  0.75000000  1.0
  Ni  Ni2  1  0.00000000  0.75013000  0.75000000  1.0
  Ni  Ni3  1  0.50000000  0.74987000  0.25000000  1.0
  H  H4  1  0.03772000  0.33953000  0.01555000  1.0
  H  H5  1  0.46228000  0.16047000  0.51555000  1.0
  H  H6  1  0.53773000  0.16047000  0.98445000  1.0
  H  H7  1  0.96228000  0.33953000  0.48445000  1.0
  H  H8  1  0.96228000  0.66047000  0.98445000  1.0
  H  H9  1  0.53772000  0.83953000  0.48445000  1.0
  H  H10  1  0.46228000  0.83953000  0.01555000  1.0
  H  H11  1  0.03772000  0.66047000  0.51555000  1.0
  H  H12  1  0.25841000  0.33327000  0.07980000  1.0
  H  H13  1  0.24159000  0.16673000  0.57980000  1.0
  H  H14  1  0.75842000  0.16672000  0.92020000  1.0
  H  H15  1  0.74159000  0.33328000  0.42020000  1.0
  H  H16  1  0.74159000  0.66666667  0.92020000  1.0
  H  H17  1  0.75841000  0.83328000  0.42020000  1.0
  H  H18  1  0.24159000  0.83328000  0.07980000  1.0
  H  H19  1  0.25842000  0.66666667  0.57980000  1.0
  H  H20  1  0.16277000  0.45176000  0.04909000  1.0
  H  H21  1  0.33722000  0.04823000  0.54910000  1.0
  H  H22  1  0.66278000  0.04823000  0.95090000  1.0
  H  H23  1  0.83723000  0.45177000  0.45090000  1.0
  H  H24  1  0.83723000  0.54823000  0.95091000  1.0
  H  H25  1  0.66277000  0.95177000  0.45090000  1.0
  H  H26  1  0.33722000  0.95177000  0.04909000  1.0
  H  H27  1  0.16277000  0.54823000  0.54910000  1.0
  H  H28  1  0.80527000  0.45884000  0.21545000  1.0
  H  H29  1  0.69472000  0.04116000  0.71545000  1.0
  H  H30  1  0.30527000  0.04116000  0.78455000  1.0
  H  H31  1  0.19472000  0.45884000  0.28455000  1.0
  H  H32  1  0.19473000  0.54116000  0.78455000  1.0
  H  H33  1  0.30528000  0.95884000  0.28455000  1.0
  H  H34  1  0.69472000  0.95884000  0.21545000  1.0
  H  H35  1  0.80528000  0.54116000  0.71545000  1.0
  H  H36  1  0.82394000  0.47317000  0.09266000  1.0
  H  H37  1  0.67605000  0.02682000  0.59266000  1.0
  H  H38  1  0.32395000  0.02683000  0.90734000  1.0
  H  H39  1  0.17605000  0.47318000  0.40733000  1.0
  H  H40  1  0.17606000  0.52683000  0.90734000  1.0
  H  H41  1  0.32395000  0.97317000  0.40733000  1.0
  H  H42  1  0.67605000  0.97318000  0.09266000  1.0
  H  H43  1  0.82395000  0.52682000  0.59267000  1.0
  H  H44  1  0.71120000  0.29773000  0.07241000  1.0
  H  H45  1  0.78880000  0.20227000  0.57241000  1.0
  H  H46  1  0.21120000  0.20227000  0.92759000  1.0
  H  H47  1  0.28880000  0.29773000  0.42759000  1.0
  H  H48  1  0.28880000  0.70227000  0.92758000  1.0
  H  H49  1  0.21120000  0.79773000  0.42759000  1.0
  H  H50  1  0.78880000  0.79773000  0.07241000  1.0
  H  H51  1  0.71120000  0.70227000  0.57241000  1.0
  H  H52  1  0.53820000  0.37143000  0.13476000  1.0
  H  H53  1  0.96179000  0.12857000  0.63476000  1.0
  H  H54  1  0.03821000  0.12857000  0.86524000  1.0
  H  H55  1  0.46179000  0.37143000  0.36524000  1.0
  H  H56  1  0.46180000  0.62857000  0.86524000  1.0
  H  H57  1  0.03821000  0.87143000  0.36524000  1.0
  H  H58  1  0.96179000  0.87143000  0.13476000  1.0
  H  H59  1  0.53821000  0.62857000  0.63476000  1.0
  H  H60  1  0.65693000  0.12234000  0.21130000  1.0
  H  H61  1  0.84307000  0.37766000  0.71129000  1.0
  H  H62  1  0.15693000  0.37767000  0.78871000  1.0
  H  H63  1  0.34307000  0.12233000  0.28871000  1.0
  H  H64  1  0.34307000  0.87767000  0.78870000  1.0
  H  H65  1  0.15693000  0.62234000  0.28871000  1.0
  H  H66  1  0.84307000  0.62234000  0.21129000  1.0
  H  H67  1  0.65693000  0.87767000  0.71129000  1.0
  H  H68  1  0.48886000  0.19294000  0.14423000  1.0
  H  H69  1  0.01115000  0.30705000  0.64423000  1.0
  H  H70  1  0.98885000  0.30705000  0.85577000  1.0
  H  H71  1  0.51114000  0.19295000  0.35577000  1.0
  H  H72  1  0.51115000  0.80706000  0.85577000  1.0
  H  H73  1  0.98885000  0.69295000  0.35577000  1.0
  H  H74  1  0.01115000  0.69295000  0.14423000  1.0
  H  H75  1  0.48886000  0.80705000  0.64423000  1.0
  C  C76  1  0.12537000  0.37582000  0.06933000  1.0
  C  C77  1  0.37463000  0.12418000  0.56933000  1.0
  C  C78  1  0.62537000  0.12418000  0.93067000  1.0
  C  C79  1  0.87463000  0.37582000  0.43067000  1.0
  C  C80  1  0.87463000  0.62418000  0.93067000  1.0
  C  C81  1  0.62537000  0.87582000  0.43067000  1.0
  C  C82  1  0.37463000  0.87582000  0.06933000  1.0
  C  C83  1  0.12537000  0.62418000  0.56933000  1.0
  C  C84  1  0.83213000  0.42011000  0.14997000  1.0
  C  C85  1  0.66787000  0.07989000  0.64998000  1.0
  C  C86  1  0.33213000  0.07989000  0.85003000  1.0
  C  C87  1  0.16787000  0.42011000  0.35003000  1.0
  C  C88  1  0.16787000  0.57990000  0.85003000  1.0
  C  C89  1  0.33213000  0.92011000  0.35003000  1.0
  C  C90  1  0.66787000  0.92011000  0.14997000  1.0
  C  C91  1  0.83213000  0.57989000  0.64998000  1.0
  C  C92  1  0.68479000  0.33935000  0.13671000  1.0
  C  C93  1  0.81521000  0.16065000  0.63671000  1.0
  C  C94  1  0.18480000  0.16065000  0.86329000  1.0
  C  C95  1  0.31520000  0.33935000  0.36329000  1.0
  C  C96  1  0.31520000  0.66065000  0.86329000  1.0
  C  C97  1  0.18479000  0.83935000  0.36329000  1.0
  C  C98  1  0.81520000  0.83935000  0.13671000  1.0
  C  C99  1  0.68480000  0.66065000  0.63671000  1.0
  C  C100  1  0.56934000  0.19007000  0.20983000  1.0
  C  C101  1  0.93066000  0.30993000  0.70983000  1.0
  C  C102  1  0.06934000  0.30993000  0.79017000  1.0
  C  C103  1  0.43066000  0.19007000  0.29017000  1.0
  C  C104  1  0.43066000  0.80993000  0.79016000  1.0
  C  C105  1  0.06933000  0.69007000  0.29017000  1.0
  C  C106  1  0.93066000  0.69007000  0.20983000  1.0
  C  C107  1  0.56934000  0.80993000  0.70983000  1.0
  I  I108  1  0.05949000  0.11745000  0.11778000  1.0
  I  I109  1  0.44050000  0.38255000  0.61778000  1.0
  I  I110  1  0.55950000  0.38255000  0.88222000  1.0
  I  I111  1  0.94051000  0.11745000  0.38222000  1.0
  I  I112  1  0.94050000  0.88256000  0.88222000  1.0
  I  I113  1  0.55949000  0.61745000  0.38222000  1.0
  I  I114  1  0.44050000  0.61745000  0.11778000  1.0
  I  I115  1  0.05949000  0.88255000  0.61778000  1.0
  O  O116  1  0.02485000  0.37829000  0.15644000  1.0
  O  O117  1  0.47515000  0.12171000  0.65644000  1.0
  O  O118  1  0.52485000  0.12171000  0.84356000  1.0
  O  O119  1  0.97514000  0.37829000  0.34356000  1.0
  O  O120  1  0.97515000  0.62171000  0.84356000  1.0
  O  O121  1  0.52485000  0.87829000  0.34356000  1.0
  O  O122  1  0.47514000  0.87829000  0.15644000  1.0
  O  O123  1  0.02486000  0.62171000  0.65644000  1.0
  O  O124  1  0.70087000  0.27355000  0.21549000  1.0
  O  O125  1  0.79913000  0.22645000  0.71549000  1.0
  O  O126  1  0.20087000  0.22645000  0.78452000  1.0
  O  O127  1  0.29913000  0.27355000  0.28451000  1.0
  O  O128  1  0.29914000  0.72646000  0.78451000  1.0
  O  O129  1  0.20087000  0.77355000  0.28451000  1.0
  O  O130  1  0.79913000  0.77355000  0.21548000  1.0
  O  O131  1  0.70087000  0.72645000  0.71549000  1.0
