# generated using pymatgen
data_FeHg2H28C34(S3N7)2
_symmetry_space_group_name_H-M   'P 1'
_cell_length_a   8.39087000
_cell_length_b   9.32479000
_cell_length_c   15.03580000
_cell_angle_alpha   101.29100000
_cell_angle_beta   101.82700000
_cell_angle_gamma   91.86350000
_symmetry_Int_Tables_number   1
_chemical_formula_structural   FeHg2H28C34(S3N7)2
_chemical_formula_sum   'Fe1 Hg2 H28 C34 S6 N14'
_cell_volume   1125.94741649
_cell_formula_units_Z   1
loop_
 _symmetry_equiv_pos_site_id
 _symmetry_equiv_pos_as_xyz
  1  'x, y, z'
loop_
 _atom_site_type_symbol
 _atom_site_label
 _atom_site_symmetry_multiplicity
 _atom_site_fract_x
 _atom_site_fract_y
 _atom_site_fract_z
 _atom_site_occupancy
  Fe  Fe0  1  0.00745000  0.49690000  0.51243000  1.0
  Hg  Hg1  1  0.58424000  0.92122000  0.60773000  1.0
  Hg  Hg2  1  0.41781000  0.08074000  0.39262000  1.0
  H  H3  1  0.20379000  0.68999000  0.68463000  1.0
  H  H4  1  0.79774000  0.30787000  0.30931000  1.0
  H  H5  1  0.34261000  0.66330000  0.84129000  1.0
  H  H6  1  0.65617000  0.33694000  0.15237000  1.0
  H  H7  1  0.99491000  0.26250000  0.61938000  1.0
  H  H8  1  0.99827000  0.73693000  0.37894000  1.0
  H  H9  1  0.12048000  0.21892000  0.77368000  1.0
  H  H10  1  0.87293000  0.78342000  0.22382000  1.0
  H  H11  1  0.89701000  0.89493000  0.77081000  1.0
  H  H12  1  0.10428000  0.10670000  0.23028000  1.0
  H  H13  1  0.00978000  0.73673000  0.88114000  1.0
  H  H14  1  0.99220000  0.26375000  0.11895000  1.0
  H  H15  1  0.59178000  0.42741000  0.75256000  1.0
  H  H16  1  0.40908000  0.57419000  0.24781000  1.0
  H  H17  1  0.49585000  0.59805000  0.64936000  1.0
  H  H18  1  0.50498000  0.40413000  0.35158000  1.0
  H  H19  1  0.33266000  0.17650000  0.89570000  1.0
  H  H20  1  0.66467000  0.82523000  0.10078000  1.0
  H  H21  1  0.17222000  0.25977000  0.94135000  1.0
  H  H22  1  0.82593000  0.74267000  0.05582000  1.0
  H  H23  1  0.37327000  0.27707000  0.01274000  1.0
  H  H24  1  0.62536000  0.72516000  0.98364000  1.0
  H  H25  1  0.86218000  0.26285000  0.92715000  1.0
  H  H26  1  0.13793000  0.73751000  0.07268000  1.0
  H  H27  1  0.80205000  0.26445000  0.80540000  1.0
  H  H28  1  0.19732000  0.73631000  0.19447000  1.0
  H  H29  1  0.66717000  0.31774000  0.87971000  1.0
  H  H30  1  0.33321000  0.68368000  0.12068000  1.0
  C  C31  1  0.32620000  0.63565000  0.48469000  1.0
  C  C32  1  0.67687000  0.36159000  0.52502000  1.0
  C  C33  1  0.91910000  0.81609000  0.56329000  1.0
  C  C34  1  0.08626000  0.17946000  0.44390000  1.0
  C  C35  1  0.19148000  0.58640000  0.70625000  1.0
  C  C36  1  0.80820000  0.41243000  0.28832000  1.0
  C  C37  1  0.26817000  0.57057000  0.79415000  1.0
  C  C38  1  0.73026000  0.42892000  0.20045000  1.0
  C  C39  1  0.25019000  0.43615000  0.82155000  1.0
  C  C40  1  0.74739000  0.56474000  0.17465000  1.0
  C  C41  1  0.07209000  0.34873000  0.67062000  1.0
  C  C42  1  0.92289000  0.65081000  0.32620000  1.0
  C  C43  1  0.14437000  0.32561000  0.75779000  1.0
  C  C44  1  0.85104000  0.67600000  0.23911000  1.0
  C  C45  1  0.34150000  0.41112000  0.91135000  1.0
  C  C46  1  0.65626000  0.59067000  0.08470000  1.0
  C  C47  1  0.83123000  0.79210000  0.77096000  1.0
  C  C48  1  0.17003000  0.20935000  0.22983000  1.0
  C  C49  1  0.89432000  0.70360000  0.83165000  1.0
  C  C50  1  0.10734000  0.29725000  0.16868000  1.0
  C  C51  1  0.80818000  0.56989000  0.82812000  1.0
  C  C52  1  0.19326000  0.43102000  0.17211000  1.0
  C  C53  1  0.66351000  0.53026000  0.76031000  1.0
  C  C54  1  0.33759000  0.47124000  0.24015000  1.0
  C  C55  1  0.60823000  0.62593000  0.70243000  1.0
  C  C56  1  0.39274000  0.37602000  0.29838000  1.0
  C  C57  1  0.86665000  0.47644000  0.89495000  1.0
  C  C58  1  0.13449000  0.52406000  0.10509000  1.0
  C  C59  1  0.30326000  0.27349000  0.94247000  1.0
  C  C60  1  0.69472000  0.72855000  0.05403000  1.0
  C  C61  1  0.79682000  0.32095000  0.87603000  1.0
  C  C62  1  0.20338000  0.67983000  0.12398000  1.0
  C  C63  1  0.32732000  0.99121000  0.74249000  1.0
  C  C64  1  0.67182000  0.00589000  0.25753000  1.0
  S  S65  1  0.48882000  0.71042000  0.46169000  1.0
  S  S66  1  0.50492000  0.28982000  0.53914000  1.0
  S  S67  1  0.86968000  0.98680000  0.58220000  1.0
  S  S68  1  0.13063000  0.00884000  0.41423000  1.0
  S  S69  1  0.41156000  0.09483000  0.68347000  1.0
  S  S70  1  0.58530000  0.90316000  0.31610000  1.0
  N  N71  1  0.21050000  0.57640000  0.49873000  1.0
  N  N72  1  0.79926000  0.41943000  0.51803000  1.0
  N  N73  1  0.95209000  0.69311000  0.54921000  1.0
  N  N74  1  0.05706000  0.30236000  0.46600000  1.0
  N  N75  1  0.09773000  0.47584000  0.64331000  1.0
  N  N76  1  0.89979000  0.52259000  0.35080000  1.0
  N  N77  1  0.68908000  0.75500000  0.70833000  1.0
  N  N78  1  0.31186000  0.24707000  0.29271000  1.0
  N  N79  1  0.45540000  0.51394000  0.95663000  1.0
  N  N80  1  0.54232000  0.48819000  0.03927000  1.0
  N  N81  1  0.97503000  0.54248000  0.96805000  1.0
  N  N82  1  0.02637000  0.45767000  0.03194000  1.0
  N  N83  1  0.26189000  0.92709000  0.78698000  1.0
  N  N84  1  0.73819000  0.06939000  0.21314000  1.0
