# generated using pymatgen
data_Zr6H30C57(SO24)2
_symmetry_space_group_name_H-M   'P 1'
_cell_length_a   14.72580000
_cell_length_b   14.73020000
_cell_length_c   14.74260000
_cell_angle_alpha   60.31410000
_cell_angle_beta   60.08990000
_cell_angle_gamma   60.11550000
_symmetry_Int_Tables_number   1
_chemical_formula_structural   Zr6H30C57(SO24)2
_chemical_formula_sum   'Zr6 H30 C57 S2 O48'
_cell_volume   2270.08723684
_cell_formula_units_Z   1
loop_
 _symmetry_equiv_pos_site_id
 _symmetry_equiv_pos_as_xyz
  1  'x, y, z'
loop_
 _atom_site_type_symbol
 _atom_site_label
 _atom_site_symmetry_multiplicity
 _atom_site_fract_x
 _atom_site_fract_y
 _atom_site_fract_z
 _atom_site_occupancy
  Zr  Zr0  1  0.88638000  0.88014000  0.61614000  1.0
  Zr  Zr1  1  0.12959000  0.11625000  0.38009000  1.0
  Zr  Zr2  1  0.12862000  0.87522000  0.61818000  1.0
  Zr  Zr3  1  0.88808000  0.11828000  0.37943000  1.0
  Zr  Zr4  1  0.12876000  0.87860000  0.37691000  1.0
  Zr  Zr5  1  0.88949000  0.11632000  0.61908000  1.0
  H  H6  1  0.10442000  0.71422000  0.59037000  1.0
  H  H7  1  0.10539000  0.09277000  0.21603000  1.0
  H  H8  1  0.10814000  0.08708000  0.59220000  1.0
  H  H9  1  0.72550000  0.09335000  0.59159000  1.0
  H  H10  1  0.82848000  0.62771000  0.58516000  1.0
  H  H11  1  0.17760000  0.55162000  0.39781000  1.0
  H  H12  1  0.83332000  0.45352000  0.58756000  1.0
  H  H13  1  0.59208000  0.85488000  0.91250000  1.0
  H  H14  1  0.60543000  0.13489000  0.92238000  1.0
  H  H15  1  0.42409000  0.85455000  0.08443000  1.0
  H  H16  1  0.15664000  0.85532000  0.08051000  1.0
  H  H17  1  0.85359000  0.13372000  0.09213000  1.0
  H  H18  1  0.15456000  0.85287000  0.91216000  1.0
  H  H19  1  0.60175000  0.42669000  0.63572000  1.0
  H  H20  1  0.61290000  0.42094000  0.34191000  1.0
  H  H21  1  0.43238000  0.59653000  0.63090000  1.0
  H  H22  1  0.04215000  0.56482000  0.73528000  1.0
  H  H23  1  0.10255000  0.38153000  0.72296000  1.0
  H  H24  1  0.05252000  0.23057000  0.07182000  1.0
  H  H25  1  0.10814000  0.21320000  0.89267000  1.0
  H  H26  1  0.60535000  0.12972000  0.33566000  1.0
  H  H27  1  0.60841000  0.84350000  0.62983000  1.0
  H  H28  1  0.43669000  0.12443000  0.33902000  1.0
  H  H29  1  0.22561000  0.40148000  0.26482000  1.0
  H  H30  1  0.32610000  0.25654000  0.01935000  1.0
  H  H31  1  0.90162000  0.23361000  0.77850000  1.0
  H  H32  1  0.37119000  0.48561000  0.38931000  1.0
  H  H33  1  0.32811000  0.90828000  0.74261000  1.0
  H  H34  1  0.93327000  0.66006000  0.20574000  1.0
  H  H35  1  0.72733000  0.71972000  0.16415000  1.0
  C  C36  1  0.00298000  0.70030000  0.49067000  1.0
  C  C37  1  0.31554000  0.99691000  0.19592000  1.0
  C  C38  1  0.00970000  0.30040000  0.50132000  1.0
  C  C39  1  0.70648000  0.99698000  0.80393000  1.0
  C  C40  1  0.99056000  0.70556000  0.81130000  1.0
  C  C41  1  0.71072000  0.99385000  0.48845000  1.0
  C  C42  1  0.99444000  0.31285000  0.20864000  1.0
  C  C43  1  0.32090000  0.98760000  0.49176000  1.0
  C  C44  1  0.31831000  0.69710000  0.49201000  1.0
  C  C45  1  0.00854000  0.99052000  0.80549000  1.0
  C  C46  1  0.71171000  0.30746000  0.49516000  1.0
  C  C47  1  0.00617000  0.99791000  0.19481000  1.0
  C  C48  1  0.00874000  0.40298000  0.49917000  1.0
  C  C49  1  0.00279000  0.59926000  0.49038000  1.0
  C  C50  1  0.10727000  0.42851000  0.44684000  1.0
  C  C51  1  0.90545000  0.57213000  0.54544000  1.0
  C  C52  1  0.10303000  0.52853000  0.43976000  1.0
  C  C53  1  0.90838000  0.47518000  0.54787000  1.0
  C  C54  1  0.41694000  0.99824000  0.09538000  1.0
  C  C55  1  0.60629000  0.99679000  0.90594000  1.0
  C  C56  1  0.46776000  0.07823000  0.05008000  1.0
  C  C57  1  0.55604000  0.91723000  0.95132000  1.0
  C  C58  1  0.56307000  0.07615000  0.95600000  1.0
  C  C59  1  0.46243000  0.91763000  0.04589000  1.0
  C  C60  1  0.00581000  0.99435000  0.90593000  1.0
  C  C61  1  0.00635000  0.99638000  0.09416000  1.0
  C  C62  1  0.91935000  0.07461000  0.95613000  1.0
  C  C63  1  0.09149000  0.91625000  0.04449000  1.0
  C  C64  1  0.92064000  0.07406000  0.05064000  1.0
  C  C65  1  0.09049000  0.91536000  0.95131000  1.0
  C  C66  1  0.42477000  0.60170000  0.48643000  1.0
  C  C67  1  0.61510000  0.41271000  0.49047000  1.0
  C  C68  1  0.47705000  0.55402000  0.40239000  1.0
  C  C69  1  0.56606000  0.46270000  0.57111000  1.0
  C  C70  1  0.57168000  0.45969000  0.40541000  1.0
  C  C71  1  0.47145000  0.55658000  0.56885000  1.0
  C  C72  1  0.97818000  0.61079000  0.92027000  1.0
  C  C73  1  0.01712000  0.50421000  0.91079000  1.0
  C  C74  1  0.93228000  0.62204000  0.02373000  1.0
  C  C75  1  0.04900000  0.49157000  0.80837000  1.0
  C  C76  1  0.08131000  0.38895000  0.80181000  1.0
  C  C77  1  0.98241000  0.42045000  0.11246000  1.0
  C  C78  1  0.93467000  0.52511000  0.12152000  1.0
  C  C79  1  0.01963000  0.40821000  0.00768000  1.0
  C  C80  1  0.05486000  0.30351000  0.99785000  1.0
  C  C81  1  0.08456000  0.29405000  0.89739000  1.0
  C  C82  1  0.42577000  0.98339000  0.48812000  1.0
  C  C83  1  0.61459000  0.98843000  0.48435000  1.0
  C  C84  1  0.47496000  0.90179000  0.56996000  1.0
  C  C85  1  0.56806000  0.06673000  0.40096000  1.0
  C  C86  1  0.56937000  0.90506000  0.56715000  1.0
  C  C87  1  0.47401000  0.06407000  0.40309000  1.0
  C  C88  1  0.22039000  0.34408000  0.41558000  1.0
  C  C89  1  0.42902000  0.16458000  0.10023000  1.0
  C  C90  1  0.81715000  0.15795000  0.92385000  1.0
  C  C91  1  0.43861000  0.59911000  0.30614000  1.0
  C  C92  1  0.43488000  0.80720000  0.66123000  1.0
  S  S93  1  0.87087000  0.53449000  0.25888000  1.0
  S  S94  1  0.86627000  0.76071000  0.03079000  1.0
  O  O95  1  0.92610000  0.73878000  0.56858000  1.0
  O  O96  1  0.27355000  0.07525000  0.23512000  1.0
  O  O97  1  0.08707000  0.26071000  0.42431000  1.0
  O  O98  1  0.74269000  0.92266000  0.76168000  1.0
  O  O99  1  0.07592000  0.73245000  0.77072000  1.0
  O  O100  1  0.74828000  0.07278000  0.41428000  1.0
  O  O101  1  0.92262000  0.26898000  0.24295000  1.0
  O  O102  1  0.27881000  0.91304000  0.57097000  1.0
  O  O103  1  0.27638000  0.73432000  0.41735000  1.0
  O  O104  1  0.93236000  0.06751000  0.76498000  1.0
  O  O105  1  0.75036000  0.26689000  0.57296000  1.0
  O  O106  1  0.08307000  0.92090000  0.23433000  1.0
  O  O107  1  0.08713000  0.91456000  0.76532000  1.0
  O  O108  1  0.74619000  0.26394000  0.42241000  1.0
  O  O109  1  0.93056000  0.07669000  0.23271000  1.0
  O  O110  1  0.27482000  0.73287000  0.57283000  1.0
  O  O111  1  0.91931000  0.74027000  0.76670000  1.0
  O  O112  1  0.27867000  0.06651000  0.41791000  1.0
  O  O113  1  0.07879000  0.27227000  0.23693000  1.0
  O  O114  1  0.74743000  0.91985000  0.56802000  1.0
  O  O115  1  0.74728000  0.07318000  0.76429000  1.0
  O  O116  1  0.08188000  0.73768000  0.41559000  1.0
  O  O117  1  0.27599000  0.92010000  0.23489000  1.0
  O  O118  1  0.93413000  0.25996000  0.58012000  1.0
  O  O119  1  0.80607000  0.06619000  0.56474000  1.0
  O  O120  1  0.07873000  0.06145000  0.56658000  1.0
  O  O121  1  0.07568000  0.06746000  0.29623000  1.0
  O  O122  1  0.07479000  0.79451000  0.56552000  1.0
  O  O123  1  0.15873000  0.94650000  0.44846000  1.0
  O  O124  1  0.95932000  0.94896000  0.44696000  1.0
  O  O125  1  0.95990000  0.14672000  0.44981000  1.0
  O  O126  1  0.95925000  0.94706000  0.64662000  1.0
  O  O127  1  0.27565000  0.35129000  0.30811000  1.0
  O  O128  1  0.26505000  0.27601000  0.48536000  1.0
  O  O129  1  0.35213000  0.26341000  0.06426000  1.0
  O  O130  1  0.46879000  0.15349000  0.16132000  1.0
  O  O131  1  0.82676000  0.24956000  0.83253000  1.0
  O  O132  1  0.72574000  0.15063000  0.98534000  1.0
  O  O133  1  0.37802000  0.54507000  0.31779000  1.0
  O  O134  1  0.46557000  0.67042000  0.21974000  1.0
  O  O135  1  0.35540000  0.82868000  0.75627000  1.0
  O  O136  1  0.47721000  0.71350000  0.65794000  1.0
  O  O137  1  0.94368000  0.58206000  0.26206000  1.0
  O  O138  1  0.88228000  0.42641000  0.34000000  1.0
  O  O139  1  0.75890000  0.61421000  0.26826000  1.0
  O  O140  1  0.73957000  0.77437000  0.08593000  1.0
  O  O141  1  0.88010000  0.84001000  0.92182000  1.0
  O  O142  1  0.90377000  0.76467000  0.10319000  1.0
