# generated using pymatgen
data_CdH11C16NO5
_symmetry_space_group_name_H-M   'P 1'
_cell_length_a   8.89843000
_cell_length_b   15.25146180
_cell_length_c   25.77560000
_cell_angle_alpha   93.23547063
_cell_angle_beta   99.92780000
_cell_angle_gamma   106.94140814
_symmetry_Int_Tables_number   1
_chemical_formula_structural   CdH11C16NO5
_chemical_formula_sum   'Cd8 H88 C128 N8 O40'
_cell_volume   3275.00450456
_cell_formula_units_Z   8
loop_
 _symmetry_equiv_pos_site_id
 _symmetry_equiv_pos_as_xyz
  1  'x, y, z'
loop_
 _atom_site_type_symbol
 _atom_site_label
 _atom_site_symmetry_multiplicity
 _atom_site_fract_x
 _atom_site_fract_y
 _atom_site_fract_z
 _atom_site_occupancy
  Cd  Cd0  1  0.46323000  0.62359000  0.49396000  1.0
  Cd  Cd1  1  0.84582000  0.87646000  0.00606000  1.0
  Cd  Cd2  1  0.53677000  0.37641000  0.50604000  1.0
  Cd  Cd3  1  0.15418000  0.12355000  0.99394000  1.0
  Cd  Cd4  1  0.89419000  0.76189000  0.53489000  1.0
  Cd  Cd5  1  0.09763000  0.73811000  0.96504000  1.0
  Cd  Cd6  1  0.10580000  0.23810000  0.46511000  1.0
  Cd  Cd7  1  0.90237000  0.26189000  0.03496000  1.0
  H  H8  1  0.77739000  0.59791000  0.58437000  1.0
  H  H9  1  0.09519000  0.90230000  0.91571000  1.0
  H  H10  1  0.22261000  0.40209000  0.41563000  1.0
  H  H11  1  0.90481000  0.09770000  0.08429000  1.0
  H  H12  1  0.95379000  0.60961000  0.57730000  1.0
  H  H13  1  0.26686000  0.89042000  0.92279000  1.0
  H  H14  1  0.04619000  0.39038000  0.42270000  1.0
  H  H15  1  0.73314000  0.10958000  0.07721000  1.0
  H  H16  1  0.11337000  0.68961000  0.48673000  1.0
  H  H17  1  0.43710000  0.81078000  0.01325000  1.0
  H  H18  1  0.88663000  0.31039000  0.51327000  1.0
  H  H19  1  0.56290000  0.18922000  0.98675000  1.0
  H  H20  1  0.22322000  0.74002000  0.53994000  1.0
  H  H21  1  0.44359000  0.76031000  0.96009000  1.0
  H  H22  1  0.77678000  0.25998000  0.46006000  1.0
  H  H23  1  0.55641000  0.23969000  0.03991000  1.0
  H  H24  1  0.44290000  0.91271000  0.60951000  1.0
  H  H25  1  0.42072000  0.58731000  0.89071000  1.0
  H  H26  1  0.55710000  0.08729000  0.39048000  1.0
  H  H27  1  0.57928000  0.41269000  0.10929000  1.0
  H  H28  1  0.53785000  0.01776000  0.69324000  1.0
  H  H29  1  0.32666000  0.48230000  0.80696000  1.0
  H  H30  1  0.46215000  0.98224000  0.30676000  1.0
  H  H31  1  0.67335000  0.51770000  0.19304000  1.0
  H  H32  1  0.89099000  0.88223000  0.74432000  1.0
  H  H33  1  0.76396000  0.61763000  0.75571000  1.0
  H  H34  1  0.10902000  0.11778000  0.25568000  1.0
  H  H35  1  0.23604000  0.38237000  0.24429000  1.0
  H  H36  1  0.79561000  0.77821000  0.65930000  1.0
  H  H37  1  0.85775000  0.72166000  0.84071000  1.0
  H  H38  1  0.20440000  0.22179000  0.34070000  1.0
  H  H39  1  0.14225000  0.27834000  0.15929000  1.0
  H  H40  1  0.78126000  0.22972000  0.83061000  1.0
  H  H41  1  0.22100000  0.27038000  0.66941000  1.0
  H  H42  1  0.21874000  0.77028000  0.16939000  1.0
  H  H43  1  0.77900000  0.72962000  0.33059000  1.0
  H  H44  1  0.79264000  0.90735000  0.82220000  1.0
  H  H45  1  0.56278000  0.59275000  0.67794000  1.0
  H  H46  1  0.20736000  0.09265000  0.17780000  1.0
  H  H47  1  0.43721000  0.40725000  0.32206000  1.0
  H  H48  1  0.55352000  0.20188000  0.74771000  1.0
  H  H49  1  0.10367000  0.29813000  0.75239000  1.0
  H  H50  1  0.44649000  0.79812000  0.25229000  1.0
  H  H51  1  0.89633000  0.70188000  0.24761000  1.0
  H  H52  1  0.53027000  0.28443000  0.66722000  1.0
  H  H53  1  0.07860000  0.21548000  0.83285000  1.0
  H  H54  1  0.46974000  0.71557000  0.33277000  1.0
  H  H55  1  0.92140000  0.78452000  0.16715000  1.0
  H  H56  1  0.94097000  0.22515000  0.62729000  1.0
  H  H57  1  0.58844000  0.27497000  0.87272000  1.0
  H  H58  1  0.05904000  0.77485000  0.37271000  1.0
  H  H59  1  0.41155000  0.72502000  0.12728000  1.0
  H  H60  1  0.95359000  0.13209000  0.70471000  1.0
  H  H61  1  0.61646000  0.36800000  0.79526000  1.0
  H  H62  1  0.04641000  0.86791000  0.29529000  1.0
  H  H63  1  0.38354000  0.63200000  0.20474000  1.0
  H  H64  1  0.64023000  0.81681000  0.44582000  1.0
  H  H65  1  0.87774000  0.68321000  0.05416000  1.0
  H  H66  1  0.35976000  0.18319000  0.55418000  1.0
  H  H67  1  0.12227000  0.31679000  0.94584000  1.0
  H  H68  1  0.53358000  0.94727000  0.42511000  1.0
  H  H69  1  0.66169000  0.55273000  0.07493000  1.0
  H  H70  1  0.46641000  0.05273000  0.57489000  1.0
  H  H71  1  0.33831000  0.44728000  0.92507000  1.0
  H  H72  1  0.66026000  0.10003000  0.48272000  1.0
  H  H73  1  0.57809000  0.39995000  0.01730000  1.0
  H  H74  1  0.33974000  0.89997000  0.51728000  1.0
  H  H75  1  0.42192000  0.60006000  0.98270000  1.0
  H  H76  1  0.88212000  0.11298000  0.55838000  1.0
  H  H77  1  0.71131000  0.38705000  0.94160000  1.0
  H  H78  1  0.11788000  0.88702000  0.44162000  1.0
  H  H79  1  0.28869000  0.61295000  0.05840000  1.0
  H  H80  1  0.07014000  0.11738000  0.61565000  1.0
  H  H81  1  0.83719000  0.38272000  0.88420000  1.0
  H  H82  1  0.92986000  0.88262000  0.38435000  1.0
  H  H83  1  0.16281000  0.61728000  0.11580000  1.0
  H  H84  1  0.24912000  0.10690000  0.69905000  1.0
  H  H85  1  0.94357000  0.39313000  0.80085000  1.0
  H  H86  1  0.75088000  0.89310000  0.30095000  1.0
  H  H87  1  0.05642000  0.60687000  0.19915000  1.0
  H  H88  1  0.28385000  0.95251000  0.71735000  1.0
  H  H89  1  0.11444000  0.54752000  0.78257000  1.0
  H  H90  1  0.71613000  0.04748000  0.28265000  1.0
  H  H91  1  0.88557000  0.45249000  0.21743000  1.0
  H  H92  1  0.14428000  0.81714000  0.64850000  1.0
  H  H93  1  0.17876000  0.68289000  0.85140000  1.0
  H  H94  1  0.85572000  0.18286000  0.35150000  1.0
  H  H95  1  0.82125000  0.31712000  0.14860000  1.0
  C  C96  1  0.61489000  0.84005000  0.62877000  1.0
  C  C97  1  0.64596000  0.65988000  0.87136000  1.0
  C  C98  1  0.38511000  0.15995000  0.37123000  1.0
  C  C99  1  0.35405000  0.34013000  0.12864000  1.0
  C  C100  1  0.54252000  0.90754000  0.63899000  1.0
  C  C101  1  0.49591000  0.59243000  0.86119000  1.0
  C  C102  1  0.45748000  0.09246000  0.36101000  1.0
  C  C103  1  0.50409000  0.40757000  0.13881000  1.0
  C  C104  1  0.59560000  0.96576000  0.68602000  1.0
  C  C105  1  0.44361000  0.53425000  0.81414000  1.0
  C  C106  1  0.40441000  0.03425000  0.31397000  1.0
  C  C107  1  0.55639000  0.46575000  0.18586000  1.0
  C  C108  1  0.72147000  0.95799000  0.72500000  1.0
  C  C109  1  0.53808000  0.54199000  0.77510000  1.0
  C  C110  1  0.27853000  0.04201000  0.27500000  1.0
  C  C111  1  0.46191000  0.45801000  0.22490000  1.0
  C  C112  1  0.79265000  0.88937000  0.71483000  1.0
  C  C113  1  0.68807000  0.61053000  0.78523000  1.0
  C  C114  1  0.20736000  0.11064000  0.28517000  1.0
  C  C115  1  0.31193000  0.38947000  0.21477000  1.0
  C  C116  1  0.74023000  0.83125000  0.66726000  1.0
  C  C117  1  0.74144000  0.66863000  0.83281000  1.0
  C  C118  1  0.25977000  0.16875000  0.33274000  1.0
  C  C119  1  0.25856000  0.33137000  0.16719000  1.0
  C  C120  1  0.55541000  0.77877000  0.57751000  1.0
  C  C121  1  0.69911000  0.72119000  0.92262000  1.0
  C  C122  1  0.44459000  0.22123000  0.42249000  1.0
  C  C123  1  0.30089000  0.27881000  0.07738000  1.0
  C  C124  1  0.76633000  0.01755000  0.77609000  1.0
  C  C125  1  0.47231000  0.48250000  0.72399000  1.0
  C  C126  1  0.23367000  0.98245000  0.22391000  1.0
  C  C127  1  0.52768000  0.51749000  0.27600000  1.0
  C  C128  1  0.76601000  0.11063000  0.77867000  1.0
  C  C129  1  0.37643000  0.38942000  0.72139000  1.0
  C  C130  1  0.23399000  0.88937000  0.22134000  1.0
  C  C131  1  0.62356000  0.61058000  0.27861000  1.0
  C  C132  1  0.78325000  0.15854000  0.82818000  1.0
  C  C133  1  0.29650000  0.34155000  0.67186000  1.0
  C  C134  1  0.21676000  0.84146000  0.17182000  1.0
  C  C135  1  0.70349000  0.65844000  0.32814000  1.0
  C  C136  1  0.81023000  0.12027000  0.87554000  1.0
  C  C137  1  0.31459000  0.37984000  0.62451000  1.0
  C  C138  1  0.18977000  0.87973000  0.12446000  1.0
  C  C139  1  0.68541000  0.62016000  0.37549000  1.0
  C  C140  1  0.81873000  0.02958000  0.87310000  1.0
  C  C141  1  0.41611000  0.47054000  0.62698000  1.0
  C  C142  1  0.18127000  0.97042000  0.12690000  1.0
  C  C143  1  0.58388000  0.52946000  0.37302000  1.0
  C  C144  1  0.79505000  0.97942000  0.82373000  1.0
  C  C145  1  0.49164000  0.52068000  0.67637000  1.0
  C  C146  1  0.20494000  0.02058000  0.17627000  1.0
  C  C147  1  0.50836000  0.47932000  0.32363000  1.0
  C  C148  1  0.83610000  0.17916000  0.92669000  1.0
  C  C149  1  0.23066000  0.32094000  0.57335000  1.0
  C  C150  1  0.16390000  0.82084000  0.07331000  1.0
  C  C151  1  0.76934000  0.67906000  0.42665000  1.0
  C  C152  1  0.84674000  0.98240000  0.92180000  1.0
  C  C153  1  0.44268000  0.51772000  0.57827000  1.0
  C  C154  1  0.15326000  0.01760000  0.07820000  1.0
  C  C155  1  0.55731000  0.48228000  0.42173000  1.0
  C  C156  1  0.75452000  0.16083000  0.73130000  1.0
  C  C157  1  0.36209000  0.33920000  0.76874000  1.0
  C  C158  1  0.24549000  0.83917000  0.26870000  1.0
  C  C159  1  0.63791000  0.66080000  0.23126000  1.0
  C  C160  1  0.63718000  0.20567000  0.72096000  1.0
  C  C161  1  0.21032000  0.29434000  0.77911000  1.0
  C  C162  1  0.36283000  0.79433000  0.27904000  1.0
  C  C163  1  0.78968000  0.70566000  0.22089000  1.0
  C  C164  1  0.62436000  0.25215000  0.67631000  1.0
  C  C165  1  0.19581000  0.24781000  0.82374000  1.0
  C  C166  1  0.37564000  0.74785000  0.32369000  1.0
  C  C167  1  0.80419000  0.75219000  0.17626000  1.0
  C  C168  1  0.73289000  0.25829000  0.64221000  1.0
  C  C169  1  0.33236000  0.24169000  0.85780000  1.0
  C  C170  1  0.26712000  0.74171000  0.35779000  1.0
  C  C171  1  0.66764000  0.75831000  0.14220000  1.0
  C  C172  1  0.85406000  0.21670000  0.65327000  1.0
  C  C173  1  0.48400000  0.28338000  0.84674000  1.0
  C  C174  1  0.14594000  0.78330000  0.34673000  1.0
  C  C175  1  0.51600000  0.71662000  0.15326000  1.0
  C  C176  1  0.86202000  0.16659000  0.69666000  1.0
  C  C177  1  0.49850000  0.33347000  0.80334000  1.0
  C  C178  1  0.13799000  0.83341000  0.30334000  1.0
  C  C179  1  0.50150000  0.66653000  0.19666000  1.0
  C  C180  1  0.71489000  0.30655000  0.59344000  1.0
  C  C181  1  0.31500000  0.19336000  0.90656000  1.0
  C  C182  1  0.28512000  0.69345000  0.40656000  1.0
  C  C183  1  0.68501000  0.80664000  0.09344000  1.0
  C  C184  1  0.69150000  0.88345000  0.46994000  1.0
  C  C185  1  0.83832000  0.61658000  0.03003000  1.0
  C  C186  1  0.30849000  0.11655000  0.53006000  1.0
  C  C187  1  0.16170000  0.38343000  0.96997000  1.0
  C  C188  1  0.63251000  0.95681000  0.45852000  1.0
  C  C189  1  0.71756000  0.54319000  0.04149000  1.0
  C  C190  1  0.36749000  0.04319000  0.54148000  1.0
  C  C191  1  0.28245000  0.45682000  0.95851000  1.0
  C  C192  1  0.70221000  0.04066000  0.49056000  1.0
  C  C193  1  0.67146000  0.45934000  0.00944000  1.0
  C  C194  1  0.29779000  0.95934000  0.50944000  1.0
  C  C195  1  0.32854000  0.54066000  0.99056000  1.0
  C  C196  1  0.82624000  0.04772000  0.53340000  1.0
  C  C197  1  0.74553000  0.45231000  0.96657000  1.0
  C  C198  1  0.17376000  0.95228000  0.46660000  1.0
  C  C199  1  0.25447000  0.54769000  0.03343000  1.0
  C  C200  1  0.87687000  0.97029000  0.54329000  1.0
  C  C201  1  0.86354000  0.52975000  0.95665000  1.0
  C  C202  1  0.12313000  0.02971000  0.45671000  1.0
  C  C203  1  0.13647000  0.47025000  0.04335000  1.0
  C  C204  1  0.00058000  0.97069000  0.59031000  1.0
  C  C205  1  0.93972000  0.52937000  0.90958000  1.0
  C  C206  1  0.99942000  0.02931000  0.40968000  1.0
  C  C207  1  0.06030000  0.47064000  0.09042000  1.0
  C  C208  1  0.08321000  0.05096000  0.62511000  1.0
  C  C209  1  0.90731000  0.44911000  0.87476000  1.0
  C  C210  1  0.91679000  0.94904000  0.37489000  1.0
  C  C211  1  0.09269000  0.55089000  0.12524000  1.0
  C  C212  1  0.18565000  0.04527000  0.67127000  1.0
  C  C213  1  0.96946000  0.45477000  0.82863000  1.0
  C  C214  1  0.81434000  0.95472000  0.32873000  1.0
  C  C215  1  0.03054000  0.54523000  0.17137000  1.0
  C  C216  1  0.20657000  0.96027000  0.68142000  1.0
  C  C217  1  0.06524000  0.53976000  0.81849000  1.0
  C  C218  1  0.79343000  0.03973000  0.31858000  1.0
  C  C219  1  0.93476000  0.46024000  0.18151000  1.0
  C  C220  1  0.12812000  0.88463000  0.64352000  1.0
  C  C221  1  0.10015000  0.61541000  0.85639000  1.0
  C  C222  1  0.87188000  0.11537000  0.35648000  1.0
  C  C223  1  0.89986000  0.38460000  0.14361000  1.0
  N  N224  1  0.81041000  0.89034000  0.51117000  1.0
  N  N225  1  0.90907000  0.60970000  0.98878000  1.0
  N  N226  1  0.18959000  0.10966000  0.48883000  1.0
  N  N227  1  0.09093000  0.39030000  0.01122000  1.0
  N  N228  1  0.02778000  0.88966000  0.59937000  1.0
  N  N229  1  0.03886000  0.61038000  0.90053000  1.0
  N  N230  1  0.97221000  0.11033000  0.40063000  1.0
  N  N231  1  0.96114000  0.38962000  0.09947000  1.0
  O  O232  1  0.42801000  0.77995000  0.54732000  1.0
  O  O233  1  0.60080000  0.72010000  0.95284000  1.0
  O  O234  1  0.57198000  0.22004000  0.45269000  1.0
  O  O235  1  0.39921000  0.27990000  0.04716000  1.0
  O  O236  1  0.63772000  0.72625000  0.56602000  1.0
  O  O237  1  0.84541000  0.77364000  0.93406000  1.0
  O  O238  1  0.36228000  0.27375000  0.43398000  1.0
  O  O239  1  0.15460000  0.22637000  0.06594000  1.0
  O  O240  1  0.72705000  0.94347000  0.94157000  1.0
  O  O241  1  0.34203000  0.55656000  0.55847000  1.0
  O  O242  1  0.27295000  0.05653000  0.05843000  1.0
  O  O243  1  0.65796000  0.44343000  0.44153000  1.0
  O  O244  1  0.98933000  0.97955000  0.93977000  1.0
  O  O245  1  0.57017000  0.52057000  0.56032000  1.0
  O  O246  1  0.01067000  0.02045000  0.06024000  1.0
  O  O247  1  0.42983000  0.47943000  0.43968000  1.0
  O  O248  1  0.57183000  0.31131000  0.57781000  1.0
  O  O249  1  0.18287000  0.18868000  0.92222000  1.0
  O  O250  1  0.42818000  0.68869000  0.42219000  1.0
  O  O251  1  0.81713000  0.81132000  0.07778000  1.0
  O  O252  1  0.83122000  0.33775000  0.57119000  1.0
  O  O253  1  0.42231000  0.16203000  0.92873000  1.0
  O  O254  1  0.16878000  0.66224000  0.42881000  1.0
  O  O255  1  0.57768000  0.83796000  0.07127000  1.0
  O  O256  1  0.89112000  0.14941000  0.96989000  1.0
  O  O257  1  0.27229000  0.35061000  0.53014000  1.0
  O  O258  1  0.10889000  0.85060000  0.03011000  1.0
  O  O259  1  0.72771000  0.64939000  0.46986000  1.0
  O  O260  1  0.80651000  0.25490000  0.92676000  1.0
  O  O261  1  0.12523000  0.24523000  0.57328000  1.0
  O  O262  1  0.19349000  0.74510000  0.07324000  1.0
  O  O263  1  0.87477000  0.75477000  0.42672000  1.0
  O  O264  1  0.88799000  0.64111000  0.59269000  1.0
  O  O265  1  0.15420000  0.85904000  0.90736000  1.0
  O  O266  1  0.11201000  0.35889000  0.40731000  1.0
  O  O267  1  0.84580000  0.14096000  0.09264000  1.0
  O  O268  1  0.10855000  0.71102000  0.52350000  1.0
  O  O269  1  0.37430000  0.78941000  0.97646000  1.0
  O  O270  1  0.89145000  0.28898000  0.47649000  1.0
  O  O271  1  0.62571000  0.21060000  0.02354000  1.0
