# generated using pymatgen
data_La2Cu3H54C36(NO4)6
_symmetry_space_group_name_H-M   'P 1'
_cell_length_a   7.68583000
_cell_length_b   13.58469466
_cell_length_c   13.58500000
_cell_angle_alpha   120.00023053
_cell_angle_beta   90.00060000
_cell_angle_gamma   89.99989999
_symmetry_Int_Tables_number   1
_chemical_formula_structural   La2Cu3H54C36(NO4)6
_chemical_formula_sum   'La2 Cu3 H54 C36 N6 O24'
_cell_volume   1228.37203649
_cell_formula_units_Z   1
loop_
 _symmetry_equiv_pos_site_id
 _symmetry_equiv_pos_as_xyz
  1  'x, y, z'
loop_
 _atom_site_type_symbol
 _atom_site_label
 _atom_site_symmetry_multiplicity
 _atom_site_fract_x
 _atom_site_fract_y
 _atom_site_fract_z
 _atom_site_occupancy
  La  La0  1  0.34383000  0.66666667  0.33333333  1.0
  La  La1  1  0.65617000  0.33333333  0.66666667  1.0
  Cu  Cu2  1  0.00000000  0.00000000  0.50000000  1.0
  Cu  Cu3  1  0.00001000  0.50000000  0.00000000  1.0
  Cu  Cu4  1  0.00000000  0.50000000  0.50000000  1.0
  H  H5  1  0.85916000  0.03542000  0.35571000  1.0
  H  H6  1  0.94015000  0.83797000  0.17495000  1.0
  H  H7  1  0.76142000  0.80116000  0.26246000  1.0
  H  H8  1  0.62318000  0.93266000  0.20776000  1.0
  H  H9  1  0.54501000  0.01900000  0.34976000  1.0
  H  H10  1  0.47118000  0.87559000  0.26360000  1.0
  H  H11  1  0.04424000  0.01470000  0.18930000  1.0
  H  H12  1  0.21618000  0.91460000  0.15084000  1.0
  H  H13  1  0.20530000  0.03010000  0.29240000  1.0
  H  H14  1  0.85916000  0.32028000  0.96458000  1.0
  H  H15  1  0.94016000  0.33696000  0.16201000  1.0
  H  H16  1  0.76145000  0.46130000  0.19884000  1.0
  H  H17  1  0.62321000  0.27510000  0.06735000  1.0
  H  H18  1  0.54501000  0.33076000  0.98102000  1.0
  H  H19  1  0.47120000  0.38802000  0.12444000  1.0
  H  H20  1  0.04425000  0.17459000  0.98529000  1.0
  H  H21  1  0.21619000  0.23622000  0.08539000  1.0
  H  H22  1  0.20531000  0.26229000  0.96989000  1.0
  H  H23  1  0.85917000  0.64430000  0.67971000  1.0
  H  H24  1  0.94017000  0.82506000  0.66304000  1.0
  H  H25  1  0.76143000  0.73755000  0.53871000  1.0
  H  H26  1  0.62320000  0.79225000  0.72491000  1.0
  H  H27  1  0.54502000  0.65025000  0.66924000  1.0
  H  H28  1  0.47119000  0.73642000  0.61200000  1.0
  H  H29  1  0.04427000  0.81070000  0.82540000  1.0
  H  H30  1  0.21622000  0.84916000  0.76377000  1.0
  H  H31  1  0.20530000  0.70759000  0.73769000  1.0
  H  H32  1  0.14083000  0.96458000  0.64430000  1.0
  H  H33  1  0.05985000  0.16203000  0.82506000  1.0
  H  H34  1  0.23858000  0.19884000  0.73755000  1.0
  H  H35  1  0.37682000  0.06734000  0.79224000  1.0
  H  H36  1  0.45499000  0.98100000  0.65024000  1.0
  H  H37  1  0.52882000  0.12441000  0.73640000  1.0
  H  H38  1  0.95576000  0.98530000  0.81071000  1.0
  H  H39  1  0.78382000  0.08540000  0.84917000  1.0
  H  H40  1  0.79470000  0.96990000  0.70760000  1.0
  H  H41  1  0.14084000  0.67971000  0.03541000  1.0
  H  H42  1  0.05984000  0.66304000  0.83798000  1.0
  H  H43  1  0.23856000  0.53870000  0.80116000  1.0
  H  H44  1  0.37680000  0.72490000  0.93265000  1.0
  H  H45  1  0.45499000  0.66924000  0.01898000  1.0
  H  H46  1  0.52881000  0.61199000  0.87557000  1.0
  H  H47  1  0.95576000  0.82541000  0.01471000  1.0
  H  H48  1  0.78381000  0.76378000  0.91461000  1.0
  H  H49  1  0.79470000  0.73770000  0.03010000  1.0
  H  H50  1  0.14083000  0.35570000  0.32029000  1.0
  H  H51  1  0.05983000  0.17494000  0.33696000  1.0
  H  H52  1  0.23856000  0.26245000  0.46129000  1.0
  H  H53  1  0.37681000  0.20776000  0.27511000  1.0
  H  H54  1  0.45499000  0.34975000  0.33077000  1.0
  H  H55  1  0.52881000  0.26359000  0.38802000  1.0
  H  H56  1  0.95573000  0.18930000  0.17460000  1.0
  H  H57  1  0.78378000  0.15084000  0.23623000  1.0
  H  H58  1  0.79469000  0.29241000  0.26230000  1.0
  C  C59  1  0.13291000  0.81569000  0.27146000  1.0
  C  C60  1  0.01740000  0.89522000  0.25033000  1.0
  C  C61  1  0.73282000  0.88974000  0.32783000  1.0
  C  C62  1  0.68656000  0.88105000  0.43245000  1.0
  C  C63  1  0.58314000  0.93252000  0.28546000  1.0
  C  C64  1  0.12705000  0.96952000  0.21969000  1.0
  C  C65  1  0.13293000  0.45576000  0.18430000  1.0
  C  C66  1  0.01741000  0.35510000  0.10477000  1.0
  C  C67  1  0.73284000  0.43809000  0.11027000  1.0
  C  C68  1  0.68659000  0.55140000  0.11895000  1.0
  C  C69  1  0.58315000  0.35294000  0.06750000  1.0
  C  C70  1  0.12706000  0.25016000  0.03047000  1.0
  C  C71  1  0.13292000  0.72853000  0.54423000  1.0
  C  C72  1  0.01742000  0.74967000  0.64489000  1.0
  C  C73  1  0.73283000  0.67219000  0.56192000  1.0
  C  C74  1  0.68656000  0.56756000  0.44860000  1.0
  C  C75  1  0.58315000  0.71456000  0.64706000  1.0
  C  C76  1  0.12707000  0.78030000  0.74982000  1.0
  C  C77  1  0.86709000  0.18430000  0.72853000  1.0
  C  C78  1  0.98260000  0.10478000  0.74967000  1.0
  C  C79  1  0.26717000  0.11027000  0.67218000  1.0
  C  C80  1  0.31343000  0.11895000  0.56755000  1.0
  C  C81  1  0.41686000  0.06749000  0.71455000  1.0
  C  C82  1  0.87295000  0.03048000  0.78031000  1.0
  C  C83  1  0.86708000  0.54424000  0.81570000  1.0
  C  C84  1  0.98259000  0.64489000  0.89522000  1.0
  C  C85  1  0.26716000  0.56192000  0.88973000  1.0
  C  C86  1  0.31345000  0.44860000  0.88104000  1.0
  C  C87  1  0.41685000  0.64706000  0.93249000  1.0
  C  C88  1  0.87295000  0.74983000  0.96952000  1.0
  C  C89  1  0.86707000  0.27146000  0.45576000  1.0
  C  C90  1  0.98258000  0.25033000  0.35511000  1.0
  C  C91  1  0.26716000  0.32781000  0.43808000  1.0
  C  C92  1  0.31342000  0.43244000  0.55140000  1.0
  C  C93  1  0.41685000  0.28544000  0.35294000  1.0
  C  C94  1  0.87293000  0.21970000  0.25018000  1.0
  N  N95  1  0.89441000  0.95760000  0.34582000  1.0
  N  N96  1  0.89442000  0.38822000  0.04240000  1.0
  N  N97  1  0.89442000  0.65419000  0.61178000  1.0
  N  N98  1  0.10558000  0.04240000  0.65418000  1.0
  N  N99  1  0.10559000  0.61178000  0.95760000  1.0
  N  N100  1  0.10557000  0.34582000  0.38822000  1.0
  O  O101  1  0.24012000  0.75290000  0.19462000  1.0
  O  O102  1  0.11661000  0.81487000  0.36452000  1.0
  O  O103  1  0.78805000  0.92636000  0.51850000  1.0
  O  O104  1  0.55233000  0.82516000  0.42798000  1.0
  O  O105  1  0.24013000  0.44170000  0.24711000  1.0
  O  O106  1  0.11666000  0.54963000  0.18511000  1.0
  O  O107  1  0.78806000  0.59214000  0.07364000  1.0
  O  O108  1  0.55235000  0.60283000  0.17486000  1.0
  O  O109  1  0.24012000  0.80540000  0.55829000  1.0
  O  O110  1  0.11663000  0.63547000  0.45035000  1.0
  O  O111  1  0.78805000  0.48150000  0.40785000  1.0
  O  O112  1  0.55234000  0.57203000  0.39718000  1.0
  O  O113  1  0.75988000  0.24711000  0.80539000  1.0
  O  O114  1  0.88338000  0.18512000  0.63547000  1.0
  O  O115  1  0.21194000  0.07364000  0.48149000  1.0
  O  O116  1  0.44767000  0.17484000  0.57202000  1.0
  O  O117  1  0.75988000  0.55830000  0.75289000  1.0
  O  O118  1  0.88336000  0.45036000  0.81488000  1.0
  O  O119  1  0.21195000  0.40785000  0.92635000  1.0
  O  O120  1  0.44765000  0.39717000  0.82515000  1.0
  O  O121  1  0.75988000  0.19460000  0.44171000  1.0
  O  O122  1  0.88335000  0.36452000  0.54964000  1.0
  O  O123  1  0.21194000  0.51850000  0.59215000  1.0
  O  O124  1  0.44765000  0.42797000  0.60283000  1.0
