# generated using pymatgen
data_ZnH12C18N2(O3F2)2
_symmetry_space_group_name_H-M   'P 1'
_cell_length_a   7.13883000
_cell_length_b   11.33040000
_cell_length_c   11.33040000
_cell_angle_alpha   89.89650000
_cell_angle_beta   79.94900000
_cell_angle_gamma   79.94900000
_symmetry_Int_Tables_number   1
_chemical_formula_structural   ZnH12C18N2(O3F2)2
_chemical_formula_sum   'Zn2 H24 C36 N4 O12 F8'
_cell_volume   888.16576944
_cell_formula_units_Z   2
loop_
 _symmetry_equiv_pos_site_id
 _symmetry_equiv_pos_as_xyz
  1  'x, y, z'
loop_
 _atom_site_type_symbol
 _atom_site_label
 _atom_site_symmetry_multiplicity
 _atom_site_fract_x
 _atom_site_fract_y
 _atom_site_fract_z
 _atom_site_occupancy
  Zn  Zn0  1  0.00000000  0.50000000  0.00000000  1.0
  Zn  Zn1  1  0.50000000  0.00000000  0.50000000  1.0
  H  H2  1  0.96412000  0.30746000  0.18596000  1.0
  H  H3  1  0.53588000  0.81404000  0.69254000  1.0
  H  H4  1  0.03588000  0.69254000  0.81404000  1.0
  H  H5  1  0.46412000  0.18596000  0.30746000  1.0
  H  H6  1  0.96522000  0.09102000  0.19488000  1.0
  H  H7  1  0.53478000  0.80512000  0.90898000  1.0
  H  H8  1  0.03478000  0.90897000  0.80512000  1.0
  H  H9  1  0.46522000  0.19488000  0.09102000  1.0
  H  H10  1  0.03334000  0.08533000  0.80593000  1.0
  H  H11  1  0.46667000  0.19408000  0.91467000  1.0
  H  H12  1  0.96666000  0.91467000  0.19407000  1.0
  H  H13  1  0.53333000  0.80593000  0.08533000  1.0
  H  H14  1  0.03276000  0.30217000  0.81615000  1.0
  H  H15  1  0.46725000  0.18385000  0.69782000  1.0
  H  H16  1  0.96725000  0.69782000  0.18385000  1.0
  H  H17  1  0.53274000  0.81616000  0.30218000  1.0
  H  H18  1  0.64418000  0.56804000  0.99569000  1.0
  H  H19  1  0.85582000  0.00431000  0.43196000  1.0
  H  H20  1  0.35582000  0.43196000  0.00431000  1.0
  H  H21  1  0.14418000  0.99569000  0.56804000  1.0
  H  H22  1  0.61345000  0.50186000  0.11819000  1.0
  H  H23  1  0.88655000  0.88181000  0.49814000  1.0
  H  H24  1  0.38655000  0.49814000  0.88181000  1.0
  H  H25  1  0.11345000  0.11819000  0.50186000  1.0
  C  C26  1  0.97751000  0.25440000  0.10422000  1.0
  C  C27  1  0.52249000  0.89578000  0.74560000  1.0
  C  C28  1  0.02249000  0.74560000  0.89579000  1.0
  C  C29  1  0.47751000  0.10422000  0.25440000  1.0
  C  C30  1  0.97910000  0.13188000  0.10750000  1.0
  C  C31  1  0.52090000  0.89250000  0.86812000  1.0
  C  C32  1  0.02090000  0.86812000  0.89250000  1.0
  C  C33  1  0.47910000  0.10750000  0.13188000  1.0
  C  C34  1  0.99785000  0.06548000  0.00030000  1.0
  C  C35  1  0.50215000  0.99970000  0.93452000  1.0
  C  C36  1  0.00215000  0.93452000  0.99970000  1.0
  C  C37  1  0.49785000  0.00030000  0.06548000  1.0
  C  C38  1  0.01512000  0.12902000  0.89364000  1.0
  C  C39  1  0.48489000  0.10636000  0.87098000  1.0
  C  C40  1  0.98488000  0.87098000  0.10636000  1.0
  C  C41  1  0.51511000  0.89364000  0.12902000  1.0
  C  C42  1  0.01430000  0.25156000  0.89767000  1.0
  C  C43  1  0.48570000  0.10233000  0.74843000  1.0
  C  C44  1  0.98570000  0.74843000  0.10233000  1.0
  C  C45  1  0.51430000  0.89767000  0.25157000  1.0
  C  C46  1  0.76659000  0.52698000  0.78730000  1.0
  C  C47  1  0.73342000  0.21270000  0.47302000  1.0
  C  C48  1  0.23341000  0.47302000  0.21270000  1.0
  C  C49  1  0.26658000  0.78730000  0.52698000  1.0
  C  C50  1  0.76099000  0.49279000  0.65805000  1.0
  C  C51  1  0.73902000  0.34195000  0.50721000  1.0
  C  C52  1  0.23901000  0.50721000  0.34195000  1.0
  C  C53  1  0.26099000  0.65805000  0.49279000  1.0
  C  C54  1  0.75000000  0.37665000  0.62334000  1.0
  C  C55  1  0.25000000  0.62335000  0.37666000  1.0
  C  C56  1  0.76681000  0.57674000  0.56818000  1.0
  C  C57  1  0.73319000  0.43182000  0.42326000  1.0
  C  C58  1  0.23318000  0.42326000  0.43182000  1.0
  C  C59  1  0.26681000  0.56818000  0.57674000  1.0
  C  C60  1  0.75000000  0.54892000  0.45108000  1.0
  C  C61  1  0.25000000  0.45108000  0.54892000  1.0
  N  N62  1  0.99377000  0.31418000  0.00128000  1.0
  N  N63  1  0.50624000  0.99872000  0.68582000  1.0
  N  N64  1  0.00623000  0.68582000  0.99872000  1.0
  N  N65  1  0.49376000  0.00128000  0.31418000  1.0
  O  O66  1  0.93105000  0.50666000  0.81798000  1.0
  O  O67  1  0.56896000  0.18202000  0.49334000  1.0
  O  O68  1  0.06895000  0.49334000  0.18203000  1.0
  O  O69  1  0.43105000  0.81798000  0.50666000  1.0
  O  O70  1  0.60705000  0.57227000  0.85234000  1.0
  O  O71  1  0.89295000  0.14766000  0.42772000  1.0
  O  O72  1  0.39295000  0.42773000  0.14766000  1.0
  O  O73  1  0.10705000  0.85234000  0.57227000  1.0
  O  O74  1  0.69283000  0.55594000  0.07350000  1.0
  O  O75  1  0.80717000  0.92650000  0.44406000  1.0
  O  O76  1  0.30718000  0.44406000  0.92650000  1.0
  O  O77  1  0.19282000  0.07350000  0.55594000  1.0
  F  F78  1  0.75000000  0.29127000  0.70872000  1.0
  F  F79  1  0.25001000  0.70873000  0.29127000  1.0
  F  F80  1  0.79203000  0.68883000  0.59468000  1.0
  F  F81  1  0.70796000  0.40532000  0.31117000  1.0
  F  F82  1  0.20795000  0.31117000  0.40533000  1.0
  F  F83  1  0.29204000  0.59468000  0.68883000  1.0
  F  F84  1  0.74999000  0.63305000  0.36695000  1.0
  F  F85  1  0.25000000  0.36696000  0.63305000  1.0
