# generated using pymatgen
data_Cd3H90Ir2C92(N5O9)2
_symmetry_space_group_name_H-M   'P 1'
_cell_length_a   14.04170000
_cell_length_b   14.61560000
_cell_length_c   21.11300000
_cell_angle_alpha   89.99970000
_cell_angle_beta   101.44100000
_cell_angle_gamma   89.99990000
_symmetry_Int_Tables_number   1
_chemical_formula_structural   Cd3H90Ir2C92(N5O9)2
_chemical_formula_sum   'Cd6 H180 Ir4 C184 N20 O36'
_cell_volume   4246.87755646
_cell_formula_units_Z   2
loop_
 _symmetry_equiv_pos_site_id
 _symmetry_equiv_pos_as_xyz
  1  'x, y, z'
loop_
 _atom_site_type_symbol
 _atom_site_label
 _atom_site_symmetry_multiplicity
 _atom_site_fract_x
 _atom_site_fract_y
 _atom_site_fract_z
 _atom_site_occupancy
  Cd  Cd0  1  0.00000000  0.50000000  0.00000000  1.0
  Cd  Cd1  1  0.50000000  0.00000000  0.50000000  1.0
  Cd  Cd2  1  0.25330000  0.11946000  0.53012000  1.0
  Cd  Cd3  1  0.24669000  0.61947000  0.96988000  1.0
  Cd  Cd4  1  0.74670000  0.88053000  0.46989000  1.0
  Cd  Cd5  1  0.75330000  0.38053000  0.03012000  1.0
  H  H6  1  0.88173000  0.67232000  0.56531000  1.0
  H  H7  1  0.61827000  0.17232000  0.93469000  1.0
  H  H8  1  0.11827000  0.32768000  0.43469000  1.0
  H  H9  1  0.38173000  0.82768000  0.06531000  1.0
  H  H10  1  0.98637000  0.79512000  0.61931000  1.0
  H  H11  1  0.51363000  0.29512000  0.88068000  1.0
  H  H12  1  0.01363000  0.20488000  0.38069000  1.0
  H  H13  1  0.48637000  0.70488000  0.11932000  1.0
  H  H14  1  0.03594000  0.79225000  0.74267000  1.0
  H  H15  1  0.46407000  0.29225000  0.75732000  1.0
  H  H16  1  0.96406000  0.20775000  0.25733000  1.0
  H  H17  1  0.53593000  0.70775000  0.24268000  1.0
  H  H18  1  0.96938000  0.66962000  0.80254000  1.0
  H  H19  1  0.53062000  0.16961000  0.69746000  1.0
  H  H20  1  0.03062000  0.33038000  0.19746000  1.0
  H  H21  1  0.46938000  0.83038000  0.30254000  1.0
  H  H22  1  0.90396000  0.56198000  0.84645000  1.0
  H  H23  1  0.59605000  0.06197000  0.65355000  1.0
  H  H24  1  0.09604000  0.43802000  0.15355000  1.0
  H  H25  1  0.40396000  0.93803000  0.34645000  1.0
  H  H26  1  0.70150000  0.33944000  0.81411000  1.0
  H  H27  1  0.79852000  0.83943000  0.68590000  1.0
  H  H28  1  0.29851000  0.66056000  0.18590000  1.0
  H  H29  1  0.20150000  0.16057000  0.31410000  1.0
  H  H30  1  0.68390000  0.35619000  0.69609000  1.0
  H  H31  1  0.81610000  0.85619000  0.80392000  1.0
  H  H32  1  0.31610000  0.64381000  0.30391000  1.0
  H  H33  1  0.18391000  0.14381000  0.19609000  1.0
  H  H34  1  0.70538000  0.63037000  0.48845000  1.0
  H  H35  1  0.79462000  0.13037000  0.01154000  1.0
  H  H36  1  0.29462000  0.36963000  0.51155000  1.0
  H  H37  1  0.20538000  0.86963000  0.98846000  1.0
  H  H38  1  0.72700000  0.64508000  0.37600000  1.0
  H  H39  1  0.77300000  0.14508000  0.12400000  1.0
  H  H40  1  0.27300000  0.35492000  0.62400000  1.0
  H  H41  1  0.22700000  0.85492000  0.87600000  1.0
  H  H42  1  0.83810000  0.53206000  0.33423000  1.0
  H  H43  1  0.66190000  0.03207000  0.16577000  1.0
  H  H44  1  0.16190000  0.46793000  0.66577000  1.0
  H  H45  1  0.33810000  0.96793000  0.83423000  1.0
  H  H46  1  0.92573000  0.41625000  0.41031000  1.0
  H  H47  1  0.57427000  0.91625000  0.08969000  1.0
  H  H48  1  0.07427000  0.58375000  0.58969000  1.0
  H  H49  1  0.42573000  0.08375000  0.91031000  1.0
  H  H50  1  0.93490000  0.36897000  0.70246000  1.0
  H  H51  1  0.56509000  0.86897000  0.79754000  1.0
  H  H52  1  0.06509000  0.63103000  0.29754000  1.0
  H  H53  1  0.43490000  0.13103000  0.20246000  1.0
  H  H54  1  0.05600000  0.25396000  0.68091000  1.0
  H  H55  1  0.44400000  0.75396000  0.81909000  1.0
  H  H56  1  0.94400000  0.74604000  0.31909000  1.0
  H  H57  1  0.55600000  0.24604000  0.18091000  1.0
  H  H58  1  0.99076000  0.32027000  0.48004000  1.0
  H  H59  1  0.50924000  0.82027000  0.01996000  1.0
  H  H60  1  0.00924000  0.67973000  0.51996000  1.0
  H  H61  1  0.49076000  0.17972000  0.98004000  1.0
  H  H62  1  0.71049000  0.70316000  0.60887000  1.0
  H  H63  1  0.78951000  0.20316000  0.89113000  1.0
  H  H64  1  0.28951000  0.29684000  0.39113000  1.0
  H  H65  1  0.21049000  0.79684000  0.10887000  1.0
  H  H66  1  0.55308000  0.78489000  0.59723000  1.0
  H  H67  1  0.94692000  0.28489000  0.90277000  1.0
  H  H68  1  0.44693000  0.21511000  0.40276000  1.0
  H  H69  1  0.05307000  0.71511000  0.09723000  1.0
  H  H70  1  0.39835000  0.69205000  0.57785000  1.0
  H  H71  1  0.10165000  0.19205000  0.92215000  1.0
  H  H72  1  0.60165000  0.30795000  0.42215000  1.0
  H  H73  1  0.89835000  0.80796000  0.07785000  1.0
  H  H74  1  0.40885000  0.52298000  0.57211000  1.0
  H  H75  1  0.09115000  0.02298000  0.92789000  1.0
  H  H76  1  0.59115000  0.47702000  0.42789000  1.0
  H  H77  1  0.90885000  0.97702000  0.07212000  1.0
  H  H78  1  0.76642000  0.27661000  0.57208000  1.0
  H  H79  1  0.73358000  0.77661000  0.92792000  1.0
  H  H80  1  0.23358000  0.72339000  0.42792000  1.0
  H  H81  1  0.26643000  0.22339000  0.07208000  1.0
  H  H82  1  0.63287000  0.16450000  0.56551000  1.0
  H  H83  1  0.86713000  0.66450000  0.93449000  1.0
  H  H84  1  0.36713000  0.83550000  0.43449000  1.0
  H  H85  1  0.13288000  0.33550000  0.06551000  1.0
  H  H86  1  0.43335000  0.38165000  0.58095000  1.0
  H  H87  1  0.06664000  0.88165000  0.91905000  1.0
  H  H88  1  0.56664000  0.61835000  0.41905000  1.0
  H  H89  1  0.93336000  0.11836000  0.08095000  1.0
  H  H90  1  0.18394000  0.35492000  0.96558000  1.0
  H  H91  1  0.31606000  0.85492000  0.53442000  1.0
  H  H92  1  0.81606000  0.64508000  0.03442000  1.0
  H  H93  1  0.68394000  0.14508000  0.46558000  1.0
  H  H94  1  0.29570000  0.31248000  0.91628000  1.0
  H  H95  1  0.20430000  0.81247000  0.58372000  1.0
  H  H96  1  0.70430000  0.68752000  0.08372000  1.0
  H  H97  1  0.79570000  0.18752000  0.41628000  1.0
  H  H98  1  0.30119000  0.36967000  0.84370000  1.0
  H  H99  1  0.19881000  0.86966000  0.65630000  1.0
  H  H100  1  0.69881000  0.63033000  0.15630000  1.0
  H  H101  1  0.80119000  0.13034000  0.34370000  1.0
  H  H102  1  0.21136000  0.17813000  0.85312000  1.0
  H  H103  1  0.28864000  0.67812000  0.64688000  1.0
  H  H104  1  0.78864000  0.82188000  0.14688000  1.0
  H  H105  1  0.71136000  0.32188000  0.35312000  1.0
  H  H106  1  0.32448000  0.20207000  0.83131000  1.0
  H  H107  1  0.17552000  0.70206000  0.66869000  1.0
  H  H108  1  0.67552000  0.79793000  0.16869000  1.0
  H  H109  1  0.82448000  0.29794000  0.33131000  1.0
  H  H110  1  0.21531000  0.23513000  0.77917000  1.0
  H  H111  1  0.28469000  0.73512000  0.72083000  1.0
  H  H112  1  0.78468000  0.76488000  0.22083000  1.0
  H  H113  1  0.71531000  0.26488000  0.27917000  1.0
  H  H114  1  0.02802000  0.38439000  0.80697000  1.0
  H  H115  1  0.47198000  0.88438000  0.69304000  1.0
  H  H116  1  0.97198000  0.61561000  0.19304000  1.0
  H  H117  1  0.52802000  0.11561000  0.30696000  1.0
  H  H118  1  0.12262000  0.35507000  0.76602000  1.0
  H  H119  1  0.37738000  0.85506000  0.73398000  1.0
  H  H120  1  0.87738000  0.64493000  0.23398000  1.0
  H  H121  1  0.62263000  0.14493000  0.26602000  1.0
  H  H122  1  0.10001000  0.53808000  0.83433000  1.0
  H  H123  1  0.39999000  0.03807000  0.66567000  1.0
  H  H124  1  0.90000000  0.46192000  0.16567000  1.0
  H  H125  1  0.60001000  0.96192000  0.33433000  1.0
  H  H126  1  0.08043000  0.52037000  0.74955000  1.0
  H  H127  1  0.41957000  0.02036000  0.75045000  1.0
  H  H128  1  0.91957000  0.47964000  0.25045000  1.0
  H  H129  1  0.58044000  0.97964000  0.24955000  1.0
  H  H130  1  0.19993000  0.51171000  0.79710000  1.0
  H  H131  1  0.30007000  0.01171000  0.70290000  1.0
  H  H132  1  0.80007000  0.48829000  0.20290000  1.0
  H  H133  1  0.69994000  0.98829000  0.29710000  1.0
  H  H134  1  0.12213000  0.97690000  0.49083000  1.0
  H  H135  1  0.37787000  0.47690000  0.00918000  1.0
  H  H136  1  0.87787000  0.02310000  0.50918000  1.0
  H  H137  1  0.62213000  0.52310000  0.99082000  1.0
  H  H138  1  0.11304000  0.01228000  0.56025000  1.0
  H  H139  1  0.38695000  0.51228000  0.93975000  1.0
  H  H140  1  0.88695000  0.98772000  0.43975000  1.0
  H  H141  1  0.61304000  0.48772000  0.06025000  1.0
  H  H142  1  0.96684000  0.15064000  0.76508000  1.0
  H  H143  1  0.53316000  0.65064000  0.73492000  1.0
  H  H144  1  0.03316000  0.84936000  0.23492000  1.0
  H  H145  1  0.46685000  0.34936000  0.26508000  1.0
  H  H146  1  0.87854000  0.06641000  0.77095000  1.0
  H  H147  1  0.62146000  0.56641000  0.72905000  1.0
  H  H148  1  0.12146000  0.93359000  0.22905000  1.0
  H  H149  1  0.37855000  0.43359000  0.27095000  1.0
  H  H150  1  0.85419000  0.12985000  0.61076000  1.0
  H  H151  1  0.64580000  0.62985000  0.88924000  1.0
  H  H152  1  0.14580000  0.87015000  0.38924000  1.0
  H  H153  1  0.35419000  0.37016000  0.11076000  1.0
  H  H154  1  0.97581000  0.95279000  0.75149000  1.0
  H  H155  1  0.52419000  0.45279000  0.74851000  1.0
  H  H156  1  0.02419000  0.04721000  0.24851000  1.0
  H  H157  1  0.47581000  0.54722000  0.25149000  1.0
  H  H158  1  0.99309000  0.93451000  0.67117000  1.0
  H  H159  1  0.50691000  0.43451000  0.82883000  1.0
  H  H160  1  0.00691000  0.06549000  0.32883000  1.0
  H  H161  1  0.49309000  0.56549000  0.17117000  1.0
  H  H162  1  0.12989000  0.05164000  0.69008000  1.0
  H  H163  1  0.37011000  0.55164000  0.80992000  1.0
  H  H164  1  0.87011000  0.94836000  0.30992000  1.0
  H  H165  1  0.62989000  0.44836000  0.19009000  1.0
  H  H166  1  0.15385000  0.95536000  0.74353000  1.0
  H  H167  1  0.34616000  0.45536000  0.75647000  1.0
  H  H168  1  0.84615000  0.04464000  0.25647000  1.0
  H  H169  1  0.65385000  0.54463000  0.24353000  1.0
  H  H170  1  0.11781000  0.06105000  0.77217000  1.0
  H  H171  1  0.38219000  0.56105000  0.72783000  1.0
  H  H172  1  0.88219000  0.93895000  0.22783000  1.0
  H  H173  1  0.61781000  0.43895000  0.27218000  1.0
  H  H174  1  0.84458000  0.23762000  0.68413000  1.0
  H  H175  1  0.65542000  0.73762000  0.81586000  1.0
  H  H176  1  0.15542000  0.76238000  0.31587000  1.0
  H  H177  1  0.34458000  0.26238000  0.18414000  1.0
  H  H178  1  0.80291000  0.21620000  0.75616000  1.0
  H  H179  1  0.69709000  0.71620000  0.74383000  1.0
  H  H180  1  0.19709000  0.78380000  0.24384000  1.0
  H  H181  1  0.30291000  0.28380000  0.25617000  1.0
  H  H182  1  0.75695000  0.15013000  0.68660000  1.0
  H  H183  1  0.74305000  0.65013000  0.81339000  1.0
  H  H184  1  0.24304000  0.84987000  0.31340000  1.0
  H  H185  1  0.25696000  0.34987000  0.18661000  1.0
  Ir  Ir186  1  0.77905000  0.49501000  0.60710000  1.0
  Ir  Ir187  1  0.72095000  0.99501000  0.89290000  1.0
  Ir  Ir188  1  0.22095000  0.50499000  0.39290000  1.0
  Ir  Ir189  1  0.27905000  0.00499000  0.10710000  1.0
  C  C190  1  0.90421000  0.67209000  0.61776000  1.0
  C  C191  1  0.59579000  0.17209000  0.88224000  1.0
  C  C192  1  0.09579000  0.32791000  0.38224000  1.0
  C  C193  1  0.40421000  0.82791000  0.11776000  1.0
  C  C194  1  0.96352000  0.74133000  0.64877000  1.0
  C  C195  1  0.53648000  0.24134000  0.85123000  1.0
  C  C196  1  0.03648000  0.25866000  0.35123000  1.0
  C  C197  1  0.46352000  0.75866000  0.14877000  1.0
  C  C198  1  0.98900000  0.73976000  0.71625000  1.0
  C  C199  1  0.51100000  0.23976000  0.78374000  1.0
  C  C200  1  0.01100000  0.26024000  0.28375000  1.0
  C  C201  1  0.48900000  0.76024000  0.21625000  1.0
  C  C202  1  0.95224000  0.67085000  0.74995000  1.0
  C  C203  1  0.54775000  0.17085000  0.75004000  1.0
  C  C204  1  0.04775000  0.32915000  0.25005000  1.0
  C  C205  1  0.45225000  0.82915000  0.24996000  1.0
  C  C206  1  0.89234000  0.60265000  0.71630000  1.0
  C  C207  1  0.60766000  0.10265000  0.78370000  1.0
  C  C208  1  0.10766000  0.39735000  0.28370000  1.0
  C  C209  1  0.39234000  0.89735000  0.21630000  1.0
  C  C210  1  0.84577000  0.52887000  0.74551000  1.0
  C  C211  1  0.65423000  0.02886000  0.75449000  1.0
  C  C212  1  0.15423000  0.47113000  0.25449000  1.0
  C  C213  1  0.34577000  0.97114000  0.24551000  1.0
  C  C214  1  0.85625000  0.51770000  0.81248000  1.0
  C  C215  1  0.64375000  0.01770000  0.68752000  1.0
  C  C216  1  0.14374000  0.48230000  0.18752000  1.0
  C  C217  1  0.35625000  0.98230000  0.31248000  1.0
  C  C218  1  0.80399000  0.44960000  0.83719000  1.0
  C  C219  1  0.69602000  0.94959000  0.66281000  1.0
  C  C220  1  0.19602000  0.55040000  0.16281000  1.0
  C  C221  1  0.30398000  0.05040000  0.33719000  1.0
  C  C222  1  0.74250000  0.39168000  0.79414000  1.0
  C  C223  1  0.75751000  0.89167000  0.70587000  1.0
  C  C224  1  0.25750000  0.60832000  0.20587000  1.0
  C  C225  1  0.24250000  0.10833000  0.29413000  1.0
  C  C226  1  0.73242000  0.40222000  0.72792000  1.0
  C  C227  1  0.76759000  0.90221000  0.77209000  1.0
  C  C228  1  0.26759000  0.59778000  0.27208000  1.0
  C  C229  1  0.23242000  0.09779000  0.22792000  1.0
  C  C230  1  0.78314000  0.47071000  0.70112000  1.0
  C  C231  1  0.71686000  0.97071000  0.79888000  1.0
  C  C232  1  0.21685000  0.52928000  0.29888000  1.0
  C  C233  1  0.28315000  0.02929000  0.20112000  1.0
  C  C234  1  0.80686000  0.44037000  0.90746000  1.0
  C  C235  1  0.69315000  0.94035000  0.59255000  1.0
  C  C236  1  0.19315000  0.55964000  0.09254000  1.0
  C  C237  1  0.30685000  0.05964000  0.40746000  1.0
  C  C238  1  0.75196000  0.58256000  0.46926000  1.0
  C  C239  1  0.74804000  0.08256000  0.03073000  1.0
  C  C240  1  0.24804000  0.41744000  0.53074000  1.0
  C  C241  1  0.25196000  0.91744000  0.96926000  1.0
  C  C242  1  0.76408000  0.58997000  0.40574000  1.0
  C  C243  1  0.73592000  0.08997000  0.09425000  1.0
  C  C244  1  0.23592000  0.41003000  0.59426000  1.0
  C  C245  1  0.26408000  0.91003000  0.90574000  1.0
  C  C246  1  0.82588000  0.52814000  0.38352000  1.0
  C  C247  1  0.67412000  0.02814000  0.11648000  1.0
  C  C248  1  0.17412000  0.47186000  0.61648000  1.0
  C  C249  1  0.32588000  0.97186000  0.88352000  1.0
  C  C250  1  0.87454000  0.46301000  0.42586000  1.0
  C  C251  1  0.62546000  0.96301000  0.07414000  1.0
  C  C252  1  0.12546000  0.53699000  0.57414000  1.0
  C  C253  1  0.37454000  0.03699000  0.92586000  1.0
  C  C254  1  0.85982000  0.45867000  0.48956000  1.0
  C  C255  1  0.64018000  0.95867000  0.01044000  1.0
  C  C256  1  0.14018000  0.54133000  0.51044000  1.0
  C  C257  1  0.35982000  0.04133000  0.98956000  1.0
  C  C258  1  0.91037000  0.39762000  0.53983000  1.0
  C  C259  1  0.58963000  0.89762000  0.96017000  1.0
  C  C260  1  0.08963000  0.60238000  0.46017000  1.0
  C  C261  1  0.41037000  0.10238000  0.03983000  1.0
  C  C262  1  0.89027000  0.41059000  0.60296000  1.0
  C  C263  1  0.60973000  0.91060000  0.89704000  1.0
  C  C264  1  0.10973000  0.58941000  0.39704000  1.0
  C  C265  1  0.39027000  0.08941000  0.10296000  1.0
  C  C266  1  0.94643000  0.35915000  0.65336000  1.0
  C  C267  1  0.55357000  0.85914000  0.84664000  1.0
  C  C268  1  0.05357000  0.64085000  0.34664000  1.0
  C  C269  1  0.44643000  0.14085000  0.15336000  1.0
  C  C270  1  0.01388000  0.29461000  0.64177000  1.0
  C  C271  1  0.48612000  0.79461000  0.85823000  1.0
  C  C272  1  0.98612000  0.70539000  0.35822000  1.0
  C  C273  1  0.51388000  0.20539000  0.14177000  1.0
  C  C274  1  0.02874000  0.27916000  0.57887000  1.0
  C  C275  1  0.47126000  0.77916000  0.92113000  1.0
  C  C276  1  0.97125000  0.72084000  0.42113000  1.0
  C  C277  1  0.52875000  0.22084000  0.07887000  1.0
  C  C278  1  0.97691000  0.33176000  0.52836000  1.0
  C  C279  1  0.52309000  0.83176000  0.97165000  1.0
  C  C280  1  0.02309000  0.66824000  0.47165000  1.0
  C  C281  1  0.47691000  0.16824000  0.02835000  1.0
  C  C282  1  0.10283000  0.21296000  0.56568000  1.0
  C  C283  1  0.39717000  0.71297000  0.93433000  1.0
  C  C284  1  0.89717000  0.78704000  0.43432000  1.0
  C  C285  1  0.60283000  0.28703000  0.06567000  1.0
  C  C286  1  0.64251000  0.66503000  0.60167000  1.0
  C  C287  1  0.85749000  0.16503000  0.89832000  1.0
  C  C288  1  0.35750000  0.33497000  0.39833000  1.0
  C  C289  1  0.14251000  0.83497000  0.10168000  1.0
  C  C290  1  0.55437000  0.71056000  0.59533000  1.0
  C  C291  1  0.94563000  0.21056000  0.90467000  1.0
  C  C292  1  0.44563000  0.28944000  0.40467000  1.0
  C  C293  1  0.05437000  0.78945000  0.09533000  1.0
  C  C294  1  0.46905000  0.65886000  0.58501000  1.0
  C  C295  1  0.03094000  0.15886000  0.91499000  1.0
  C  C296  1  0.53094000  0.34114000  0.41499000  1.0
  C  C297  1  0.96906000  0.84115000  0.08501000  1.0
  C  C298  1  0.47473000  0.56420000  0.58158000  1.0
  C  C299  1  0.02527000  0.06420000  0.91843000  1.0
  C  C300  1  0.52527000  0.43580000  0.41842000  1.0
  C  C301  1  0.97473000  0.93580000  0.08158000  1.0
  C  C302  1  0.56561000  0.52169000  0.58814000  1.0
  C  C303  1  0.93439000  0.02169000  0.91186000  1.0
  C  C304  1  0.43439000  0.47831000  0.41186000  1.0
  C  C305  1  0.06561000  0.97831000  0.08814000  1.0
  C  C306  1  0.58165000  0.42350000  0.58256000  1.0
  C  C307  1  0.91835000  0.92350000  0.91744000  1.0
  C  C308  1  0.41835000  0.57650000  0.41744000  1.0
  C  C309  1  0.08165000  0.07651000  0.08256000  1.0
  C  C310  1  0.67924000  0.39556000  0.58238000  1.0
  C  C311  1  0.82076000  0.89556000  0.91762000  1.0
  C  C312  1  0.32076000  0.60444000  0.41762000  1.0
  C  C313  1  0.17924000  0.10444000  0.08238000  1.0
  C  C314  1  0.69346000  0.30106000  0.57359000  1.0
  C  C315  1  0.80654000  0.80107000  0.92641000  1.0
  C  C316  1  0.30654000  0.69893000  0.42641000  1.0
  C  C317  1  0.19346000  0.19894000  0.07359000  1.0
  C  C318  1  0.61852000  0.23747000  0.56975000  1.0
  C  C319  1  0.88148000  0.73747000  0.93025000  1.0
  C  C320  1  0.38148000  0.76253000  0.43025000  1.0
  C  C321  1  0.11852000  0.26253000  0.06975000  1.0
  C  C322  1  0.52388000  0.26618000  0.57288000  1.0
  C  C323  1  0.97612000  0.76618000  0.92711000  1.0
  C  C324  1  0.47612000  0.73382000  0.42711000  1.0
  C  C325  1  0.02389000  0.23382000  0.07289000  1.0
  C  C326  1  0.50673000  0.35984000  0.57879000  1.0
  C  C327  1  0.99327000  0.85984000  0.92121000  1.0
  C  C328  1  0.49327000  0.64016000  0.42120000  1.0
  C  C329  1  0.00673000  0.14016000  0.07879000  1.0
  C  C330  1  0.44128000  0.20125000  0.56800000  1.0
  C  C331  1  0.05872000  0.70125000  0.93200000  1.0
  C  C332  1  0.55872000  0.79875000  0.43200000  1.0
  C  C333  1  0.94128000  0.29875000  0.06800000  1.0
  C  C334  1  0.13232000  0.37554000  0.92148000  1.0
  C  C335  1  0.36768000  0.87554000  0.57852000  1.0
  C  C336  1  0.86768000  0.62446000  0.07852000  1.0
  C  C337  1  0.63232000  0.12446000  0.42148000  1.0
  C  C338  1  0.25812000  0.32035000  0.86575000  1.0
  C  C339  1  0.24188000  0.82035000  0.63425000  1.0
  C  C340  1  0.74188000  0.67965000  0.13425000  1.0
  C  C341  1  0.75812000  0.17965000  0.36575000  1.0
  C  C342  1  0.25115000  0.22889000  0.83018000  1.0
  C  C343  1  0.24885000  0.72888000  0.66982000  1.0
  C  C344  1  0.74884000  0.77111000  0.16982000  1.0
  C  C345  1  0.75116000  0.27112000  0.33018000  1.0
  C  C346  1  0.10484000  0.39599000  0.80565000  1.0
  C  C347  1  0.39516000  0.89598000  0.69435000  1.0
  C  C348  1  0.89516000  0.60402000  0.19435000  1.0
  C  C349  1  0.60485000  0.10402000  0.30565000  1.0
  C  C350  1  0.12293000  0.49758000  0.79621000  1.0
  C  C351  1  0.37707000  0.99757000  0.70379000  1.0
  C  C352  1  0.87707000  0.50243000  0.20379000  1.0
  C  C353  1  0.62294000  0.00243000  0.29621000  1.0
  C  C354  1  0.90259000  0.11492000  0.73747000  1.0
  C  C355  1  0.59740000  0.61492000  0.76253000  1.0
  C  C356  1  0.09740000  0.88508000  0.26253000  1.0
  C  C357  1  0.40260000  0.38508000  0.23747000  1.0
  C  C358  1  0.90765000  0.07455000  0.62396000  1.0
  C  C359  1  0.59234000  0.57456000  0.87604000  1.0
  C  C360  1  0.09234000  0.92545000  0.37604000  1.0
  C  C361  1  0.40765000  0.42545000  0.12396000  1.0
  C  C362  1  0.00125000  0.98452000  0.71058000  1.0
  C  C363  1  0.49875000  0.48452000  0.78942000  1.0
  C  C364  1  0.99875000  0.01549000  0.28942000  1.0
  C  C365  1  0.50125000  0.51549000  0.21058000  1.0
  C  C366  1  0.10684000  0.01533000  0.73008000  1.0
  C  C367  1  0.39315000  0.51533000  0.76992000  1.0
  C  C368  1  0.89315000  0.98467000  0.26993000  1.0
  C  C369  1  0.60685000  0.48467000  0.23008000  1.0
  C  C370  1  0.82233000  0.18332000  0.71380000  1.0
  C  C371  1  0.67766000  0.68332000  0.78619000  1.0
  C  C372  1  0.17766000  0.81668000  0.28620000  1.0
  C  C373  1  0.32234000  0.31668000  0.21380000  1.0
  N  N374  1  0.87065000  0.60368000  0.65008000  1.0
  N  N375  1  0.62935000  0.10368000  0.84992000  1.0
  N  N376  1  0.12934000  0.39632000  0.34992000  1.0
  N  N377  1  0.37065000  0.89632000  0.15008000  1.0
  N  N378  1  0.79676000  0.51791000  0.50998000  1.0
  N  N379  1  0.70324000  0.01791000  0.99002000  1.0
  N  N380  1  0.20324000  0.48209000  0.49002000  1.0
  N  N381  1  0.29675000  0.98209000  0.00998000  1.0
  N  N382  1  0.64849000  0.57317000  0.59831000  1.0
  N  N383  1  0.85151000  0.07317000  0.90169000  1.0
  N  N384  1  0.35151000  0.42683000  0.40169000  1.0
  N  N385  1  0.14849000  0.92683000  0.09831000  1.0
  N  N386  1  0.16325000  0.36143000  0.86632000  1.0
  N  N387  1  0.33675000  0.86143000  0.63368000  1.0
  N  N388  1  0.83675000  0.63857000  0.13368000  1.0
  N  N389  1  0.66325000  0.13857000  0.36632000  1.0
  N  N390  1  0.93440000  0.05951000  0.68747000  1.0
  N  N391  1  0.56560000  0.55951000  0.81253000  1.0
  N  N392  1  0.06560000  0.94050000  0.31253000  1.0
  N  N393  1  0.43440000  0.44050000  0.18747000  1.0
  O  O394  1  0.76902000  0.36862000  0.92651000  1.0
  O  O395  1  0.73099000  0.86860000  0.57350000  1.0
  O  O396  1  0.23098000  0.63139000  0.07350000  1.0
  O  O397  1  0.26901000  0.13139000  0.42650000  1.0
  O  O398  1  0.84311000  0.50510000  0.94608000  1.0
  O  O399  1  0.65690000  0.00508000  0.55392000  1.0
  O  O400  1  0.15690000  0.49491000  0.05392000  1.0
  O  O401  1  0.34311000  0.99491000  0.44608000  1.0
  O  O402  1  0.11603000  0.20840000  0.50724000  1.0
  O  O403  1  0.38397000  0.70840000  0.99276000  1.0
  O  O404  1  0.88397000  0.79160000  0.49276000  1.0
  O  O405  1  0.61603000  0.29159000  0.00724000  1.0
  O  O406  1  0.15238000  0.16578000  0.61153000  1.0
  O  O407  1  0.34762000  0.66579000  0.88848000  1.0
  O  O408  1  0.84762000  0.83421000  0.38847000  1.0
  O  O409  1  0.65238000  0.33421000  0.11152000  1.0
  O  O410  1  0.35752000  0.23429000  0.56986000  1.0
  O  O411  1  0.14248000  0.73430000  0.93014000  1.0
  O  O412  1  0.64248000  0.76570000  0.43014000  1.0
  O  O413  1  0.85753000  0.26570000  0.06987000  1.0
  O  O414  1  0.45295000  0.11475000  0.56241000  1.0
  O  O415  1  0.04705000  0.61475000  0.93759000  1.0
  O  O416  1  0.54705000  0.88525000  0.43759000  1.0
  O  O417  1  0.95295000  0.38525000  0.06241000  1.0
  O  O418  1  0.05048000  0.40889000  0.92305000  1.0
  O  O419  1  0.44953000  0.90889000  0.57695000  1.0
  O  O420  1  0.94953000  0.59112000  0.07695000  1.0
  O  O421  1  0.55048000  0.09111000  0.42305000  1.0
  O  O422  1  0.16071000  0.98844000  0.53629000  1.0
  O  O423  1  0.33928000  0.48844000  0.96371000  1.0
  O  O424  1  0.83928000  0.01156000  0.46371000  1.0
  O  O425  1  0.66072000  0.51156000  0.03629000  1.0
  O  O426  1  0.93896000  0.02934000  0.58168000  1.0
  O  O427  1  0.56104000  0.52935000  0.91832000  1.0
  O  O428  1  0.06104000  0.97066000  0.41833000  1.0
  O  O429  1  0.43896000  0.47066000  0.08168000  1.0
