# generated using pymatgen
data_Ag2H4C7SO6
_symmetry_space_group_name_H-M   'P 1'
_cell_length_a   6.93395000
_cell_length_b   7.55016000
_cell_length_c   9.56162000
_cell_angle_alpha   72.36230000
_cell_angle_beta   83.83440000
_cell_angle_gamma   70.85680000
_symmetry_Int_Tables_number   1
_chemical_formula_structural   Ag2H4C7SO6
_chemical_formula_sum   'Ag4 H8 C14 S2 O12'
_cell_volume   450.64530453
_cell_formula_units_Z   2
loop_
 _symmetry_equiv_pos_site_id
 _symmetry_equiv_pos_as_xyz
  1  'x, y, z'
loop_
 _atom_site_type_symbol
 _atom_site_label
 _atom_site_symmetry_multiplicity
 _atom_site_fract_x
 _atom_site_fract_y
 _atom_site_fract_z
 _atom_site_occupancy
  Ag  Ag0  1  0.91595000  0.91621000  0.92371000  1.0
  Ag  Ag1  1  0.08405000  0.08379000  0.07628000  1.0
  Ag  Ag2  1  0.45479000  0.75613000  0.05859000  1.0
  Ag  Ag3  1  0.54520000  0.24387000  0.94141000  1.0
  H  H4  1  0.24907000  0.59908000  0.77364000  1.0
  H  H5  1  0.75093000  0.40092000  0.22635000  1.0
  H  H6  1  0.20297000  0.74751000  0.52663000  1.0
  H  H7  1  0.79703000  0.25249000  0.47337000  1.0
  H  H8  1  0.35838000  0.87939000  0.28958000  1.0
  H  H9  1  0.64162000  0.12061000  0.71041000  1.0
  H  H10  1  0.92654000  0.72839000  0.50645000  1.0
  H  H11  1  0.07346000  0.27161000  0.49355000  1.0
  C  C12  1  0.68197000  0.65563000  0.64380000  1.0
  C  C13  1  0.31803000  0.34437000  0.35620000  1.0
  C  C14  1  0.47557000  0.66232000  0.65130000  1.0
  C  C15  1  0.52443000  0.33768000  0.34870000  1.0
  C  C16  1  0.36247000  0.74100000  0.52143000  1.0
  C  C17  1  0.63753000  0.25900000  0.47856000  1.0
  C  C18  1  0.45138000  0.81403000  0.38869000  1.0
  C  C19  1  0.54862000  0.18597000  0.61131000  1.0
  C  C20  1  0.65515000  0.81187000  0.38126000  1.0
  C  C21  1  0.34485000  0.18814000  0.61874000  1.0
  C  C22  1  0.76858000  0.73119000  0.51041000  1.0
  C  C23  1  0.23142000  0.26882000  0.48959000  1.0
  C  C24  1  0.75389000  0.89772000  0.24290000  1.0
  C  C25  1  0.24611000  0.10228000  0.75710000  1.0
  S  S26  1  0.83076000  0.56933000  0.80444000  1.0
  S  S27  1  0.16924000  0.43067000  0.19556000  1.0
  O  O28  1  0.73979000  0.71353000  0.88865000  1.0
  O  O29  1  0.26021000  0.28647000  0.11135000  1.0
  O  O30  1  0.81859000  0.37390000  0.88718000  1.0
  O  O31  1  0.18141000  0.62610000  0.11282000  1.0
  O  O32  1  0.03795000  0.56600000  0.75256000  1.0
  O  O33  1  0.96205000  0.43400000  0.24744000  1.0
  O  O34  1  0.39307000  0.59520000  0.78384000  1.0
  O  O35  1  0.60693000  0.40480000  0.21616000  1.0
  O  O36  1  0.68036000  0.91325000  0.11955000  1.0
  O  O37  1  0.31964000  0.08675000  0.88045000  1.0
  O  O38  1  0.90511000  0.95080000  0.25580000  1.0
  O  O39  1  0.09489000  0.04920000  0.74420000  1.0
