# generated using pymatgen
data_YH7C8SO9
_symmetry_space_group_name_H-M   'P 1'
_cell_length_a   6.36081000
_cell_length_b   8.57874000
_cell_length_c   10.60580000
_cell_angle_alpha   90.41010000
_cell_angle_beta   99.95690000
_cell_angle_gamma   107.63400000
_symmetry_Int_Tables_number   1
_chemical_formula_structural   YH7C8SO9
_chemical_formula_sum   'Y2 H14 C16 S2 O18'
_cell_volume   542.13927412
_cell_formula_units_Z   2
loop_
 _symmetry_equiv_pos_site_id
 _symmetry_equiv_pos_as_xyz
  1  'x, y, z'
loop_
 _atom_site_type_symbol
 _atom_site_label
 _atom_site_symmetry_multiplicity
 _atom_site_fract_x
 _atom_site_fract_y
 _atom_site_fract_z
 _atom_site_occupancy
  Y  Y0  1  0.15321000  0.24794000  0.61617000  1.0
  Y  Y1  1  0.84679000  0.75207000  0.38383000  1.0
  H  H2  1  0.61838000  0.41226000  0.14453000  1.0
  H  H3  1  0.38162000  0.58774000  0.85547000  1.0
  H  H4  1  0.65688000  0.36565000  0.91953000  1.0
  H  H5  1  0.34312000  0.63435000  0.08046000  1.0
  H  H6  1  0.18032000  0.15314000  0.05593000  1.0
  H  H7  1  0.81968000  0.84685000  0.94407000  1.0
  H  H8  1  0.52628000  0.08495000  0.67782000  1.0
  H  H9  1  0.47372000  0.91505000  0.32218000  1.0
  H  H10  1  0.29933000  0.95493000  0.60783000  1.0
  H  H11  1  0.70067000  0.04507000  0.39217000  1.0
  H  H12  1  0.65346000  0.35660000  0.71007000  1.0
  H  H13  1  0.34654000  0.64340000  0.28993000  1.0
  H  H14  1  0.58269000  0.50759000  0.64919000  1.0
  H  H15  1  0.41731000  0.49242000  0.35081000  1.0
  C  C16  1  0.02187000  0.22436000  0.20063000  1.0
  C  C17  1  0.97813000  0.77564000  0.79937000  1.0
  C  C18  1  0.86814000  0.30323000  0.22750000  1.0
  C  C19  1  0.13186000  0.69677000  0.77250000  1.0
  C  C20  1  0.73745000  0.35155000  0.12401000  1.0
  C  C21  1  0.26255000  0.64845000  0.87599000  1.0
  C  C22  1  0.76003000  0.32601000  0.99787000  1.0
  C  C23  1  0.23996000  0.67399000  0.00213000  1.0
  C  C24  1  0.92278000  0.25640000  0.97339000  1.0
  C  C25  1  0.07721000  0.74360000  0.02661000  1.0
  C  C26  1  0.05159000  0.20461000  0.07521000  1.0
  C  C27  1  0.94841000  0.79539000  0.92479000  1.0
  C  C28  1  0.84609000  0.34624000  0.36152000  1.0
  C  C29  1  0.15391000  0.65376000  0.63848000  1.0
  C  C30  1  0.98100000  0.24721000  0.84386000  1.0
  C  C31  1  0.01899000  0.75279000  0.15614000  1.0
  S  S32  1  0.21050000  0.16362000  0.32093000  1.0
  S  S33  1  0.78950000  0.83638000  0.67907000  1.0
  O  O34  1  0.08289000  0.02316000  0.38534000  1.0
  O  O35  1  0.91711000  0.97685000  0.61466000  1.0
  O  O36  1  0.30681000  0.30545000  0.41800000  1.0
  O  O37  1  0.69319000  0.69455000  0.58200000  1.0
  O  O38  1  0.37370000  0.12672000  0.25624000  1.0
  O  O39  1  0.62630000  0.87328000  0.74376000  1.0
  O  O40  1  0.85517000  0.24367000  0.44773000  1.0
  O  O41  1  0.14483000  0.75633000  0.55227000  1.0
  O  O42  1  0.82014000  0.48330000  0.38206000  1.0
  O  O43  1  0.17986000  0.51670000  0.61794000  1.0
  O  O44  1  0.16804000  0.22454000  0.83678000  1.0
  O  O45  1  0.83196000  0.77546000  0.16322000  1.0
  O  O46  1  0.85246000  0.26523000  0.74106000  1.0
  O  O47  1  0.14753000  0.73477000  0.25894000  1.0
  O  O48  1  0.37288000  0.07295000  0.63479000  1.0
  O  O49  1  0.62712000  0.92705000  0.36521000  1.0
  O  O50  1  0.52891000  0.40634000  0.69393000  1.0
  O  O51  1  0.47110000  0.59366000  0.30607000  1.0
