# generated using pymatgen
data_ErH8C7NO8
_symmetry_space_group_name_H-M   'P 1'
_cell_length_a   7.44300000
_cell_length_b   9.24310000
_cell_length_c   15.65770000
_cell_angle_alpha   105.43100000
_cell_angle_beta   89.99860000
_cell_angle_gamma   89.99960000
_symmetry_Int_Tables_number   1
_chemical_formula_structural   ErH8C7NO8
_chemical_formula_sum   'Er4 H32 C28 N4 O32'
_cell_volume   1038.36217462
_cell_formula_units_Z   4
loop_
 _symmetry_equiv_pos_site_id
 _symmetry_equiv_pos_as_xyz
  1  'x, y, z'
loop_
 _atom_site_type_symbol
 _atom_site_label
 _atom_site_symmetry_multiplicity
 _atom_site_fract_x
 _atom_site_fract_y
 _atom_site_fract_z
 _atom_site_occupancy
  Er  Er0  1  0.17943000  0.99445000  0.74961000  1.0
  Er  Er1  1  0.67944000  0.50555000  0.75040000  1.0
  Er  Er2  1  0.82058000  0.00557000  0.25040000  1.0
  Er  Er3  1  0.32056000  0.49444000  0.24960000  1.0
  H  H4  1  0.88386000  0.19234000  0.80501000  1.0
  H  H5  1  0.38386000  0.30767000  0.69500000  1.0
  H  H6  1  0.11614000  0.80766000  0.19499000  1.0
  H  H7  1  0.61614000  0.69233000  0.30501000  1.0
  H  H8  1  0.91983000  0.14619000  0.89745000  1.0
  H  H9  1  0.41984000  0.35381000  0.60255000  1.0
  H  H10  1  0.08016000  0.85380000  0.10255000  1.0
  H  H11  1  0.58016000  0.64619000  0.39745000  1.0
  H  H12  1  0.50198000  0.80618000  0.69688000  1.0
  H  H13  1  0.00198000  0.69383000  0.80311000  1.0
  H  H14  1  0.49801000  0.19382000  0.30312000  1.0
  H  H15  1  0.99802000  0.30617000  0.19688000  1.0
  H  H16  1  0.47206000  0.82285000  0.79531000  1.0
  H  H17  1  0.97206000  0.67717000  0.70469000  1.0
  H  H18  1  0.52794000  0.17716000  0.20469000  1.0
  H  H19  1  0.02795000  0.32283000  0.29530000  1.0
  H  H20  1  0.43754000  0.88065000  0.57437000  1.0
  H  H21  1  0.93753000  0.61936000  0.92563000  1.0
  H  H22  1  0.56247000  0.11936000  0.42564000  1.0
  H  H23  1  0.06247000  0.38065000  0.07437000  1.0
  H  H24  1  0.28978000  0.99376000  0.56116000  1.0
  H  H25  1  0.78976000  0.50625000  0.93883000  1.0
  H  H26  1  0.71023000  0.00624000  0.43884000  1.0
  H  H27  1  0.21024000  0.49376000  0.06116000  1.0
  H  H28  1  0.54247000  0.38345000  0.01611000  1.0
  H  H29  1  0.04249000  0.11653000  0.48389000  1.0
  H  H30  1  0.45753000  0.61653000  0.98390000  1.0
  H  H31  1  0.95753000  0.88347000  0.51610000  1.0
  H  H32  1  0.27144000  0.03627000  0.10504000  1.0
  H  H33  1  0.77146000  0.46373000  0.39496000  1.0
  H  H34  1  0.72854000  0.96371000  0.89496000  1.0
  H  H35  1  0.22854000  0.53629000  0.60504000  1.0
  C  C36  1  0.14923000  0.88161000  0.93402000  1.0
  C  C37  1  0.64922000  0.61839000  0.56597000  1.0
  C  C38  1  0.85077000  0.11839000  0.06597000  1.0
  C  C39  1  0.35077000  0.38161000  0.43402000  1.0
  C  C40  1  0.25851000  0.02439000  0.96532000  1.0
  C  C41  1  0.75850000  0.47561000  0.53468000  1.0
  C  C42  1  0.74147000  0.97558000  0.03467000  1.0
  C  C43  1  0.24148000  0.52440000  0.46532000  1.0
  C  C44  1  0.39882000  0.21375000  0.91843000  1.0
  C  C45  1  0.89882000  0.28625000  0.58157000  1.0
  C  C46  1  0.60118000  0.78624000  0.08158000  1.0
  C  C47  1  0.10118000  0.71375000  0.41843000  1.0
  C  C48  1  0.43158000  0.27630000  0.84062000  1.0
  C  C49  1  0.93158000  0.22371000  0.65938000  1.0
  C  C50  1  0.56843000  0.72368000  0.15938000  1.0
  C  C51  1  0.06843000  0.77630000  0.34062000  1.0
  C  C52  1  0.46052000  0.28251000  0.00284000  1.0
  C  C53  1  0.96052000  0.21748000  0.49717000  1.0
  C  C54  1  0.53950000  0.71748000  0.99717000  1.0
  C  C55  1  0.03949000  0.78253000  0.50283000  1.0
  C  C56  1  0.40898000  0.22329000  0.07373000  1.0
  C  C57  1  0.90899000  0.27671000  0.42627000  1.0
  C  C58  1  0.59101000  0.77670000  0.92627000  1.0
  C  C59  1  0.09102000  0.72332000  0.57373000  1.0
  C  C60  1  0.30995000  0.08730000  0.05255000  1.0
  C  C61  1  0.80997000  0.41270000  0.44744000  1.0
  C  C62  1  0.69002000  0.91268000  0.94744000  1.0
  C  C63  1  0.19003000  0.58732000  0.55255000  1.0
  N  N64  1  0.29815000  0.08842000  0.89971000  1.0
  N  N65  1  0.79814000  0.41158000  0.60028000  1.0
  N  N66  1  0.70186000  0.91157000  0.10029000  1.0
  N  N67  1  0.20186000  0.58843000  0.39971000  1.0
  O  O68  1  0.10074000  0.80563000  0.98601000  1.0
  O  O69  1  0.60073000  0.69437000  0.51398000  1.0
  O  O70  1  0.89925000  0.19436000  0.01398000  1.0
  O  O71  1  0.39926000  0.30563000  0.48602000  1.0
  O  O72  1  0.11120000  0.84716000  0.85094000  1.0
  O  O73  1  0.61119000  0.65284000  0.64905000  1.0
  O  O74  1  0.88880000  0.15283000  0.14906000  1.0
  O  O75  1  0.38879000  0.34716000  0.35094000  1.0
  O  O76  1  0.34095000  0.21574000  0.77053000  1.0
  O  O77  1  0.84096000  0.28428000  0.72947000  1.0
  O  O78  1  0.65906000  0.78425000  0.22947000  1.0
  O  O79  1  0.15905000  0.71572000  0.27052000  1.0
  O  O80  1  0.54110000  0.38330000  0.84780000  1.0
  O  O81  1  0.04109000  0.11671000  0.65221000  1.0
  O  O82  1  0.45893000  0.61669000  0.15221000  1.0
  O  O83  1  0.95892000  0.88331000  0.34779000  1.0
  O  O84  1  0.45110000  0.29324000  0.15589000  1.0
  O  O85  1  0.95112000  0.20674000  0.34411000  1.0
  O  O86  1  0.54887000  0.70673000  0.84411000  1.0
  O  O87  1  0.04888000  0.79327000  0.65589000  1.0
  O  O88  1  0.93620000  0.11504000  0.83202000  1.0
  O  O89  1  0.43620000  0.38498000  0.66798000  1.0
  O  O90  1  0.06380000  0.88496000  0.16798000  1.0
  O  O91  1  0.56379000  0.61503000  0.33202000  1.0
  O  O92  1  0.44157000  0.87621000  0.74891000  1.0
  O  O93  1  0.94156000  0.62381000  0.75109000  1.0
  O  O94  1  0.55843000  0.12380000  0.25110000  1.0
  O  O95  1  0.05844000  0.37619000  0.24890000  1.0
  O  O96  1  0.36520000  0.96823000  0.60579000  1.0
  O  O97  1  0.86519000  0.53179000  0.89421000  1.0
  O  O98  1  0.63482000  0.03179000  0.39421000  1.0
  O  O99  1  0.13483000  0.46822000  0.10579000  1.0
