# generated using pymatgen
data_AlH9C21Br3NO6
_symmetry_space_group_name_H-M   'P 1'
_cell_length_a   4.12518000
_cell_length_b   13.47470000
_cell_length_c   13.47505367
_cell_angle_alpha   60.00060469
_cell_angle_beta   89.99919999
_cell_angle_gamma   90.00050000
_symmetry_Int_Tables_number   1
_chemical_formula_structural   AlH9C21Br3NO6
_chemical_formula_sum   'Al1 H9 C21 Br3 N1 O6'
_cell_volume   648.67295292
_cell_formula_units_Z   1
loop_
 _symmetry_equiv_pos_site_id
 _symmetry_equiv_pos_as_xyz
  1  'x, y, z'
loop_
 _atom_site_type_symbol
 _atom_site_label
 _atom_site_symmetry_multiplicity
 _atom_site_fract_x
 _atom_site_fract_y
 _atom_site_fract_z
 _atom_site_occupancy
  Al  Al0  1  0.03115000  0.00000000  0.50001000  1.0
  H  H1  1  0.23239000  0.97153000  0.21861000  1.0
  H  H2  1  0.20752000  0.87197000  0.10741000  1.0
  H  H3  1  0.76202000  0.59283000  0.37037000  1.0
  H  H4  1  0.76209000  0.87038000  0.03679000  1.0
  H  H5  1  0.23238000  0.71861000  0.80988000  1.0
  H  H6  1  0.20751000  0.60741000  0.02063000  1.0
  H  H7  1  0.76211000  0.53680000  0.09284000  1.0
  H  H8  1  0.23232000  0.30987000  0.47150000  1.0
  H  H9  1  0.20744000  0.52063000  0.37194000  1.0
  C  C10  1  0.52881000  0.92131000  0.67450000  1.0
  C  C11  1  0.52882000  0.17450000  0.40420000  1.0
  C  C12  1  0.52881000  0.90420000  0.42131000  1.0
  C  C13  1  0.35173000  0.88877000  0.25122000  1.0
  C  C14  1  0.33520000  0.83219000  0.18891000  1.0
  C  C15  1  0.48540000  0.72498000  0.22989000  1.0
  C  C16  1  0.64590000  0.67590000  0.33575000  1.0
  C  C17  1  0.65149000  0.73198000  0.39865000  1.0
  C  C18  1  0.51210000  0.84013000  0.35698000  1.0
  C  C19  1  0.64594000  0.83575000  0.98836000  1.0
  C  C20  1  0.65153000  0.89865000  0.86937000  1.0
  C  C21  1  0.51210000  0.85698000  0.80290000  1.0
  C  C22  1  0.35173000  0.75123000  0.86002000  1.0
  C  C23  1  0.33519000  0.68892000  0.97890000  1.0
  C  C24  1  0.48543000  0.72990000  0.04513000  1.0
  C  C25  1  0.64596000  0.48836000  0.17590000  1.0
  C  C26  1  0.65157000  0.36937000  0.23200000  1.0
  C  C27  1  0.51212000  0.30289000  0.34013000  1.0
  C  C28  1  0.35168000  0.36003000  0.38874000  1.0
  C  C29  1  0.33514000  0.47890000  0.33217000  1.0
  C  C30  1  0.48540000  0.54514000  0.22497000  1.0
  Br  Br31  1  0.84839000  0.65574000  0.54609000  1.0
  Br  Br32  1  0.84847000  0.04609000  0.79817000  1.0
  Br  Br33  1  0.84857000  0.29817000  0.15577000  1.0
  N  N34  1  0.47495000  0.66667000  0.16667000  1.0
  O  O35  1  0.77110000  0.97043000  0.39967000  1.0
  O  O36  1  0.77110000  0.89966000  0.62991000  1.0
  O  O37  1  0.77110000  0.12990000  0.47044000  1.0
  O  O38  1  0.29920000  0.88947000  0.49012000  1.0
  O  O39  1  0.29920000  0.12041000  0.38948000  1.0
  O  O40  1  0.29920000  0.99011000  0.62042000  1.0
