# generated using pymatgen
data_CaH6C6N2Cl2O
_symmetry_space_group_name_H-M   'P 1'
_cell_length_a   3.92021000
_cell_length_b   8.08319000
_cell_length_c   15.09790000
_cell_angle_alpha   90.00000000
_cell_angle_beta   96.85850000
_cell_angle_gamma   89.99980000
_symmetry_Int_Tables_number   1
_chemical_formula_structural   CaH6C6N2Cl2O
_chemical_formula_sum   'Ca2 H12 C12 N4 Cl4 O2'
_cell_volume   474.99574849
_cell_formula_units_Z   2
loop_
 _symmetry_equiv_pos_site_id
 _symmetry_equiv_pos_as_xyz
  1  'x, y, z'
loop_
 _atom_site_type_symbol
 _atom_site_label
 _atom_site_symmetry_multiplicity
 _atom_site_fract_x
 _atom_site_fract_y
 _atom_site_fract_z
 _atom_site_occupancy
  Ca  Ca0  1  0.54556000  0.07512000  0.13972000  1.0
  Ca  Ca1  1  0.54556000  0.92488000  0.63972000  1.0
  H  H2  1  0.40013000  0.47453000  0.08735000  1.0
  H  H3  1  0.40014000  0.52547000  0.58735000  1.0
  H  H4  1  0.47709000  0.68637000  0.97073000  1.0
  H  H5  1  0.47710000  0.31363000  0.47073000  1.0
  H  H6  1  0.63414000  0.59285000  0.82336000  1.0
  H  H7  1  0.63414000  0.40715000  0.32335000  1.0
  H  H8  1  0.59402000  0.08969000  0.91849000  1.0
  H  H9  1  0.59403000  0.91031000  0.41849000  1.0
  H  H10  1  0.90953000  0.29748000  0.65911000  1.0
  H  H11  1  0.90953000  0.70253000  0.15911000  1.0
  H  H12  1  0.92304000  0.47288000  0.72883000  1.0
  H  H13  1  0.92304000  0.52712000  0.22883000  1.0
  C  C14  1  0.59631000  0.50219000  0.87474000  1.0
  C  C15  1  0.59631000  0.49781000  0.37474000  1.0
  C  C16  1  0.62303000  0.33208000  0.85951000  1.0
  C  C17  1  0.62303000  0.66792000  0.35951000  1.0
  C  C18  1  0.57140000  0.22270000  0.92862000  1.0
  C  C19  1  0.57141000  0.77730000  0.42862000  1.0
  C  C20  1  0.46512000  0.43789000  0.02183000  1.0
  C  C21  1  0.46513000  0.56211000  0.52183000  1.0
  C  C22  1  0.69731000  0.25887000  0.77320000  1.0
  C  C23  1  0.69731000  0.74113000  0.27320000  1.0
  C  C24  1  0.50906000  0.55555000  0.95685000  1.0
  C  C25  1  0.50906000  0.44445000  0.45685000  1.0
  N  N26  1  0.50070000  0.27382000  0.00899000  1.0
  N  N27  1  0.50071000  0.72618000  0.50899000  1.0
  N  N28  1  0.84754000  0.35307000  0.71622000  1.0
  N  N29  1  0.84754000  0.64693000  0.21622000  1.0
  Cl  Cl30  1  0.01369000  0.89703000  0.05596000  1.0
  Cl  Cl31  1  0.01369000  0.10297000  0.55596000  1.0
  Cl  Cl32  1  0.08133000  0.26332000  0.21477000  1.0
  Cl  Cl33  1  0.08135000  0.73667000  0.71477000  1.0
  O  O34  1  0.61642000  0.11058000  0.75595000  1.0
  O  O35  1  0.61642000  0.88942000  0.25595000  1.0
