# generated using pymatgen
data_ZnH30C23(NO)4
_symmetry_space_group_name_H-M   'P 1'
_cell_length_a   7.54507000
_cell_length_b   9.21187000
_cell_length_c   18.16630000
_cell_angle_alpha   87.59950000
_cell_angle_beta   84.06450000
_cell_angle_gamma   65.82140000
_symmetry_Int_Tables_number   1
_chemical_formula_structural   ZnH30C23(NO)4
_chemical_formula_sum   'Zn2 H60 C46 N8 O8'
_cell_volume   1145.69192203
_cell_formula_units_Z   2
loop_
 _symmetry_equiv_pos_site_id
 _symmetry_equiv_pos_as_xyz
  1  'x, y, z'
loop_
 _atom_site_type_symbol
 _atom_site_label
 _atom_site_symmetry_multiplicity
 _atom_site_fract_x
 _atom_site_fract_y
 _atom_site_fract_z
 _atom_site_occupancy
  Zn  Zn0  1  0.17156000  0.65701000  0.75009000  1.0
  Zn  Zn1  1  0.82844000  0.34299000  0.24991000  1.0
  H  H2  1  0.22545000  0.32811000  0.98645000  1.0
  H  H3  1  0.44634000  0.32822000  0.51350000  1.0
  H  H4  1  0.77455000  0.67188000  0.01355000  1.0
  H  H5  1  0.55366000  0.67179000  0.48650000  1.0
  H  H6  1  0.57872000  0.52315000  0.79313000  1.0
  H  H7  1  0.89851000  0.52284000  0.70716000  1.0
  H  H8  1  0.42128000  0.47685000  0.20687000  1.0
  H  H9  1  0.10149000  0.47716000  0.29284000  1.0
  H  H10  1  0.81993000  0.05673000  0.89119000  1.0
  H  H11  1  0.12392000  0.05661000  0.60871000  1.0
  H  H12  1  0.18007000  0.94327000  0.10881000  1.0
  H  H13  1  0.87608000  0.94339000  0.39129000  1.0
  H  H14  1  0.81513000  0.92132000  0.96373000  1.0
  H  H15  1  0.26360000  0.92095000  0.53611000  1.0
  H  H16  1  0.18487000  0.07868000  0.03628000  1.0
  H  H17  1  0.73640000  0.07905000  0.46389000  1.0
  H  H18  1  0.76269000  0.35230000  0.89342000  1.0
  H  H19  1  0.88534000  0.35192000  0.60683000  1.0
  H  H20  1  0.23731000  0.64770000  0.10658000  1.0
  H  H21  1  0.11467000  0.64808000  0.39317000  1.0
  H  H22  1  0.84504000  0.98929000  0.09282000  1.0
  H  H23  1  0.16570000  0.98880000  0.40714000  1.0
  H  H24  1  0.15496000  0.01071000  0.90718000  1.0
  H  H25  1  0.83430000  0.01120000  0.59286000  1.0
  H  H26  1  0.86253000  0.17318000  0.10691000  1.0
  H  H27  1  0.96465000  0.17286000  0.39305000  1.0
  H  H28  1  0.13747000  0.82682000  0.89309000  1.0
  H  H29  1  0.03535000  0.82714000  0.60695000  1.0
  H  H30  1  0.54823000  0.19523000  0.68473000  1.0
  H  H31  1  0.25666000  0.19536000  0.81551000  1.0
  H  H32  1  0.45177000  0.80477000  0.31527000  1.0
  H  H33  1  0.74335000  0.80464000  0.18449000  1.0
  H  H34  1  0.76149000  0.04888000  0.72078000  1.0
  H  H35  1  0.18954000  0.04913000  0.77943000  1.0
  H  H36  1  0.23851000  0.95112000  0.27922000  1.0
  H  H37  1  0.81046000  0.95087000  0.22057000  1.0
  H  H38  1  0.58286000  0.19667000  0.77974000  1.0
  H  H39  1  0.22056000  0.19682000  0.72053000  1.0
  H  H40  1  0.41714000  0.80333000  0.22026000  1.0
  H  H41  1  0.77944000  0.80318000  0.27947000  1.0
  H  H42  1  0.45686000  0.98364000  0.63594000  1.0
  H  H43  1  0.55953000  0.98369000  0.86422000  1.0
  H  H44  1  0.54314000  0.01636000  0.36406000  1.0
  H  H45  1  0.44047000  0.01631000  0.13578000  1.0
  H  H46  1  0.68515000  0.85119000  0.66402000  1.0
  H  H47  1  0.46342000  0.85138000  0.83613000  1.0
  H  H48  1  0.31485000  0.14881000  0.33598000  1.0
  H  H49  1  0.53658000  0.14862000  0.16387000  1.0
  H  H50  1  0.05937000  0.50511000  0.88253000  1.0
  H  H51  1  0.43555000  0.50512000  0.61754000  1.0
  H  H52  1  0.94064000  0.49489000  0.11747000  1.0
  H  H53  1  0.56445000  0.49488000  0.38247000  1.0
  H  H54  1  0.57101000  0.29741000  0.05960000  1.0
  H  H55  1  0.13185000  0.29724000  0.44044000  1.0
  H  H56  1  0.42899000  0.70259000  0.94040000  1.0
  H  H57  1  0.86815000  0.70276000  0.55956000  1.0
  H  H58  1  0.53734000  0.13600000  0.02461000  1.0
  H  H59  1  0.32695000  0.13589000  0.47542000  1.0
  H  H60  1  0.46266000  0.86400000  0.97539000  1.0
  H  H61  1  0.67305000  0.86411000  0.52458000  1.0
  C  C62  1  0.49420000  0.01163000  0.75009000  1.0
  C  C63  1  0.50580000  0.98837000  0.24991000  1.0
  C  C64  1  0.30874000  0.36925000  0.94453000  1.0
  C  C65  1  0.32206000  0.36923000  0.55551000  1.0
  C  C66  1  0.69127000  0.63075000  0.05547000  1.0
  C  C67  1  0.67794000  0.63077000  0.44449000  1.0
  C  C68  1  0.50935000  0.32372000  0.94778000  1.0
  C  C69  1  0.16703000  0.32358000  0.55231000  1.0
  C  C70  1  0.49065000  0.67628000  0.05222000  1.0
  C  C71  1  0.83297000  0.67642000  0.44769000  1.0
  C  C72  1  0.45745000  0.77261000  0.68966000  1.0
  C  C73  1  0.76979000  0.77256000  0.81047000  1.0
  C  C74  1  0.54254000  0.22739000  0.31034000  1.0
  C  C75  1  0.23021000  0.22744000  0.18953000  1.0
  C  C76  1  0.50570000  0.47739000  0.83691000  1.0
  C  C77  1  0.01718000  0.47715000  0.66329000  1.0
  C  C78  1  0.49431000  0.52261000  0.16309000  1.0
  C  C79  1  0.98282000  0.52285000  0.33671000  1.0
  C  C80  1  0.87677000  0.00908000  0.94441000  1.0
  C  C81  1  0.11438000  0.00894000  0.55553000  1.0
  C  C82  1  0.12323000  0.99092000  0.05559000  1.0
  C  C83  1  0.88562000  0.99105000  0.44447000  1.0
  C  C84  1  0.60769000  0.38137000  0.89283000  1.0
  C  C85  1  0.01117000  0.38111000  0.60734000  1.0
  C  C86  1  0.39231000  0.61863000  0.10717000  1.0
  C  C87  1  0.98883000  0.61889000  0.39266000  1.0
  C  C88  1  0.90265000  0.07496000  0.06758000  1.0
  C  C89  1  0.02253000  0.07473000  0.43240000  1.0
  C  C90  1  0.09735000  0.92504000  0.93242000  1.0
  C  C91  1  0.97747000  0.92527000  0.56760000  1.0
  C  C92  1  0.60443000  0.11876000  0.73248000  1.0
  C  C93  1  0.27683000  0.11891000  0.76774000  1.0
  C  C94  1  0.39557000  0.88124000  0.26752000  1.0
  C  C95  1  0.72317000  0.88109000  0.23226000  1.0
  C  C96  1  0.52850000  0.90603000  0.68153000  1.0
  C  C97  1  0.56538000  0.90606000  0.81862000  1.0
  C  C98  1  0.47150000  0.09397000  0.31847000  1.0
  C  C99  1  0.43462000  0.09394000  0.18138000  1.0
  C  C100  1  0.21522000  0.46670000  0.88777000  1.0
  C  C101  1  0.31815000  0.46667000  0.61232000  1.0
  C  C102  1  0.78479000  0.53330000  0.11223000  1.0
  C  C103  1  0.68184000  0.53334000  0.38768000  1.0
  C  C104  1  0.60741000  0.22031000  0.01057000  1.0
  C  C105  1  0.17249000  0.22016000  0.48945000  1.0
  C  C106  1  0.39259000  0.77969000  0.98943000  1.0
  C  C107  1  0.82751000  0.77984000  0.51055000  1.0
  N  N108  1  0.31285000  0.51930000  0.83413000  1.0
  N  N109  1  0.16804000  0.51916000  0.66603000  1.0
  N  N110  1  0.68716000  0.48070000  0.16587000  1.0
  N  N111  1  0.83196000  0.48084000  0.33397000  1.0
  N  N112  1  0.81818000  0.13843000  0.99799000  1.0
  N  N113  1  0.04367000  0.13825000  0.50198000  1.0
  N  N114  1  0.18182000  0.86156000  0.00201000  1.0
  N  N115  1  0.95633000  0.86175000  0.49802000  1.0
  O  O116  1  0.27991000  0.81292000  0.71940000  1.0
  O  O117  1  0.90706000  0.81276000  0.78069000  1.0
  O  O118  1  0.72009000  0.18708000  0.28059000  1.0
  O  O119  1  0.09294000  0.18724000  0.21931000  1.0
  O  O120  1  0.56852000  0.63496000  0.66764000  1.0
  O  O121  1  0.79636000  0.63497000  0.83251000  1.0
  O  O122  1  0.43148000  0.36503000  0.33236000  1.0
  O  O123  1  0.20364000  0.36503000  0.16749000  1.0
