# generated using pymatgen
data_Dy2U3H26(C3O4)10
_symmetry_space_group_name_H-M   'P 1'
_cell_length_a   10.51780000
_cell_length_b   11.40740000
_cell_length_c   13.37880000
_cell_angle_alpha   68.34560000
_cell_angle_beta   78.23940000
_cell_angle_gamma   63.90140000
_symmetry_Int_Tables_number   1
_chemical_formula_structural   Dy2U3H26(C3O4)10
_chemical_formula_sum   'Dy2 U3 H26 C30 O40'
_cell_volume   1338.13968317
_cell_formula_units_Z   1
loop_
 _symmetry_equiv_pos_site_id
 _symmetry_equiv_pos_as_xyz
  1  'x, y, z'
loop_
 _atom_site_type_symbol
 _atom_site_label
 _atom_site_symmetry_multiplicity
 _atom_site_fract_x
 _atom_site_fract_y
 _atom_site_fract_z
 _atom_site_occupancy
  Dy  Dy0  1  0.58855000  0.24017000  0.74677000  1.0
  Dy  Dy1  1  0.41145000  0.75983000  0.25324000  1.0
  U  U2  1  0.62208000  0.71348000  0.83861000  1.0
  U  U3  1  0.37792000  0.28652000  0.16139000  1.0
  U  U4  1  0.00000000  0.50000000  0.49999000  1.0
  H  H5  1  0.09514000  0.36747000  0.96816000  1.0
  H  H6  1  0.90485000  0.63253000  0.03184000  1.0
  H  H7  1  0.15294000  0.10675000  0.72438000  1.0
  H  H8  1  0.84707000  0.89327000  0.27560000  1.0
  H  H9  1  0.72752000  0.00231000  0.40526000  1.0
  H  H10  1  0.27249000  0.99767000  0.59473000  1.0
  H  H11  1  0.66404000  0.20911000  0.53250000  1.0
  H  H12  1  0.33597000  0.79088000  0.46751000  1.0
  H  H13  1  0.71852000  0.05818000  0.62068000  1.0
  H  H14  1  0.28148000  0.94182000  0.37933000  1.0
  H  H15  1  0.53772000  0.51881000  0.58640000  1.0
  H  H16  1  0.46228000  0.48119000  0.41361000  1.0
  H  H17  1  0.70465000  0.42576000  0.59684000  1.0
  H  H18  1  0.29536000  0.57423000  0.40316000  1.0
  H  H19  1  0.30268000  0.47063000  0.66967000  1.0
  H  H20  1  0.69734000  0.52939000  0.33032000  1.0
  H  H21  1  0.33100000  0.37183000  0.60446000  1.0
  H  H22  1  0.66899000  0.62817000  0.39555000  1.0
  H  H23  1  0.49720000  0.51670000  0.78232000  1.0
  H  H24  1  0.50281000  0.48330000  0.21769000  1.0
  H  H25  1  0.48462000  0.40957000  0.89662000  1.0
  H  H26  1  0.51538000  0.59043000  0.10339000  1.0
  H  H27  1  0.74047000  0.93243000  0.87135000  1.0
  H  H28  1  0.25952000  0.06758000  0.12865000  1.0
  H  H29  1  0.83961000  0.01327000  0.85513000  1.0
  H  H30  1  0.16039000  0.98673000  0.14487000  1.0
  C  C31  1  0.99404000  0.34273000  0.85752000  1.0
  C  C32  1  0.00595000  0.65727000  0.14248000  1.0
  C  C33  1  0.10902000  0.31050000  0.91399000  1.0
  C  C34  1  0.89097000  0.68951000  0.08601000  1.0
  C  C35  1  0.24270000  0.21220000  0.89712000  1.0
  C  C36  1  0.75730000  0.78781000  0.10288000  1.0
  C  C37  1  0.25962000  0.14159000  0.82497000  1.0
  C  C38  1  0.74038000  0.85842000  0.17502000  1.0
  C  C39  1  0.14071000  0.16489000  0.77697000  1.0
  C  C40  1  0.85929000  0.83513000  0.22301000  1.0
  C  C41  1  0.00854000  0.26686000  0.79043000  1.0
  C  C42  1  0.99146000  0.73314000  0.20956000  1.0
  C  C43  1  0.62678000  0.00277000  0.44661000  1.0
  C  C44  1  0.37323000  0.99722000  0.55338000  1.0
  C  C45  1  0.61620000  0.87620000  0.50077000  1.0
  C  C46  1  0.38381000  0.12379000  0.49922000  1.0
  C  C47  1  0.48782000  0.87296000  0.55563000  1.0
  C  C48  1  0.51219000  0.12703000  0.44437000  1.0
  C  C49  1  0.86150000  0.46419000  0.86155000  1.0
  C  C50  1  0.13850000  0.53581000  0.13846000  1.0
  C  C51  1  0.36061000  0.18844000  0.95813000  1.0
  C  C52  1  0.63938000  0.81157000  0.04188000  1.0
  C  C53  1  0.40111000  0.04226000  0.79505000  1.0
  C  C54  1  0.59889000  0.95774000  0.20495000  1.0
  C  C55  1  0.88672000  0.29421000  0.73008000  1.0
  C  C56  1  0.11328000  0.70579000  0.26991000  1.0
  C  C57  1  0.46859000  0.74138000  0.62040000  1.0
  C  C58  1  0.53141000  0.25860000  0.37961000  1.0
  C  C59  1  0.74289000  0.74885000  0.49633000  1.0
  C  C60  1  0.25711000  0.25114000  0.50367000  1.0
  O  O61  1  0.53424000  0.63132000  0.95707000  1.0
  O  O62  1  0.46575000  0.36868000  0.04293000  1.0
  O  O63  1  0.71304000  0.79611000  0.72484000  1.0
  O  O64  1  0.28696000  0.20389000  0.27516000  1.0
  O  O65  1  0.05497000  0.50978000  0.61506000  1.0
  O  O66  1  0.94502000  0.49022000  0.38492000  1.0
  O  O67  1  0.85014000  0.54177000  0.91468000  1.0
  O  O68  1  0.14984000  0.45823000  0.08533000  1.0
  O  O69  1  0.75831000  0.49619000  0.80600000  1.0
  O  O70  1  0.24168000  0.50381000  0.19400000  1.0
  O  O71  1  0.80311000  0.23636000  0.77881000  1.0
  O  O72  1  0.19689000  0.76365000  0.22119000  1.0
  O  O73  1  0.87883000  0.36740000  0.63060000  1.0
  O  O74  1  0.12117000  0.63259000  0.36940000  1.0
  O  O75  1  0.41267000  0.91892000  0.81699000  1.0
  O  O76  1  0.58733000  0.08109000  0.18301000  1.0
  O  O77  1  0.49700000  0.08420000  0.74800000  1.0
  O  O78  1  0.50300000  0.91580000  0.25199000  1.0
  O  O79  1  0.48232000  0.17438000  0.91633000  1.0
  O  O80  1  0.51767000  0.82562000  0.08368000  1.0
  O  O81  1  0.32721000  0.18543000  0.05766000  1.0
  O  O82  1  0.67278000  0.81457000  0.94234000  1.0
  O  O83  1  0.50303000  0.68658000  0.71908000  1.0
  O  O84  1  0.49697000  0.31342000  0.28092000  1.0
  O  O85  1  0.41319000  0.69334000  0.57885000  1.0
  O  O86  1  0.58681000  0.30665000  0.42116000  1.0
  O  O87  1  0.72881000  0.63572000  0.51641000  1.0
  O  O88  1  0.27119000  0.36427000  0.48358000  1.0
  O  O89  1  0.86445000  0.75256000  0.47029000  1.0
  O  O90  1  0.13556000  0.24743000  0.52970000  1.0
  O  O91  1  0.70648000  0.15288000  0.60509000  1.0
  O  O92  1  0.29353000  0.84712000  0.39492000  1.0
  O  O93  1  0.61047000  0.42382000  0.59993000  1.0
  O  O94  1  0.38953000  0.57617000  0.40008000  1.0
  O  O95  1  0.36271000  0.37854000  0.66592000  1.0
  O  O96  1  0.63728000  0.62147000  0.33409000  1.0
  O  O97  1  0.48980000  0.42672000  0.81810000  1.0
  O  O98  1  0.51020000  0.57329000  0.18190000  1.0
  O  O99  1  0.75999000  0.01505000  0.82755000  1.0
  O  O100  1  0.24000000  0.98495000  0.17246000  1.0
