# generated using pymatgen
data_CuH12C14(NO2)3
_symmetry_space_group_name_H-M   'P 1'
_cell_length_a   6.84397000
_cell_length_b   10.36780000
_cell_length_c   10.86770000
_cell_angle_alpha   68.98900000
_cell_angle_beta   81.05790000
_cell_angle_gamma   75.45890000
_symmetry_Int_Tables_number   1
_chemical_formula_structural   CuH12C14(NO2)3
_chemical_formula_sum   'Cu2 H24 C28 N6 O12'
_cell_volume   694.97950156
_cell_formula_units_Z   2
loop_
 _symmetry_equiv_pos_site_id
 _symmetry_equiv_pos_as_xyz
  1  'x, y, z'
loop_
 _atom_site_type_symbol
 _atom_site_label
 _atom_site_symmetry_multiplicity
 _atom_site_fract_x
 _atom_site_fract_y
 _atom_site_fract_z
 _atom_site_occupancy
  Cu  Cu0  1  0.14756000  0.08480000  0.36510000  1.0
  Cu  Cu1  1  0.85244000  0.91520000  0.63490000  1.0
  H  H2  1  0.17295000  0.08459000  0.58298000  1.0
  H  H3  1  0.82705000  0.91541000  0.41702000  1.0
  H  H4  1  0.31782000  0.92789000  0.59479000  1.0
  H  H5  1  0.68218000  0.07211000  0.40522000  1.0
  H  H6  1  0.37141000  0.76338000  0.49034000  1.0
  H  H7  1  0.62860000  0.23662000  0.50966000  1.0
  H  H8  1  0.51720000  0.57263000  0.39264000  1.0
  H  H9  1  0.48281000  0.42737000  0.60736000  1.0
  H  H10  1  0.50928000  0.62260000  0.15184000  1.0
  H  H11  1  0.49073000  0.37740000  0.84816000  1.0
  H  H12  1  0.25620000  0.05336000  0.79719000  1.0
  H  H13  1  0.74379000  0.94664000  0.20281000  1.0
  H  H14  1  0.42716000  0.81071000  0.92539000  1.0
  H  H15  1  0.57284000  0.18930000  0.07461000  1.0
  H  H16  1  0.04371000  0.29331000  0.79609000  1.0
  H  H17  1  0.95629000  0.70669000  0.20391000  1.0
  H  H18  1  0.86514000  0.45060000  0.92910000  1.0
  H  H19  1  0.13485000  0.54940000  0.07090000  1.0
  H  H20  1  0.90547000  0.36252000  0.17465000  1.0
  H  H21  1  0.09453000  0.63748000  0.82536000  1.0
  H  H22  1  0.11821000  0.51651000  0.36428000  1.0
  H  H23  1  0.88179000  0.48349000  0.63572000  1.0
  H  H24  1  0.86037000  0.51209000  0.39586000  1.0
  H  H25  1  0.13963000  0.48791000  0.60414000  1.0
  C  C26  1  0.36606000  0.78476000  0.38488000  1.0
  C  C27  1  0.63394000  0.21524000  0.61512000  1.0
  C  C28  1  0.44956000  0.67766000  0.32920000  1.0
  C  C29  1  0.55045000  0.32234000  0.67080000  1.0
  C  C30  1  0.44569000  0.70554000  0.19522000  1.0
  C  C31  1  0.55432000  0.29446000  0.80478000  1.0
  C  C32  1  0.35580000  0.84278000  0.11554000  1.0
  C  C33  1  0.64420000  0.15722000  0.88446000  1.0
  C  C34  1  0.26801000  0.94245000  0.18018000  1.0
  C  C35  1  0.73199000  0.05755000  0.81982000  1.0
  C  C36  1  0.16636000  0.08103000  0.10653000  1.0
  C  C37  1  0.83363000  0.91897000  0.89347000  1.0
  C  C38  1  0.15902000  0.12125000  0.96824000  1.0
  C  C39  1  0.84098000  0.87875000  0.03176000  1.0
  C  C40  1  0.25734000  0.02038000  0.90421000  1.0
  C  C41  1  0.74266000  0.97962000  0.09579000  1.0
  C  C42  1  0.35116000  0.88645000  0.97495000  1.0
  C  C43  1  0.64884000  0.11355000  0.02505000  1.0
  C  C44  1  0.05217000  0.25922000  0.90284000  1.0
  C  C45  1  0.94782000  0.74078000  0.09716000  1.0
  C  C46  1  0.95689000  0.34606000  0.97574000  1.0
  C  C47  1  0.04310000  0.65394000  0.02426000  1.0
  C  C48  1  0.97489000  0.29772000  0.11309000  1.0
  C  C49  1  0.02510000  0.70228000  0.88691000  1.0
  C  C50  1  0.06161000  0.31460000  0.47708000  1.0
  C  C51  1  0.93840000  0.68540000  0.52292000  1.0
  C  C52  1  0.00485000  0.47419000  0.44233000  1.0
  C  C53  1  0.99515000  0.52581000  0.55767000  1.0
  N  N54  1  0.27583000  0.91368000  0.31188000  1.0
  N  N55  1  0.72417000  0.08632000  0.68812000  1.0
  N  N56  1  0.07885000  0.16916000  0.17575000  1.0
  N  N57  1  0.92115000  0.83084000  0.82425000  1.0
  N  N58  1  0.48087000  0.29961000  0.25972000  1.0
  N  N59  1  0.51913000  0.70039000  0.74028000  1.0
  O  O60  1  0.18982000  0.99559000  0.55741000  1.0
  O  O61  1  0.81018000  0.00441000  0.44259000  1.0
  O  O62  1  0.04009000  0.27188000  0.38346000  1.0
  O  O63  1  0.95991000  0.72812000  0.61654000  1.0
  O  O64  1  0.12527000  0.23598000  0.58858000  1.0
  O  O65  1  0.87473000  0.76402000  0.41141000  1.0
  O  O66  1  0.49250000  0.16438000  0.31437000  1.0
  O  O67  1  0.50750000  0.83562000  0.68563000  1.0
  O  O68  1  0.55100000  0.36350000  0.31608000  1.0
  O  O69  1  0.44900000  0.63650000  0.68392000  1.0
  O  O70  1  0.40118000  0.36268000  0.15172000  1.0
  O  O71  1  0.59882000  0.63732000  0.84828000  1.0
