# generated using pymatgen
data_ZnH13C21(NO)4
_symmetry_space_group_name_H-M   'P 1'
_cell_length_a   10.52380000
_cell_length_b   12.83420000
_cell_length_c   23.63840000
_cell_angle_alpha   78.41420000
_cell_angle_beta   77.15580000
_cell_angle_gamma   65.79780000
_symmetry_Int_Tables_number   1
_chemical_formula_structural   ZnH13C21(NO)4
_chemical_formula_sum   'Zn4 H52 C84 N16 O16'
_cell_volume   2817.53323561
_cell_formula_units_Z   4
loop_
 _symmetry_equiv_pos_site_id
 _symmetry_equiv_pos_as_xyz
  1  'x, y, z'
loop_
 _atom_site_type_symbol
 _atom_site_label
 _atom_site_symmetry_multiplicity
 _atom_site_fract_x
 _atom_site_fract_y
 _atom_site_fract_z
 _atom_site_occupancy
  Zn  Zn0  1  0.81589000  0.02632000  0.49144000  1.0
  Zn  Zn1  1  0.33362000  0.47358000  0.00856000  1.0
  Zn  Zn2  1  0.18411000  0.97368000  0.50856000  1.0
  Zn  Zn3  1  0.66638000  0.52642000  0.99144000  1.0
  H  H4  1  0.63339000  0.31005000  0.44817000  1.0
  H  H5  1  0.39151000  0.18980000  0.05180000  1.0
  H  H6  1  0.36661000  0.68995000  0.55182000  1.0
  H  H7  1  0.60849000  0.81020000  0.94820000  1.0
  H  H8  1  0.87250000  0.84678000  0.60520000  1.0
  H  H9  1  0.32434000  0.65315000  0.89464000  1.0
  H  H10  1  0.12750000  0.15322000  0.39480000  1.0
  H  H11  1  0.67566000  0.34685000  0.10536000  1.0
  H  H12  1  0.46216000  0.89706000  0.74703000  1.0
  H  H13  1  0.10572000  0.60278000  0.75287000  1.0
  H  H14  1  0.53784000  0.10294000  0.25297000  1.0
  H  H15  1  0.89428000  0.39722000  0.24714000  1.0
  H  H16  1  0.25147000  0.24870000  0.52798000  1.0
  H  H17  1  0.02815000  0.25135000  0.97181000  1.0
  H  H18  1  0.74853000  0.75131000  0.47202000  1.0
  H  H19  1  0.97185000  0.74865000  0.02819000  1.0
  H  H20  1  0.89362000  0.54825000  0.77710000  1.0
  H  H21  1  0.21868000  0.95147000  0.72287000  1.0
  H  H22  1  0.10638000  0.45175000  0.22291000  1.0
  H  H23  1  0.78131000  0.04853000  0.27713000  1.0
  H  H24  1  0.99347000  0.65777000  0.51850000  1.0
  H  H25  1  0.16950000  0.84212000  0.98151000  1.0
  H  H26  1  0.00654000  0.34223000  0.48150000  1.0
  H  H27  1  0.83050000  0.15788000  0.01849000  1.0
  H  H28  1  0.49385000  0.50388000  0.42349000  1.0
  H  H29  1  0.42136000  0.99616000  0.07631000  1.0
  H  H30  1  0.50615000  0.49612000  0.57651000  1.0
  H  H31  1  0.57863000  0.00385000  0.92369000  1.0
  H  H32  1  0.87393000  0.66355000  0.67869000  1.0
  H  H33  1  0.21570000  0.83625000  0.82127000  1.0
  H  H34  1  0.12607000  0.33645000  0.32131000  1.0
  H  H35  1  0.78430000  0.16375000  0.17873000  1.0
  H  H36  1  0.35568000  0.71483000  0.41636000  1.0
  H  H37  1  0.48692000  0.78519000  0.08352000  1.0
  H  H38  1  0.64432000  0.28517000  0.58364000  1.0
  H  H39  1  0.51308000  0.21481000  0.91648000  1.0
  H  H40  1  0.48305000  0.77989000  0.84480000  1.0
  H  H41  1  0.10747000  0.71987000  0.65509000  1.0
  H  H42  1  0.51694000  0.22011000  0.15520000  1.0
  H  H43  1  0.89253000  0.28013000  0.34491000  1.0
  H  H44  1  0.12968000  0.44706000  0.52774000  1.0
  H  H45  1  0.10437000  0.05284000  0.97214000  1.0
  H  H46  1  0.87032000  0.55293000  0.47225000  1.0
  H  H47  1  0.89563000  0.94716000  0.02786000  1.0
  H  H48  1  0.36755000  0.03681000  0.54784000  1.0
  H  H49  1  0.95208000  0.46322000  0.95216000  1.0
  H  H50  1  0.63245000  0.96319000  0.45216000  1.0
  H  H51  1  0.04792000  0.53678000  0.04784000  1.0
  H  H52  1  0.41892000  0.92919000  0.64022000  1.0
  H  H53  1  0.98790000  0.57068000  0.85988000  1.0
  H  H54  1  0.58108000  0.07081000  0.35978000  1.0
  H  H55  1  0.01210000  0.42932000  0.14012000  1.0
  C  C56  1  0.70591000  0.58988000  0.87640000  1.0
  C  C57  1  0.17204000  0.90991000  0.62356000  1.0
  C  C58  1  0.29409000  0.41012000  0.12360000  1.0
  C  C59  1  0.82796000  0.09009000  0.37644000  1.0
  C  C60  1  0.08583000  0.82633000  0.46699000  1.0
  C  C61  1  0.37910000  0.67362000  0.03298000  1.0
  C  C62  1  0.91417000  0.17367000  0.53301000  1.0
  C  C63  1  0.62090000  0.32638000  0.96702000  1.0
  C  C64  1  0.69016000  0.65714000  0.81705000  1.0
  C  C65  1  0.16393000  0.84265000  0.68289000  1.0
  C  C66  1  0.30984000  0.34286000  0.18296000  1.0
  C  C67  1  0.83607000  0.15735000  0.31711000  1.0
  C  C68  1  0.55287000  0.27641000  0.46896000  1.0
  C  C69  1  0.29816000  0.22349000  0.03097000  1.0
  C  C70  1  0.44713000  0.72359000  0.53104000  1.0
  C  C71  1  0.70184000  0.77651000  0.96903000  1.0
  C  C72  1  0.65275000  0.85692000  0.64859000  1.0
  C  C73  1  0.15785000  0.64298000  0.85137000  1.0
  C  C74  1  0.34725000  0.14309000  0.35141000  1.0
  C  C75  1  0.84215000  0.35703000  0.14863000  1.0
  C  C76  1  0.76016000  0.87534000  0.60475000  1.0
  C  C77  1  0.24010000  0.62457000  0.89515000  1.0
  C  C78  1  0.23984000  0.12466000  0.39525000  1.0
  C  C79  1  0.75990000  0.37543000  0.10485000  1.0
  C  C80  1  0.66656000  0.78861000  0.70608000  1.0
  C  C81  1  0.16061000  0.71126000  0.79388000  1.0
  C  C82  1  0.33344000  0.21139000  0.29392000  1.0
  C  C83  1  0.83939000  0.28874000  0.20612000  1.0
  C  C84  1  0.55652000  0.82000000  0.75340000  1.0
  C  C85  1  0.12929000  0.67987000  0.74653000  1.0
  C  C86  1  0.44348000  0.18000000  0.24660000  1.0
  C  C87  1  0.87072000  0.32013000  0.25347000  1.0
  C  C88  1  0.35616000  0.24824000  0.51047000  1.0
  C  C89  1  0.11485000  0.25176000  0.98937000  1.0
  C  C90  1  0.64384000  0.75176000  0.48952000  1.0
  C  C91  1  0.88515000  0.74824000  0.01063000  1.0
  C  C92  1  0.79989000  0.62542000  0.76995000  1.0
  C  C93  1  0.19484000  0.87438000  0.73002000  1.0
  C  C94  1  0.20011000  0.37458000  0.23006000  1.0
  C  C95  1  0.80516000  0.12562000  0.26998000  1.0
  C  C96  1  0.40482000  0.33538000  0.48405000  1.0
  C  C97  1  0.22429000  0.16456000  0.01576000  1.0
  C  C98  1  0.59518000  0.66461000  0.51594000  1.0
  C  C99  1  0.77571000  0.83544000  0.98424000  1.0
  C  C100  1  0.10281000  0.62272000  0.49726000  1.0
  C  C101  1  0.22268000  0.87721000  0.00268000  1.0
  C  C102  1  0.89719000  0.37728000  0.50274000  1.0
  C  C103  1  0.77732000  0.12279000  0.99732000  1.0
  C  C104  1  0.38394000  0.53664000  0.44436000  1.0
  C  C105  1  0.36505000  0.96336000  0.05547000  1.0
  C  C106  1  0.61606000  0.46336000  0.55564000  1.0
  C  C107  1  0.63495000  0.03664000  0.94453000  1.0
  C  C108  1  0.78853000  0.69008000  0.71517000  1.0
  C  C109  1  0.19328000  0.80973000  0.78478000  1.0
  C  C110  1  0.21147000  0.30992000  0.28483000  1.0
  C  C111  1  0.80672000  0.19027000  0.21522000  1.0
  C  C112  1  0.30698000  0.65495000  0.43991000  1.0
  C  C113  1  0.40190000  0.84505000  0.05996000  1.0
  C  C114  1  0.69302000  0.34505000  0.56009000  1.0
  C  C115  1  0.59810000  0.15495000  0.94004000  1.0
  C  C116  1  0.16579000  0.69942000  0.46665000  1.0
  C  C117  1  0.33180000  0.80055000  0.03328000  1.0
  C  C118  1  0.83420000  0.30058000  0.53335000  1.0
  C  C119  1  0.66820000  0.19945000  0.96672000  1.0
  C  C120  1  0.32243000  0.45931000  0.47629000  1.0
  C  C121  1  0.25809000  0.04064000  0.02352000  1.0
  C  C122  1  0.67758000  0.54069000  0.52370000  1.0
  C  C123  1  0.74192000  0.95936000  0.97648000  1.0
  C  C124  1  0.56794000  0.75505000  0.80803000  1.0
  C  C125  1  0.13053000  0.74479000  0.69190000  1.0
  C  C126  1  0.43206000  0.24496000  0.19197000  1.0
  C  C127  1  0.86947000  0.25520000  0.30810000  1.0
  C  C128  1  0.17994000  0.50472000  0.50231000  1.0
  C  C129  1  0.18693000  0.99521000  0.99756000  1.0
  C  C130  1  0.82006000  0.49528000  0.49768000  1.0
  C  C131  1  0.81307000  0.00479000  0.00244000  1.0
  C  C132  1  0.47432000  0.03220000  0.52757000  1.0
  C  C133  1  0.03400000  0.46780000  0.97243000  1.0
  C  C134  1  0.52568000  0.96780000  0.47243000  1.0
  C  C135  1  0.96600000  0.53220000  0.02757000  1.0
  C  C136  1  0.52855000  0.91863000  0.62504000  1.0
  C  C137  1  0.07186000  0.58130000  0.87499000  1.0
  C  C138  1  0.47145000  0.08138000  0.37496000  1.0
  C  C139  1  0.92814000  0.41870000  0.12501000  1.0
  N  N140  1  0.47083000  0.14767000  0.51055000  1.0
  N  N141  1  0.12892000  0.35230000  0.98944000  1.0
  N  N142  1  0.52917000  0.85233000  0.48945000  1.0
  N  N143  1  0.87108000  0.64769000  0.01056000  1.0
  N  N144  1  0.59158000  0.16326000  0.48484000  1.0
  N  N145  1  0.23954000  0.33666000  0.01519000  1.0
  N  N146  1  0.40843000  0.83673000  0.51516000  1.0
  N  N147  1  0.76046000  0.66334000  0.98481000  1.0
  N  N148  1  0.70598000  0.94270000  0.55798000  1.0
  N  N149  1  0.20666000  0.55722000  0.94195000  1.0
  N  N150  1  0.29402000  0.05730000  0.44202000  1.0
  N  N151  1  0.79334000  0.44278000  0.05805000  1.0
  N  N152  1  0.56483000  0.96910000  0.57108000  1.0
  N  N153  1  0.10490000  0.53084000  0.92892000  1.0
  N  N154  1  0.43517000  0.03090000  0.42892000  1.0
  N  N155  1  0.89510000  0.46916000  0.07108000  1.0
  O  O156  1  0.59639000  0.61792000  0.91650000  1.0
  O  O157  1  0.13074000  0.88193000  0.58339000  1.0
  O  O158  1  0.40361000  0.38208000  0.08350000  1.0
  O  O159  1  0.86926000  0.11807000  0.41661000  1.0
  O  O160  1  0.15518000  0.89164000  0.45124000  1.0
  O  O161  1  0.49808000  0.60840000  0.04870000  1.0
  O  O162  1  0.84482000  0.10836000  0.54877000  1.0
  O  O163  1  0.50192000  0.39160000  0.95130000  1.0
  O  O164  1  0.82397000  0.51262000  0.88569000  1.0
  O  O165  1  0.22215000  0.98711000  0.61436000  1.0
  O  O166  1  0.17603000  0.48738000  0.11431000  1.0
  O  O167  1  0.77785000  0.01288000  0.38564000  1.0
  O  O168  1  0.95358000  0.86005000  0.48474000  1.0
  O  O169  1  0.29829000  0.63983000  0.01528000  1.0
  O  O170  1  0.04642000  0.13995000  0.51526000  1.0
  O  O171  1  0.70171000  0.36017000  0.98472000  1.0
