# generated using pymatgen
data_CuH14C16(NO2)2
_symmetry_space_group_name_H-M   'P 1'
_cell_length_a   8.60800000
_cell_length_b   9.72780000
_cell_length_c   10.19790000
_cell_angle_alpha   92.21690000
_cell_angle_beta   113.32500000
_cell_angle_gamma   111.68900000
_symmetry_Int_Tables_number   1
_chemical_formula_structural   CuH14C16(NO2)2
_chemical_formula_sum   'Cu2 H28 C32 N4 O8'
_cell_volume   711.30157733
_cell_formula_units_Z   2
loop_
 _symmetry_equiv_pos_site_id
 _symmetry_equiv_pos_as_xyz
  1  'x, y, z'
loop_
 _atom_site_type_symbol
 _atom_site_label
 _atom_site_symmetry_multiplicity
 _atom_site_fract_x
 _atom_site_fract_y
 _atom_site_fract_z
 _atom_site_occupancy
  Cu  Cu0  1  0.55299000  0.62095000  0.90148000  1.0
  Cu  Cu1  1  0.44702000  0.37906000  0.09852000  1.0
  H  H2  1  0.49331000  0.90235000  0.92905000  1.0
  H  H3  1  0.50669000  0.09766000  0.07094000  1.0
  H  H4  1  0.28590000  0.01060000  0.75809000  1.0
  H  H5  1  0.71410000  0.98940000  0.24191000  1.0
  H  H6  1  0.10253000  0.87894000  0.49124000  1.0
  H  H7  1  0.89747000  0.12106000  0.50876000  1.0
  H  H8  1  0.11779000  0.64096000  0.41063000  1.0
  H  H9  1  0.88220000  0.35904000  0.58937000  1.0
  H  H10  1  0.14030000  0.43623000  0.36409000  1.0
  H  H11  1  0.85969000  0.56376000  0.63591000  1.0
  H  H12  1  0.17786000  0.19426000  0.33765000  1.0
  H  H13  1  0.82213000  0.80574000  0.66235000  1.0
  H  H14  1  0.39184000  0.13819000  0.55667000  1.0
  H  H15  1  0.60815000  0.86181000  0.44334000  1.0
  H  H16  1  0.54736000  0.32046000  0.80017000  1.0
  H  H17  1  0.45263000  0.67953000  0.19983000  1.0
  H  H18  1  0.23637000  0.90372000  0.26616000  1.0
  H  H19  1  0.76364000  0.09628000  0.73384000  1.0
  H  H20  1  0.22419000  0.71900000  0.22366000  1.0
  H  H21  1  0.77582000  0.28100000  0.77634000  1.0
  H  H22  1  0.23018000  0.94877000  0.02601000  1.0
  H  H23  1  0.76982000  0.05123000  0.97400000  1.0
  H  H24  1  0.23664000  0.76999000  0.99105000  1.0
  H  H25  1  0.76337000  0.23002000  0.00895000  1.0
  H  H26  1  0.89777000  0.64529000  0.87693000  1.0
  H  H27  1  0.10224000  0.35471000  0.12307000  1.0
  H  H28  1  0.88984000  0.82562000  0.90010000  1.0
  H  H29  1  0.11016000  0.17437000  0.09990000  1.0
  C  C30  1  0.40766000  0.85043000  0.81317000  1.0
  C  C31  1  0.59234000  0.14957000  0.18682000  1.0
  C  C32  1  0.29563000  0.91034000  0.71730000  1.0
  C  C33  1  0.70437000  0.08966000  0.28269000  1.0
  C  C34  1  0.19120000  0.83536000  0.57046000  1.0
  C  C35  1  0.80880000  0.16464000  0.42953000  1.0
  C  C36  1  0.20013000  0.70265000  0.52453000  1.0
  C  C37  1  0.79985000  0.29735000  0.47547000  1.0
  C  C38  1  0.31301000  0.64777000  0.62739000  1.0
  C  C39  1  0.68698000  0.35222000  0.37261000  1.0
  C  C40  1  0.32703000  0.50512000  0.59553000  1.0
  C  C41  1  0.67297000  0.49488000  0.40447000  1.0
  C  C42  1  0.23258000  0.40852000  0.45743000  1.0
  C  C43  1  0.76741000  0.59148000  0.54257000  1.0
  C  C44  1  0.25482000  0.27476000  0.44251000  1.0
  C  C45  1  0.74516000  0.72524000  0.55749000  1.0
  C  C46  1  0.37163000  0.24165000  0.56464000  1.0
  C  C47  1  0.62837000  0.75835000  0.43536000  1.0
  C  C48  1  0.45962000  0.34172000  0.69948000  1.0
  C  C49  1  0.54037000  0.65828000  0.30053000  1.0
  C  C50  1  0.85531000  0.56968000  0.11015000  1.0
  C  C51  1  0.14469000  0.43032000  0.88985000  1.0
  C  C52  1  0.87055000  0.82788000  0.15347000  1.0
  C  C53  1  0.12946000  0.17212000  0.84653000  1.0
  C  C54  1  0.95667000  0.73447000  0.10604000  1.0
  C  C55  1  0.04333000  0.26553000  0.89396000  1.0
  C  C56  1  0.17156000  0.80217000  0.17956000  1.0
  C  C57  1  0.82845000  0.19783000  0.82045000  1.0
  C  C58  1  0.17236000  0.82927000  0.03100000  1.0
  C  C59  1  0.82765000  0.17073000  0.96901000  1.0
  C  C60  1  0.95679000  0.75333000  0.95365000  1.0
  C  C61  1  0.04322000  0.24667000  0.04635000  1.0
  N  N62  1  0.41645000  0.72338000  0.76909000  1.0
  N  N63  1  0.58355000  0.27662000  0.23090000  1.0
  N  N64  1  0.43734000  0.46981000  0.71388000  1.0
  N  N65  1  0.56265000  0.53019000  0.28612000  1.0
  O  O66  1  0.67809000  0.50330000  0.01791000  1.0
  O  O67  1  0.32191000  0.49671000  0.98209000  1.0
  O  O68  1  0.93620000  0.50336000  0.19469000  1.0
  O  O69  1  0.06380000  0.49664000  0.80531000  1.0
  O  O70  1  0.69645000  0.79548000  0.06796000  1.0
  O  O71  1  0.30356000  0.20453000  0.93204000  1.0
  O  O72  1  0.96470000  0.92916000  0.26722000  1.0
  O  O73  1  0.03531000  0.07084000  0.73278000  1.0
