# generated using pymatgen
data_ZnH13C28I5NO4
_symmetry_space_group_name_H-M   'P 1'
_cell_length_a   10.97660000
_cell_length_b   18.40970000
_cell_length_c   19.56990000
_cell_angle_alpha   92.20710000
_cell_angle_beta   91.39220000
_cell_angle_gamma   92.04250000
_symmetry_Int_Tables_number   1
_chemical_formula_structural   ZnH13C28I5NO4
_chemical_formula_sum   'Zn2 H26 C56 I10 N2 O8'
_cell_volume   3947.85623946
_cell_formula_units_Z   2
loop_
 _symmetry_equiv_pos_site_id
 _symmetry_equiv_pos_as_xyz
  1  'x, y, z'
loop_
 _atom_site_type_symbol
 _atom_site_label
 _atom_site_symmetry_multiplicity
 _atom_site_fract_x
 _atom_site_fract_y
 _atom_site_fract_z
 _atom_site_occupancy
  Zn  Zn0  1  0.49063000  0.42111000  0.49604000  1.0
  Zn  Zn1  1  0.50935000  0.57889000  0.50396000  1.0
  H  H2  1  0.44618000  0.38304000  0.71200000  1.0
  H  H3  1  0.55386000  0.61696000  0.28800000  1.0
  H  H4  1  0.33758000  0.42670000  0.93583000  1.0
  H  H5  1  0.66244000  0.57331000  0.06418000  1.0
  H  H6  1  0.61249000  0.31572000  0.56670000  1.0
  H  H7  1  0.38751000  0.68428000  0.43329000  1.0
  H  H8  1  0.46843000  0.92639000  0.39148000  1.0
  H  H9  1  0.53154000  0.07361000  0.60853000  1.0
  H  H10  1  0.17380000  0.46610000  0.34070000  1.0
  H  H11  1  0.82620000  0.53389000  0.65930000  1.0
  H  H12  1  0.24838000  0.52042000  0.23458000  1.0
  H  H13  1  0.75163000  0.47957000  0.76542000  1.0
  H  H14  1  0.34644000  0.42774000  0.06213000  1.0
  H  H15  1  0.65359000  0.57226000  0.93787000  1.0
  H  H16  1  0.63304000  0.18214000  0.57416000  1.0
  H  H17  1  0.36695000  0.81786000  0.42584000  1.0
  H  H18  1  0.33552000  0.15473000  0.42484000  1.0
  H  H19  1  0.66444000  0.84527000  0.57516000  1.0
  H  H20  1  0.45807000  0.05999000  0.39088000  1.0
  H  H21  1  0.54191000  0.94001000  0.60913000  1.0
  H  H22  1  0.53738000  0.61176000  0.71914000  1.0
  H  H23  1  0.46262000  0.38825000  0.28086000  1.0
  H  H24  1  0.53759000  0.61377000  0.84655000  1.0
  H  H25  1  0.46242000  0.38623000  0.15346000  1.0
  H  H26  1  0.44153000  0.38452000  0.83909000  1.0
  H  H27  1  0.55853000  0.61548000  0.16091000  1.0
  C  C28  1  0.50151000  0.50373000  0.36818000  1.0
  C  C29  1  0.49849000  0.49626000  0.63182000  1.0
  C  C30  1  0.87259000  0.48870000  0.49771000  1.0
  C  C31  1  0.12739000  0.51129000  0.50228000  1.0
  C  C32  1  0.94031000  0.46772000  0.55522000  1.0
  C  C33  1  0.05968000  0.53227000  0.44478000  1.0
  C  C34  1  0.51783000  0.56222000  0.74621000  1.0
  C  C35  1  0.48219000  0.43778000  0.25378000  1.0
  C  C36  1  0.51819000  0.56289000  0.81726000  1.0
  C  C37  1  0.48183000  0.43712000  0.18274000  1.0
  C  C38  1  0.49069000  0.49907000  0.85205000  1.0
  C  C39  1  0.50935000  0.50094000  0.14796000  1.0
  C  C40  1  0.46164000  0.43470000  0.81308000  1.0
  C  C41  1  0.53841000  0.56530000  0.18692000  1.0
  C  C42  1  0.46423000  0.43352000  0.74204000  1.0
  C  C43  1  0.53580000  0.56648000  0.25797000  1.0
  C  C44  1  0.49283000  0.49724000  0.70802000  1.0
  C  C45  1  0.50718000  0.50277000  0.29199000  1.0
  C  C46  1  0.41027000  0.45802000  0.96380000  1.0
  C  C47  1  0.58977000  0.54198000  0.03620000  1.0
  C  C48  1  0.41529000  0.45859000  0.03490000  1.0
  C  C49  1  0.58474000  0.54141000  0.96510000  1.0
  C  C50  1  0.26487000  0.51704000  0.50125000  1.0
  C  C51  1  0.73511000  0.48296000  0.49875000  1.0
  C  C52  1  0.50518000  0.50049000  0.07256000  1.0
  C  C53  1  0.49486000  0.49951000  0.92743000  1.0
  C  C54  1  0.55290000  0.27752000  0.53658000  1.0
  C  C55  1  0.44709000  0.72248000  0.46342000  1.0
  C  C56  1  0.56304000  0.20302000  0.54049000  1.0
  C  C57  1  0.43695000  0.79698000  0.45951000  1.0
  C  C58  1  0.48592000  0.15625000  0.49914000  1.0
  C  C59  1  0.51407000  0.84376000  0.50086000  1.0
  C  C60  1  0.40003000  0.18810000  0.45659000  1.0
  C  C61  1  0.59995000  0.81190000  0.54342000  1.0
  C  C62  1  0.39544000  0.26363000  0.45616000  1.0
  C  C63  1  0.60453000  0.73637000  0.54384000  1.0
  C  C64  1  0.47460000  0.03371000  0.43905000  1.0
  C  C65  1  0.52536000  0.96629000  0.56096000  1.0
  C  C66  1  0.48060000  0.95843000  0.43934000  1.0
  C  C67  1  0.51939000  0.04158000  0.56066000  1.0
  C  C68  1  0.50635000  0.92352000  0.50034000  1.0
  C  C69  1  0.49364000  0.07649000  0.49966000  1.0
  C  C70  1  0.16197000  0.67519000  0.31973000  1.0
  C  C71  1  0.83804000  0.32480000  0.68026000  1.0
  C  C72  1  0.12016000  0.64370000  0.37985000  1.0
  C  C73  1  0.87985000  0.35629000  0.62015000  1.0
  C  C74  1  0.12004000  0.56763000  0.38649000  1.0
  C  C75  1  0.87994000  0.43236000  0.61350000  1.0
  C  C76  1  0.17031000  0.52466000  0.33463000  1.0
  C  C77  1  0.82969000  0.47533000  0.66537000  1.0
  C  C78  1  0.21180000  0.55488000  0.27505000  1.0
  C  C79  1  0.78818000  0.44510000  0.72493000  1.0
  C  C80  1  0.20420000  0.62964000  0.26649000  1.0
  C  C81  1  0.79581000  0.37035000  0.73350000  1.0
  C  C82  1  0.93266000  0.51924000  0.44273000  1.0
  C  C83  1  0.06732000  0.48076000  0.55726000  1.0
  I  I84  1  0.25301000  0.66783000  0.17064000  1.0
  I  I85  1  0.74702000  0.33216000  0.82936000  1.0
  I  I86  1  0.26147000  0.30702000  0.39230000  1.0
  I  I87  1  0.73851000  0.69299000  0.60770000  1.0
  I  I88  1  0.15935000  0.78839000  0.30832000  1.0
  I  I89  1  0.84065000  0.21161000  0.69168000  1.0
  I  I90  1  0.05236000  0.70694000  0.46150000  1.0
  I  I91  1  0.94762000  0.29306000  0.53847000  1.0
  I  I92  1  0.83141000  0.54160000  0.35313000  1.0
  I  I93  1  0.16861000  0.45840000  0.64686000  1.0
  N  N94  1  0.47071000  0.30803000  0.49471000  1.0
  N  N95  1  0.52928000  0.69197000  0.50529000  1.0
  O  O96  1  0.49901000  0.44204000  0.39559000  1.0
  O  O97  1  0.50098000  0.55796000  0.60442000  1.0
  O  O98  1  0.49899000  0.56558000  0.39957000  1.0
  O  O99  1  0.50099000  0.43443000  0.60043000  1.0
  O  O100  1  0.31472000  0.45588000  0.49825000  1.0
  O  O101  1  0.68525000  0.54413000  0.50175000  1.0
  O  O102  1  0.31700000  0.57944000  0.50198000  1.0
  O  O103  1  0.68296000  0.42057000  0.49802000  1.0
