# generated using pymatgen
data_MnH10C6S2(N4O3)2
_symmetry_space_group_name_H-M   'P 1'
_cell_length_a   7.03885000
_cell_length_b   7.60369000
_cell_length_c   27.10400000
_cell_angle_alpha   91.20940000
_cell_angle_beta   90.00000000
_cell_angle_gamma   90.00000000
_symmetry_Int_Tables_number   1
_chemical_formula_structural   MnH10C6S2(N4O3)2
_chemical_formula_sum   'Mn4 H40 C24 S8 N32 O24'
_cell_volume   1450.31635600
_cell_formula_units_Z   4
loop_
 _symmetry_equiv_pos_site_id
 _symmetry_equiv_pos_as_xyz
  1  'x, y, z'
loop_
 _atom_site_type_symbol
 _atom_site_label
 _atom_site_symmetry_multiplicity
 _atom_site_fract_x
 _atom_site_fract_y
 _atom_site_fract_z
 _atom_site_occupancy
  Mn  Mn0  1  0.76301000  0.74985000  0.75013000  1.0
  Mn  Mn1  1  0.26300000  0.25014000  0.74988000  1.0
  Mn  Mn2  1  0.23700000  0.25015000  0.24988000  1.0
  Mn  Mn3  1  0.73700000  0.74985000  0.25013000  1.0
  H  H4  1  0.94480000  0.88590000  0.66188000  1.0
  H  H5  1  0.44480000  0.11410000  0.83812000  1.0
  H  H6  1  0.05520000  0.11409000  0.33812000  1.0
  H  H7  1  0.55519000  0.88591000  0.16188000  1.0
  H  H8  1  0.58062000  0.61198000  0.83865000  1.0
  H  H9  1  0.08061000  0.38803000  0.66135000  1.0
  H  H10  1  0.41938000  0.38802000  0.16135000  1.0
  H  H11  1  0.91938000  0.61197000  0.33865000  1.0
  H  H12  1  0.71850000  0.50048000  0.50575000  1.0
  H  H13  1  0.21851000  0.49953000  0.99425000  1.0
  H  H14  1  0.28148000  0.49954000  0.49426000  1.0
  H  H15  1  0.78149000  0.50048000  0.00575000  1.0
  H  H16  1  0.79009000  0.00206000  0.99337000  1.0
  H  H17  1  0.29009000  0.99795000  0.50664000  1.0
  H  H18  1  0.20991000  0.99796000  0.00663000  1.0
  H  H19  1  0.70991000  0.00206000  0.49337000  1.0
  H  H20  1  0.70191000  0.14854000  0.66441000  1.0
  H  H21  1  0.20191000  0.85148000  0.83559000  1.0
  H  H22  1  0.29809000  0.85147000  0.33559000  1.0
  H  H23  1  0.79809000  0.14852000  0.16441000  1.0
  H  H24  1  0.47744000  0.24023000  0.64883000  1.0
  H  H25  1  0.97746000  0.75977000  0.85117000  1.0
  H  H26  1  0.52255000  0.75977000  0.35117000  1.0
  H  H27  1  0.02254000  0.24022000  0.14883000  1.0
  H  H28  1  0.04769000  0.25861000  0.85135000  1.0
  H  H29  1  0.54770000  0.74138000  0.64865000  1.0
  H  H30  1  0.95231000  0.74139000  0.14865000  1.0
  H  H31  1  0.45231000  0.25862000  0.35135000  1.0
  H  H32  1  0.82604000  0.35385000  0.83457000  1.0
  H  H33  1  0.32605000  0.64613000  0.66542000  1.0
  H  H34  1  0.17396000  0.64613000  0.16542000  1.0
  H  H35  1  0.67396000  0.35386000  0.33458000  1.0
  H  H36  1  0.59068000  0.48865000  0.78988000  1.0
  H  H37  1  0.09067000  0.51136000  0.71013000  1.0
  H  H38  1  0.40933000  0.51135000  0.21012000  1.0
  H  H39  1  0.90934000  0.48864000  0.28988000  1.0
  H  H40  1  0.93298000  0.01140000  0.71023000  1.0
  H  H41  1  0.43298000  0.98859000  0.78977000  1.0
  H  H42  1  0.06702000  0.98860000  0.28976000  1.0
  H  H43  1  0.56702000  0.01140000  0.21023000  1.0
  C  C44  1  0.63841000  0.39586000  0.70134000  1.0
  C  C45  1  0.13843000  0.60415000  0.79866000  1.0
  C  C46  1  0.36158000  0.60414000  0.29866000  1.0
  C  C47  1  0.86158000  0.39584000  0.20134000  1.0
  C  C48  1  0.62706000  0.27199000  0.65647000  1.0
  C  C49  1  0.12707000  0.72803000  0.84353000  1.0
  C  C50  1  0.37293000  0.72802000  0.34353000  1.0
  C  C51  1  0.87293000  0.27197000  0.15647000  1.0
  C  C52  1  0.59931000  0.39814000  0.57200000  1.0
  C  C53  1  0.09932000  0.60188000  0.92801000  1.0
  C  C54  1  0.40068000  0.60187000  0.42801000  1.0
  C  C55  1  0.90069000  0.39813000  0.07199000  1.0
  C  C56  1  0.88747000  0.10462000  0.79838000  1.0
  C  C57  1  0.38749000  0.89534000  0.70162000  1.0
  C  C58  1  0.11254000  0.89537000  0.20162000  1.0
  C  C59  1  0.61251000  0.10464000  0.29838000  1.0
  C  C60  1  0.89800000  0.22942000  0.84303000  1.0
  C  C61  1  0.39800000  0.77056000  0.65697000  1.0
  C  C62  1  0.10201000  0.77057000  0.15697000  1.0
  C  C63  1  0.60201000  0.22944000  0.34303000  1.0
  C  C64  1  0.91711000  0.10310000  0.92760000  1.0
  C  C65  1  0.41711000  0.89691000  0.57240000  1.0
  C  C66  1  0.08289000  0.89690000  0.07240000  1.0
  C  C67  1  0.58288000  0.10310000  0.42760000  1.0
  S  S68  1  0.36365000  0.39951000  0.56591000  1.0
  S  S69  1  0.86367000  0.60050000  0.93409000  1.0
  S  S70  1  0.63633000  0.60049000  0.43409000  1.0
  S  S71  1  0.13634000  0.39951000  0.06591000  1.0
  S  S72  1  0.15237000  0.09799000  0.93470000  1.0
  S  S73  1  0.65237000  0.90202000  0.56530000  1.0
  S  S74  1  0.84763000  0.90201000  0.06530000  1.0
  S  S75  1  0.34763000  0.09798000  0.43470000  1.0
  N  N76  1  0.70281000  0.34491000  0.61195000  1.0
  N  N77  1  0.20282000  0.65512000  0.88806000  1.0
  N  N78  1  0.29718000  0.65511000  0.38805000  1.0
  N  N79  1  0.79719000  0.34489000  0.11194000  1.0
  N  N80  1  0.89231000  0.36451000  0.60386000  1.0
  N  N81  1  0.39233000  0.63551000  0.89614000  1.0
  N  N82  1  0.10767000  0.63550000  0.39614000  1.0
  N  N83  1  0.60768000  0.36450000  0.10386000  1.0
  N  N84  1  0.91414000  0.42691000  0.56046000  1.0
  N  N85  1  0.41415000  0.57311000  0.93954000  1.0
  N  N86  1  0.08584000  0.57311000  0.43954000  1.0
  N  N87  1  0.58585000  0.42690000  0.06046000  1.0
  N  N88  1  0.73986000  0.44700000  0.54058000  1.0
  N  N89  1  0.23988000  0.55301000  0.95943000  1.0
  N  N90  1  0.26011000  0.55302000  0.45943000  1.0
  N  N91  1  0.76013000  0.44700000  0.04057000  1.0
  N  N92  1  0.81762000  0.15834000  0.88722000  1.0
  N  N93  1  0.31763000  0.84166000  0.61277000  1.0
  N  N94  1  0.18238000  0.84165000  0.11277000  1.0
  N  N95  1  0.68238000  0.15834000  0.38723000  1.0
  N  N96  1  0.62728000  0.14137000  0.89435000  1.0
  N  N97  1  0.12728000  0.85863000  0.60565000  1.0
  N  N98  1  0.37272000  0.85863000  0.10565000  1.0
  N  N99  1  0.87272000  0.14137000  0.39435000  1.0
  N  N100  1  0.60115000  0.07891000  0.93757000  1.0
  N  N101  1  0.10116000  0.92110000  0.56243000  1.0
  N  N102  1  0.39884000  0.92110000  0.06243000  1.0
  N  N103  1  0.89884000  0.07891000  0.43757000  1.0
  N  N104  1  0.77345000  0.05603000  0.95829000  1.0
  N  N105  1  0.27345000  0.94398000  0.54171000  1.0
  N  N106  1  0.22655000  0.94398000  0.04171000  1.0
  N  N107  1  0.72655000  0.05603000  0.45829000  1.0
  O  O108  1  0.73421000  0.53561000  0.69807000  1.0
  O  O109  1  0.23424000  0.46438000  0.80194000  1.0
  O  O110  1  0.26577000  0.46439000  0.30194000  1.0
  O  O111  1  0.76578000  0.53561000  0.19806000  1.0
  O  O112  1  0.55060000  0.34642000  0.73987000  1.0
  O  O113  1  0.05062000  0.65355000  0.76014000  1.0
  O  O114  1  0.44940000  0.65355000  0.26013000  1.0
  O  O115  1  0.94940000  0.34642000  0.23986000  1.0
  O  O116  1  0.79257000  0.96448000  0.80190000  1.0
  O  O117  1  0.29258000  0.03552000  0.69810000  1.0
  O  O118  1  0.20745000  0.03551000  0.19810000  1.0
  O  O119  1  0.70741000  0.96447000  0.30190000  1.0
  O  O120  1  0.97523000  0.15366000  0.75981000  1.0
  O  O121  1  0.47523000  0.84630000  0.74019000  1.0
  O  O122  1  0.02477000  0.84633000  0.24019000  1.0
  O  O123  1  0.52476000  0.15368000  0.25981000  1.0
  O  O124  1  0.86387000  0.91999000  0.69023000  1.0
  O  O125  1  0.36387000  0.08001000  0.80977000  1.0
  O  O126  1  0.13612000  0.08000000  0.30977000  1.0
  O  O127  1  0.63612000  0.91999000  0.19023000  1.0
  O  O128  1  0.66006000  0.57967000  0.80992000  1.0
  O  O129  1  0.16004000  0.42033000  0.69008000  1.0
  O  O130  1  0.33996000  0.42033000  0.19008000  1.0
  O  O131  1  0.83996000  0.57967000  0.30992000  1.0
