# generated using pymatgen
data_CoH8C8NO5
_symmetry_space_group_name_H-M   'P 1'
_cell_length_a   9.40594000
_cell_length_b   9.40821000
_cell_length_c   11.76170000
_cell_angle_alpha   89.77900000
_cell_angle_beta   89.86290000
_cell_angle_gamma   111.04300000
_symmetry_Int_Tables_number   1
_chemical_formula_structural   CoH8C8NO5
_chemical_formula_sum   'Co4 H32 C32 N4 O20'
_cell_volume   971.40201251
_cell_formula_units_Z   4
loop_
 _symmetry_equiv_pos_site_id
 _symmetry_equiv_pos_as_xyz
  1  'x, y, z'
loop_
 _atom_site_type_symbol
 _atom_site_label
 _atom_site_symmetry_multiplicity
 _atom_site_fract_x
 _atom_site_fract_y
 _atom_site_fract_z
 _atom_site_occupancy
  Co  Co0  1  0.11379000  0.88491000  0.49431000  1.0
  Co  Co1  1  0.88541000  0.11422000  0.99357000  1.0
  Co  Co2  1  0.85811000  0.86485000  0.31179000  1.0
  Co  Co3  1  0.86556000  0.85632000  0.81216000  1.0
  H  H4  1  0.93061000  0.43476000  0.77664000  1.0
  H  H5  1  0.43875000  0.93257000  0.27680000  1.0
  H  H6  1  0.87508000  0.32252000  0.36628000  1.0
  H  H7  1  0.32255000  0.87499000  0.86699000  1.0
  H  H8  1  0.17125000  0.07870000  0.69889000  1.0
  H  H9  1  0.08255000  0.17180000  0.19617000  1.0
  H  H10  1  0.60948000  0.16967000  0.78792000  1.0
  H  H11  1  0.16772000  0.60859000  0.28773000  1.0
  H  H12  1  0.61994000  0.31833000  0.69005000  1.0
  H  H13  1  0.31449000  0.62150000  0.18751000  1.0
  H  H14  1  0.56265000  0.12539000  0.64128000  1.0
  H  H15  1  0.12004000  0.56092000  0.14164000  1.0
  H  H16  1  0.43366000  0.37917000  0.82456000  1.0
  H  H17  1  0.37932000  0.43680000  0.32457000  1.0
  H  H18  1  0.40582000  0.21578000  0.91209000  1.0
  H  H19  1  0.21441000  0.40477000  0.41109000  1.0
  H  H20  1  0.24738000  0.23643000  0.84003000  1.0
  H  H21  1  0.23913000  0.24887000  0.33842000  1.0
  H  H22  1  0.42989000  0.85205000  0.44890000  1.0
  H  H23  1  0.85042000  0.43188000  0.94770000  1.0
  H  H24  1  0.36248000  0.57444000  0.71222000  1.0
  H  H25  1  0.57575000  0.36557000  0.21269000  1.0
  H  H26  1  0.36397000  0.44405000  0.60172000  1.0
  H  H27  1  0.44383000  0.36404000  0.10244000  1.0
  H  H28  1  0.21180000  0.51618000  0.60967000  1.0
  H  H29  1  0.51751000  0.21309000  0.11179000  1.0
  H  H30  1  0.61587000  0.62359000  0.51845000  1.0
  H  H31  1  0.62053000  0.61550000  0.01802000  1.0
  H  H32  1  0.62680000  0.74605000  0.63692000  1.0
  H  H33  1  0.74531000  0.62865000  0.13549000  1.0
  H  H34  1  0.63368000  0.81693000  0.49478000  1.0
  H  H35  1  0.81402000  0.63475000  0.99287000  1.0
  C  C36  1  0.85949000  0.59021000  0.40623000  1.0
  C  C37  1  0.59027000  0.85797000  0.90654000  1.0
  C  C38  1  0.90995000  0.66586000  0.66769000  1.0
  C  C39  1  0.66815000  0.91019000  0.16708000  1.0
  C  C40  1  0.91965000  0.15678000  0.73699000  1.0
  C  C41  1  0.15960000  0.92098000  0.23790000  1.0
  C  C42  1  0.93742000  0.10513000  0.47971000  1.0
  C  C43  1  0.10597000  0.93705000  0.98048000  1.0
  C  C44  1  0.88957000  0.48885000  0.49430000  1.0
  C  C45  1  0.48995000  0.88980000  0.99438000  1.0
  C  C46  1  0.90888000  0.52305000  0.61109000  1.0
  C  C47  1  0.52510000  0.90981000  0.11099000  1.0
  C  C48  1  0.92284000  0.41270000  0.68572000  1.0
  C  C49  1  0.41553000  0.92424000  0.18603000  1.0
  C  C50  1  0.92430000  0.27269000  0.64831000  1.0
  C  C51  1  0.27517000  0.92554000  0.14907000  1.0
  C  C52  1  0.91390000  0.24172000  0.53055000  1.0
  C  C53  1  0.24319000  0.91438000  0.03141000  1.0
  C  C54  1  0.89119000  0.34807000  0.45668000  1.0
  C  C55  1  0.34894000  0.89136000  0.95723000  1.0
  C  C56  1  0.28580000  0.08758000  0.67135000  1.0
  C  C57  1  0.08947000  0.28616000  0.16952000  1.0
  C  C58  1  0.55722000  0.19838000  0.71203000  1.0
  C  C59  1  0.19552000  0.55707000  0.21122000  1.0
  C  C60  1  0.36934000  0.25628000  0.83368000  1.0
  C  C61  1  0.25676000  0.37038000  0.33273000  1.0
  C  C62  1  0.35065000  0.75081000  0.49286000  1.0
  C  C63  1  0.75055000  0.35221000  0.99277000  1.0
  C  C64  1  0.33365000  0.54337000  0.62295000  1.0
  C  C65  1  0.54392000  0.33499000  0.12377000  1.0
  C  C66  1  0.58383000  0.71758000  0.55027000  1.0
  C  C67  1  0.71568000  0.58473000  0.04921000  1.0
  N  N68  1  0.39902000  0.17606000  0.73622000  1.0
  N  N69  1  0.17631000  0.39947000  0.23502000  1.0
  N  N70  1  0.41888000  0.67177000  0.55068000  1.0
  N  N71  1  0.67119000  0.42000000  0.05055000  1.0
  O  O72  1  0.90074000  0.73638000  0.43082000  1.0
  O  O73  1  0.73685000  0.90084000  0.93009000  1.0
  O  O74  1  0.79470000  0.53648000  0.31604000  1.0
  O  O75  1  0.53533000  0.79013000  0.81767000  1.0
  O  O76  1  0.01014000  0.79622000  0.64843000  1.0
  O  O77  1  0.79869000  0.00987000  0.14741000  1.0
  O  O78  1  0.80908000  0.64869000  0.74554000  1.0
  O  O79  1  0.65102000  0.80893000  0.24472000  1.0
  O  O80  1  0.96554000  0.20317000  0.83679000  1.0
  O  O81  1  0.20570000  0.96698000  0.33770000  1.0
  O  O82  1  0.86539000  0.01714000  0.70706000  1.0
  O  O83  1  0.02000000  0.86619000  0.20775000  1.0
  O  O84  1  0.05030000  0.07453000  0.51383000  1.0
  O  O85  1  0.07535000  0.05015000  0.01374000  1.0
  O  O86  1  0.84617000  0.03777000  0.39949000  1.0
  O  O87  1  0.03846000  0.84506000  0.90066000  1.0
  O  O88  1  0.30502000  0.01788000  0.58496000  1.0
  O  O89  1  0.01926000  0.30525000  0.08326000  1.0
  O  O90  1  0.20832000  0.71580000  0.48722000  1.0
  O  O91  1  0.71690000  0.21007000  0.98809000  1.0
