# generated using pymatgen
data_ZnH10C11S2(NCl)2
_symmetry_space_group_name_H-M   'P 1'
_cell_length_a   5.71505000
_cell_length_b   10.22340000
_cell_length_c   12.83577942
_cell_angle_alpha   106.47423774
_cell_angle_beta   101.39036915
_cell_angle_gamma   92.48840000
_symmetry_Int_Tables_number   1
_chemical_formula_structural   ZnH10C11S2(NCl)2
_chemical_formula_sum   'Zn2 H20 C22 S4 N4 Cl4'
_cell_volume   701.05278202
_cell_formula_units_Z   2
loop_
 _symmetry_equiv_pos_site_id
 _symmetry_equiv_pos_as_xyz
  1  'x, y, z'
loop_
 _atom_site_type_symbol
 _atom_site_label
 _atom_site_symmetry_multiplicity
 _atom_site_fract_x
 _atom_site_fract_y
 _atom_site_fract_z
 _atom_site_occupancy
  Zn  Zn0  1  0.90729000  0.68980000  0.24091000  1.0
  Zn  Zn1  1  0.09272000  0.31020000  0.75909000  1.0
  H  H2  1  0.43466000  0.90572000  0.04157000  1.0
  H  H3  1  0.56534000  0.09428000  0.95843000  1.0
  H  H4  1  0.66365000  0.64618000  0.00441000  1.0
  H  H5  1  0.33634000  0.35382000  0.99560000  1.0
  H  H6  1  0.71940000  0.72981000  0.84856000  1.0
  H  H7  1  0.28059000  0.27019000  0.15144000  1.0
  H  H8  1  0.67525000  0.52177000  0.41164000  1.0
  H  H9  1  0.32476000  0.47823000  0.58836000  1.0
  H  H10  1  0.47628000  0.89884000  0.61823000  1.0
  H  H11  1  0.52371000  0.10117000  0.38176000  1.0
  H  H12  1  0.31454000  0.52044000  0.26949000  1.0
  H  H13  1  0.68548000  0.47956000  0.73050000  1.0
  H  H14  1  0.12827000  0.88052000  0.46709000  1.0
  H  H15  1  0.87173000  0.11948000  0.53289000  1.0
  H  H16  1  0.34634000  0.81716000  0.19067000  1.0
  H  H17  1  0.65366000  0.18283000  0.80932000  1.0
  H  H18  1  0.90276000  0.95529000  0.68981000  1.0
  H  H19  1  0.09722000  0.04471000  0.31019000  1.0
  H  H20  1  0.73018000  0.88675000  0.76931000  1.0
  H  H21  1  0.26982000  0.11326000  0.23069000  1.0
  C  C22  1  0.25904000  0.85092000  0.03017000  1.0
  C  C23  1  0.74094000  0.14908000  0.96983000  1.0
  C  C24  1  0.83047000  0.70698000  0.01056000  1.0
  C  C25  1  0.16954000  0.29303000  0.98944000  1.0
  C  C26  1  0.60928000  0.71000000  0.52969000  1.0
  C  C27  1  0.39072000  0.29000000  0.47031000  1.0
  C  C28  1  0.86331000  0.75488000  0.92289000  1.0
  C  C29  1  0.13667000  0.24512000  0.07712000  1.0
  C  C30  1  0.55752000  0.60244000  0.42911000  1.0
  C  C31  1  0.44247000  0.39756000  0.57088000  1.0
  C  C32  1  0.45147000  0.81195000  0.54347000  1.0
  C  C33  1  0.54851000  0.18806000  0.45652000  1.0
  C  C34  1  0.08164000  0.83035000  0.93239000  1.0
  C  C35  1  0.91839000  0.16966000  0.06762000  1.0
  C  C36  1  0.35573000  0.60120000  0.34868000  1.0
  C  C37  1  0.64428000  0.39880000  0.65132000  1.0
  C  C38  1  0.25404000  0.80290000  0.45857000  1.0
  C  C39  1  0.74598000  0.19710000  0.54143000  1.0
  C  C40  1  0.21076000  0.80072000  0.11389000  1.0
  C  C41  1  0.78925000  0.19928000  0.88610000  1.0
  C  C42  1  0.88568000  0.87498000  0.73025000  1.0
  C  C43  1  0.11430000  0.12503000  0.26976000  1.0
  S  S44  1  0.86457000  0.70713000  0.62886000  1.0
  S  S45  1  0.13543000  0.29288000  0.37114000  1.0
  S  S46  1  0.15707000  0.90436000  0.83500000  1.0
  S  S47  1  0.84292000  0.09564000  0.16500000  1.0
  N  N48  1  0.20447000  0.69951000  0.36229000  1.0
  N  N49  1  0.79553000  0.30049000  0.63770000  1.0
  N  N50  1  0.99855000  0.73092000  0.10556000  1.0
  N  N51  1  0.00144000  0.26907000  0.89444000  1.0
  Cl  Cl52  1  0.73642000  0.87896000  0.32069000  1.0
  Cl  Cl53  1  0.26359000  0.12103000  0.67932000  1.0
  Cl  Cl54  1  0.71175000  0.47967000  0.17282000  1.0
  Cl  Cl55  1  0.28823000  0.52033000  0.82717000  1.0
