# generated using pymatgen
data_Zn3B2H32C40(N2O)8
_symmetry_space_group_name_H-M   'P 1'
_cell_length_a   12.40050000
_cell_length_b   12.40050000
_cell_length_c   18.12530000
_cell_angle_alpha   98.85150000
_cell_angle_beta   98.85140000
_cell_angle_gamma   115.38000000
_symmetry_Int_Tables_number   1
_chemical_formula_structural   Zn3B2H32C40(N2O)8
_chemical_formula_sum   'Zn6 B4 H64 C80 N32 O16'
_cell_volume   2411.56222340
_cell_formula_units_Z   2
loop_
 _symmetry_equiv_pos_site_id
 _symmetry_equiv_pos_as_xyz
  1  'x, y, z'
loop_
 _atom_site_type_symbol
 _atom_site_label
 _atom_site_symmetry_multiplicity
 _atom_site_fract_x
 _atom_site_fract_y
 _atom_site_fract_z
 _atom_site_occupancy
  Zn  Zn0  1  0.34511000  0.19434000  0.95747000  1.0
  Zn  Zn1  1  0.80565000  0.65489000  0.54253000  1.0
  Zn  Zn2  1  0.65489000  0.80565000  0.04253000  1.0
  Zn  Zn3  1  0.19435000  0.34511000  0.45747000  1.0
  Zn  Zn4  1  0.25703000  0.74297000  0.25000000  1.0
  Zn  Zn5  1  0.74298000  0.25702000  0.75000000  1.0
  B  B6  1  0.97192000  0.28287000  0.04706000  1.0
  B  B7  1  0.71713000  0.02808000  0.45294000  1.0
  B  B8  1  0.02808000  0.71713000  0.95294000  1.0
  B  B9  1  0.28287000  0.97192000  0.54706000  1.0
  H  H10  1  0.05285000  0.21091000  0.18420000  1.0
  H  H11  1  0.88502000  0.97522000  0.18837000  1.0
  H  H12  1  0.75548000  0.04469000  0.98236000  1.0
  H  H13  1  0.30968000  0.43201000  0.93186000  1.0
  H  H14  1  0.11250000  0.46052000  0.96867000  1.0
  H  H15  1  0.12547000  0.15839000  0.04396000  1.0
  H  H16  1  0.94076000  0.22807000  0.88291000  1.0
  H  H17  1  0.60732000  0.24364000  0.88628000  1.0
  H  H18  1  0.73720000  0.29634000  0.03503000  1.0
  H  H19  1  0.85623000  0.32456000  0.17037000  1.0
  H  H20  1  0.00565000  0.54025000  0.28301000  1.0
  H  H21  1  0.19202000  0.51694000  0.10997000  1.0
  H  H22  1  0.43924000  0.18930000  0.25463000  1.0
  H  H23  1  0.66212000  0.40779000  0.12271000  1.0
  H  H24  1  0.35406000  0.26895000  0.67372000  1.0
  H  H25  1  0.78910000  0.94715000  0.31580000  1.0
  H  H26  1  0.02478000  0.11498000  0.31163000  1.0
  H  H27  1  0.95531000  0.24452000  0.51764000  1.0
  H  H28  1  0.56799000  0.69032000  0.56814000  1.0
  H  H29  1  0.53948000  0.88750000  0.53133000  1.0
  H  H30  1  0.84161000  0.87453000  0.45603000  1.0
  H  H31  1  0.77193000  0.05924000  0.61709000  1.0
  H  H32  1  0.75636000  0.39268000  0.61372000  1.0
  H  H33  1  0.70366000  0.26280000  0.46497000  1.0
  H  H34  1  0.67544000  0.14377000  0.32963000  1.0
  H  H35  1  0.45976000  0.99435000  0.21699000  1.0
  H  H36  1  0.48306000  0.80798000  0.39003000  1.0
  H  H37  1  0.81071000  0.56077000  0.24537000  1.0
  H  H38  1  0.59221000  0.33789000  0.37729000  1.0
  H  H39  1  0.73105000  0.64593000  0.82628000  1.0
  H  H40  1  0.94715000  0.78910000  0.81580000  1.0
  H  H41  1  0.11498000  0.02478000  0.81163000  1.0
  H  H42  1  0.24452000  0.95531000  0.01764000  1.0
  H  H43  1  0.69031000  0.56798000  0.06814000  1.0
  H  H44  1  0.88750000  0.53948000  0.03132000  1.0
  H  H45  1  0.87453000  0.84161000  0.95603000  1.0
  H  H46  1  0.05924000  0.77193000  0.11709000  1.0
  H  H47  1  0.39268000  0.75636000  0.11371000  1.0
  H  H48  1  0.26280000  0.70366000  0.96497000  1.0
  H  H49  1  0.14377000  0.67544000  0.82963000  1.0
  H  H50  1  0.99435000  0.45975000  0.71699000  1.0
  H  H51  1  0.80798000  0.48306000  0.89003000  1.0
  H  H52  1  0.56076000  0.81070000  0.74537000  1.0
  H  H53  1  0.33789000  0.59221000  0.87729000  1.0
  H  H54  1  0.64593000  0.73106000  0.32628000  1.0
  H  H55  1  0.21090000  0.05285000  0.68420000  1.0
  H  H56  1  0.97522000  0.88502000  0.68837000  1.0
  H  H57  1  0.04469000  0.75548000  0.48236000  1.0
  H  H58  1  0.43202000  0.30969000  0.43187000  1.0
  H  H59  1  0.46052000  0.11250000  0.46867000  1.0
  H  H60  1  0.15839000  0.12547000  0.54397000  1.0
  H  H61  1  0.22807000  0.94076000  0.38291000  1.0
  H  H62  1  0.24364000  0.60732000  0.38628000  1.0
  H  H63  1  0.29634000  0.73720000  0.53503000  1.0
  H  H64  1  0.32456000  0.85623000  0.67037000  1.0
  H  H65  1  0.54024000  0.00565000  0.78301000  1.0
  H  H66  1  0.51694000  0.19202000  0.60997000  1.0
  H  H67  1  0.18930000  0.43924000  0.75463000  1.0
  H  H68  1  0.40779000  0.66211000  0.62271000  1.0
  H  H69  1  0.26895000  0.35407000  0.17372000  1.0
  H  H70  1  0.59369000  0.49856000  0.89298000  1.0
  H  H71  1  0.50144000  0.40631000  0.60702000  1.0
  H  H72  1  0.40631000  0.50144000  0.10703000  1.0
  H  H73  1  0.49856000  0.59369000  0.39298000  1.0
  C  C74  1  0.96740000  0.14324000  0.14313000  1.0
  C  C75  1  0.88535000  0.02737000  0.14556000  1.0
  C  C76  1  0.81304000  0.06116000  0.03865000  1.0
  C  C77  1  0.24181000  0.37958000  0.96072000  1.0
  C  C78  1  0.14480000  0.39437000  0.97887000  1.0
  C  C79  1  0.14916000  0.23642000  0.01824000  1.0
  C  C80  1  0.86771000  0.23944000  0.90324000  1.0
  C  C81  1  0.69613000  0.24707000  0.90688000  1.0
  C  C82  1  0.76173000  0.27622000  0.98161000  1.0
  C  C83  1  0.94718000  0.39704000  0.17398000  1.0
  C  C84  1  0.02240000  0.50324000  0.23020000  1.0
  C  C85  1  0.12132000  0.49462000  0.14161000  1.0
  C  C86  1  0.44985000  0.20355000  0.10922000  1.0
  C  C87  1  0.52387000  0.26793000  0.25347000  1.0
  C  C88  1  0.54476000  0.28794000  0.18187000  1.0
  C  C89  1  0.64968000  0.39233000  0.17906000  1.0
  C  C90  1  0.38925000  0.28068000  0.82538000  1.0
  C  C91  1  0.46893000  0.37206000  0.78674000  1.0
  C  C92  1  0.43982000  0.34905000  0.70635000  1.0
  C  C93  1  0.57400000  0.47955000  0.83035000  1.0
  C  C94  1  0.85676000  0.03261000  0.35687000  1.0
  C  C95  1  0.97263000  0.11465000  0.35444000  1.0
  C  C96  1  0.93884000  0.18696000  0.46135000  1.0
  C  C97  1  0.62041000  0.75819000  0.53928000  1.0
  C  C98  1  0.60563000  0.85519000  0.52113000  1.0
  C  C99  1  0.76358000  0.85084000  0.48175000  1.0
  C  C100  1  0.76056000  0.13229000  0.59676000  1.0
  C  C101  1  0.75293000  0.30387000  0.59312000  1.0
  C  C102  1  0.72378000  0.23827000  0.51839000  1.0
  C  C103  1  0.60296000  0.05282000  0.32603000  1.0
  C  C104  1  0.49676000  0.97760000  0.26980000  1.0
  C  C105  1  0.50538000  0.87868000  0.35839000  1.0
  C  C106  1  0.79646000  0.55015000  0.39078000  1.0
  C  C107  1  0.73207000  0.47613000  0.24653000  1.0
  C  C108  1  0.71206000  0.45525000  0.31813000  1.0
  C  C109  1  0.60767000  0.35032000  0.32094000  1.0
  C  C110  1  0.71932000  0.61075000  0.67462000  1.0
  C  C111  1  0.62793000  0.53107000  0.71326000  1.0
  C  C112  1  0.65095000  0.56017000  0.79366000  1.0
  C  C113  1  0.52045000  0.42600000  0.66965000  1.0
  C  C114  1  0.03260000  0.85676000  0.85687000  1.0
  C  C115  1  0.11465000  0.97263000  0.85444000  1.0
  C  C116  1  0.18696000  0.93884000  0.96135000  1.0
  C  C117  1  0.75819000  0.62041000  0.03928000  1.0
  C  C118  1  0.85519000  0.60563000  0.02113000  1.0
  C  C119  1  0.85084000  0.76358000  0.98175000  1.0
  C  C120  1  0.13229000  0.76055000  0.09676000  1.0
  C  C121  1  0.30387000  0.75293000  0.09312000  1.0
  C  C122  1  0.23827000  0.72378000  0.01839000  1.0
  C  C123  1  0.05282000  0.60296000  0.82602000  1.0
  C  C124  1  0.97760000  0.49676000  0.76980000  1.0
  C  C125  1  0.87869000  0.50538000  0.85839000  1.0
  C  C126  1  0.55015000  0.79645000  0.89078000  1.0
  C  C127  1  0.47613000  0.73206000  0.74653000  1.0
  C  C128  1  0.45525000  0.71206000  0.81813000  1.0
  C  C129  1  0.35032000  0.60767000  0.82094000  1.0
  C  C130  1  0.61075000  0.71932000  0.17462000  1.0
  C  C131  1  0.53107000  0.62794000  0.21326000  1.0
  C  C132  1  0.56018000  0.65096000  0.29366000  1.0
  C  C133  1  0.42600000  0.52045000  0.16965000  1.0
  C  C134  1  0.14324000  0.96740000  0.64313000  1.0
  C  C135  1  0.02737000  0.88535000  0.64556000  1.0
  C  C136  1  0.06116000  0.81304000  0.53865000  1.0
  C  C137  1  0.37959000  0.24181000  0.46072000  1.0
  C  C138  1  0.39437000  0.14481000  0.47887000  1.0
  C  C139  1  0.23642000  0.14916000  0.51824000  1.0
  C  C140  1  0.23944000  0.86771000  0.40324000  1.0
  C  C141  1  0.24707000  0.69613000  0.40688000  1.0
  C  C142  1  0.27622000  0.76173000  0.48161000  1.0
  C  C143  1  0.39704000  0.94718000  0.67398000  1.0
  C  C144  1  0.50324000  0.02240000  0.73020000  1.0
  C  C145  1  0.49462000  0.12132000  0.64161000  1.0
  C  C146  1  0.20354000  0.44985000  0.60922000  1.0
  C  C147  1  0.26793000  0.52387000  0.75347000  1.0
  C  C148  1  0.28793000  0.54475000  0.68187000  1.0
  C  C149  1  0.39232000  0.64967000  0.67906000  1.0
  C  C150  1  0.28068000  0.38926000  0.32538000  1.0
  C  C151  1  0.37207000  0.46894000  0.28674000  1.0
  C  C152  1  0.34905000  0.43983000  0.20634000  1.0
  C  C153  1  0.47955000  0.57400000  0.33035000  1.0
  N  N154  1  0.78931000  0.97773000  0.08014000  1.0
  N  N155  1  0.92037000  0.16407000  0.07482000  1.0
  N  N156  1  0.24330000  0.28046000  0.98566000  1.0
  N  N157  1  0.08607000  0.30278000  0.01561000  1.0
  N  N158  1  0.76410000  0.22416000  0.85800000  1.0
  N  N159  1  0.87152000  0.27261000  0.97910000  1.0
  N  N160  1  0.01059000  0.39232000  0.11759000  1.0
  N  N161  1  0.13189000  0.56353000  0.20912000  1.0
  N  N162  1  0.02227000  0.21069000  0.41986000  1.0
  N  N163  1  0.83593000  0.07963000  0.42518000  1.0
  N  N164  1  0.71954000  0.75670000  0.51434000  1.0
  N  N165  1  0.69723000  0.91393000  0.48439000  1.0
  N  N166  1  0.77584000  0.23590000  0.64200000  1.0
  N  N167  1  0.72739000  0.12847000  0.52090000  1.0
  N  N168  1  0.60768000  0.98941000  0.38241000  1.0
  N  N169  1  0.43647000  0.86811000  0.29087000  1.0
  N  N170  1  0.21069000  0.02227000  0.91986000  1.0
  N  N171  1  0.07963000  0.83593000  0.92518000  1.0
  N  N172  1  0.75670000  0.71954000  0.01433000  1.0
  N  N173  1  0.91393000  0.69722000  0.98439000  1.0
  N  N174  1  0.23590000  0.77584000  0.14200000  1.0
  N  N175  1  0.12847000  0.72739000  0.02090000  1.0
  N  N176  1  0.98942000  0.60768000  0.88241000  1.0
  N  N177  1  0.86811000  0.43647000  0.79087000  1.0
  N  N178  1  0.97773000  0.78931000  0.58014000  1.0
  N  N179  1  0.16407000  0.92037000  0.57482000  1.0
  N  N180  1  0.28046000  0.24330000  0.48566000  1.0
  N  N181  1  0.30278000  0.08607000  0.51561000  1.0
  N  N182  1  0.22416000  0.76410000  0.35800000  1.0
  N  N183  1  0.27261000  0.87153000  0.47910000  1.0
  N  N184  1  0.39232000  0.01059000  0.61759000  1.0
  N  N185  1  0.56352000  0.13189000  0.70913000  1.0
  O  O186  1  0.35221000  0.11610000  0.11272000  1.0
  O  O187  1  0.47806000  0.23286000  0.04632000  1.0
  O  O188  1  0.28180000  0.20176000  0.79096000  1.0
  O  O189  1  0.44397000  0.29185000  0.89562000  1.0
  O  O190  1  0.88390000  0.64779000  0.38728000  1.0
  O  O191  1  0.76714000  0.52194000  0.45368000  1.0
  O  O192  1  0.79824000  0.71820000  0.70904000  1.0
  O  O193  1  0.70815000  0.55603000  0.60437000  1.0
  O  O194  1  0.64779000  0.88389000  0.88728000  1.0
  O  O195  1  0.52194000  0.76715000  0.95368000  1.0
  O  O196  1  0.71820000  0.79825000  0.20904000  1.0
  O  O197  1  0.55603000  0.70815000  0.10437000  1.0
  O  O198  1  0.11610000  0.35221000  0.61272000  1.0
  O  O199  1  0.23285000  0.47806000  0.54632000  1.0
  O  O200  1  0.20176000  0.28180000  0.29096000  1.0
  O  O201  1  0.29186000  0.44397000  0.39563000  1.0
