# generated using pymatgen
data_KGdH4C5O9
_symmetry_space_group_name_H-M   'P 1'
_cell_length_a   7.24150000
_cell_length_b   8.93102000
_cell_length_c   16.38740000
_cell_angle_alpha   89.99980000
_cell_angle_beta   89.99980000
_cell_angle_gamma   89.99990000
_symmetry_Int_Tables_number   1
_chemical_formula_structural   KGdH4C5O9
_chemical_formula_sum   'K4 Gd4 H16 C20 O36'
_cell_volume   1059.83840163
_cell_formula_units_Z   4
loop_
 _symmetry_equiv_pos_site_id
 _symmetry_equiv_pos_as_xyz
  1  'x, y, z'
loop_
 _atom_site_type_symbol
 _atom_site_label
 _atom_site_symmetry_multiplicity
 _atom_site_fract_x
 _atom_site_fract_y
 _atom_site_fract_z
 _atom_site_occupancy
  K  K0  1  0.00000000  0.03282000  0.22590000  1.0
  K  K1  1  0.00000000  0.96718000  0.77410000  1.0
  K  K2  1  0.00000000  0.46718000  0.72590000  1.0
  K  K3  1  0.00000000  0.53282000  0.27410000  1.0
  Gd  Gd4  1  0.50000000  0.98634000  0.11945000  1.0
  Gd  Gd5  1  0.50000000  0.01366000  0.88055000  1.0
  Gd  Gd6  1  0.50000000  0.51366000  0.61945000  1.0
  Gd  Gd7  1  0.50000000  0.48634000  0.38055000  1.0
  H  H8  1  0.10528000  0.24000000  0.38590000  1.0
  H  H9  1  0.10528000  0.76000000  0.61410000  1.0
  H  H10  1  0.89471000  0.26001000  0.88590000  1.0
  H  H11  1  0.89472000  0.74001000  0.11410000  1.0
  H  H12  1  0.89473000  0.75999000  0.61410000  1.0
  H  H13  1  0.89472000  0.24000000  0.38590000  1.0
  H  H14  1  0.10528000  0.74001000  0.11410000  1.0
  H  H15  1  0.10527000  0.26000000  0.88590000  1.0
  H  H16  1  0.62091000  0.57262000  0.93303000  1.0
  H  H17  1  0.62090000  0.42739000  0.06697000  1.0
  H  H18  1  0.37909000  0.92739000  0.43303000  1.0
  H  H19  1  0.37910000  0.07262000  0.56697000  1.0
  H  H20  1  0.37910000  0.42738000  0.06697000  1.0
  H  H21  1  0.37909000  0.57262000  0.93303000  1.0
  H  H22  1  0.62090000  0.07262000  0.56697000  1.0
  H  H23  1  0.62091000  0.92738000  0.43303000  1.0
  C  C24  1  0.10883000  0.00000000  0.00000000  1.0
  C  C25  1  0.89116000  0.50000000  0.50000000  1.0
  C  C26  1  0.89117000  0.00000000  0.00000000  1.0
  C  C27  1  0.10884000  0.50000000  0.50000000  1.0
  C  C28  1  0.39341000  0.77568000  0.27151000  1.0
  C  C29  1  0.39340000  0.22432000  0.72849000  1.0
  C  C30  1  0.60659000  0.72430000  0.77150000  1.0
  C  C31  1  0.60660000  0.27569000  0.22850000  1.0
  C  C32  1  0.60660000  0.22432000  0.72849000  1.0
  C  C33  1  0.60660000  0.77568000  0.27151000  1.0
  C  C34  1  0.39341000  0.27569000  0.22850000  1.0
  C  C35  1  0.39340000  0.72431000  0.77150000  1.0
  C  C36  1  0.50000000  0.71270000  0.02268000  1.0
  C  C37  1  0.50000000  0.28730000  0.97733000  1.0
  C  C38  1  0.50000000  0.78730000  0.52267000  1.0
  C  C39  1  0.50000000  0.21270000  0.47732000  1.0
  C  C40  1  0.50000000  0.57018000  0.97369000  1.0
  C  C41  1  0.50000000  0.42981000  0.02631000  1.0
  C  C42  1  0.50000000  0.92982000  0.47369000  1.0
  C  C43  1  0.50000000  0.07020000  0.52631000  1.0
  O  O44  1  0.18694000  0.96445000  0.06648000  1.0
  O  O45  1  0.18694000  0.03555000  0.93352000  1.0
  O  O46  1  0.81306000  0.53555000  0.56648000  1.0
  O  O47  1  0.81306000  0.46445000  0.43352000  1.0
  O  O48  1  0.81306000  0.03555000  0.93352000  1.0
  O  O49  1  0.81306000  0.96445000  0.06648000  1.0
  O  O50  1  0.18694000  0.46445000  0.43352000  1.0
  O  O51  1  0.18694000  0.53554000  0.56648000  1.0
  O  O52  1  0.31448000  0.87134000  0.22651000  1.0
  O  O53  1  0.31447000  0.12865000  0.77350000  1.0
  O  O54  1  0.68552000  0.62866000  0.72650000  1.0
  O  O55  1  0.68552000  0.37134000  0.27350000  1.0
  O  O56  1  0.68553000  0.12865000  0.77350000  1.0
  O  O57  1  0.68553000  0.87135000  0.22650000  1.0
  O  O58  1  0.31448000  0.37134000  0.27350000  1.0
  O  O59  1  0.31448000  0.62866000  0.72650000  1.0
  O  O60  1  0.31463000  0.68000000  0.31653000  1.0
  O  O61  1  0.31462000  0.32000000  0.68347000  1.0
  O  O62  1  0.68538000  0.81999000  0.81654000  1.0
  O  O63  1  0.68538000  0.18000000  0.18346000  1.0
  O  O64  1  0.68537000  0.32000000  0.68347000  1.0
  O  O65  1  0.68538000  0.68000000  0.31653000  1.0
  O  O66  1  0.31462000  0.18000000  0.18346000  1.0
  O  O67  1  0.31462000  0.82000000  0.81654000  1.0
  O  O68  1  0.50000000  0.71085000  0.09983000  1.0
  O  O69  1  0.50001000  0.28915000  0.90017000  1.0
  O  O70  1  0.49999000  0.78915000  0.59983000  1.0
  O  O71  1  0.50000000  0.21085000  0.40016000  1.0
  O  O72  1  0.50000000  0.83929000  0.98496000  1.0
  O  O73  1  0.50000000  0.16072000  0.01504000  1.0
  O  O74  1  0.50000000  0.66071000  0.48496000  1.0
  O  O75  1  0.50000000  0.33928000  0.51504000  1.0
  O  O76  1  0.00000000  0.17468000  0.37471000  1.0
  O  O77  1  0.00000000  0.82532000  0.62529000  1.0
  O  O78  1  0.00000000  0.32532000  0.87471000  1.0
  O  O79  1  0.00000000  0.67469000  0.12529000  1.0
