# generated using pymatgen
data_CdH12(C6N5)2
_symmetry_space_group_name_H-M   'P 1'
_cell_length_a   7.62554000
_cell_length_b   8.95857000
_cell_length_c   13.93152789
_cell_angle_alpha   87.35826914
_cell_angle_beta   74.11724219
_cell_angle_gamma   64.82730000
_symmetry_Int_Tables_number   1
_chemical_formula_structural   CdH12(C6N5)2
_chemical_formula_sum   'Cd2 H24 C24 N20'
_cell_volume   825.74302589
_cell_formula_units_Z   2
loop_
 _symmetry_equiv_pos_site_id
 _symmetry_equiv_pos_as_xyz
  1  'x, y, z'
loop_
 _atom_site_type_symbol
 _atom_site_label
 _atom_site_symmetry_multiplicity
 _atom_site_fract_x
 _atom_site_fract_y
 _atom_site_fract_z
 _atom_site_occupancy
  Cd  Cd0  1  1.00000000  0.50000000  0.00000000  1.0
  Cd  Cd1  1  0.00000000  0.99999000  0.50000000  1.0
  H  H2  1  0.37243000  0.61863000  0.01184000  1.0
  H  H3  1  0.50297000  0.88181000  0.48844000  1.0
  H  H4  1  0.62757000  0.38137000  0.98815000  1.0
  H  H5  1  0.49703000  0.11819000  0.51156000  1.0
  H  H6  1  0.44290000  0.86267000  0.89995000  1.0
  H  H7  1  0.70570000  0.63763000  0.60018000  1.0
  H  H8  1  0.55710000  0.13733000  0.10005000  1.0
  H  H9  1  0.29430000  0.36239000  0.39982000  1.0
  H  H10  1  0.90758000  0.85378000  0.87268000  1.0
  H  H11  1  0.13440000  0.64615000  0.62735000  1.0
  H  H12  1  0.09242000  0.14623000  0.12732000  1.0
  H  H13  1  0.86559000  0.35385000  0.37266000  1.0
  H  H14  1  0.01161000  0.05496000  0.77408000  1.0
  H  H15  1  0.34107000  0.44474000  0.72570000  1.0
  H  H16  1  0.98839000  0.94505000  0.22592000  1.0
  H  H17  1  0.65893000  0.55527000  0.27430000  1.0
  H  H18  1  0.27503000  0.99963000  0.73859000  1.0
  H  H19  1  0.51366000  0.49991000  0.76135000  1.0
  H  H20  1  0.72497000  0.00038000  0.26141000  1.0
  H  H21  1  0.48633000  0.50010000  0.23866000  1.0
  H  H22  1  0.11055000  0.14523000  0.84475000  1.0
  H  H23  1  0.60086000  0.35467000  0.65499000  1.0
  H  H24  1  0.88945000  0.85477000  0.15525000  1.0
  H  H25  1  0.39913000  0.64534000  0.34502000  1.0
  C  C26  1  0.94837000  0.48139000  0.75988000  1.0
  C  C27  1  0.68984000  0.01848000  0.74011000  1.0
  C  C28  1  0.05165000  0.51859000  0.24011000  1.0
  C  C29  1  0.31017000  0.98152000  0.25988000  1.0
  C  C30  1  0.28651000  0.70259000  0.96583000  1.0
  C  C31  1  0.45505000  0.79777000  0.53441000  1.0
  C  C32  1  0.71348000  0.29741000  0.03417000  1.0
  C  C33  1  0.54494000  0.20224000  0.46559000  1.0
  C  C34  1  0.32281000  0.82362000  0.91160000  1.0
  C  C35  1  0.55824000  0.67665000  0.58856000  1.0
  C  C36  1  0.67719000  0.17638000  0.08840000  1.0
  C  C37  1  0.44177000  0.32336000  0.41144000  1.0
  C  C38  1  0.01908000  0.32572000  0.61653000  1.0
  C  C39  1  0.46159000  0.17433000  0.88341000  1.0
  C  C40  1  0.98094000  0.67426000  0.38346000  1.0
  C  C41  1  0.53842000  0.82567000  0.11658000  1.0
  C  C42  1  0.04421000  0.81946000  0.89526000  1.0
  C  C43  1  0.25925000  0.68057000  0.60481000  1.0
  C  C44  1  0.95579000  0.18054000  0.10474000  1.0
  C  C45  1  0.74076000  0.31942000  0.39519000  1.0
  C  C46  1  0.14016000  0.03250000  0.80259000  1.0
  C  C47  1  0.47562000  0.46730000  0.69728000  1.0
  C  C48  1  0.85984000  0.96750000  0.19741000  1.0
  C  C49  1  0.52437000  0.53271000  0.30273000  1.0
  N  N50  1  0.92096000  0.51248000  0.84552000  1.0
  N  N51  1  0.77914000  0.98726000  0.65449000  1.0
  N  N52  1  0.07905000  0.48751000  0.15447000  1.0
  N  N53  1  0.22084000  0.01273000  0.34551000  1.0
  N  N54  1  0.97525000  0.46370000  0.66427000  1.0
  N  N55  1  0.60333000  0.03629000  0.83572000  1.0
  N  N56  1  0.02476000  0.53628000  0.33572000  1.0
  N  N57  1  0.39667000  0.96372000  0.16428000  1.0
  N  N58  1  0.05981000  0.20713000  0.56608000  1.0
  N  N59  1  0.33329000  0.29294000  0.93383000  1.0
  N  N60  1  0.94021000  0.79284000  0.43391000  1.0
  N  N61  1  0.66671000  0.70706000  0.06617000  1.0
  N  N62  1  0.11279000  0.70101000  0.95483000  1.0
  N  N63  1  0.26881000  0.79920000  0.54535000  1.0
  N  N64  1  0.88720000  0.29899000  0.04517000  1.0
  N  N65  1  0.73118000  0.20080000  0.45466000  1.0
  N  N66  1  0.16757000  0.89664000  0.86728000  1.0
  N  N67  1  0.43179000  0.60342000  0.63278000  1.0
  N  N68  1  0.83243000  0.10336000  0.13272000  1.0
  N  N69  1  0.56821000  0.39658000  0.36723000  1.0
