# generated using pymatgen
data_NdH21(C9O2)3
_symmetry_space_group_name_H-M   'P 1'
_cell_length_a   7.73108000
_cell_length_b   13.30600000
_cell_length_c   13.30595862
_cell_angle_alpha   116.36931992
_cell_angle_beta   101.02143491
_cell_angle_gamma   101.02200000
_symmetry_Int_Tables_number   1
_chemical_formula_structural   NdH21(C9O2)3
_chemical_formula_sum   'Nd2 H42 C54 O12'
_cell_volume   1142.87656343
_cell_formula_units_Z   2
loop_
 _symmetry_equiv_pos_site_id
 _symmetry_equiv_pos_as_xyz
  1  'x, y, z'
loop_
 _atom_site_type_symbol
 _atom_site_label
 _atom_site_symmetry_multiplicity
 _atom_site_fract_x
 _atom_site_fract_y
 _atom_site_fract_z
 _atom_site_occupancy
  Nd  Nd0  1  0.99727000  0.00035000  0.00038000  1.0
  Nd  Nd1  1  0.49728000  0.00035000  0.00034000  1.0
  H  H2  1  0.39100000  0.17548000  0.82451000  1.0
  H  H3  1  0.56514000  0.17510000  0.35027000  1.0
  H  H4  1  0.21590000  0.64892000  0.82423000  1.0
  H  H5  1  0.06545000  0.35038000  0.17551000  1.0
  H  H6  1  0.71550000  0.82408000  0.64869000  1.0
  H  H7  1  0.89134000  0.82486000  0.17556000  1.0
  H  H8  1  0.20366000  0.35044000  0.96594000  1.0
  H  H9  1  0.23864000  0.03419000  0.38473000  1.0
  H  H10  1  0.85493000  0.61656000  0.65072000  1.0
  H  H11  1  0.73896000  0.38463000  0.03436000  1.0
  H  H12  1  0.35452000  0.65062000  0.61639000  1.0
  H  H13  1  0.70362000  0.96594000  0.35044000  1.0
  H  H14  1  0.47124000  0.28486000  0.74164000  1.0
  H  H15  1  0.72832000  0.25775000  0.54242000  1.0
  H  H16  1  0.18621000  0.45663000  0.71475000  1.0
  H  H17  1  0.22877000  0.54256000  0.25779000  1.0
  H  H18  1  0.68604000  0.71464000  0.45660000  1.0
  H  H19  1  0.97105000  0.74163000  0.28471000  1.0
  H  H20  1  0.63444000  0.43787000  0.70555000  1.0
  H  H21  1  0.92714000  0.29399000  0.73156000  1.0
  H  H22  1  0.19611000  0.26707000  0.56144000  1.0
  H  H23  1  0.42729000  0.73169000  0.29384000  1.0
  H  H24  1  0.69615000  0.56135000  0.26712000  1.0
  H  H25  1  0.13423000  0.70537000  0.43760000  1.0
  H  H26  1  0.64671000  0.64801000  0.82506000  1.0
  H  H27  1  0.82117000  0.17497000  0.82273000  1.0
  H  H28  1  0.99879000  0.17658000  0.35177000  1.0
  H  H29  1  0.32090000  0.82263000  0.17466000  1.0
  H  H30  1  0.49885000  0.35167000  0.17654000  1.0
  H  H31  1  0.14674000  0.82484000  0.64778000  1.0
  H  H32  1  0.48877000  0.70143000  0.97937000  1.0
  H  H33  1  0.51075000  0.02097000  0.72237000  1.0
  H  H34  1  0.78822000  0.27799000  0.29918000  1.0
  H  H35  1  0.01032000  0.72210000  0.02080000  1.0
  H  H36  1  0.28813000  0.29902000  0.27784000  1.0
  H  H37  1  0.98902000  0.97927000  0.70138000  1.0
  H  H38  1  0.32221000  0.54802000  0.01472000  1.0
  H  H39  1  0.30912000  0.98563000  0.53375000  1.0
  H  H40  1  0.77529000  0.46716000  0.45287000  1.0
  H  H41  1  0.80898000  0.53353000  0.98572000  1.0
  H  H42  1  0.27487000  0.45273000  0.46693000  1.0
  H  H43  1  0.82256000  0.01479000  0.54811000  1.0
  C  C44  1  0.20323000  0.13674000  0.91501000  1.0
  C  C45  1  0.28760000  0.08483000  0.22163000  1.0
  C  C46  1  0.06776000  0.77893000  0.86362000  1.0
  C  C47  1  0.78800000  0.22164000  0.08505000  1.0
  C  C48  1  0.56751000  0.86356000  0.77878000  1.0
  C  C49  1  0.70324000  0.91514000  0.13674000  1.0
  C  C50  1  0.30193000  0.21093000  0.87600000  1.0
  C  C51  1  0.42530000  0.12371000  0.33456000  1.0
  C  C52  1  0.09198000  0.66545000  0.78922000  1.0
  C  C53  1  0.92564000  0.33462000  0.12406000  1.0
  C  C54  1  0.59162000  0.78912000  0.66525000  1.0
  C  C55  1  0.80216000  0.87626000  0.21099000  1.0
  C  C56  1  0.28972000  0.32041000  0.90920000  1.0
  C  C57  1  0.38076000  0.09072000  0.41114000  1.0
  C  C58  1  0.97052000  0.58938000  0.68018000  1.0
  C  C59  1  0.88109000  0.41110000  0.09093000  1.0
  C  C60  1  0.47010000  0.68006000  0.58920000  1.0
  C  C61  1  0.78983000  0.90931000  0.32042000  1.0
  C  C62  1  0.38600000  0.40570000  0.88192000  1.0
  C  C63  1  0.50420000  0.11797000  0.52359000  1.0
  C  C64  1  0.98086000  0.47644000  0.59462000  1.0
  C  C65  1  0.00441000  0.52354000  0.11806000  1.0
  C  C66  1  0.48049000  0.59450000  0.47629000  1.0
  C  C67  1  0.88607000  0.88197000  0.40567000  1.0
  C  C68  1  0.47538000  0.37611000  0.79448000  1.0
  C  C69  1  0.68013000  0.20511000  0.58107000  1.0
  C  C70  1  0.09928000  0.41822000  0.62372000  1.0
  C  C71  1  0.18037000  0.58116000  0.20516000  1.0
  C  C72  1  0.59911000  0.62360000  0.41817000  1.0
  C  C73  1  0.97533000  0.79447000  0.37598000  1.0
  C  C74  1  0.56704000  0.46251000  0.77393000  1.0
  C  C75  1  0.79210000  0.22580000  0.68803000  1.0
  C  C76  1  0.10439000  0.31105000  0.53719000  1.0
  C  C77  1  0.29218000  0.68810000  0.22569000  1.0
  C  C78  1  0.60433000  0.53708000  0.31104000  1.0
  C  C79  1  0.06695000  0.77381000  0.46229000  1.0
  C  C80  1  0.57343000  0.58027000  0.84051000  1.0
  C  C81  1  0.73264000  0.15952000  0.73959000  1.0
  C  C82  1  0.99330000  0.25990000  0.41967000  1.0
  C  C83  1  0.23245000  0.73949000  0.15931000  1.0
  C  C84  1  0.49327000  0.41954000  0.25986000  1.0
  C  C85  1  0.07348000  0.84035000  0.58009000  1.0
  C  C86  1  0.48534000  0.61039000  0.92735000  1.0
  C  C87  1  0.55876000  0.07283000  0.68314000  1.0
  C  C88  1  0.87554000  0.31698000  0.39004000  1.0
  C  C89  1  0.05847000  0.68296000  0.07271000  1.0
  C  C90  1  0.37540000  0.38990000  0.31686000  1.0
  C  C91  1  0.98554000  0.92727000  0.61033000  1.0
  C  C92  1  0.39133000  0.52411000  0.94719000  1.0
  C  C93  1  0.44506000  0.05296000  0.57709000  1.0
  C  C94  1  0.86795000  0.42330000  0.47649000  1.0
  C  C95  1  0.94498000  0.57692000  0.05299000  1.0
  C  C96  1  0.36764000  0.47636000  0.42314000  1.0
  C  C97  1  0.89154000  0.94718000  0.52411000  1.0
  O  O98  1  0.08232000  0.16555000  0.96582000  1.0
  O  O99  1  0.11676000  0.03365000  0.19973000  1.0
  O  O100  1  0.91883000  0.80140000  0.83483000  1.0
  O  O101  1  0.61718000  0.19973000  0.03384000  1.0
  O  O102  1  0.41867000  0.83481000  0.80134000  1.0
  O  O103  1  0.58239000  0.96600000  0.16561000  1.0
  O  O104  1  0.23743000  0.03887000  0.89621000  1.0
  O  O105  1  0.33986000  0.10422000  0.14266000  1.0
  O  O106  1  0.19867000  0.85762000  0.96150000  1.0
  O  O107  1  0.84024000  0.14258000  0.10427000  1.0
  O  O108  1  0.69848000  0.96143000  0.85738000  1.0
  O  O109  1  0.73723000  0.89620000  0.03878000  1.0
