# generated using pymatgen
data_KH6C6SNCl2O3
_symmetry_space_group_name_H-M   'P 1'
_cell_length_a   6.73066000
_cell_length_b   9.90527000
_cell_length_c   15.50420000
_cell_angle_alpha   89.99990000
_cell_angle_beta   79.58200000
_cell_angle_gamma   89.99980000
_symmetry_Int_Tables_number   1
_chemical_formula_structural   KH6C6SNCl2O3
_chemical_formula_sum   'K4 H24 C24 S4 N4 Cl8 O12'
_cell_volume   1016.60956821
_cell_formula_units_Z   4
loop_
 _symmetry_equiv_pos_site_id
 _symmetry_equiv_pos_as_xyz
  1  'x, y, z'
loop_
 _atom_site_type_symbol
 _atom_site_label
 _atom_site_symmetry_multiplicity
 _atom_site_fract_x
 _atom_site_fract_y
 _atom_site_fract_z
 _atom_site_occupancy
  K  K0  1  0.11515000  0.38075000  0.56034000  1.0
  K  K1  1  0.38485000  0.88075000  0.43966000  1.0
  K  K2  1  0.88486000  0.61925000  0.43965000  1.0
  K  K3  1  0.61514000  0.11924000  0.56034000  1.0
  H  H4  1  0.52994000  0.23840000  0.77967000  1.0
  H  H5  1  0.97006000  0.73840000  0.22033000  1.0
  H  H6  1  0.47006000  0.76160000  0.22033000  1.0
  H  H7  1  0.02994000  0.26160000  0.77967000  1.0
  H  H8  1  0.61890000  0.21665000  0.92839000  1.0
  H  H9  1  0.88110000  0.71665000  0.07161000  1.0
  H  H10  1  0.38110000  0.78336000  0.07162000  1.0
  H  H11  1  0.11890000  0.28335000  0.92838000  1.0
  H  H12  1  0.81149000  0.63314000  0.91620000  1.0
  H  H13  1  0.68851000  0.13314000  0.08380000  1.0
  H  H14  1  0.18852000  0.36686000  0.08380000  1.0
  H  H15  1  0.31148000  0.86686000  0.91620000  1.0
  H  H16  1  0.72086000  0.65485000  0.76831000  1.0
  H  H17  1  0.77913000  0.15485000  0.23170000  1.0
  H  H18  1  0.27915000  0.34515000  0.23169000  1.0
  H  H19  1  0.22086000  0.84515000  0.76830000  1.0
  H  H20  1  0.74760000  0.33789000  0.41792000  1.0
  H  H21  1  0.75240000  0.83788000  0.58208000  1.0
  H  H22  1  0.25240000  0.66211000  0.58208000  1.0
  H  H23  1  0.24760000  0.16211000  0.41792000  1.0
  H  H24  1  0.93725000  0.24515000  0.40033000  1.0
  H  H25  1  0.56276000  0.74515000  0.59967000  1.0
  H  H26  1  0.06275000  0.75485000  0.59967000  1.0
  H  H27  1  0.43725000  0.25485000  0.40033000  1.0
  C  C28  1  0.62055000  0.44716000  0.76563000  1.0
  C  C29  1  0.87945000  0.94716000  0.23437000  1.0
  C  C30  1  0.37945000  0.55284000  0.23437000  1.0
  C  C31  1  0.12055000  0.05284000  0.76563000  1.0
  C  C32  1  0.59196000  0.32407000  0.80984000  1.0
  C  C33  1  0.90804000  0.82407000  0.19016000  1.0
  C  C34  1  0.40805000  0.67594000  0.19016000  1.0
  C  C35  1  0.09195000  0.17594000  0.80984000  1.0
  C  C36  1  0.64116000  0.31201000  0.89310000  1.0
  C  C37  1  0.85884000  0.81201000  0.10690000  1.0
  C  C38  1  0.35884000  0.68799000  0.10690000  1.0
  C  C39  1  0.14116000  0.18799000  0.89309000  1.0
  C  C40  1  0.71821000  0.42396000  0.93070000  1.0
  C  C41  1  0.78179000  0.92396000  0.06930000  1.0
  C  C42  1  0.28180000  0.57605000  0.06930000  1.0
  C  C43  1  0.21821000  0.07604000  0.93070000  1.0
  C  C44  1  0.75157000  0.54677000  0.88578000  1.0
  C  C45  1  0.74842000  0.04677000  0.11421000  1.0
  C  C46  1  0.24843000  0.45323000  0.11422000  1.0
  C  C47  1  0.25157000  0.95323000  0.88578000  1.0
  C  C48  1  0.70147000  0.55853000  0.80280000  1.0
  C  C49  1  0.79852000  0.05853000  0.19720000  1.0
  C  C50  1  0.29853000  0.44147000  0.19720000  1.0
  C  C51  1  0.20147000  0.94147000  0.80280000  1.0
  S  S52  1  0.54892000  0.46628000  0.66129000  1.0
  S  S53  1  0.95108000  0.96628000  0.33871000  1.0
  S  S54  1  0.45108000  0.53372000  0.33871000  1.0
  S  S55  1  0.04892000  0.03372000  0.66129000  1.0
  N  N56  1  0.40974000  0.59837000  0.66468000  1.0
  N  N57  1  0.09025000  0.09837000  0.33532000  1.0
  N  N58  1  0.59026000  0.40162000  0.33532000  1.0
  N  N59  1  0.90974000  0.90162000  0.66468000  1.0
  Cl  Cl60  1  0.76770000  0.41185000  0.03627000  1.0
  Cl  Cl61  1  0.73230000  0.91185000  0.96373000  1.0
  Cl  Cl62  1  0.23231000  0.58815000  0.96373000  1.0
  Cl  Cl63  1  0.26769000  0.08815000  0.03627000  1.0
  Cl  Cl64  1  0.18885000  0.57491000  0.74376000  1.0
  Cl  Cl65  1  0.31115000  0.07491000  0.25624000  1.0
  Cl  Cl66  1  0.81115000  0.42509000  0.25624000  1.0
  Cl  Cl67  1  0.68885000  0.92509000  0.74376000  1.0
  O  O68  1  0.72994000  0.49975000  0.59748000  1.0
  O  O69  1  0.77006000  0.99975000  0.40252000  1.0
  O  O70  1  0.27006000  0.50024000  0.40252000  1.0
  O  O71  1  0.22994000  0.00024000  0.59747000  1.0
  O  O72  1  0.44744000  0.33988000  0.64537000  1.0
  O  O73  1  0.05255000  0.83988000  0.35463000  1.0
  O  O74  1  0.55256000  0.66012000  0.35463000  1.0
  O  O75  1  0.94744000  0.16012000  0.64537000  1.0
  O  O76  1  0.85736000  0.30235000  0.44616000  1.0
  O  O77  1  0.64264000  0.80235000  0.55384000  1.0
  O  O78  1  0.14264000  0.69765000  0.55384000  1.0
  O  O79  1  0.35736000  0.19765000  0.44616000  1.0
