# generated using pymatgen
data_CdH9C15N5O4
_symmetry_space_group_name_H-M   'P 1'
_cell_length_a   10.26690000
_cell_length_b   11.71710000
_cell_length_c   18.39970000
_cell_angle_alpha   90.00000000
_cell_angle_beta   90.88870000
_cell_angle_gamma   89.99990000
_symmetry_Int_Tables_number   1
_chemical_formula_structural   CdH9C15N5O4
_chemical_formula_sum   'Cd4 H36 C60 N20 O16'
_cell_volume   2213.18626564
_cell_formula_units_Z   4
loop_
 _symmetry_equiv_pos_site_id
 _symmetry_equiv_pos_as_xyz
  1  'x, y, z'
loop_
 _atom_site_type_symbol
 _atom_site_label
 _atom_site_symmetry_multiplicity
 _atom_site_fract_x
 _atom_site_fract_y
 _atom_site_fract_z
 _atom_site_occupancy
  Cd  Cd0  1  0.45778000  0.33337000  0.55408000  1.0
  Cd  Cd1  1  0.04222000  0.83337000  0.94592000  1.0
  Cd  Cd2  1  0.54222000  0.66666667  0.44592000  1.0
  Cd  Cd3  1  0.95778000  0.16663000  0.05408000  1.0
  H  H4  1  0.45568000  0.16832000  0.04934000  1.0
  H  H5  1  0.04432000  0.66832000  0.45066000  1.0
  H  H6  1  0.54432000  0.83168000  0.95066000  1.0
  H  H7  1  0.95568000  0.33168000  0.54934000  1.0
  H  H8  1  0.67487000  0.28870000  0.23533000  1.0
  H  H9  1  0.82513000  0.78870000  0.26467000  1.0
  H  H10  1  0.32513000  0.71130000  0.76466000  1.0
  H  H11  1  0.17487000  0.21130000  0.73533000  1.0
  H  H12  1  0.25350000  0.29478000  0.23618000  1.0
  H  H13  1  0.24650000  0.79478000  0.26382000  1.0
  H  H14  1  0.74650000  0.70522000  0.76382000  1.0
  H  H15  1  0.75350000  0.20522000  0.73618000  1.0
  H  H16  1  0.54923000  0.62918000  0.28490000  1.0
  H  H17  1  0.95076000  0.12918000  0.21510000  1.0
  H  H18  1  0.45077000  0.37082000  0.71510000  1.0
  H  H19  1  0.04923000  0.87082000  0.78490000  1.0
  H  H20  1  0.46212000  0.54144000  0.22103000  1.0
  H  H21  1  0.03788000  0.04144000  0.27897000  1.0
  H  H22  1  0.53788000  0.45856000  0.77897000  1.0
  H  H23  1  0.96212000  0.95856000  0.72103000  1.0
  H  H24  1  0.63062000  0.51738000  0.23736000  1.0
  H  H25  1  0.86938000  0.01738000  0.26264000  1.0
  H  H26  1  0.36938000  0.48262000  0.76264000  1.0
  H  H27  1  0.13061000  0.98262000  0.73736000  1.0
  H  H28  1  0.30894000  0.95285000  0.33311000  1.0
  H  H29  1  0.19106000  0.45285000  0.16689000  1.0
  H  H30  1  0.69106000  0.04715000  0.66689000  1.0
  H  H31  1  0.80894000  0.54715000  0.83311000  1.0
  H  H32  1  0.28552000  0.90737000  0.46668000  1.0
  H  H33  1  0.21448000  0.40737000  0.03332000  1.0
  H  H34  1  0.71448000  0.09263000  0.53331000  1.0
  H  H35  1  0.78552000  0.59263000  0.96668000  1.0
  H  H36  1  0.35378000  0.06358000  0.55644000  1.0
  H  H37  1  0.14622000  0.56359000  0.94356000  1.0
  H  H38  1  0.64622000  0.93642000  0.44356000  1.0
  H  H39  1  0.85378000  0.43642000  0.05644000  1.0
  C  C40  1  0.70583000  0.20076000  0.10282000  1.0
  C  C41  1  0.79417000  0.70076000  0.39718000  1.0
  C  C42  1  0.29416000  0.79924000  0.89718000  1.0
  C  C43  1  0.20583000  0.29924000  0.60282000  1.0
  C  C44  1  0.21144000  0.21438000  0.10163000  1.0
  C  C45  1  0.28855000  0.71438000  0.39837000  1.0
  C  C46  1  0.78855000  0.78562000  0.89837000  1.0
  C  C47  1  0.71145000  0.28562000  0.60163000  1.0
  C  C48  1  0.45841000  0.20485000  0.10386000  1.0
  C  C49  1  0.04159000  0.70485000  0.39614000  1.0
  C  C50  1  0.54158000  0.79515000  0.89614000  1.0
  C  C51  1  0.95842000  0.29515000  0.60386000  1.0
  C  C52  1  0.57813000  0.22536000  0.13887000  1.0
  C  C53  1  0.92187000  0.72537000  0.36113000  1.0
  C  C54  1  0.42187000  0.77464000  0.86113000  1.0
  C  C55  1  0.07814000  0.27464000  0.63887000  1.0
  C  C56  1  0.34178000  0.23123000  0.13870000  1.0
  C  C57  1  0.15822000  0.73124000  0.36130000  1.0
  C  C58  1  0.65822000  0.76877000  0.86130000  1.0
  C  C59  1  0.84178000  0.26876000  0.63871000  1.0
  C  C60  1  0.58099000  0.27192000  0.20901000  1.0
  C  C61  1  0.91901000  0.77192000  0.29099000  1.0
  C  C62  1  0.41901000  0.72808000  0.79099000  1.0
  C  C63  1  0.08099000  0.22808000  0.70901000  1.0
  C  C64  1  0.34480000  0.27642000  0.20915000  1.0
  C  C65  1  0.15520000  0.77642000  0.29085000  1.0
  C  C66  1  0.65520000  0.72358000  0.79085000  1.0
  C  C67  1  0.84481000  0.22358000  0.70915000  1.0
  C  C68  1  0.46446000  0.29635000  0.24317000  1.0
  C  C69  1  0.03553000  0.79635000  0.25683000  1.0
  C  C70  1  0.53553000  0.70365000  0.75683000  1.0
  C  C71  1  0.96447000  0.20365000  0.74317000  1.0
  C  C72  1  0.53915000  0.54253000  0.26320000  1.0
  C  C73  1  0.96085000  0.04253000  0.23680000  1.0
  C  C74  1  0.46085000  0.45747000  0.73680000  1.0
  C  C75  1  0.03915000  0.95747000  0.76320000  1.0
  C  C76  1  0.50677000  0.46299000  0.32273000  1.0
  C  C77  1  0.99323000  0.96299000  0.17727000  1.0
  C  C78  1  0.49323000  0.53701000  0.67727000  1.0
  C  C79  1  0.00677000  0.03701000  0.82273000  1.0
  C  C80  1  0.44758000  0.30892000  0.38151000  1.0
  C  C81  1  0.05242000  0.80892000  0.11849000  1.0
  C  C82  1  0.55242000  0.69108000  0.61849000  1.0
  C  C83  1  0.94758000  0.19108000  0.88151000  1.0
  C  C84  1  0.40607000  0.19406000  0.40267000  1.0
  C  C85  1  0.09393000  0.69405000  0.09733000  1.0
  C  C86  1  0.59393000  0.80594000  0.59734000  1.0
  C  C87  1  0.90607000  0.30594000  0.90266000  1.0
  C  C88  1  0.33230000  0.01615000  0.37477000  1.0
  C  C89  1  0.16770000  0.51615000  0.12523000  1.0
  C  C90  1  0.66770000  0.98385000  0.62523000  1.0
  C  C91  1  0.83230000  0.48385000  0.87477000  1.0
  C  C92  1  0.32012000  0.99029000  0.44843000  1.0
  C  C93  1  0.17988000  0.49029000  0.05157000  1.0
  C  C94  1  0.67988000  0.00971000  0.55157000  1.0
  C  C95  1  0.82012000  0.50971000  0.94843000  1.0
  C  C96  1  0.35818000  0.07478000  0.49759000  1.0
  C  C97  1  0.14182000  0.57478000  0.00241000  1.0
  C  C98  1  0.64182000  0.92522000  0.50241000  1.0
  C  C99  1  0.85818000  0.42522000  0.99759000  1.0
  N  N100  1  0.47003000  0.35121000  0.31312000  1.0
  N  N101  1  0.02997000  0.85121000  0.18688000  1.0
  N  N102  1  0.52997000  0.64879000  0.68688000  1.0
  N  N103  1  0.97003000  0.14879000  0.81312000  1.0
  N  N104  1  0.50648000  0.48619000  0.39352000  1.0
  N  N105  1  0.99352000  0.98619000  0.10648000  1.0
  N  N106  1  0.49352000  0.51380000  0.60648000  1.0
  N  N107  1  0.00648000  0.01381000  0.89352000  1.0
  N  N108  1  0.46953000  0.39104000  0.42972000  1.0
  N  N109  1  0.03047000  0.89104000  0.07028000  1.0
  N  N110  1  0.53047000  0.60896000  0.57028000  1.0
  N  N111  1  0.96953000  0.10896000  0.92972000  1.0
  N  N112  1  0.37347000  0.11818000  0.35121000  1.0
  N  N113  1  0.12653000  0.61819000  0.14879000  1.0
  N  N114  1  0.62653000  0.88182000  0.64879000  1.0
  N  N115  1  0.87347000  0.38181000  0.85121000  1.0
  N  N116  1  0.40314000  0.17564000  0.47491000  1.0
  N  N117  1  0.09686000  0.67564000  0.02509000  1.0
  N  N118  1  0.59686000  0.82436000  0.52509000  1.0
  N  N119  1  0.90314000  0.32436000  0.97491000  1.0
  O  O120  1  0.70844000  0.14226000  0.04534000  1.0
  O  O121  1  0.79156000  0.64226000  0.45466000  1.0
  O  O122  1  0.29155000  0.85774000  0.95466000  1.0
  O  O123  1  0.20845000  0.35774000  0.54534000  1.0
  O  O124  1  0.80808000  0.24285000  0.13427000  1.0
  O  O125  1  0.69192000  0.74285000  0.36573000  1.0
  O  O126  1  0.19192000  0.75715000  0.86573000  1.0
  O  O127  1  0.30808000  0.25715000  0.63427000  1.0
  O  O128  1  0.20563000  0.18738000  0.03510000  1.0
  O  O129  1  0.29437000  0.68738000  0.46490000  1.0
  O  O130  1  0.79436000  0.81262000  0.96489000  1.0
  O  O131  1  0.70564000  0.31262000  0.53511000  1.0
  O  O132  1  0.11070000  0.23125000  0.14071000  1.0
  O  O133  1  0.38930000  0.73125000  0.35929000  1.0
  O  O134  1  0.88930000  0.76875000  0.85928000  1.0
  O  O135  1  0.61070000  0.26875000  0.64071000  1.0
