# generated using pymatgen
data_CdH10C12S2N2O3
_symmetry_space_group_name_H-M   'P 1'
_cell_length_a   10.26800000
_cell_length_b   14.38770000
_cell_length_c   21.44580000
_cell_angle_alpha   90.00000000
_cell_angle_beta   89.99930000
_cell_angle_gamma   90.00000000
_symmetry_Int_Tables_number   1
_chemical_formula_structural   CdH10C12S2N2O3
_chemical_formula_sum   'Cd8 H80 C96 S16 N16 O24'
_cell_volume   3168.25030379
_cell_formula_units_Z   8
loop_
 _symmetry_equiv_pos_site_id
 _symmetry_equiv_pos_as_xyz
  1  'x, y, z'
loop_
 _atom_site_type_symbol
 _atom_site_label
 _atom_site_symmetry_multiplicity
 _atom_site_fract_x
 _atom_site_fract_y
 _atom_site_fract_z
 _atom_site_occupancy
  Cd  Cd0  1  0.49999000  0.25000000  0.63977000  1.0
  Cd  Cd1  1  0.50000000  0.25001000  0.86023000  1.0
  Cd  Cd2  1  0.50000000  0.75000000  0.36023000  1.0
  Cd  Cd3  1  0.50000000  0.75000000  0.13977000  1.0
  Cd  Cd4  1  0.50000000  0.03843000  0.75000000  1.0
  Cd  Cd5  1  0.50000000  0.46158000  0.75000000  1.0
  Cd  Cd6  1  0.49999000  0.96157000  0.25000000  1.0
  Cd  Cd7  1  0.50000000  0.53842000  0.25000000  1.0
  H  H8  1  0.51924000  0.16446000  0.50383000  1.0
  H  H9  1  0.51924000  0.33553000  0.99617000  1.0
  H  H10  1  0.48075000  0.33554000  0.50383000  1.0
  H  H11  1  0.48076000  0.16447000  0.99617000  1.0
  H  H12  1  0.48075000  0.83554000  0.49617000  1.0
  H  H13  1  0.48076000  0.66446000  0.00383000  1.0
  H  H14  1  0.51925000  0.66446000  0.49617000  1.0
  H  H15  1  0.51924000  0.83554000  0.00383000  1.0
  H  H16  1  0.69005000  0.12631000  0.42449000  1.0
  H  H17  1  0.69005000  0.37369000  0.07551000  1.0
  H  H18  1  0.30995000  0.37369000  0.42449000  1.0
  H  H19  1  0.30995000  0.12631000  0.07551000  1.0
  H  H20  1  0.30994000  0.87368000  0.57551000  1.0
  H  H21  1  0.30995000  0.62631000  0.92449000  1.0
  H  H22  1  0.69005000  0.62632000  0.57551000  1.0
  H  H23  1  0.69005000  0.87369000  0.92449000  1.0
  H  H24  1  0.97614000  0.15362000  0.57185000  1.0
  H  H25  1  0.97615000  0.34639000  0.92816000  1.0
  H  H26  1  0.02385000  0.34638000  0.57184000  1.0
  H  H27  1  0.02386000  0.15362000  0.92816000  1.0
  H  H28  1  0.02385000  0.84637000  0.42816000  1.0
  H  H29  1  0.02385000  0.65362000  0.07184000  1.0
  H  H30  1  0.97615000  0.65362000  0.42816000  1.0
  H  H31  1  0.97615000  0.84638000  0.07184000  1.0
  H  H32  1  0.79651000  0.19904000  0.64231000  1.0
  H  H33  1  0.79652000  0.30097000  0.85770000  1.0
  H  H34  1  0.20348000  0.30096000  0.64230000  1.0
  H  H35  1  0.20349000  0.19905000  0.85769000  1.0
  H  H36  1  0.20348000  0.80095000  0.35769000  1.0
  H  H37  1  0.20348000  0.69904000  0.14230000  1.0
  H  H38  1  0.79652000  0.69904000  0.35770000  1.0
  H  H39  1  0.79652000  0.80096000  0.14231000  1.0
  H  H40  1  0.49660000  0.04576000  0.38814000  1.0
  H  H41  1  0.49660000  0.45424000  0.11186000  1.0
  H  H42  1  0.50340000  0.45424000  0.38814000  1.0
  H  H43  1  0.50340000  0.04575000  0.11186000  1.0
  H  H44  1  0.50340000  0.95424000  0.61187000  1.0
  H  H45  1  0.50341000  0.54577000  0.88813000  1.0
  H  H46  1  0.49660000  0.54576000  0.61186000  1.0
  H  H47  1  0.49660000  0.95424000  0.88813000  1.0
  H  H48  1  0.33333333  0.08970000  0.47011000  1.0
  H  H49  1  0.33333333  0.41031000  0.02989000  1.0
  H  H50  1  0.66666667  0.41031000  0.47011000  1.0
  H  H51  1  0.66666667  0.08969000  0.02989000  1.0
  H  H52  1  0.66666667  0.91030000  0.52989000  1.0
  H  H53  1  0.66666667  0.58970000  0.97011000  1.0
  H  H54  1  0.33333333  0.58970000  0.52989000  1.0
  H  H55  1  0.33333333  0.91030000  0.97011000  1.0
  H  H56  1  0.03235000  0.04220000  0.33275000  1.0
  H  H57  1  0.03235000  0.45780000  0.16727000  1.0
  H  H58  1  0.96765000  0.45781000  0.33274000  1.0
  H  H59  1  0.96765000  0.04219000  0.16726000  1.0
  H  H60  1  0.96765000  0.95780000  0.66726000  1.0
  H  H61  1  0.96766000  0.54220000  0.83274000  1.0
  H  H62  1  0.03235000  0.54220000  0.66726000  1.0
  H  H63  1  0.03235000  0.95780000  0.83274000  1.0
  H  H64  1  0.20611000  0.00325000  0.25712000  1.0
  H  H65  1  0.20613000  0.49675000  0.24289000  1.0
  H  H66  1  0.79387000  0.49676000  0.25711000  1.0
  H  H67  1  0.79388000  0.00324000  0.24289000  1.0
  H  H68  1  0.79388000  0.99675000  0.74288000  1.0
  H  H69  1  0.79389000  0.50324000  0.75711000  1.0
  H  H70  1  0.20613000  0.50324000  0.74289000  1.0
  H  H71  1  0.20612000  0.99676000  0.75711000  1.0
  H  H72  1  0.90733000  0.10136000  0.39770000  1.0
  H  H73  1  0.90732000  0.39864000  0.10231000  1.0
  H  H74  1  0.09267000  0.39864000  0.39770000  1.0
  H  H75  1  0.09268000  0.10135000  0.10230000  1.0
  H  H76  1  0.09267000  0.89864000  0.60230000  1.0
  H  H77  1  0.09268000  0.60136000  0.89769000  1.0
  H  H78  1  0.90732000  0.60136000  0.60231000  1.0
  H  H79  1  0.90732000  0.89864000  0.89770000  1.0
  H  H80  1  0.11421000  0.11201000  0.50220000  1.0
  H  H81  1  0.11421000  0.38800000  0.99780000  1.0
  H  H82  1  0.88579000  0.38800000  0.50220000  1.0
  H  H83  1  0.88579000  0.11200000  0.99780000  1.0
  H  H84  1  0.88579000  0.88799000  0.49780000  1.0
  H  H85  1  0.88579000  0.61201000  0.00220000  1.0
  H  H86  1  0.11421000  0.61201000  0.49780000  1.0
  H  H87  1  0.11421000  0.88799000  0.00220000  1.0
  C  C88  1  0.62219000  0.16383000  0.51605000  1.0
  C  C89  1  0.62219000  0.33618000  0.98396000  1.0
  C  C90  1  0.37781000  0.33617000  0.51604000  1.0
  C  C91  1  0.37781000  0.16383000  0.98396000  1.0
  C  C92  1  0.37781000  0.83617000  0.48396000  1.0
  C  C93  1  0.37781000  0.66383000  0.01604000  1.0
  C  C94  1  0.62219000  0.66383000  0.48396000  1.0
  C  C95  1  0.62219000  0.83617000  0.01604000  1.0
  C  C96  1  0.71704000  0.14240000  0.47244000  1.0
  C  C97  1  0.71703000  0.35760000  0.02756000  1.0
  C  C98  1  0.28296000  0.35760000  0.47244000  1.0
  C  C99  1  0.28297000  0.14240000  0.02756000  1.0
  C  C100  1  0.28296000  0.85759000  0.52756000  1.0
  C  C101  1  0.28296000  0.64240000  0.97244000  1.0
  C  C102  1  0.71704000  0.64240000  0.52756000  1.0
  C  C103  1  0.71704000  0.85760000  0.97244000  1.0
  C  C104  1  0.84868000  0.13837000  0.49071000  1.0
  C  C105  1  0.84867000  0.36163000  0.00929000  1.0
  C  C106  1  0.15132000  0.36163000  0.49071000  1.0
  C  C107  1  0.15132000  0.13837000  0.00929000  1.0
  C  C108  1  0.15132000  0.86162000  0.50929000  1.0
  C  C109  1  0.15132000  0.63837000  0.99071000  1.0
  C  C110  1  0.84868000  0.63837000  0.50929000  1.0
  C  C111  1  0.84868000  0.86163000  0.99071000  1.0
  C  C112  1  0.87737000  0.15777000  0.55355000  1.0
  C  C113  1  0.87737000  0.34223000  0.94646000  1.0
  C  C114  1  0.12263000  0.34223000  0.55354000  1.0
  C  C115  1  0.12264000  0.15777000  0.94645000  1.0
  C  C116  1  0.12263000  0.84222000  0.44645000  1.0
  C  C117  1  0.12263000  0.65777000  0.05354000  1.0
  C  C118  1  0.87737000  0.65777000  0.44646000  1.0
  C  C119  1  0.87737000  0.84223000  0.05355000  1.0
  C  C120  1  0.77703000  0.18121000  0.59376000  1.0
  C  C121  1  0.77703000  0.31880000  0.90624000  1.0
  C  C122  1  0.22296000  0.31879000  0.59376000  1.0
  C  C123  1  0.22297000  0.18121000  0.90624000  1.0
  C  C124  1  0.22297000  0.81879000  0.40624000  1.0
  C  C125  1  0.22297000  0.68121000  0.09376000  1.0
  C  C126  1  0.77704000  0.68121000  0.40624000  1.0
  C  C127  1  0.77704000  0.81879000  0.09376000  1.0
  C  C128  1  0.39286000  0.04849000  0.37784000  1.0
  C  C129  1  0.39285000  0.45151000  0.12216000  1.0
  C  C130  1  0.60715000  0.45150000  0.37784000  1.0
  C  C131  1  0.60715000  0.04849000  0.12216000  1.0
  C  C132  1  0.60715000  0.95151000  0.62216000  1.0
  C  C133  1  0.60715000  0.54850000  0.87784000  1.0
  C  C134  1  0.39285000  0.54849000  0.62216000  1.0
  C  C135  1  0.39285000  0.95150000  0.87784000  1.0
  C  C136  1  0.30197000  0.07332000  0.42276000  1.0
  C  C137  1  0.30197000  0.42668000  0.07725000  1.0
  C  C138  1  0.69802000  0.42669000  0.42275000  1.0
  C  C139  1  0.69803000  0.07331000  0.07725000  1.0
  C  C140  1  0.69803000  0.92668000  0.57725000  1.0
  C  C141  1  0.69803000  0.57332000  0.92275000  1.0
  C  C142  1  0.30197000  0.57332000  0.57725000  1.0
  C  C143  1  0.30197000  0.92668000  0.92275000  1.0
  C  C144  1  0.16854000  0.07452000  0.40789000  1.0
  C  C145  1  0.16853000  0.42548000  0.09211000  1.0
  C  C146  1  0.83147000  0.42548000  0.40789000  1.0
  C  C147  1  0.83147000  0.07451000  0.09211000  1.0
  C  C148  1  0.83146000  0.92548000  0.59211000  1.0
  C  C149  1  0.83147000  0.57452000  0.90789000  1.0
  C  C150  1  0.16853000  0.57452000  0.59212000  1.0
  C  C151  1  0.16853000  0.92548000  0.90788000  1.0
  C  C152  1  0.13387000  0.04778000  0.34687000  1.0
  C  C153  1  0.13387000  0.45222000  0.15314000  1.0
  C  C154  1  0.86613000  0.45223000  0.34686000  1.0
  C  C155  1  0.86613000  0.04777000  0.15314000  1.0
  C  C156  1  0.86613000  0.95223000  0.65313000  1.0
  C  C157  1  0.86614000  0.54778000  0.84687000  1.0
  C  C158  1  0.13387000  0.54777000  0.65314000  1.0
  C  C159  1  0.13387000  0.95223000  0.84686000  1.0
  C  C160  1  0.22999000  0.02402000  0.30459000  1.0
  C  C161  1  0.22998000  0.47598000  0.19541000  1.0
  C  C162  1  0.77001000  0.47598000  0.30459000  1.0
  C  C163  1  0.77002000  0.02401000  0.19541000  1.0
  C  C164  1  0.77002000  0.97598000  0.69541000  1.0
  C  C165  1  0.77002000  0.52402000  0.80459000  1.0
  C  C166  1  0.22999000  0.52402000  0.69541000  1.0
  C  C167  1  0.22998000  0.97598000  0.80459000  1.0
  C  C168  1  0.94596000  0.11307000  0.44447000  1.0
  C  C169  1  0.94595000  0.38693000  0.05553000  1.0
  C  C170  1  0.05405000  0.38693000  0.44447000  1.0
  C  C171  1  0.05405000  0.11307000  0.05553000  1.0
  C  C172  1  0.05404000  0.88692000  0.55553000  1.0
  C  C173  1  0.05405000  0.61308000  0.94447000  1.0
  C  C174  1  0.94595000  0.61307000  0.55553000  1.0
  C  C175  1  0.94595000  0.88693000  0.94447000  1.0
  C  C176  1  0.07462000  0.10142000  0.45540000  1.0
  C  C177  1  0.07462000  0.39859000  0.04461000  1.0
  C  C178  1  0.92538000  0.39859000  0.45539000  1.0
  C  C179  1  0.92538000  0.10141000  0.04460000  1.0
  C  C180  1  0.92538000  0.89859000  0.54460000  1.0
  C  C181  1  0.92538000  0.60142000  0.95539000  1.0
  C  C182  1  0.07462000  0.60142000  0.54461000  1.0
  C  C183  1  0.07462000  0.89858000  0.95539000  1.0
  S  S184  1  0.33763000  0.15890000  0.70447000  1.0
  S  S185  1  0.33764000  0.34110000  0.79553000  1.0
  S  S186  1  0.66236000  0.34110000  0.70447000  1.0
  S  S187  1  0.66237000  0.15891000  0.79553000  1.0
  S  S188  1  0.66236000  0.84110000  0.29553000  1.0
  S  S189  1  0.66237000  0.65891000  0.20447000  1.0
  S  S190  1  0.33764000  0.65890000  0.29553000  1.0
  S  S191  1  0.33763000  0.84109000  0.20447000  1.0
  S  S192  1  0.27613000  0.06708000  0.63120000  1.0
  S  S193  1  0.27613000  0.43293000  0.86880000  1.0
  S  S194  1  0.72387000  0.43292000  0.63120000  1.0
  S  S195  1  0.72387000  0.06708000  0.86880000  1.0
  S  S196  1  0.72387000  0.93292000  0.36880000  1.0
  S  S197  1  0.72387000  0.56708000  0.13120000  1.0
  S  S198  1  0.27613000  0.56707000  0.36880000  1.0
  S  S199  1  0.27613000  0.93292000  0.13120000  1.0
  N  N200  1  0.65112000  0.18411000  0.57576000  1.0
  N  N201  1  0.65113000  0.31590000  0.92424000  1.0
  N  N202  1  0.34887000  0.31590000  0.57576000  1.0
  N  N203  1  0.34887000  0.18411000  0.92424000  1.0
  N  N204  1  0.34887000  0.81589000  0.42423000  1.0
  N  N205  1  0.34887000  0.68410000  0.07576000  1.0
  N  N206  1  0.65113000  0.68410000  0.42424000  1.0
  N  N207  1  0.65113000  0.81589000  0.07576000  1.0
  N  N208  1  0.35822000  0.02470000  0.31927000  1.0
  N  N209  1  0.35823000  0.47530000  0.18073000  1.0
  N  N210  1  0.64177000  0.47530000  0.31927000  1.0
  N  N211  1  0.64177000  0.02469000  0.18073000  1.0
  N  N212  1  0.64178000  0.97530000  0.68073000  1.0
  N  N213  1  0.64177000  0.52470000  0.81927000  1.0
  N  N214  1  0.35822000  0.52470000  0.68073000  1.0
  N  N215  1  0.35822000  0.97530000  0.81927000  1.0
  O  O216  1  0.13709000  0.08516000  0.62315000  1.0
  O  O217  1  0.13709000  0.41485000  0.87684000  1.0
  O  O218  1  0.86291000  0.41484000  0.62315000  1.0
  O  O219  1  0.86291000  0.08516000  0.87685000  1.0
  O  O220  1  0.86291000  0.91484000  0.37685000  1.0
  O  O221  1  0.86292000  0.58516000  0.12315000  1.0
  O  O222  1  0.13709000  0.58516000  0.37685000  1.0
  O  O223  1  0.13709000  0.91484000  0.12315000  1.0
  O  O224  1  0.35632000  0.09011000  0.57660000  1.0
  O  O225  1  0.35631000  0.40990000  0.92340000  1.0
  O  O226  1  0.64368000  0.40989000  0.57660000  1.0
  O  O227  1  0.64368000  0.09011000  0.92340000  1.0
  O  O228  1  0.64368000  0.90989000  0.42340000  1.0
  O  O229  1  0.64369000  0.59011000  0.07660000  1.0
  O  O230  1  0.35632000  0.59010000  0.42340000  1.0
  O  O231  1  0.35632000  0.90989000  0.07660000  1.0
  O  O232  1  0.30458000  0.97408000  0.65731000  1.0
  O  O233  1  0.30460000  0.52593000  0.84269000  1.0
  O  O234  1  0.69542000  0.52592000  0.65731000  1.0
  O  O235  1  0.69542000  0.97408000  0.84269000  1.0
  O  O236  1  0.69542000  0.02592000  0.34269000  1.0
  O  O237  1  0.69541000  0.47408000  0.15731000  1.0
  O  O238  1  0.30459000  0.47408000  0.34269000  1.0
  O  O239  1  0.30458000  0.02592000  0.15731000  1.0
