# generated using pymatgen
data_NiH13C11(NO2)3
_symmetry_space_group_name_H-M   'P 1'
_cell_length_a   7.85282000
_cell_length_b   12.51380000
_cell_length_c   14.24170000
_cell_angle_alpha   90.00000000
_cell_angle_beta   90.00000000
_cell_angle_gamma   95.72830000
_symmetry_Int_Tables_number   1
_chemical_formula_structural   NiH13C11(NO2)3
_chemical_formula_sum   'Ni4 H52 C44 N12 O24'
_cell_volume   1392.52357441
_cell_formula_units_Z   4
loop_
 _symmetry_equiv_pos_site_id
 _symmetry_equiv_pos_as_xyz
  1  'x, y, z'
loop_
 _atom_site_type_symbol
 _atom_site_label
 _atom_site_symmetry_multiplicity
 _atom_site_fract_x
 _atom_site_fract_y
 _atom_site_fract_z
 _atom_site_occupancy
  Ni  Ni0  1  0.18605000  0.75982000  0.68595000  1.0
  Ni  Ni1  1  0.31395000  0.74018000  0.18595000  1.0
  Ni  Ni2  1  0.81395000  0.24018000  0.31405000  1.0
  Ni  Ni3  1  0.68605000  0.25982000  0.81405000  1.0
  H  H4  1  0.48992000  0.52178000  0.68204000  1.0
  H  H5  1  0.01006000  0.97821000  0.18204000  1.0
  H  H6  1  0.51008000  0.47822000  0.31796000  1.0
  H  H7  1  0.98993000  0.02178000  0.81796000  1.0
  H  H8  1  0.23784000  0.28222000  0.49901000  1.0
  H  H9  1  0.26216000  0.21778000  0.99901000  1.0
  H  H10  1  0.76217000  0.71778000  0.50100000  1.0
  H  H11  1  0.73784000  0.78222000  0.00099000  1.0
  H  H12  1  0.18100000  0.61553000  0.45152000  1.0
  H  H13  1  0.31900000  0.88446000  0.95152000  1.0
  H  H14  1  0.81900000  0.38447000  0.54848000  1.0
  H  H15  1  0.68100000  0.11554000  0.04848000  1.0
  H  H16  1  0.33636000  0.00982000  0.68791000  1.0
  H  H17  1  0.16364000  0.49018000  0.18791000  1.0
  H  H18  1  0.66364000  0.99018000  0.31209000  1.0
  H  H19  1  0.83636000  0.50982000  0.81210000  1.0
  H  H20  1  0.20069000  0.02531000  0.40033000  1.0
  H  H21  1  0.29931000  0.47469000  0.90033000  1.0
  H  H22  1  0.79932000  0.97469000  0.59968000  1.0
  H  H23  1  0.70067000  0.52531000  0.09968000  1.0
  H  H24  1  0.08725000  0.82353000  0.47268000  1.0
  H  H25  1  0.41276000  0.67647000  0.97268000  1.0
  H  H26  1  0.91274000  0.17647000  0.52733000  1.0
  H  H27  1  0.58723000  0.32353000  0.02732000  1.0
  H  H28  1  0.39174000  0.73924000  0.53776000  1.0
  H  H29  1  0.10826000  0.76076000  0.03776000  1.0
  H  H30  1  0.60826000  0.26077000  0.46223000  1.0
  H  H31  1  0.89174000  0.23924000  0.96223000  1.0
  H  H32  1  0.47898000  0.70357000  0.63787000  1.0
  H  H33  1  0.02102000  0.79642000  0.13787000  1.0
  H  H34  1  0.52102000  0.29643000  0.36212000  1.0
  H  H35  1  0.97898000  0.20357000  0.86212000  1.0
  H  H36  1  0.35404000  0.12531000  0.54435000  1.0
  H  H37  1  0.14596000  0.37469000  0.04435000  1.0
  H  H38  1  0.64597000  0.87469000  0.45565000  1.0
  H  H39  1  0.85403000  0.62530000  0.95566000  1.0
  H  H40  1  0.11030000  0.57554000  0.74363000  1.0
  H  H41  1  0.38970000  0.92446000  0.24363000  1.0
  H  H42  1  0.88970000  0.42446000  0.25637000  1.0
  H  H43  1  0.61030000  0.07554000  0.75637000  1.0
  H  H44  1  0.11726000  0.65547000  0.83150000  1.0
  H  H45  1  0.38274000  0.84454000  0.33150000  1.0
  H  H46  1  0.88274000  0.34453000  0.16849000  1.0
  H  H47  1  0.61726000  0.15547000  0.66849000  1.0
  H  H48  1  0.42611000  0.88822000  0.80017000  1.0
  H  H49  1  0.07390000  0.61178000  0.30017000  1.0
  H  H50  1  0.57390000  0.11178000  0.19983000  1.0
  H  H51  1  0.92610000  0.38822000  0.69983000  1.0
  H  H52  1  0.40653000  0.76188000  0.81860000  1.0
  H  H53  1  0.09347000  0.73811000  0.31860000  1.0
  H  H54  1  0.59347000  0.23811000  0.18140000  1.0
  H  H55  1  0.90653000  0.26189000  0.68140000  1.0
  C  C56  1  0.33898000  0.58150000  0.56980000  1.0
  C  C57  1  0.16101000  0.91849000  0.06980000  1.0
  C  C58  1  0.66102000  0.41850000  0.43020000  1.0
  C  C59  1  0.83898000  0.08150000  0.93020000  1.0
  C  C60  1  0.40653000  0.50150000  0.62214000  1.0
  C  C61  1  0.09346000  0.99850000  0.12213000  1.0
  C  C62  1  0.59347000  0.49851000  0.37786000  1.0
  C  C63  1  0.90653000  0.00150000  0.87786000  1.0
  C  C64  1  0.37479000  0.39387000  0.59563000  1.0
  C  C65  1  0.12520000  0.10613000  0.09563000  1.0
  C  C66  1  0.62521000  0.60614000  0.40437000  1.0
  C  C67  1  0.87479000  0.89386000  0.90437000  1.0
  C  C68  1  0.26622000  0.36564000  0.52012000  1.0
  C  C69  1  0.23378000  0.13435000  0.02012000  1.0
  C  C70  1  0.73378000  0.63436000  0.47988000  1.0
  C  C71  1  0.76622000  0.86564000  0.97988000  1.0
  C  C72  1  0.19471000  0.44537000  0.46869000  1.0
  C  C73  1  0.30529000  0.05462000  0.96869000  1.0
  C  C74  1  0.80529000  0.55463000  0.53131000  1.0
  C  C75  1  0.69471000  0.94537000  0.03131000  1.0
  C  C76  1  0.23423000  0.55330000  0.49233000  1.0
  C  C77  1  0.26578000  0.94670000  0.99233000  1.0
  C  C78  1  0.76578000  0.44670000  0.50766000  1.0
  C  C79  1  0.73422000  0.05330000  0.00767000  1.0
  C  C80  1  0.47220000  0.31284000  0.64442000  1.0
  C  C81  1  0.02779000  0.18716000  0.14442000  1.0
  C  C82  1  0.52780000  0.68717000  0.35557000  1.0
  C  C83  1  0.97220000  0.81283000  0.85557000  1.0
  C  C84  1  0.07530000  0.41248000  0.38935000  1.0
  C  C85  1  0.42470000  0.08751000  0.88935000  1.0
  C  C86  1  0.92470000  0.58752000  0.61065000  1.0
  C  C87  1  0.57530000  0.91248000  0.11065000  1.0
  C  C88  1  0.28318000  0.98507000  0.62012000  1.0
  C  C89  1  0.21682000  0.51493000  0.12012000  1.0
  C  C90  1  0.71682000  0.01493000  0.37988000  1.0
  C  C91  1  0.78318000  0.48507000  0.87988000  1.0
  C  C92  1  0.21307000  0.99163000  0.46972000  1.0
  C  C93  1  0.28692000  0.50837000  0.96973000  1.0
  C  C94  1  0.78693000  0.00837000  0.53028000  1.0
  C  C95  1  0.71307000  0.49163000  0.03028000  1.0
  C  C96  1  0.15898000  0.89190000  0.50567000  1.0
  C  C97  1  0.34102000  0.60810000  0.00567000  1.0
  C  C98  1  0.84103000  0.10811000  0.49433000  1.0
  C  C99  1  0.65896000  0.39189000  0.99433000  1.0
  N  N100  1  0.37351000  0.69078000  0.59585000  1.0
  N  N101  1  0.12649000  0.80922000  0.09585000  1.0
  N  N102  1  0.62649000  0.30923000  0.40415000  1.0
  N  N103  1  0.87351000  0.19077000  0.90415000  1.0
  N  N104  1  0.20393000  0.88883000  0.59943000  1.0
  N  N105  1  0.29607000  0.61117000  0.09943000  1.0
  N  N106  1  0.79607000  0.11118000  0.40058000  1.0
  N  N107  1  0.70393000  0.38882000  0.90057000  1.0
  N  N108  1  0.29060000  0.04897000  0.54322000  1.0
  N  N109  1  0.20940000  0.45103000  0.04322000  1.0
  N  N110  1  0.70940000  0.95103000  0.45678000  1.0
  N  N111  1  0.79060000  0.54897000  0.95679000  1.0
  O  O112  1  0.52837000  0.33787000  0.72573000  1.0
  O  O113  1  0.97161000  0.16212000  0.22573000  1.0
  O  O114  1  0.47164000  0.66214000  0.27427000  1.0
  O  O115  1  0.02837000  0.83786000  0.77427000  1.0
  O  O116  1  0.49883000  0.22678000  0.59955000  1.0
  O  O117  1  0.00117000  0.27322000  0.09955000  1.0
  O  O118  1  0.50117000  0.77322000  0.40045000  1.0
  O  O119  1  0.99883000  0.72678000  0.90045000  1.0
  O  O120  1  0.01500000  0.31407000  0.38950000  1.0
  O  O121  1  0.48500000  0.18593000  0.88951000  1.0
  O  O122  1  0.98501000  0.68593000  0.61049000  1.0
  O  O123  1  0.51500000  0.81407000  0.11049000  1.0
  O  O124  1  0.03956000  0.48187000  0.32829000  1.0
  O  O125  1  0.46044000  0.01812000  0.82829000  1.0
  O  O126  1  0.96044000  0.51813000  0.67171000  1.0
  O  O127  1  0.53957000  0.98188000  0.17171000  1.0
  O  O128  1  0.19007000  0.62808000  0.78023000  1.0
  O  O129  1  0.30994000  0.87193000  0.28023000  1.0
  O  O130  1  0.80993000  0.37192000  0.21977000  1.0
  O  O131  1  0.69007000  0.12808000  0.71977000  1.0
  O  O132  1  0.41766000  0.81581000  0.76915000  1.0
  O  O133  1  0.08234000  0.68419000  0.26915000  1.0
  O  O134  1  0.58234000  0.18419000  0.23085000  1.0
  O  O135  1  0.91765000  0.31581000  0.73085000  1.0
