# generated using pymatgen
data_DyH9C12(NO)6
_symmetry_space_group_name_H-M   'P 1'
_cell_length_a   10.59240000
_cell_length_b   11.53690000
_cell_length_c   16.35250000
_cell_angle_alpha   98.90430000
_cell_angle_beta   103.22800000
_cell_angle_gamma   109.32600000
_symmetry_Int_Tables_number   1
_chemical_formula_structural   DyH9C12(NO)6
_chemical_formula_sum   'Dy4 H36 C48 N24 O24'
_cell_volume   1776.95874200
_cell_formula_units_Z   4
loop_
 _symmetry_equiv_pos_site_id
 _symmetry_equiv_pos_as_xyz
  1  'x, y, z'
loop_
 _atom_site_type_symbol
 _atom_site_label
 _atom_site_symmetry_multiplicity
 _atom_site_fract_x
 _atom_site_fract_y
 _atom_site_fract_z
 _atom_site_occupancy
  Dy  Dy0  1  0.77508000  0.55289000  0.25752000  1.0
  Dy  Dy1  1  0.22492000  0.44711000  0.74248000  1.0
  Dy  Dy2  1  0.49058000  0.20737000  0.24338000  1.0
  Dy  Dy3  1  0.50942000  0.79263000  0.75662000  1.0
  H  H4  1  0.49233000  0.25325000  0.02854000  1.0
  H  H5  1  0.50767000  0.74675000  0.97146000  1.0
  H  H6  1  0.74722000  0.48572000  0.47090000  1.0
  H  H7  1  0.25278000  0.51429000  0.52910000  1.0
  H  H8  1  0.68043000  0.63219000  0.59957000  1.0
  H  H9  1  0.31957000  0.36780000  0.40042000  1.0
  H  H10  1  0.65745000  0.78299000  0.15090000  1.0
  H  H11  1  0.34254000  0.21701000  0.84910000  1.0
  H  H12  1  0.11025000  0.47949000  0.34856000  1.0
  H  H13  1  0.88975000  0.52051000  0.65144000  1.0
  H  H14  1  0.45981000  0.89966000  0.11361000  1.0
  H  H15  1  0.54020000  0.10033000  0.88639000  1.0
  H  H16  1  0.40813000  0.53737000  0.17568000  1.0
  H  H17  1  0.59187000  0.46263000  0.82432000  1.0
  H  H18  1  0.26714000  0.55547000  0.03309000  1.0
  H  H19  1  0.73285000  0.44452000  0.96691000  1.0
  H  H20  1  0.86203000  0.22761000  0.32465000  1.0
  H  H21  1  0.13798000  0.77239000  0.67535000  1.0
  H  H22  1  0.02148000  0.22515000  0.46616000  1.0
  H  H23  1  0.97854000  0.77486000  0.53384000  1.0
  H  H24  1  0.45641000  0.70848000  0.33278000  1.0
  H  H25  1  0.54358000  0.29151000  0.66721000  1.0
  H  H26  1  0.40141000  0.78062000  0.46940000  1.0
  H  H27  1  0.59859000  0.21937000  0.53060000  1.0
  H  H28  1  0.86927000  0.90767000  0.41862000  1.0
  H  H29  1  0.13074000  0.09236000  0.58138000  1.0
  H  H30  1  0.71972000  0.03754000  0.43081000  1.0
  H  H31  1  0.28027000  0.96247000  0.56919000  1.0
  H  H32  1  0.93511000  0.33809000  0.07739000  1.0
  H  H33  1  0.06489000  0.66191000  0.92261000  1.0
  H  H34  1  0.11455000  0.23700000  0.08168000  1.0
  H  H35  1  0.88545000  0.76301000  0.91832000  1.0
  H  H36  1  0.16276000  0.03187000  0.98516000  1.0
  H  H37  1  0.83723000  0.96812000  0.01483000  1.0
  H  H38  1  0.18425000  0.92914000  0.84390000  1.0
  H  H39  1  0.81575000  0.07085000  0.15610000  1.0
  C  C40  1  0.46423000  0.39229000  0.11107000  1.0
  C  C41  1  0.53577000  0.60771000  0.88893000  1.0
  C  C42  1  0.39474000  0.47946000  0.11261000  1.0
  C  C43  1  0.60526000  0.52054000  0.88739000  1.0
  C  C44  1  0.31974000  0.48867000  0.03604000  1.0
  C  C45  1  0.68026000  0.51133000  0.96396000  1.0
  C  C46  1  0.31441000  0.41444000  0.95454000  1.0
  C  C47  1  0.68559000  0.58556000  0.04546000  1.0
  C  C48  1  0.79158000  0.36016000  0.38992000  1.0
  C  C49  1  0.20843000  0.63984000  0.61008000  1.0
  C  C50  1  0.87099000  0.28164000  0.38796000  1.0
  C  C51  1  0.12902000  0.71836000  0.61204000  1.0
  C  C52  1  0.95514000  0.28017000  0.46397000  1.0
  C  C53  1  0.04487000  0.71983000  0.53603000  1.0
  C  C54  1  0.96403000  0.35724000  0.54539000  1.0
  C  C55  1  0.03597000  0.64276000  0.45461000  1.0
  C  C56  1  0.60172000  0.63036000  0.39637000  1.0
  C  C57  1  0.39828000  0.36964000  0.60363000  1.0
  C  C58  1  0.50328000  0.69269000  0.39463000  1.0
  C  C59  1  0.49671000  0.30730000  0.60536000  1.0
  C  C60  1  0.47330000  0.73179000  0.46784000  1.0
  C  C61  1  0.52670000  0.26820000  0.53216000  1.0
  C  C62  1  0.53863000  0.70869000  0.54765000  1.0
  C  C63  1  0.46136000  0.29131000  0.45235000  1.0
  C  C64  1  0.77599000  0.83595000  0.27937000  1.0
  C  C65  1  0.22401000  0.16405000  0.72063000  1.0
  C  C66  1  0.79319000  0.91165000  0.36272000  1.0
  C  C67  1  0.20681000  0.08836000  0.63729000  1.0
  C  C68  1  0.71232000  0.98079000  0.36876000  1.0
  C  C69  1  0.28768000  0.01922000  0.63124000  1.0
  C  C70  1  0.61326000  0.98336000  0.29219000  1.0
  C  C71  1  0.38673000  0.01663000  0.70781000  1.0
  C  C72  1  0.00948000  0.41798000  0.21635000  1.0
  C  C73  1  0.99053000  0.58202000  0.78365000  1.0
  C  C74  1  0.01263000  0.34694000  0.13714000  1.0
  C  C75  1  0.98737000  0.65306000  0.86286000  1.0
  C  C76  1  0.10914000  0.29306000  0.13996000  1.0
  C  C77  1  0.89087000  0.70695000  0.86004000  1.0
  C  C78  1  0.20989000  0.30820000  0.22143000  1.0
  C  C79  1  0.79012000  0.69181000  0.77858000  1.0
  C  C80  1  0.31694000  0.97560000  0.06305000  1.0
  C  C81  1  0.68306000  0.02440000  0.93695000  1.0
  C  C82  1  0.23167000  0.98003000  0.98226000  1.0
  C  C83  1  0.76833000  0.01997000  0.01773000  1.0
  C  C84  1  0.24403000  0.92510000  0.90644000  1.0
  C  C85  1  0.75597000  0.07490000  0.09355000  1.0
  C  C86  1  0.34320000  0.86365000  0.90660000  1.0
  C  C87  1  0.65681000  0.13634000  0.09340000  1.0
  N  N88  1  0.44056000  0.31720000  0.03289000  1.0
  N  N89  1  0.55944000  0.68280000  0.96711000  1.0
  N  N90  1  0.36865000  0.32362000  0.95507000  1.0
  N  N91  1  0.63136000  0.67638000  0.04494000  1.0
  N  N92  1  0.80051000  0.42355000  0.46864000  1.0
  N  N93  1  0.19949000  0.57645000  0.53136000  1.0
  N  N94  1  0.88191000  0.42532000  0.54606000  1.0
  N  N95  1  0.11809000  0.57468000  0.45394000  1.0
  N  N96  1  0.66180000  0.60756000  0.47084000  1.0
  N  N97  1  0.33820000  0.39244000  0.52916000  1.0
  N  N98  1  0.62760000  0.64771000  0.54246000  1.0
  N  N99  1  0.37240000  0.35229000  0.45753000  1.0
  N  N100  1  0.67544000  0.83957000  0.21228000  1.0
  N  N101  1  0.32455000  0.16044000  0.78773000  1.0
  N  N102  1  0.59409000  0.90893000  0.21475000  1.0
  N  N103  1  0.40591000  0.09108000  0.78525000  1.0
  N  N104  1  0.10764000  0.42691000  0.28943000  1.0
  N  N105  1  0.89236000  0.57309000  0.71057000  1.0
  N  N106  1  0.20690000  0.37580000  0.29545000  1.0
  N  N107  1  0.79310000  0.62420000  0.70456000  1.0
  N  N108  1  0.39259000  0.90185000  0.05619000  1.0
  N  N109  1  0.60742000  0.09814000  0.94381000  1.0
  N  N110  1  0.41047000  0.84738000  0.98187000  1.0
  N  N111  1  0.58953000  0.15262000  0.01813000  1.0
  O  O112  1  0.54808000  0.38360000  0.17919000  1.0
  O  O113  1  0.45192000  0.61640000  0.82082000  1.0
  O  O114  1  0.26308000  0.43718000  0.88284000  1.0
  O  O115  1  0.73692000  0.56282000  0.11717000  1.0
  O  O116  1  0.71427000  0.37338000  0.32104000  1.0
  O  O117  1  0.28573000  0.62662000  0.67896000  1.0
  O  O118  1  0.05101000  0.36326000  0.61620000  1.0
  O  O119  1  0.94899000  0.63674000  0.38380000  1.0
  O  O120  1  0.63139000  0.59858000  0.32625000  1.0
  O  O121  1  0.36861000  0.40141000  0.67374000  1.0
  O  O122  1  0.51536000  0.74110000  0.61866000  1.0
  O  O123  1  0.48463000  0.25889000  0.38134000  1.0
  O  O124  1  0.84536000  0.76699000  0.26655000  1.0
  O  O125  1  0.15464000  0.23301000  0.73345000  1.0
  O  O126  1  0.54561000  0.05707000  0.29932000  1.0
  O  O127  1  0.45438000  0.94293000  0.70068000  1.0
  O  O128  1  0.92123000  0.46955000  0.21948000  1.0
  O  O129  1  0.07877000  0.53045000  0.78052000  1.0
  O  O130  1  0.30153000  0.25814000  0.22272000  1.0
  O  O131  1  0.69848000  0.74188000  0.77727000  1.0
  O  O132  1  0.32418000  0.03734000  0.13688000  1.0
  O  O133  1  0.67582000  0.96266000  0.86311000  1.0
  O  O134  1  0.36846000  0.82743000  0.83602000  1.0
  O  O135  1  0.63155000  0.17256000  0.16398000  1.0
