# generated using pymatgen
data_FeNiH18C30(N2O)4
_symmetry_space_group_name_H-M   'P 1'
_cell_length_a   6.93416000
_cell_length_b   13.46090000
_cell_length_c   15.62820000
_cell_angle_alpha   79.23200000
_cell_angle_beta   89.99970000
_cell_angle_gamma   89.99990000
_symmetry_Int_Tables_number   1
_chemical_formula_structural   FeNiH18C30(N2O)4
_chemical_formula_sum   'Fe2 Ni2 H36 C60 N16 O8'
_cell_volume   1433.05092523
_cell_formula_units_Z   2
loop_
 _symmetry_equiv_pos_site_id
 _symmetry_equiv_pos_as_xyz
  1  'x, y, z'
loop_
 _atom_site_type_symbol
 _atom_site_label
 _atom_site_symmetry_multiplicity
 _atom_site_fract_x
 _atom_site_fract_y
 _atom_site_fract_z
 _atom_site_occupancy
  Fe  Fe0  1  0.00000000  0.00000000  0.00000000  1.0
  Fe  Fe1  1  0.00000000  0.50000000  0.00000000  1.0
  Ni  Ni2  1  0.50000000  0.76056000  0.96462000  1.0
  Ni  Ni3  1  0.50000000  0.23945000  0.03538000  1.0
  H  H4  1  0.00000000  0.97169000  0.81866000  1.0
  H  H5  1  0.00000000  0.02831000  0.18134000  1.0
  H  H6  1  0.99999000  0.08103000  0.67084000  1.0
  H  H7  1  0.00003000  0.91897000  0.32916000  1.0
  H  H8  1  0.00000000  0.34020000  0.79820000  1.0
  H  H9  1  0.00002000  0.65980000  0.20181000  1.0
  H  H10  1  0.00001000  0.22138000  0.93930000  1.0
  H  H11  1  0.00000000  0.77862000  0.06070000  1.0
  H  H12  1  0.68826000  0.45453000  0.29701000  1.0
  H  H13  1  0.68829000  0.54547000  0.70299000  1.0
  H  H14  1  0.31172000  0.54546000  0.70299000  1.0
  H  H15  1  0.31169000  0.45453000  0.29702000  1.0
  H  H16  1  0.70101000  0.49020000  0.13528000  1.0
  H  H17  1  0.70103000  0.50981000  0.86472000  1.0
  H  H18  1  0.29898000  0.50980000  0.86473000  1.0
  H  H19  1  0.29897000  0.49019000  0.13528000  1.0
  H  H20  1  0.50001000  0.22089000  0.86230000  1.0
  H  H21  1  0.50001000  0.77910000  0.13769000  1.0
  H  H22  1  0.50000000  0.03237000  0.88481000  1.0
  H  H23  1  0.50001000  0.96762000  0.11518000  1.0
  H  H24  1  0.50000000  0.94722000  0.75701000  1.0
  H  H25  1  0.50001000  0.05278000  0.24297000  1.0
  H  H26  1  0.50000000  0.04933000  0.60610000  1.0
  H  H27  1  0.50000000  0.95068000  0.39389000  1.0
  H  H28  1  0.50000000  0.23825000  0.58444000  1.0
  H  H29  1  0.49999000  0.76175000  0.41555000  1.0
  H  H30  1  0.69067000  0.15936000  0.37552000  1.0
  H  H31  1  0.69066000  0.84063000  0.62449000  1.0
  H  H32  1  0.30933000  0.84064000  0.62449000  1.0
  H  H33  1  0.30934000  0.15936000  0.37551000  1.0
  H  H34  1  0.69010000  0.21743000  0.21213000  1.0
  H  H35  1  0.69010000  0.78257000  0.78787000  1.0
  H  H36  1  0.30990000  0.78257000  0.78787000  1.0
  H  H37  1  0.30990000  0.21743000  0.21213000  1.0
  H  H38  1  0.00000000  0.24572000  0.13269000  1.0
  H  H39  1  0.00000000  0.75428000  0.86731000  1.0
  C  C40  1  0.68687000  0.85774000  0.95905000  1.0
  C  C41  1  0.68687000  0.14227000  0.04095000  1.0
  C  C42  1  0.31312000  0.14227000  0.04095000  1.0
  C  C43  1  0.31313000  0.85774000  0.95905000  1.0
  C  C44  1  0.68738000  0.33725000  0.02102000  1.0
  C  C45  1  0.68738000  0.66276000  0.97897000  1.0
  C  C46  1  0.31261000  0.66276000  0.97898000  1.0
  C  C47  1  0.31261000  0.33725000  0.02102000  1.0
  C  C48  1  0.00000000  0.05368000  0.81088000  1.0
  C  C49  1  0.00001000  0.94631000  0.18912000  1.0
  C  C50  1  0.00000000  0.11452000  0.72903000  1.0
  C  C51  1  0.00002000  0.88548000  0.27097000  1.0
  C  C52  1  0.00000000  0.22057000  0.72182000  1.0
  C  C53  1  0.00003000  0.77942000  0.27819000  1.0
  C  C54  1  0.00000000  0.25912000  0.79956000  1.0
  C  C55  1  0.00001000  0.74088000  0.20044000  1.0
  C  C56  1  0.00000000  0.19292000  0.87871000  1.0
  C  C57  1  0.00001000  0.80708000  0.12129000  1.0
  C  C58  1  0.99999000  0.28432000  0.63940000  1.0
  C  C59  1  0.00004000  0.71569000  0.36060000  1.0
  C  C60  1  0.99999000  0.33413000  0.56516000  1.0
  C  C61  1  0.00002000  0.66586000  0.43485000  1.0
  C  C62  1  0.99999000  0.38052000  0.48112000  1.0
  C  C63  1  0.00003000  0.61947000  0.51890000  1.0
  C  C64  1  0.99998000  0.41533000  0.40269000  1.0
  C  C65  1  0.00001000  0.58467000  0.59730000  1.0
  C  C66  1  0.99998000  0.44573000  0.31157000  1.0
  C  C67  1  0.00001000  0.55427000  0.68843000  1.0
  C  C68  1  0.82658000  0.45943000  0.26370000  1.0
  C  C69  1  0.82661000  0.54056000  0.73630000  1.0
  C  C70  1  0.17341000  0.54056000  0.73630000  1.0
  C  C71  1  0.17338000  0.45943000  0.26371000  1.0
  C  C72  1  0.83272000  0.47973000  0.17356000  1.0
  C  C73  1  0.83274000  0.52027000  0.82644000  1.0
  C  C74  1  0.16727000  0.52027000  0.82644000  1.0
  C  C75  1  0.16725000  0.47973000  0.17356000  1.0
  C  C76  1  0.50000000  0.23749000  0.72241000  1.0
  C  C77  1  0.50000000  0.76251000  0.27759000  1.0
  C  C78  1  0.50000000  0.18179000  0.80731000  1.0
  C  C79  1  0.50000000  0.81821000  0.19268000  1.0
  C  C80  1  0.50000000  0.07695000  0.81921000  1.0
  C  C81  1  0.50001000  0.92304000  0.18078000  1.0
  C  C82  1  0.50000000  0.02955000  0.74683000  1.0
  C  C83  1  0.50001000  0.97045000  0.25317000  1.0
  C  C84  1  0.50000000  0.08643000  0.66234000  1.0
  C  C85  1  0.50000000  0.91357000  0.33765000  1.0
  C  C86  1  0.50000000  0.19171000  0.64931000  1.0
  C  C87  1  0.50000000  0.80828000  0.35068000  1.0
  C  C88  1  0.00001000  0.15714000  0.38184000  1.0
  C  C89  1  0.99999000  0.84286000  0.61817000  1.0
  C  C90  1  0.82375000  0.17245000  0.33823000  1.0
  C  C91  1  0.82374000  0.82754000  0.66178000  1.0
  C  C92  1  0.17624000  0.82754000  0.66178000  1.0
  C  C93  1  0.17625000  0.17245000  0.33822000  1.0
  C  C94  1  0.82529000  0.20446000  0.24817000  1.0
  C  C95  1  0.82529000  0.79554000  0.75184000  1.0
  C  C96  1  0.17471000  0.79554000  0.75183000  1.0
  C  C97  1  0.17471000  0.20446000  0.24817000  1.0
  C  C98  1  0.00000000  0.22047000  0.20306000  1.0
  C  C99  1  1.00000000  0.77953000  0.79694000  1.0
  N  N100  1  0.80668000  0.91721000  0.96590000  1.0
  N  N101  1  0.80668000  0.08279000  0.03410000  1.0
  N  N102  1  0.19332000  0.08279000  0.03411000  1.0
  N  N103  1  0.19332000  0.91721000  0.96590000  1.0
  N  N104  1  0.00000000  0.09126000  0.88522000  1.0
  N  N105  1  0.00000000  0.90874000  0.11478000  1.0
  N  N106  1  0.99999000  0.48709000  0.12807000  1.0
  N  N107  1  0.00000000  0.51291000  0.87193000  1.0
  N  N108  1  0.80792000  0.39943000  0.01062000  1.0
  N  N109  1  0.80792000  0.60058000  0.98938000  1.0
  N  N110  1  0.19207000  0.60058000  0.98938000  1.0
  N  N111  1  0.19207000  0.39943000  0.01062000  1.0
  N  N112  1  0.50000000  0.34785000  0.71093000  1.0
  N  N113  1  0.49999000  0.65216000  0.28907000  1.0
  N  N114  1  0.00000000  0.12442000  0.47678000  1.0
  N  N115  1  0.99998000  0.87558000  0.52322000  1.0
  O  O116  1  0.50000000  0.39889000  0.63591000  1.0
  O  O117  1  0.50001000  0.60111000  0.36409000  1.0
  O  O118  1  0.50001000  0.38566000  0.77799000  1.0
  O  O119  1  0.49996000  0.61434000  0.22201000  1.0
  O  O120  1  0.84193000  0.11131000  0.51472000  1.0
  O  O121  1  0.84190000  0.88867000  0.48528000  1.0
  O  O122  1  0.15808000  0.88869000  0.48528000  1.0
  O  O123  1  0.15810000  0.11133000  0.51472000  1.0
