# generated using pymatgen
data_CoH16C10(NO)6
_symmetry_space_group_name_H-M   'P 1'
_cell_length_a   7.47787000
_cell_length_b   7.99884000
_cell_length_c   13.68860000
_cell_angle_alpha   89.98580000
_cell_angle_beta   89.98590000
_cell_angle_gamma   68.35500000
_symmetry_Int_Tables_number   1
_chemical_formula_structural   CoH16C10(NO)6
_chemical_formula_sum   'Co2 H32 C20 N12 O12'
_cell_volume   761.03965904
_cell_formula_units_Z   2
loop_
 _symmetry_equiv_pos_site_id
 _symmetry_equiv_pos_as_xyz
  1  'x, y, z'
loop_
 _atom_site_type_symbol
 _atom_site_label
 _atom_site_symmetry_multiplicity
 _atom_site_fract_x
 _atom_site_fract_y
 _atom_site_fract_z
 _atom_site_occupancy
  Co  Co0  1  0.99999000  0.50000000  0.50000000  1.0
  Co  Co1  1  0.50001000  0.50000000  0.00001000  1.0
  H  H2  1  0.47589000  0.66356000  0.75829000  1.0
  H  H3  1  0.02407000  0.33644000  0.25831000  1.0
  H  H4  1  0.52412000  0.33645000  0.24171000  1.0
  H  H5  1  0.97591000  0.66357000  0.74169000  1.0
  H  H6  1  0.50262000  0.16801000  0.87371000  1.0
  H  H7  1  0.99744000  0.83203000  0.37363000  1.0
  H  H8  1  0.49740000  0.83198000  0.12629000  1.0
  H  H9  1  0.00256000  0.16798000  0.62637000  1.0
  H  H10  1  0.36018000  0.17306000  0.61046000  1.0
  H  H11  1  0.13991000  0.82694000  0.11045000  1.0
  H  H12  1  0.63981000  0.82695000  0.38955000  1.0
  H  H13  1  0.86010000  0.17304000  0.88955000  1.0
  H  H14  1  0.44444000  0.02677000  0.71157000  1.0
  H  H15  1  0.05555000  0.97319000  0.21157000  1.0
  H  H16  1  0.55555000  0.97324000  0.28843000  1.0
  H  H17  1  0.94447000  0.02680000  0.78842000  1.0
  H  H18  1  0.78469000  0.02052000  0.67184000  1.0
  H  H19  1  0.71533000  0.97944000  0.17185000  1.0
  H  H20  1  0.21531000  0.97946000  0.32816000  1.0
  H  H21  1  0.28469000  0.02056000  0.82816000  1.0
  H  H22  1  0.69278000  0.11912000  0.55810000  1.0
  H  H23  1  0.80730000  0.88090000  0.05808000  1.0
  H  H24  1  0.30722000  0.88086000  0.44190000  1.0
  H  H25  1  0.19270000  0.11911000  0.94193000  1.0
  H  H26  1  0.65442000  0.57919000  0.53793000  1.0
  H  H27  1  0.84552000  0.42090000  0.03793000  1.0
  H  H28  1  0.34554000  0.42083000  0.46207000  1.0
  H  H29  1  0.15449000  0.57909000  0.96208000  1.0
  H  H30  1  0.66138000  0.49503000  0.43191000  1.0
  H  H31  1  0.83859000  0.50501000  0.93187000  1.0
  H  H32  1  0.33860000  0.50499000  0.56809000  1.0
  H  H33  1  0.16142000  0.49497000  0.06813000  1.0
  C  C34  1  0.47512000  0.52882000  0.76515000  1.0
  C  C35  1  0.02478000  0.47123000  0.26524000  1.0
  C  C36  1  0.52489000  0.47119000  0.23485000  1.0
  C  C37  1  0.97520000  0.52878000  0.73476000  1.0
  C  C38  1  0.49012000  0.27768000  0.82426000  1.0
  C  C39  1  0.00993000  0.72232000  0.32426000  1.0
  C  C40  1  0.50989000  0.72231000  0.17574000  1.0
  C  C41  1  0.99006000  0.27768000  0.67574000  1.0
  C  C42  1  0.47499000  0.12454000  0.66506000  1.0
  C  C43  1  0.02502000  0.87551000  0.16502000  1.0
  C  C44  1  0.52501000  0.87547000  0.33494000  1.0
  C  C45  1  0.97500000  0.12448000  0.83498000  1.0
  C  C46  1  0.67145000  0.03585000  0.61738000  1.0
  C  C47  1  0.82859000  0.96414000  0.11737000  1.0
  C  C48  1  0.32855000  0.96415000  0.38262000  1.0
  C  C49  1  0.17143000  0.03587000  0.88264000  1.0
  C  C50  1  0.70625000  0.84717000  0.57917000  1.0
  C  C51  1  0.79374000  0.15285000  0.07918000  1.0
  C  C52  1  0.29371000  0.15284000  0.42083000  1.0
  C  C53  1  0.20629000  0.84714000  0.92082000  1.0
  N  N54  1  0.46720000  0.27540000  0.72687000  1.0
  N  N55  1  0.03280000  0.72460000  0.22687000  1.0
  N  N56  1  0.53280000  0.72461000  0.27312000  1.0
  N  N57  1  0.96720000  0.27540000  0.77313000  1.0
  N  N58  1  0.45783000  0.43519000  0.68789000  1.0
  N  N59  1  0.04213000  0.56483000  0.18795000  1.0
  N  N60  1  0.54217000  0.56482000  0.31210000  1.0
  N  N61  1  0.95789000  0.43516000  0.81205000  1.0
  N  N62  1  0.49555000  0.43653000  0.85085000  1.0
  N  N63  1  0.00444000  0.56350000  0.35092000  1.0
  N  N64  1  0.50446000  0.56345000  0.14915000  1.0
  N  N65  1  0.99555000  0.43651000  0.64908000  1.0
  O  O66  1  0.86403000  0.77386000  0.53200000  1.0
  O  O67  1  0.63598000  0.22611000  0.03202000  1.0
  O  O68  1  0.13594000  0.22614000  0.46800000  1.0
  O  O69  1  0.36404000  0.77390000  0.96800000  1.0
  O  O70  1  0.58387000  0.77651000  0.59752000  1.0
  O  O71  1  0.91604000  0.22356000  0.09756000  1.0
  O  O72  1  0.41609000  0.22349000  0.40248000  1.0
  O  O73  1  0.08399000  0.77642000  0.90245000  1.0
  O  O74  1  0.72966000  0.47349000  0.49558000  1.0
  O  O75  1  0.77027000  0.52656000  0.99555000  1.0
  O  O76  1  0.27031000  0.52652000  0.50442000  1.0
  O  O77  1  0.22975000  0.47343000  0.00446000  1.0
