# generated using pymatgen
data_KH15(C5O4)2
_symmetry_space_group_name_H-M   'P 1'
_cell_length_a   9.39826000
_cell_length_b   11.14760000
_cell_length_c   12.78200000
_cell_angle_alpha   90.00000000
_cell_angle_beta   90.00000000
_cell_angle_gamma   93.34200000
_symmetry_Int_Tables_number   1
_chemical_formula_structural   KH15(C5O4)2
_chemical_formula_sum   'K4 H60 C40 O32'
_cell_volume   1336.86771306
_cell_formula_units_Z   4
loop_
 _symmetry_equiv_pos_site_id
 _symmetry_equiv_pos_as_xyz
  1  'x, y, z'
loop_
 _atom_site_type_symbol
 _atom_site_label
 _atom_site_symmetry_multiplicity
 _atom_site_fract_x
 _atom_site_fract_y
 _atom_site_fract_z
 _atom_site_occupancy
  K  K0  1  0.56446000  0.88182000  0.58039000  1.0
  K  K1  1  0.93554000  0.11818000  0.08039000  1.0
  K  K2  1  0.43554000  0.11818000  0.41961000  1.0
  K  K3  1  0.06446000  0.88182000  0.91961000  1.0
  H  H4  1  0.20923000  0.33557000  0.45573000  1.0
  H  H5  1  0.29077000  0.66443000  0.95573000  1.0
  H  H6  1  0.79077000  0.66443000  0.54427000  1.0
  H  H7  1  0.70923000  0.33557000  0.04427000  1.0
  H  H8  1  0.74547000  0.85819000  0.79887000  1.0
  H  H9  1  0.75453000  0.14181000  0.29887000  1.0
  H  H10  1  0.25453000  0.14181000  0.20113000  1.0
  H  H11  1  0.24547000  0.85819000  0.70113000  1.0
  H  H12  1  0.09053000  0.33209000  0.91658000  1.0
  H  H13  1  0.40947000  0.66791000  0.41658000  1.0
  H  H14  1  0.90947000  0.66791000  0.08342000  1.0
  H  H15  1  0.59053000  0.33209000  0.58342000  1.0
  H  H16  1  0.43571000  0.55575000  0.86645000  1.0
  H  H17  1  0.06429000  0.44425000  0.36645000  1.0
  H  H18  1  0.56429000  0.44425000  0.13355000  1.0
  H  H19  1  0.93571000  0.55575000  0.63355000  1.0
  H  H20  1  0.57044000  0.65824000  0.81880000  1.0
  H  H21  1  0.92956000  0.34176000  0.31881000  1.0
  H  H22  1  0.42956000  0.34176000  0.18119000  1.0
  H  H23  1  0.07044000  0.65824000  0.68119000  1.0
  H  H24  1  0.52181000  0.59521000  0.63580000  1.0
  H  H25  1  0.97818000  0.40479000  0.13580000  1.0
  H  H26  1  0.47818000  0.40478000  0.36420000  1.0
  H  H27  1  0.02181000  0.59522000  0.86420000  1.0
  H  H28  1  0.55304000  0.46909000  0.71399000  1.0
  H  H29  1  0.94696000  0.53091000  0.21399000  1.0
  H  H30  1  0.44696000  0.53091000  0.28601000  1.0
  H  H31  1  0.05304000  0.46909000  0.78601000  1.0
  H  H32  1  0.25773000  0.55202000  0.65200000  1.0
  H  H33  1  0.24227000  0.44798000  0.15200000  1.0
  H  H34  1  0.74227000  0.44798000  0.34800000  1.0
  H  H35  1  0.75773000  0.55202000  0.84800000  1.0
  H  H36  1  0.28584000  0.42759000  0.73246000  1.0
  H  H37  1  0.21416000  0.57241000  0.23246000  1.0
  H  H38  1  0.71416000  0.57241000  0.26754000  1.0
  H  H39  1  0.78584000  0.42759000  0.76754000  1.0
  H  H40  1  0.40873000  0.26156000  0.79054000  1.0
  H  H41  1  0.09127000  0.73844000  0.29054000  1.0
  H  H42  1  0.59127000  0.73844000  0.20946000  1.0
  H  H43  1  0.90872000  0.26156000  0.70946000  1.0
  H  H44  1  0.45932000  0.29258000  0.91973000  1.0
  H  H45  1  0.04068000  0.70742000  0.41973000  1.0
  H  H46  1  0.54068000  0.70742000  0.08027000  1.0
  H  H47  1  0.95932000  0.29258000  0.58027000  1.0
  H  H48  1  0.45695000  0.06675000  0.95483000  1.0
  H  H49  1  0.04305000  0.93325000  0.45484000  1.0
  H  H50  1  0.54305000  0.93325000  0.04516000  1.0
  H  H51  1  0.95695000  0.06675000  0.54516000  1.0
  H  H52  1  0.41933000  0.03994000  0.82107000  1.0
  H  H53  1  0.08067000  0.96006000  0.32107000  1.0
  H  H54  1  0.58067000  0.96006000  0.17893000  1.0
  H  H55  1  0.91933000  0.03994000  0.67893000  1.0
  H  H56  1  0.67818000  0.19270000  0.90444000  1.0
  H  H57  1  0.82182000  0.80730000  0.40444000  1.0
  H  H58  1  0.32182000  0.80730000  0.09556000  1.0
  H  H59  1  0.17818000  0.19270000  0.59556000  1.0
  H  H60  1  0.63677000  0.16775000  0.77140000  1.0
  H  H61  1  0.86323000  0.83225000  0.27140000  1.0
  H  H62  1  0.36323000  0.83225000  0.22860000  1.0
  H  H63  1  0.13677000  0.16774000  0.72860000  1.0
  C  C64  1  0.36272000  0.71326000  0.79093000  1.0
  C  C65  1  0.13728000  0.28674000  0.29093000  1.0
  C  C66  1  0.63728000  0.28674000  0.20907000  1.0
  C  C67  1  0.86272000  0.71326000  0.70907000  1.0
  C  C68  1  0.46595000  0.61362000  0.79951000  1.0
  C  C69  1  0.03405000  0.38638000  0.29951000  1.0
  C  C70  1  0.53405000  0.38638000  0.20049000  1.0
  C  C71  1  0.96595000  0.61362000  0.70049000  1.0
  C  C72  1  0.47775000  0.53896000  0.69982000  1.0
  C  C73  1  0.02225000  0.46104000  0.19983000  1.0
  C  C74  1  0.52225000  0.46104000  0.30017000  1.0
  C  C75  1  0.97775000  0.53896000  0.80017000  1.0
  C  C76  1  0.33265000  0.48230000  0.66760000  1.0
  C  C77  1  0.16735000  0.51770000  0.16760000  1.0
  C  C78  1  0.66735000  0.51770000  0.33240000  1.0
  C  C79  1  0.83265000  0.48230000  0.83240000  1.0
  C  C80  1  0.33042000  0.40152000  0.57321000  1.0
  C  C81  1  0.16958000  0.59848000  0.07321000  1.0
  C  C82  1  0.66958000  0.59848000  0.42679000  1.0
  C  C83  1  0.83042000  0.40152000  0.92679000  1.0
  C  C84  1  0.24650000  0.22281000  0.90269000  1.0
  C  C85  1  0.25350000  0.77719000  0.40269000  1.0
  C  C86  1  0.75350000  0.77719000  0.09731000  1.0
  C  C87  1  0.74650000  0.22281000  0.59731000  1.0
  C  C88  1  0.40102000  0.22485000  0.87063000  1.0
  C  C89  1  0.09898000  0.77515000  0.37063000  1.0
  C  C90  1  0.59898000  0.77515000  0.12937000  1.0
  C  C91  1  0.90102000  0.22485000  0.62937000  1.0
  C  C92  1  0.47040000  0.10478000  0.87594000  1.0
  C  C93  1  0.02960000  0.89522000  0.37594000  1.0
  C  C94  1  0.52960000  0.89522000  0.12406000  1.0
  C  C95  1  0.97040000  0.10477000  0.62406000  1.0
  C  C96  1  0.62844000  0.12709000  0.84995000  1.0
  C  C97  1  0.87156000  0.87291000  0.34994000  1.0
  C  C98  1  0.37156000  0.87291000  0.15005000  1.0
  C  C99  1  0.12844000  0.12709000  0.65005000  1.0
  C  C100  1  0.72235000  0.02208000  0.84761000  1.0
  C  C101  1  0.77765000  0.97792000  0.34761000  1.0
  C  C102  1  0.27765000  0.97792000  0.15239000  1.0
  C  C103  1  0.22235000  0.02208000  0.65239000  1.0
  O  O104  1  0.66739000  0.92342000  0.80114000  1.0
  O  O105  1  0.83262000  0.07658000  0.30114000  1.0
  O  O106  1  0.33261000  0.07658000  0.19886000  1.0
  O  O107  1  0.16739000  0.92342000  0.69886000  1.0
  O  O108  1  0.35143000  0.76621000  0.70349000  1.0
  O  O109  1  0.14857000  0.23379000  0.20349000  1.0
  O  O110  1  0.64857000  0.23379000  0.29651000  1.0
  O  O111  1  0.85143000  0.76621000  0.79651000  1.0
  O  O112  1  0.29101000  0.74144000  0.87170000  1.0
  O  O113  1  0.20899000  0.25856000  0.37171000  1.0
  O  O114  1  0.70899000  0.25856000  0.12830000  1.0
  O  O115  1  0.79101000  0.74144000  0.62829000  1.0
  O  O116  1  0.20870000  0.39664000  0.52288000  1.0
  O  O117  1  0.29130000  0.60336000  0.02288000  1.0
  O  O118  1  0.79130000  0.60336000  0.47712000  1.0
  O  O119  1  0.70870000  0.39664000  0.97712000  1.0
  O  O120  1  0.43186000  0.34047000  0.54588000  1.0
  O  O121  1  0.06814000  0.65953000  0.04588000  1.0
  O  O122  1  0.56814000  0.65953000  0.45412000  1.0
  O  O123  1  0.93186000  0.34047000  0.95411000  1.0
  O  O124  1  0.19589000  0.33235000  0.89666000  1.0
  O  O125  1  0.30411000  0.66765000  0.39666000  1.0
  O  O126  1  0.80411000  0.66765000  0.10334000  1.0
  O  O127  1  0.69589000  0.33235000  0.60334000  1.0
  O  O128  1  0.17455000  0.13223000  0.92997000  1.0
  O  O129  1  0.32545000  0.86777000  0.42997000  1.0
  O  O130  1  0.82545000  0.86777000  0.07003000  1.0
  O  O131  1  0.67455000  0.13223000  0.57003000  1.0
  O  O132  1  0.84521000  0.03122000  0.88297000  1.0
  O  O133  1  0.65479000  0.96878000  0.38297000  1.0
  O  O134  1  0.15479000  0.96878000  0.11703000  1.0
  O  O135  1  0.34521000  0.03122000  0.61703000  1.0
