# generated using pymatgen
data_CuH12(C8O3)2
_symmetry_space_group_name_H-M   'P 1'
_cell_length_a   4.85925000
_cell_length_b   9.56524000
_cell_length_c   15.59080000
_cell_angle_alpha   103.10200000
_cell_angle_beta   89.99800000
_cell_angle_gamma   89.99790000
_symmetry_Int_Tables_number   1
_chemical_formula_structural   CuH12(C8O3)2
_chemical_formula_sum   'Cu2 H24 C32 O12'
_cell_volume   705.79443078
_cell_formula_units_Z   2
loop_
 _symmetry_equiv_pos_site_id
 _symmetry_equiv_pos_as_xyz
  1  'x, y, z'
loop_
 _atom_site_type_symbol
 _atom_site_label
 _atom_site_symmetry_multiplicity
 _atom_site_fract_x
 _atom_site_fract_y
 _atom_site_fract_z
 _atom_site_occupancy
  Cu  Cu0  1  0.49996000  0.50004000  0.49999000  1.0
  Cu  Cu1  1  0.99998000  0.00002000  0.49999000  1.0
  H  H2  1  0.23205000  0.79996000  0.62334000  1.0
  H  H3  1  0.73189000  0.70019000  0.37669000  1.0
  H  H4  1  0.76799000  0.20013000  0.37671000  1.0
  H  H5  1  0.26801000  0.29993000  0.62334000  1.0
  H  H6  1  0.13259000  0.91939000  0.76779000  1.0
  H  H7  1  0.63250000  0.58063000  0.23222000  1.0
  H  H8  1  0.86750000  0.08058000  0.23223000  1.0
  H  H9  1  0.36746000  0.41934000  0.76778000  1.0
  H  H10  1  0.21056000  0.96173000  0.92933000  1.0
  H  H11  1  0.71058000  0.53824000  0.07067000  1.0
  H  H12  1  0.78950000  0.03820000  0.07069000  1.0
  H  H13  1  0.28945000  0.46168000  0.92932000  1.0
  H  H14  1  0.55230000  0.81145000  0.98816000  1.0
  H  H15  1  0.05230000  0.68852000  0.01184000  1.0
  H  H16  1  0.44777000  0.18846000  0.01185000  1.0
  H  H17  1  0.94771000  0.31142000  0.98816000  1.0
  H  H18  1  0.81072000  0.61927000  0.88457000  1.0
  H  H19  1  0.31069000  0.88070000  0.11542000  1.0
  H  H20  1  0.18938000  0.38067000  0.11542000  1.0
  H  H21  1  0.68935000  0.11925000  0.88458000  1.0
  H  H22  1  0.73080000  0.57764000  0.72381000  1.0
  H  H23  1  0.23066000  0.92236000  0.27618000  1.0
  H  H24  1  0.26929000  0.42234000  0.27618000  1.0
  H  H25  1  0.76926000  0.07761000  0.72382000  1.0
  C  C26  1  0.65280000  0.75961000  0.59276000  1.0
  C  C27  1  0.15266000  0.74046000  0.40722000  1.0
  C  C28  1  0.34719000  0.24046000  0.40724000  1.0
  C  C29  1  0.84724000  0.25961000  0.59277000  1.0
  C  C30  1  0.38999000  0.72463000  0.63799000  1.0
  C  C31  1  0.88985000  0.77547000  0.36201000  1.0
  C  C32  1  0.61003000  0.27542000  0.36202000  1.0
  C  C33  1  0.11004000  0.22460000  0.63799000  1.0
  C  C34  1  0.42662000  0.74659000  0.73616000  1.0
  C  C35  1  0.92651000  0.75346000  0.26384000  1.0
  C  C36  1  0.57343000  0.25340000  0.26383000  1.0
  C  C37  1  0.07342000  0.24656000  0.73617000  1.0
  C  C38  1  0.28037000  0.85421000  0.79406000  1.0
  C  C39  1  0.78028000  0.64581000  0.20595000  1.0
  C  C40  1  0.71972000  0.14575000  0.20596000  1.0
  C  C41  1  0.21967000  0.35417000  0.79406000  1.0
  C  C42  1  0.32578000  0.87784000  0.88458000  1.0
  C  C43  1  0.82574000  0.62216000  0.11542000  1.0
  C  C44  1  0.67428000  0.12210000  0.11543000  1.0
  C  C45  1  0.17424000  0.37780000  0.88458000  1.0
  C  C46  1  0.51620000  0.79344000  0.91749000  1.0
  C  C47  1  0.01618000  0.70653000  0.08252000  1.0
  C  C48  1  0.48389000  0.20647000  0.08252000  1.0
  C  C49  1  0.98384000  0.29341000  0.91749000  1.0
  C  C50  1  0.66132000  0.68539000  0.85964000  1.0
  C  C51  1  0.16127000  0.81461000  0.14035000  1.0
  C  C52  1  0.33875000  0.31455000  0.14034000  1.0
  C  C53  1  0.83872000  0.18537000  0.85965000  1.0
  C  C54  1  0.61746000  0.66158000  0.76922000  1.0
  C  C55  1  0.11732000  0.83844000  0.23078000  1.0
  C  C56  1  0.38263000  0.33839000  0.23077000  1.0
  C  C57  1  0.88259000  0.16154000  0.76922000  1.0
  O  O58  1  0.30933000  0.58340000  0.60019000  1.0
  O  O59  1  0.80932000  0.91672000  0.39980000  1.0
  O  O60  1  0.69060000  0.41670000  0.39978000  1.0
  O  O61  1  0.19069000  0.08336000  0.60017000  1.0
  O  O62  1  0.73412000  0.65828000  0.52642000  1.0
  O  O63  1  0.23410000  0.84176000  0.47353000  1.0
  O  O64  1  0.26580000  0.34180000  0.47355000  1.0
  O  O65  1  0.76584000  0.15828000  0.52646000  1.0
  O  O66  1  0.78018000  0.87327000  0.61652000  1.0
  O  O67  1  0.28006000  0.62674000  0.38344000  1.0
  O  O68  1  0.21982000  0.12676000  0.38349000  1.0
  O  O69  1  0.71986000  0.37332000  0.61653000  1.0
