# generated using pymatgen
data_Zr2H8C19(O7F)2
_symmetry_space_group_name_H-M   'P 1'
_cell_length_a   14.74640583
_cell_length_b   14.75098192
_cell_length_c   14.75070000
_cell_angle_alpha   119.92930604
_cell_angle_beta   119.94326134
_cell_angle_gamma   60.35712145
_symmetry_Int_Tables_number   1
_chemical_formula_structural   Zr2H8C19(O7F)2
_chemical_formula_sum   'Zr6 H24 C57 O42 F6'
_cell_volume   2277.10485652
_cell_formula_units_Z   3
loop_
 _symmetry_equiv_pos_site_id
 _symmetry_equiv_pos_as_xyz
  1  'x, y, z'
loop_
 _atom_site_type_symbol
 _atom_site_label
 _atom_site_symmetry_multiplicity
 _atom_site_fract_x
 _atom_site_fract_y
 _atom_site_fract_z
 _atom_site_occupancy
  Zr  Zr0  1  0.37671000  0.11521000  0.62083000  1.0
  Zr  Zr1  1  0.61540000  0.87855000  0.38121000  1.0
  Zr  Zr2  1  0.37695000  0.11652000  0.38192000  1.0
  Zr  Zr3  1  0.61571000  0.87739000  0.62095000  1.0
  Zr  Zr4  1  0.61627000  0.11687000  0.62162000  1.0
  Zr  Zr5  1  0.37646000  0.87616000  0.38150000  1.0
  H  H6  1  0.40326000  0.27846000  0.59602000  1.0
  H  H7  1  0.77792000  0.90598000  0.59610000  1.0
  H  H8  1  0.40189000  0.90187000  0.21827000  1.0
  H  H9  1  0.40152000  0.90062000  0.59371000  1.0
  H  H10  1  0.35819000  0.40361000  0.92509000  1.0
  H  H11  1  0.65421000  0.39718000  0.92808000  1.0
  H  H12  1  0.36107000  0.57294000  0.09556000  1.0
  H  H13  1  0.08101000  0.14264000  0.64572000  1.0
  H  H14  1  0.06265000  0.86975000  0.33765000  1.0
  H  H15  1  0.90877000  0.14451000  0.64311000  1.0
  H  H16  1  0.90691000  0.14898000  0.92410000  1.0
  H  H17  1  0.89793000  0.86256000  0.92465000  1.0
  H  H18  1  0.07534000  0.14820000  0.09562000  1.0
  H  H19  1  0.36526000  0.56559000  0.34174000  1.0
  H  H20  1  0.65033000  0.57582000  0.63878000  1.0
  H  H21  1  0.36812000  0.39503000  0.34292000  1.0
  H  H22  1  0.64190000  0.85211000  0.91844000  1.0
  H  H23  1  0.36054000  0.14978000  0.92236000  1.0
  H  H24  1  0.64134000  0.85693000  0.09016000  1.0
  H  H25  1  0.60341000  0.68038000  0.04285000  1.0
  H  H26  1  0.95894000  0.74040000  0.36955000  1.0
  H  H27  1  0.20045000  0.75588000  0.05914000  1.0
  H  H28  1  0.57990000  0.46252000  0.74630000  1.0
  H  H29  1  0.24582000  0.09191000  0.04270000  1.0
  C  C30  1  0.50090000  0.29494000  0.81074000  1.0
  C  C31  1  0.79396000  0.00455000  0.49621000  1.0
  C  C32  1  0.50151000  0.68669000  0.20236000  1.0
  C  C33  1  0.18779000  0.00032000  0.49634000  1.0
  C  C34  1  0.19401000  0.30011000  0.50150000  1.0
  C  C35  1  0.49916000  0.99837000  0.80752000  1.0
  C  C36  1  0.80045000  0.69636000  0.50214000  1.0
  C  C37  1  0.49793000  0.00002000  0.19917000  1.0
  C  C38  1  0.50204000  0.29558000  0.49629000  1.0
  C  C39  1  0.18699000  0.00175000  0.20190000  1.0
  C  C40  1  0.50273000  0.68619000  0.49480000  1.0
  C  C41  1  0.79522000  0.00226000  0.81023000  1.0
  C  C42  1  0.50681000  0.58207000  0.10510000  1.0
  C  C43  1  0.50431000  0.39289000  0.91509000  1.0
  C  C44  1  0.59187000  0.53152000  0.05973000  1.0
  C  C45  1  0.42232000  0.44072000  0.96281000  1.0
  C  C46  1  0.58947000  0.43724000  0.96461000  1.0
  C  C47  1  0.42394000  0.53458000  0.05707000  1.0
  C  C48  1  0.89240000  0.00546000  0.49201000  1.0
  C  C49  1  0.08400000  0.00347000  0.49404000  1.0
  C  C50  1  0.93436000  0.92846000  0.40402000  1.0
  C  C51  1  0.03996000  0.08245000  0.57935000  1.0
  C  C52  1  0.03055000  0.92754000  0.40605000  1.0
  C  C53  1  0.94485000  0.08314000  0.57821000  1.0
  C  C54  1  0.08419000  0.00185000  0.10266000  1.0
  C  C55  1  0.89456000  0.00399000  0.91326000  1.0
  C  C56  1  0.03410000  0.92072000  0.05550000  1.0
  C  C57  1  0.94331000  0.08560000  0.96136000  1.0
  C  C58  1  0.93896000  0.92328000  0.96133000  1.0
  C  C59  1  0.03701000  0.08460000  0.05582000  1.0
  C  C60  1  0.50683000  0.39338000  0.49469000  1.0
  C  C61  1  0.50601000  0.58204000  0.49204000  1.0
  C  C62  1  0.58878000  0.44264000  0.57796000  1.0
  C  C63  1  0.42688000  0.53089000  0.40758000  1.0
  C  C64  1  0.58771000  0.53662000  0.57552000  1.0
  C  C65  1  0.42781000  0.43690000  0.40891000  1.0
  C  C66  1  0.09801000  0.40710000  0.50563000  1.0
  C  C67  1  0.11017000  0.51274000  0.57872000  1.0
  C  C68  1  0.99393000  0.40084000  0.43565000  1.0
  C  C69  1  0.21432000  0.52718000  0.65198000  1.0
  C  C70  1  0.22540000  0.62913000  0.72473000  1.0
  C  C71  1  0.90686000  0.59969000  0.50592000  1.0
  C  C72  1  0.89911000  0.49611000  0.43610000  1.0
  C  C73  1  0.01306000  0.61060000  0.57873000  1.0
  C  C74  1  0.02850000  0.71432000  0.65222000  1.0
  C  C75  1  0.13088000  0.72441000  0.72510000  1.0
  C  C76  1  0.49667000  0.00186000  0.09849000  1.0
  C  C77  1  0.49945000  0.99944000  0.90932000  1.0
  C  C78  1  0.41744000  0.08664000  0.05276000  1.0
  C  C79  1  0.57888000  0.91639000  0.95586000  1.0
  C  C80  1  0.41996000  0.08459000  0.95839000  1.0
  C  C81  1  0.57738000  0.91800000  0.05003000  1.0
  C  C82  1  0.69197000  0.56716000  0.11051000  1.0
  C  C83  1  0.87578000  0.85214000  0.30033000  1.0
  C  C84  1  0.07069000  0.83276000  0.10237000  1.0
  C  C85  1  0.68257000  0.39857000  0.66947000  1.0
  C  C86  1  0.33171000  0.18548000  0.10144000  1.0
  O  O87  1  0.42256000  0.25655000  0.76986000  1.0
  O  O88  1  0.75439000  0.92673000  0.42041000  1.0
  O  O89  1  0.57734000  0.72811000  0.24220000  1.0
  O  O90  1  0.22923000  0.07606000  0.57459000  1.0
  O  O91  1  0.23007000  0.26041000  0.42258000  1.0
  O  O92  1  0.57508000  0.92088000  0.76734000  1.0
  O  O93  1  0.76067000  0.72999000  0.57661000  1.0
  O  O94  1  0.42204000  0.07700000  0.23996000  1.0
  O  O95  1  0.57654000  0.25810000  0.57537000  1.0
  O  O96  1  0.22800000  0.92355000  0.24019000  1.0
  O  O97  1  0.42380000  0.72713000  0.41964000  1.0
  O  O98  1  0.75756000  0.07790000  0.76977000  1.0
  O  O99  1  0.22816000  0.07699000  0.23922000  1.0
  O  O100  1  0.57764000  0.72826000  0.57372000  1.0
  O  O101  1  0.75645000  0.92416000  0.76928000  1.0
  O  O102  1  0.42330000  0.25794000  0.42114000  1.0
  O  O103  1  0.22842000  0.26078000  0.57649000  1.0
  O  O104  1  0.57213000  0.92102000  0.23589000  1.0
  O  O105  1  0.76163000  0.73341000  0.42423000  1.0
  O  O106  1  0.42180000  0.07423000  0.76713000  1.0
  O  O107  1  0.22930000  0.92143000  0.42154000  1.0
  O  O108  1  0.57544000  0.25841000  0.76916000  1.0
  O  O109  1  0.75768000  0.07849000  0.57583000  1.0
  O  O110  1  0.41998000  0.72910000  0.23631000  1.0
  O  O111  1  0.42888000  0.92786000  0.56771000  1.0
  O  O112  1  0.42809000  0.92921000  0.29869000  1.0
  O  O113  1  0.69760000  0.93096000  0.56882000  1.0
  O  O114  1  0.42918000  0.19818000  0.56870000  1.0
  O  O115  1  0.54560000  0.04699000  0.45121000  1.0
  O  O116  1  0.54561000  0.04616000  0.65036000  1.0
  O  O117  1  0.54589000  0.84775000  0.45104000  1.0
  O  O118  1  0.34701000  0.04585000  0.45113000  1.0
  O  O119  1  0.68145000  0.64636000  0.08050000  1.0
  O  O120  1  0.78098000  0.52022000  0.16635000  1.0
  O  O121  1  0.90909000  0.74670000  0.29644000  1.0
  O  O122  1  0.80852000  0.87973000  0.21960000  1.0
  O  O123  1  0.15765000  0.73999000  0.07968000  1.0
  O  O124  1  0.01830000  0.83725000  0.14779000  1.0
  O  O125  1  0.65995000  0.43035000  0.76231000  1.0
  O  O126  1  0.77658000  0.34733000  0.66776000  1.0
  O  O127  1  0.23612000  0.17089000  0.07553000  1.0
  O  O128  1  0.34045000  0.27728000  0.15152000  1.0
  F  F129  1  0.79957000  0.48333000  0.36870000  1.0
  F  F130  1  0.98016000  0.30178000  0.36624000  1.0
  F  F131  1  0.94108000  0.80994000  0.65282000  1.0
  F  F132  1  0.14238000  0.82416000  0.79552000  1.0
  F  F133  1  0.32603000  0.63935000  0.79435000  1.0
  F  F134  1  0.30977000  0.43937000  0.65243000  1.0
