# generated using pymatgen
data_AgH6C7(N2O)2
_symmetry_space_group_name_H-M   'P 1'
_cell_length_a   7.52313000
_cell_length_b   7.84380000
_cell_length_c   8.34454000
_cell_angle_alpha   103.76100000
_cell_angle_beta   112.31200000
_cell_angle_gamma   105.22800000
_symmetry_Int_Tables_number   1
_chemical_formula_structural   AgH6C7(N2O)2
_chemical_formula_sum   'Ag2 H12 C14 N8 O4'
_cell_volume   406.90263387
_cell_formula_units_Z   2
loop_
 _symmetry_equiv_pos_site_id
 _symmetry_equiv_pos_as_xyz
  1  'x, y, z'
loop_
 _atom_site_type_symbol
 _atom_site_label
 _atom_site_symmetry_multiplicity
 _atom_site_fract_x
 _atom_site_fract_y
 _atom_site_fract_z
 _atom_site_occupancy
  Ag  Ag0  1  0.31283000  0.52371000  0.91720000  1.0
  Ag  Ag1  1  0.68717000  0.47629000  0.08280000  1.0
  H  H2  1  0.74519000  0.96672000  0.69325000  1.0
  H  H3  1  0.25482000  0.03328000  0.30676000  1.0
  H  H4  1  0.79047000  0.69205000  0.55077000  1.0
  H  H5  1  0.20952000  0.30795000  0.44922000  1.0
  H  H6  1  0.47252000  0.11220000  0.69858000  1.0
  H  H7  1  0.52748000  0.88780000  0.30142000  1.0
  H  H8  1  0.23465000  0.88899000  0.81404000  1.0
  H  H9  1  0.76535000  0.11101000  0.18596000  1.0
  H  H10  1  0.86768000  0.30700000  0.82639000  1.0
  H  H11  1  0.13232000  0.69300000  0.17359000  1.0
  H  H12  1  0.93075000  0.43207000  0.56408000  1.0
  H  H13  1  0.06924000  0.56793000  0.43591000  1.0
  C  C14  1  0.58877000  0.75728000  0.76956000  1.0
  C  C15  1  0.41124000  0.24272000  0.23044000  1.0
  C  C16  1  0.47838000  0.98679000  0.72983000  1.0
  C  C17  1  0.52163000  0.01322000  0.27018000  1.0
  C  C18  1  0.36149000  0.87459000  0.78776000  1.0
  C  C19  1  0.63851000  0.12541000  0.21225000  1.0
  C  C20  1  0.70096000  0.63488000  0.75894000  1.0
  C  C21  1  0.29904000  0.36512000  0.24106000  1.0
  C  C22  1  0.82603000  0.41485000  0.77937000  1.0
  C  C23  1  0.17397000  0.58514000  0.22063000  1.0
  C  C24  1  0.86349000  0.47920000  0.65091000  1.0
  C  C25  1  0.13650000  0.52080000  0.34908000  1.0
  C  C26  1  0.04325000  0.08832000  0.59266000  1.0
  C  C27  1  0.95674000  0.91168000  0.40734000  1.0
  N  N28  1  0.43055000  0.73156000  0.81149000  1.0
  N  N29  1  0.56946000  0.26844000  0.18851000  1.0
  N  N30  1  0.62040000  0.91092000  0.71902000  1.0
  N  N31  1  0.37961000  0.08908000  0.28099000  1.0
  N  N32  1  0.72646000  0.51356000  0.84741000  1.0
  N  N33  1  0.27354000  0.48644000  0.15259000  1.0
  N  N34  1  0.78508000  0.61761000  0.63998000  1.0
  N  N35  1  0.21492000  0.38239000  0.36002000  1.0
  O  O36  1  0.17882000  0.24214000  0.61573000  1.0
  O  O37  1  0.82116000  0.75786000  0.38427000  1.0
  O  O38  1  0.97711000  0.06780000  0.70763000  1.0
  O  O39  1  0.02289000  0.93219000  0.29238000  1.0
