# generated using pymatgen
data_CdH5C5NCl2O
_symmetry_space_group_name_H-M   'P 1'
_cell_length_a   6.77138000
_cell_length_b   7.51819000
_cell_length_c   8.90877000
_cell_angle_alpha   111.51700000
_cell_angle_beta   108.57600000
_cell_angle_gamma   98.33680000
_symmetry_Int_Tables_number   1
_chemical_formula_structural   CdH5C5NCl2O
_chemical_formula_sum   'Cd2 H10 C10 N2 Cl4 O2'
_cell_volume   381.90755252
_cell_formula_units_Z   2
loop_
 _symmetry_equiv_pos_site_id
 _symmetry_equiv_pos_as_xyz
  1  'x, y, z'
loop_
 _atom_site_type_symbol
 _atom_site_label
 _atom_site_symmetry_multiplicity
 _atom_site_fract_x
 _atom_site_fract_y
 _atom_site_fract_z
 _atom_site_occupancy
  Cd  Cd0  1  0.50001000  0.50001000  0.50000000  1.0
  Cd  Cd1  1  0.00002000  0.50002000  0.50002000  1.0
  H  H2  1  0.74549000  0.61187000  0.91661000  1.0
  H  H3  1  0.17115000  0.80461000  0.91700000  1.0
  H  H4  1  0.25449000  0.38808000  0.08340000  1.0
  H  H5  1  0.82889000  0.19539000  0.08299000  1.0
  H  H6  1  0.89767000  0.77924000  0.24720000  1.0
  H  H7  1  0.34984000  0.96832000  0.24762000  1.0
  H  H8  1  0.10232000  0.22074000  0.75283000  1.0
  H  H9  1  0.65018000  0.03170000  0.75237000  1.0
  H  H10  1  0.69436000  0.94449000  0.38838000  1.0
  H  H11  1  0.30563000  0.05553000  0.61163000  1.0
  C  C12  1  0.44350000  0.69337000  0.88743000  1.0
  C  C13  1  0.55649000  0.30661000  0.11253000  1.0
  C  C14  1  0.65421000  0.69022000  0.98551000  1.0
  C  C15  1  0.33104000  0.79473000  0.98570000  1.0
  C  C16  1  0.34577000  0.30979000  0.01449000  1.0
  C  C17  1  0.66897000  0.20526000  0.01430000  1.0
  C  C18  1  0.73981000  0.78110000  0.16630000  1.0
  C  C19  1  0.42640000  0.88507000  0.16650000  1.0
  C  C20  1  0.26023000  0.21895000  0.83374000  1.0
  C  C21  1  0.57362000  0.11493000  0.83351000  1.0
  N  N22  1  0.62672000  0.87671000  0.25347000  1.0
  N  N23  1  0.37327000  0.12328000  0.74655000  1.0
  Cl  Cl24  1  0.22119000  0.67501000  0.37058000  1.0
  Cl  Cl25  1  0.14931000  0.19568000  0.37025000  1.0
  Cl  Cl26  1  0.77881000  0.32500000  0.62942000  1.0
  Cl  Cl27  1  0.85068000  0.80432000  0.62974000  1.0
  O  O28  1  0.35779000  0.60764000  0.71577000  1.0
  O  O29  1  0.64213000  0.39233000  0.28417000  1.0
