# generated using pymatgen
data_ZnH7C6SN7O2
_symmetry_space_group_name_H-M   'P 1'
_cell_length_a   7.44649000
_cell_length_b   9.80144000
_cell_length_c   15.49900000
_cell_angle_alpha   90.00000000
_cell_angle_beta   89.99990000
_cell_angle_gamma   89.99980000
_symmetry_Int_Tables_number   1
_chemical_formula_structural   ZnH7C6SN7O2
_chemical_formula_sum   'Zn4 H28 C24 S4 N28 O8'
_cell_volume   1131.21505032
_cell_formula_units_Z   4
loop_
 _symmetry_equiv_pos_site_id
 _symmetry_equiv_pos_as_xyz
  1  'x, y, z'
loop_
 _atom_site_type_symbol
 _atom_site_label
 _atom_site_symmetry_multiplicity
 _atom_site_fract_x
 _atom_site_fract_y
 _atom_site_fract_z
 _atom_site_occupancy
  Zn  Zn0  1  0.04668000  0.21453000  0.35793000  1.0
  Zn  Zn1  1  0.45332000  0.78547000  0.85793000  1.0
  Zn  Zn2  1  0.54668000  0.28547000  0.64207000  1.0
  Zn  Zn3  1  0.95332000  0.71453000  0.14207000  1.0
  H  H4  1  0.35255000  0.84482000  0.16585000  1.0
  H  H5  1  0.14744000  0.15518000  0.66585000  1.0
  H  H6  1  0.85256000  0.65518000  0.83415000  1.0
  H  H7  1  0.64745000  0.34482000  0.33415000  1.0
  H  H8  1  0.39649000  0.07783000  0.26563000  1.0
  H  H9  1  0.10351000  0.92216000  0.76563000  1.0
  H  H10  1  0.89649000  0.42217000  0.73437000  1.0
  H  H11  1  0.60351000  0.57783000  0.23437000  1.0
  H  H12  1  0.99745000  0.80792000  0.63012000  1.0
  H  H13  1  0.50255000  0.19207000  0.13012000  1.0
  H  H14  1  0.49745000  0.69207000  0.36988000  1.0
  H  H15  1  0.00254000  0.30793000  0.86988000  1.0
  H  H16  1  0.78447000  0.78911000  0.57928000  1.0
  H  H17  1  0.71553000  0.21089000  0.07928000  1.0
  H  H18  1  0.28448000  0.71089000  0.42072000  1.0
  H  H19  1  0.21552000  0.28911000  0.92072000  1.0
  H  H20  1  0.93732000  0.56091000  0.59633000  1.0
  H  H21  1  0.56267000  0.43909000  0.09634000  1.0
  H  H22  1  0.43733000  0.93909000  0.40367000  1.0
  H  H23  1  0.06267000  0.06091000  0.90366000  1.0
  H  H24  1  0.91365000  0.59971000  0.48521000  1.0
  H  H25  1  0.58635000  0.40029000  0.98522000  1.0
  H  H26  1  0.41366000  0.90029000  0.51479000  1.0
  H  H27  1  0.08635000  0.09971000  0.01478000  1.0
  H  H28  1  0.12538000  0.62014000  0.53805000  1.0
  H  H29  1  0.37462000  0.37986000  0.03806000  1.0
  H  H30  1  0.62538000  0.87986000  0.46194000  1.0
  H  H31  1  0.87462000  0.12014000  0.96194000  1.0
  C  C32  1  0.25418000  0.90216000  0.20245000  1.0
  C  C33  1  0.24581000  0.09784000  0.70245000  1.0
  C  C34  1  0.75418000  0.59784000  0.79755000  1.0
  C  C35  1  0.74582000  0.40216000  0.29755000  1.0
  C  C36  1  0.99804000  0.95982000  0.25493000  1.0
  C  C37  1  0.50196000  0.04019000  0.75493000  1.0
  C  C38  1  0.49804000  0.54019000  0.74507000  1.0
  C  C39  1  0.00197000  0.45981000  0.24507000  1.0
  C  C40  1  0.90074000  0.04159000  0.51363000  1.0
  C  C41  1  0.59926000  0.95841000  0.01363000  1.0
  C  C42  1  0.40074000  0.45841000  0.48637000  1.0
  C  C43  1  0.09926000  0.54159000  0.98637000  1.0
  C  C44  1  0.27560000  0.02026000  0.25150000  1.0
  C  C45  1  0.22440000  0.97974000  0.75150000  1.0
  C  C46  1  0.77560000  0.47974000  0.74850000  1.0
  C  C47  1  0.72440000  0.52026000  0.24850000  1.0
  C  C48  1  0.92973000  0.77644000  0.57048000  1.0
  C  C49  1  0.57027000  0.22356000  0.07048000  1.0
  C  C50  1  0.42974000  0.72356000  0.42952000  1.0
  C  C51  1  0.07026000  0.27644000  0.92951000  1.0
  C  C52  1  0.97964000  0.63130000  0.54528000  1.0
  C  C53  1  0.52036000  0.36870000  0.04529000  1.0
  C  C54  1  0.47965000  0.86870000  0.45472000  1.0
  C  C55  1  0.02035000  0.13130000  0.95471000  1.0
  S  S56  1  0.00092000  0.88945000  0.48358000  1.0
  S  S57  1  0.49908000  0.11055000  0.98359000  1.0
  S  S58  1  0.50093000  0.61055000  0.51642000  1.0
  S  S59  1  0.99908000  0.38945000  0.01642000  1.0
  N  N60  1  0.81211000  0.95743000  0.27616000  1.0
  N  N61  1  0.68789000  0.04258000  0.77615000  1.0
  N  N62  1  0.31211000  0.54258000  0.72385000  1.0
  N  N63  1  0.18789000  0.45742000  0.22385000  1.0
  N  N64  1  0.11188000  0.05638000  0.28392000  1.0
  N  N65  1  0.38812000  0.94362000  0.78392000  1.0
  N  N66  1  0.61188000  0.44362000  0.71608000  1.0
  N  N67  1  0.88813000  0.55638000  0.21608000  1.0
  N  N68  1  0.75133000  0.19580000  0.57641000  1.0
  N  N69  1  0.74867000  0.80420000  0.07641000  1.0
  N  N70  1  0.25134000  0.30420000  0.42359000  1.0
  N  N71  1  0.24867000  0.69580000  0.92359000  1.0
  N  N72  1  0.91178000  0.15722000  0.46531000  1.0
  N  N73  1  0.58823000  0.84278000  0.96531000  1.0
  N  N74  1  0.41177000  0.34279000  0.53469000  1.0
  N  N75  1  0.08823000  0.65722000  0.03469000  1.0
  N  N76  1  0.07791000  0.86442000  0.20561000  1.0
  N  N77  1  0.42208000  0.13559000  0.70561000  1.0
  N  N78  1  0.57792000  0.63559000  0.79439000  1.0
  N  N79  1  0.92209000  0.36441000  0.29439000  1.0
  N  N80  1  0.80013000  0.06356000  0.58395000  1.0
  N  N81  1  0.69986000  0.93644000  0.08395000  1.0
  N  N82  1  0.30014000  0.43645000  0.41605000  1.0
  N  N83  1  0.19986000  0.56356000  0.91605000  1.0
  N  N84  1  0.81601000  0.25280000  0.50640000  1.0
  N  N85  1  0.68399000  0.74720000  0.00640000  1.0
  N  N86  1  0.31601000  0.24721000  0.49360000  1.0
  N  N87  1  0.18400000  0.75279000  0.99360000  1.0
  O  O88  1  0.72839000  0.84880000  0.26518000  1.0
  O  O89  1  0.77161000  0.15121000  0.76518000  1.0
  O  O90  1  0.22839000  0.65120000  0.73482000  1.0
  O  O91  1  0.27161000  0.34880000  0.23482000  1.0
  O  O92  1  0.74394000  0.06472000  0.30496000  1.0
  O  O93  1  0.75607000  0.93528000  0.80496000  1.0
  O  O94  1  0.24393000  0.43528000  0.69505000  1.0
  O  O95  1  0.25607000  0.56472000  0.19504000  1.0
