# generated using pymatgen
data_CuH20C20(N2O3)2
_symmetry_space_group_name_H-M   'P 1'
_cell_length_a   10.54540000
_cell_length_b   17.76130000
_cell_length_c   17.76140000
_cell_angle_alpha   100.02100000
_cell_angle_beta   101.32800000
_cell_angle_gamma   101.32900000
_symmetry_Int_Tables_number   1
_chemical_formula_structural   CuH20C20(N2O3)2
_chemical_formula_sum   'Cu4 H80 C80 N16 O24'
_cell_volume   3119.16946904
_cell_formula_units_Z   4
loop_
 _symmetry_equiv_pos_site_id
 _symmetry_equiv_pos_as_xyz
  1  'x, y, z'
loop_
 _atom_site_type_symbol
 _atom_site_label
 _atom_site_symmetry_multiplicity
 _atom_site_fract_x
 _atom_site_fract_y
 _atom_site_fract_z
 _atom_site_occupancy
  Cu  Cu0  1  0.29158000  0.76073000  0.75248000  1.0
  Cu  Cu1  1  0.20842000  0.24752000  0.23927000  1.0
  Cu  Cu2  1  0.70847000  0.23927000  0.24751000  1.0
  Cu  Cu3  1  0.79153000  0.75249000  0.76073000  1.0
  H  H4  1  0.51832000  0.75628000  0.68781000  1.0
  H  H5  1  0.98167000  0.31220000  0.24372000  1.0
  H  H6  1  0.48167000  0.24372000  0.31220000  1.0
  H  H7  1  0.01834000  0.68781000  0.75627000  1.0
  H  H8  1  0.56247000  0.83461000  0.75859000  1.0
  H  H9  1  0.93753000  0.24142000  0.16538000  1.0
  H  H10  1  0.43751000  0.16537000  0.24141000  1.0
  H  H11  1  0.06249000  0.75859000  0.83462000  1.0
  H  H12  1  0.18152000  0.38133000  0.17916000  1.0
  H  H13  1  0.31848000  0.82084000  0.61866000  1.0
  H  H14  1  0.81847000  0.61866000  0.82083000  1.0
  H  H15  1  0.68152000  0.17916000  0.38134000  1.0
  H  H16  1  0.23675000  0.44416000  0.06978000  1.0
  H  H17  1  0.26326000  0.93023000  0.55583000  1.0
  H  H18  1  0.76325000  0.55583000  0.93023000  1.0
  H  H19  1  0.73675000  0.06978000  0.44417000  1.0
  H  H20  1  0.43875000  0.26012000  0.01048000  1.0
  H  H21  1  0.06124000  0.98953000  0.73987000  1.0
  H  H22  1  0.56124000  0.73987000  0.98953000  1.0
  H  H23  1  0.93875000  0.01047000  0.26012000  1.0
  H  H24  1  0.37922000  0.20715000  0.12374000  1.0
  H  H25  1  0.12076000  0.87626000  0.79284000  1.0
  H  H26  1  0.62078000  0.79285000  0.87627000  1.0
  H  H27  1  0.87920000  0.12373000  0.20715000  1.0
  H  H28  1  0.22553000  0.69751000  0.88771000  1.0
  H  H29  1  0.27445000  0.11230000  0.30249000  1.0
  H  H30  1  0.77444000  0.30248000  0.11229000  1.0
  H  H31  1  0.72554000  0.88771000  0.69751000  1.0
  H  H32  1  0.25649000  0.58145000  0.94552000  1.0
  H  H33  1  0.24352000  0.05450000  0.41855000  1.0
  H  H34  1  0.74351000  0.41855000  0.05449000  1.0
  H  H35  1  0.75647000  0.94551000  0.58145000  1.0
  H  H36  1  0.45427000  0.51252000  0.76228000  1.0
  H  H37  1  0.04574000  0.23773000  0.48748000  1.0
  H  H38  1  0.54575000  0.48748000  0.23773000  1.0
  H  H39  1  0.95427000  0.76228000  0.51251000  1.0
  H  H40  1  0.41190000  0.63102000  0.71087000  1.0
  H  H41  1  0.08809000  0.28914000  0.36898000  1.0
  H  H42  1  0.58811000  0.36899000  0.28914000  1.0
  H  H43  1  0.91190000  0.71087000  0.63101000  1.0
  H  H44  1  0.29408000  0.00773000  0.90802000  1.0
  H  H45  1  0.20593000  0.09198000  0.99226000  1.0
  H  H46  1  0.70592000  0.99227000  0.09198000  1.0
  H  H47  1  0.79408000  0.90802000  0.00774000  1.0
  H  H48  1  0.44355000  0.99222000  0.88369000  1.0
  H  H49  1  0.05644000  0.11631000  0.00776000  1.0
  H  H50  1  0.55645000  0.00778000  0.11630000  1.0
  H  H51  1  0.94354000  0.88369000  0.99223000  1.0
  H  H52  1  0.32986000  0.93603000  0.01579000  1.0
  H  H53  1  0.17013000  0.98421000  0.06397000  1.0
  H  H54  1  0.67014000  0.06397000  0.98420000  1.0
  H  H55  1  0.82986000  0.01580000  0.93603000  1.0
  H  H56  1  0.57782000  0.91141000  0.95912000  1.0
  H  H57  1  0.92217000  0.04088000  0.08858000  1.0
  H  H58  1  0.42218000  0.08858000  0.04087000  1.0
  H  H59  1  0.07781000  0.95912000  0.91142000  1.0
  H  H60  1  0.52072000  0.87224000  0.03531000  1.0
  H  H61  1  0.97928000  0.96469000  0.12776000  1.0
  H  H62  1  0.47928000  0.12776000  0.96469000  1.0
  H  H63  1  0.02072000  0.03530000  0.87225000  1.0
  H  H64  1  0.01051000  0.47842000  0.60845000  1.0
  H  H65  1  0.48949000  0.39154000  0.52159000  1.0
  H  H66  1  0.98948000  0.52159000  0.39154000  1.0
  H  H67  1  0.51051000  0.60846000  0.47842000  1.0
  H  H68  1  0.18118000  0.48966000  0.60890000  1.0
  H  H69  1  0.31881000  0.39109000  0.51035000  1.0
  H  H70  1  0.81882000  0.51034000  0.39110000  1.0
  H  H71  1  0.68117000  0.60890000  0.48966000  1.0
  H  H72  1  0.16706000  0.58829000  0.52554000  1.0
  H  H73  1  0.33294000  0.47445000  0.41172000  1.0
  H  H74  1  0.83294000  0.41171000  0.47445000  1.0
  H  H75  1  0.66706000  0.52555000  0.58829000  1.0
  H  H76  1  0.95664000  0.63105000  0.48892000  1.0
  H  H77  1  0.54335000  0.51108000  0.36894000  1.0
  H  H78  1  0.04335000  0.36895000  0.51108000  1.0
  H  H79  1  0.45666000  0.48892000  0.63105000  1.0
  H  H80  1  0.87617000  0.56298000  0.53682000  1.0
  H  H81  1  0.62384000  0.46318000  0.43703000  1.0
  H  H82  1  0.12383000  0.43703000  0.46318000  1.0
  H  H83  1  0.37617000  0.53682000  0.56298000  1.0
  C  C84  1  0.23862000  0.35737000  0.14023000  1.0
  C  C85  1  0.26137000  0.85977000  0.64262000  1.0
  C  C86  1  0.76137000  0.64262000  0.85977000  1.0
  C  C87  1  0.73863000  0.14022000  0.35737000  1.0
  C  C88  1  0.26831000  0.39103000  0.07900000  1.0
  C  C89  1  0.23169000  0.92100000  0.60897000  1.0
  C  C90  1  0.73169000  0.60897000  0.92100000  1.0
  C  C91  1  0.76831000  0.07900000  0.39103000  1.0
  C  C92  1  0.34068000  0.35605000  0.03053000  1.0
  C  C93  1  0.15931000  0.96948000  0.64394000  1.0
  C  C94  1  0.65931000  0.64394000  0.96948000  1.0
  C  C95  1  0.84069000  0.03052000  0.35606000  1.0
  C  C96  1  0.38138000  0.28862000  0.04620000  1.0
  C  C97  1  0.11862000  0.95380000  0.71138000  1.0
  C  C98  1  0.61862000  0.71138000  0.95380000  1.0
  C  C99  1  0.88138000  0.04620000  0.28862000  1.0
  C  C100  1  0.34809000  0.25884000  0.10892000  1.0
  C  C101  1  0.15190000  0.89108000  0.74116000  1.0
  C  C102  1  0.65191000  0.74116000  0.89108000  1.0
  C  C103  1  0.84809000  0.10891000  0.25884000  1.0
  C  C104  1  0.37612000  0.39026000  0.96692000  1.0
  C  C105  1  0.12388000  0.03309000  0.60974000  1.0
  C  C106  1  0.62388000  0.60974000  0.03309000  1.0
  C  C107  1  0.87612000  0.96691000  0.39026000  1.0
  C  C108  1  0.38283000  0.47080000  0.88993000  1.0
  C  C109  1  0.11718000  0.11009000  0.52920000  1.0
  C  C110  1  0.61718000  0.52920000  0.11008000  1.0
  C  C111  1  0.88283000  0.88992000  0.47079000  1.0
  C  C112  1  0.27427000  0.65440000  0.86161000  1.0
  C  C113  1  0.22572000  0.13840000  0.34560000  1.0
  C  C114  1  0.72571000  0.34560000  0.13839000  1.0
  C  C115  1  0.77428000  0.86161000  0.65440000  1.0
  C  C116  1  0.29139000  0.58976000  0.89312000  1.0
  C  C117  1  0.20861000  0.10689000  0.41024000  1.0
  C  C118  1  0.70861000  0.41024000  0.10688000  1.0
  C  C119  1  0.79139000  0.89312000  0.58976000  1.0
  C  C120  1  0.35707000  0.53730000  0.85754000  1.0
  C  C121  1  0.14294000  0.14247000  0.46270000  1.0
  C  C122  1  0.64294000  0.46270000  0.14246000  1.0
  C  C123  1  0.85706000  0.85754000  0.53730000  1.0
  C  C124  1  0.40201000  0.55171000  0.79094000  1.0
  C  C125  1  0.09799000  0.20907000  0.44829000  1.0
  C  C126  1  0.59799000  0.44829000  0.20906000  1.0
  C  C127  1  0.90201000  0.79094000  0.55171000  1.0
  C  C128  1  0.37969000  0.61720000  0.76264000  1.0
  C  C129  1  0.12030000  0.23736000  0.38280000  1.0
  C  C130  1  0.62030000  0.38280000  0.23735000  1.0
  C  C131  1  0.87969000  0.76265000  0.61720000  1.0
  C  C132  1  0.30735000  0.85666000  0.90673000  1.0
  C  C133  1  0.19266000  0.09328000  0.14334000  1.0
  C  C134  1  0.69266000  0.14335000  0.09327000  1.0
  C  C135  1  0.80737000  0.90673000  0.85667000  1.0
  C  C136  1  0.39491000  0.00197000  0.93287000  1.0
  C  C137  1  0.10509000  0.06713000  0.99803000  1.0
  C  C138  1  0.60510000  0.99803000  0.06712000  1.0
  C  C139  1  0.89490000  0.93288000  0.00197000  1.0
  C  C140  1  0.38619000  0.92937000  0.96999000  1.0
  C  C141  1  0.11380000  0.03001000  0.07063000  1.0
  C  C142  1  0.61381000  0.07063000  0.03001000  1.0
  C  C143  1  0.88618000  0.96999000  0.92937000  1.0
  C  C144  1  0.52668000  0.92282000  0.00682000  1.0
  C  C145  1  0.97332000  0.99319000  0.07719000  1.0
  C  C146  1  0.47333000  0.07719000  0.99318000  1.0
  C  C147  1  0.02667000  0.00681000  0.92282000  1.0
  C  C148  1  0.11746000  0.63378000  0.63288000  1.0
  C  C149  1  0.38254000  0.36710000  0.36623000  1.0
  C  C150  1  0.88254000  0.36622000  0.36711000  1.0
  C  C151  1  0.61747000  0.63288000  0.63378000  1.0
  C  C152  1  0.08385000  0.49045000  0.57299000  1.0
  C  C153  1  0.41616000  0.42700000  0.50955000  1.0
  C  C154  1  0.91615000  0.50955000  0.42700000  1.0
  C  C155  1  0.58384000  0.57299000  0.49045000  1.0
  C  C156  1  0.08710000  0.57261000  0.55575000  1.0
  C  C157  1  0.41291000  0.44424000  0.42740000  1.0
  C  C158  1  0.91290000  0.42740000  0.44424000  1.0
  C  C159  1  0.58710000  0.55576000  0.57261000  1.0
  C  C160  1  0.95285000  0.57281000  0.50310000  1.0
  C  C161  1  0.54714000  0.49690000  0.42719000  1.0
  C  C162  1  0.04714000  0.42720000  0.49689000  1.0
  C  C163  1  0.45286000  0.50310000  0.57280000  1.0
  N  N164  1  0.31743000  0.66763000  0.79760000  1.0
  N  N165  1  0.18256000  0.20241000  0.33237000  1.0
  N  N166  1  0.68255000  0.33237000  0.20240000  1.0
  N  N167  1  0.81744000  0.79760000  0.66763000  1.0
  N  N168  1  0.45750000  0.42286000  0.87101000  1.0
  N  N169  1  0.04251000  0.12900000  0.57713000  1.0
  N  N170  1  0.54250000  0.57713000  0.12900000  1.0
  N  N171  1  0.95750000  0.87101000  0.42286000  1.0
  N  N172  1  0.45321000  0.37089000  0.92077000  1.0
  N  N173  1  0.04679000  0.07924000  0.62910000  1.0
  N  N174  1  0.54678000  0.62910000  0.07924000  1.0
  N  N175  1  0.95321000  0.92077000  0.37089000  1.0
  N  N176  1  0.27729000  0.29235000  0.15466000  1.0
  N  N177  1  0.22270000  0.84535000  0.70765000  1.0
  N  N178  1  0.72270000  0.70765000  0.84535000  1.0
  N  N179  1  0.77729000  0.15465000  0.29234000  1.0
  O  O180  1  0.32797000  0.45362000  0.95068000  1.0
  O  O181  1  0.17204000  0.04932000  0.54638000  1.0
  O  O182  1  0.67204000  0.54638000  0.04932000  1.0
  O  O183  1  0.82796000  0.95068000  0.45362000  1.0
  O  O184  1  0.37170000  0.83273000  0.85621000  1.0
  O  O185  1  0.12831000  0.14380000  0.16728000  1.0
  O  O186  1  0.62830000  0.16728000  0.14379000  1.0
  O  O187  1  0.87174000  0.85622000  0.83273000  1.0
  O  O188  1  0.18781000  0.82714000  0.90529000  1.0
  O  O189  1  0.31220000  0.09472000  0.17286000  1.0
  O  O190  1  0.81221000  0.17288000  0.09472000  1.0
  O  O191  1  0.68780000  0.90528000  0.82714000  1.0
  O  O192  1  0.03915000  0.62685000  0.67754000  1.0
  O  O193  1  0.46084000  0.32244000  0.37315000  1.0
  O  O194  1  0.96086000  0.37314000  0.32245000  1.0
  O  O195  1  0.53913000  0.67754000  0.62686000  1.0
  O  O196  1  0.22469000  0.68875000  0.64624000  1.0
  O  O197  1  0.27533000  0.35374000  0.31125000  1.0
  O  O198  1  0.77532000  0.31125000  0.35375000  1.0
  O  O199  1  0.72469000  0.64623000  0.68874000  1.0
  O  O200  1  0.48586000  0.79776000  0.71867000  1.0
  O  O201  1  0.01414000  0.28132000  0.20226000  1.0
  O  O202  1  0.51414000  0.20224000  0.28134000  1.0
  O  O203  1  0.98587000  0.71865000  0.79777000  1.0
