# generated using pymatgen
data_Mg5H14(C10O11)2
_symmetry_space_group_name_H-M   'P 1'
_cell_length_a   7.33847000
_cell_length_b   11.46470000
_cell_length_c   11.68220000
_cell_angle_alpha   93.45710000
_cell_angle_beta   103.32730000
_cell_angle_gamma   105.51690000
_symmetry_Int_Tables_number   1
_chemical_formula_structural   Mg5H14(C10O11)2
_chemical_formula_sum   'Mg5 H14 C20 O22'
_cell_volume   913.70384088
_cell_formula_units_Z   1
loop_
 _symmetry_equiv_pos_site_id
 _symmetry_equiv_pos_as_xyz
  1  'x, y, z'
loop_
 _atom_site_type_symbol
 _atom_site_label
 _atom_site_symmetry_multiplicity
 _atom_site_fract_x
 _atom_site_fract_y
 _atom_site_fract_z
 _atom_site_occupancy
  Mg  Mg0  1  0.52720000  0.85005000  0.31083000  1.0
  Mg  Mg1  1  0.68334000  0.88289000  0.62706000  1.0
  Mg  Mg2  1  0.47280000  0.14995000  0.68917000  1.0
  Mg  Mg3  1  0.31666000  0.11711000  0.37294000  1.0
  Mg  Mg4  1  0.00000000  0.00000000  0.49999000  1.0
  H  H5  1  0.67165000  0.03099000  0.46612000  1.0
  H  H6  1  0.58099000  0.63827000  0.32870000  1.0
  H  H7  1  0.78105000  0.72275000  0.31821000  1.0
  H  H8  1  0.54789000  0.75105000  0.78919000  1.0
  H  H9  1  0.71345000  0.70974000  0.75031000  1.0
  H  H10  1  0.30591000  0.49017000  0.45075000  1.0
  H  H11  1  0.28609000  0.94358000  0.96447000  1.0
  H  H12  1  0.32834000  0.96900000  0.53387000  1.0
  H  H13  1  0.41900000  0.36173000  0.67129000  1.0
  H  H14  1  0.21895000  0.27725000  0.68181000  1.0
  H  H15  1  0.45208000  0.24894000  0.21081000  1.0
  H  H16  1  0.28653000  0.29026000  0.24970000  1.0
  H  H17  1  0.69410000  0.50983000  0.54925000  1.0
  H  H18  1  0.71389000  0.05643000  0.03553000  1.0
  C  C19  1  0.30051000  0.71980000  0.48302000  1.0
  C  C20  1  0.13908000  0.60913000  0.49031000  1.0
  C  C21  1  0.17102000  0.49551000  0.47207000  1.0
  C  C22  1  0.96396000  0.61325000  0.51808000  1.0
  C  C23  1  0.90954000  0.72989000  0.52843000  1.0
  C  C24  1  0.10964000  0.02193000  0.77670000  1.0
  C  C25  1  0.04411000  0.01035000  0.88919000  1.0
  C  C26  1  0.15964000  0.96811000  0.98026000  1.0
  C  C27  1  0.11888000  0.95697000  0.09077000  1.0
  C  C28  1  0.25791000  0.90997000  0.17810000  1.0
  C  C29  1  0.69949000  0.28020000  0.51698000  1.0
  C  C30  1  0.86093000  0.39090000  0.50969000  1.0
  C  C31  1  0.82897000  0.50448000  0.52794000  1.0
  C  C32  1  0.03605000  0.38674000  0.48193000  1.0
  C  C33  1  0.09046000  0.27011000  0.47157000  1.0
  C  C34  1  0.89037000  0.97807000  0.22330000  1.0
  C  C35  1  0.95590000  0.98965000  0.11084000  1.0
  C  C36  1  0.84039000  0.03189000  0.01973000  1.0
  C  C37  1  0.88111000  0.04304000  0.90920000  1.0
  C  C38  1  0.74209000  0.09003000  0.82190000  1.0
  O  O39  1  0.34749000  0.72397000  0.38537000  1.0
  O  O40  1  0.38682000  0.79499000  0.57712000  1.0
  O  O41  1  0.98959000  0.81566000  0.47560000  1.0
  O  O42  1  0.77826000  0.73308000  0.58235000  1.0
  O  O43  1  0.98136000  0.98368000  0.67674000  1.0
  O  O44  1  0.28957000  0.06760000  0.78756000  1.0
  O  O45  1  0.29280000  0.81254000  0.14908000  1.0
  O  O46  1  0.35402000  0.97431000  0.28015000  1.0
  O  O47  1  0.69845000  0.95188000  0.46918000  1.0
  O  O48  1  0.63933000  0.70046000  0.28401000  1.0
  O  O49  1  0.68033000  0.78083000  0.78002000  1.0
  O  O50  1  0.65250000  0.27604000  0.61463000  1.0
  O  O51  1  0.61318000  0.20501000  0.42287000  1.0
  O  O52  1  0.01041000  0.18434000  0.52439000  1.0
  O  O53  1  0.22176000  0.26692000  0.41767000  1.0
  O  O54  1  0.01863000  0.01633000  0.32324000  1.0
  O  O55  1  0.71045000  0.93240000  0.21243000  1.0
  O  O56  1  0.70720000  0.18745000  0.85091000  1.0
  O  O57  1  0.64599000  0.02570000  0.71987000  1.0
  O  O58  1  0.30154000  0.04811000  0.53081000  1.0
  O  O59  1  0.36067000  0.29954000  0.71599000  1.0
  O  O60  1  0.31965000  0.21917000  0.21999000  1.0
