# generated using pymatgen
data_Zn4H10C24Br2O13
_symmetry_space_group_name_H-M   'P 1'
_cell_length_a   10.83940000
_cell_length_b   10.85910000
_cell_length_c   15.40786767
_cell_angle_alpha   70.73295875
_cell_angle_beta   86.22776583
_cell_angle_gamma   83.77530000
_symmetry_Int_Tables_number   1
_chemical_formula_structural   Zn4H10C24Br2O13
_chemical_formula_sum   'Zn4 H10 C24 Br2 O13'
_cell_volume   1701.05821112
_cell_formula_units_Z   1
loop_
 _symmetry_equiv_pos_site_id
 _symmetry_equiv_pos_as_xyz
  1  'x, y, z'
loop_
 _atom_site_type_symbol
 _atom_site_label
 _atom_site_symmetry_multiplicity
 _atom_site_fract_x
 _atom_site_fract_y
 _atom_site_fract_z
 _atom_site_occupancy
  Zn  Zn0  1  0.39822000  0.86212000  0.58500000  1.0
  Zn  Zn1  1  0.38907000  0.15189000  0.43371000  1.0
  Zn  Zn2  1  0.59849000  0.93854000  0.41300000  1.0
  Zn  Zn3  1  0.59710000  0.04356000  0.58943000  1.0
  H  H4  1  0.45922000  0.44715000  0.61665000  1.0
  H  H5  1  0.51852000  0.54291000  0.40707000  1.0
  H  H6  1  0.99621000  0.03839000  0.38926000  1.0
  H  H7  1  0.98589000  0.01270000  0.59559000  1.0
  H  H8  1  0.48078000  0.35350000  0.81939000  1.0
  H  H9  1  0.45987000  0.15676000  0.94669000  1.0
  H  H10  1  0.50365000  0.38716000  0.16939000  1.0
  H  H11  1  0.62082000  0.91306000  0.87312000  1.0
  H  H12  1  0.65696000  0.79744000  0.03921000  1.0
  H  H13  1  0.50251000  0.58947000  0.75826000  1.0
  C  C14  1  0.47613000  0.31062000  0.53654000  1.0
  C  C15  1  0.50198000  0.33854000  0.11840000  1.0
  C  C16  1  0.47240000  0.13852000  0.08885000  1.0
  C  C17  1  0.50140000  0.67849000  0.48728000  1.0
  C  C18  1  0.55761000  0.74607000  0.85052000  1.0
  C  C19  1  0.49715000  0.54845000  0.47595000  1.0
  C  C20  1  0.47392000  0.44194000  0.54713000  1.0
  C  C21  1  0.95697000  0.03236000  0.45740000  1.0
  C  C22  1  0.02771000  0.02649000  0.52699000  1.0
  C  C23  1  0.16534000  0.02337000  0.51938000  1.0
  C  C24  1  0.82162000  0.01876000  0.47277000  1.0
  C  C25  1  0.62094000  0.74664000  0.99749000  1.0
  C  C26  1  0.48117000  0.14320000  0.25398000  1.0
  C  C27  1  0.53375000  0.82526000  0.75243000  1.0
  C  C28  1  0.47583000  0.20604000  0.99562000  1.0
  C  C29  1  0.48326000  0.20598000  0.15176000  1.0
  C  C30  1  0.60120000  0.81126000  0.90441000  1.0
  C  C31  1  0.59554000  0.61691000  0.03782000  1.0
  C  C32  1  0.54853000  0.54416000  0.98727000  1.0
  C  C33  1  0.53527000  0.61138000  0.88977000  1.0
  C  C34  1  0.51794000  0.40825000  0.02401000  1.0
  C  C35  1  0.49798000  0.33970000  0.96194000  1.0
  C  C36  1  0.49594000  0.40779000  0.86550000  1.0
  C  C37  1  0.50913000  0.53839000  0.83167000  1.0
  Br  Br38  1  0.44096000  0.95902000  0.12815000  1.0
  Br  Br39  1  0.64281000  0.54829000  0.16394000  1.0
  O  O40  1  0.49642000  0.99880000  0.50442000  1.0
  O  O41  1  0.41724000  0.20729000  0.30020000  1.0
  O  O42  1  0.60553000  0.91548000  0.71405000  1.0
  O  O43  1  0.54660000  0.03468000  0.28626000  1.0
  O  O44  1  0.44164000  0.80120000  0.71502000  1.0
  O  O45  1  0.22196000  0.92744000  0.58011000  1.0
  O  O46  1  0.76854000  0.04996000  0.53996000  1.0
  O  O47  1  0.42483000  0.30502000  0.46606000  1.0
  O  O48  1  0.57133000  0.75589000  0.42951000  1.0
  O  O49  1  0.52990000  0.21527000  0.59958000  1.0
  O  O50  1  0.43482000  0.70097000  0.55291000  1.0
  O  O51  1  0.21354000  0.11395000  0.45519000  1.0
  O  O52  1  0.77137000  0.97548000  0.41713000  1.0
