# generated using pymatgen
data_ZnH9C6SN2O7
_symmetry_space_group_name_H-M   'P 1'
_cell_length_a   6.33315000
_cell_length_b   7.70472000
_cell_length_c   20.46650000
_cell_angle_alpha   90.00000000
_cell_angle_beta   94.14660000
_cell_angle_gamma   90.00000000
_symmetry_Int_Tables_number   1
_chemical_formula_structural   ZnH9C6SN2O7
_chemical_formula_sum   'Zn4 H36 C24 S4 N8 O28'
_cell_volume   996.05168045
_cell_formula_units_Z   4
loop_
 _symmetry_equiv_pos_site_id
 _symmetry_equiv_pos_as_xyz
  1  'x, y, z'
loop_
 _atom_site_type_symbol
 _atom_site_label
 _atom_site_symmetry_multiplicity
 _atom_site_fract_x
 _atom_site_fract_y
 _atom_site_fract_z
 _atom_site_occupancy
  Zn  Zn0  1  0.21364000  0.40675000  0.28789000  1.0
  Zn  Zn1  1  0.78636000  0.90675000  0.21211000  1.0
  Zn  Zn2  1  0.78636000  0.59324000  0.71211000  1.0
  Zn  Zn3  1  0.21364000  0.09324000  0.78789000  1.0
  H  H4  1  0.08418000  0.46929000  0.42713000  1.0
  H  H5  1  0.91581000  0.96929000  0.07287000  1.0
  H  H6  1  0.91581000  0.53071000  0.57286000  1.0
  H  H7  1  0.08419000  0.03070000  0.92713000  1.0
  H  H8  1  0.22884000  0.39340000  0.54292000  1.0
  H  H9  1  0.77116000  0.89340000  0.95708000  1.0
  H  H10  1  0.77116000  0.60661000  0.45708000  1.0
  H  H11  1  0.22884000  0.10660000  0.04292000  1.0
  H  H12  1  0.55827000  0.21963000  0.55824000  1.0
  H  H13  1  0.44173000  0.71963000  0.94177000  1.0
  H  H14  1  0.44173000  0.78038000  0.44176000  1.0
  H  H15  1  0.55827000  0.28037000  0.05824000  1.0
  H  H16  1  0.56529000  0.19447000  0.34748000  1.0
  H  H17  1  0.43472000  0.69447000  0.15253000  1.0
  H  H18  1  0.43472000  0.80553000  0.65252000  1.0
  H  H19  1  0.56528000  0.30553000  0.84747000  1.0
  H  H20  1  0.83108000  0.06513000  0.41085000  1.0
  H  H21  1  0.16892000  0.56512000  0.08915000  1.0
  H  H22  1  0.16894000  0.93488000  0.58916000  1.0
  H  H23  1  0.83106000  0.43488000  0.91084000  1.0
  H  H24  1  0.99919000  0.45182000  0.16988000  1.0
  H  H25  1  0.00081000  0.95183000  0.33012000  1.0
  H  H26  1  0.00081000  0.54816000  0.83012000  1.0
  H  H27  1  0.99919000  0.04816000  0.66988000  1.0
  H  H28  1  0.37264000  0.70364000  0.31618000  1.0
  H  H29  1  0.62736000  0.20364000  0.18382000  1.0
  H  H30  1  0.62736000  0.29635000  0.68382000  1.0
  H  H31  1  0.37264000  0.79635000  0.81618000  1.0
  H  H32  1  0.20115000  0.33166000  0.16631000  1.0
  H  H33  1  0.79885000  0.83166000  0.33369000  1.0
  H  H34  1  0.79885000  0.66833000  0.83368000  1.0
  H  H35  1  0.20115000  0.16833000  0.66631000  1.0
  H  H36  1  0.17912000  0.73423000  0.26529000  1.0
  H  H37  1  0.82089000  0.23423000  0.23471000  1.0
  H  H38  1  0.82089000  0.26577000  0.73471000  1.0
  H  H39  1  0.17912000  0.76577000  0.76529000  1.0
  C  C40  1  0.22525000  0.38984000  0.43700000  1.0
  C  C41  1  0.77475000  0.88984000  0.06300000  1.0
  C  C42  1  0.77475000  0.61017000  0.56300000  1.0
  C  C43  1  0.22525000  0.11016000  0.93700000  1.0
  C  C44  1  0.30522000  0.34785000  0.50009000  1.0
  C  C45  1  0.69478000  0.84785000  0.99991000  1.0
  C  C46  1  0.69478000  0.65216000  0.49990000  1.0
  C  C47  1  0.30521000  0.15215000  0.00009000  1.0
  C  C48  1  0.49050000  0.25058000  0.50937000  1.0
  C  C49  1  0.50949000  0.75057000  0.99064000  1.0
  C  C50  1  0.50949000  0.74944000  0.49063000  1.0
  C  C51  1  0.49050000  0.24942000  0.00937000  1.0
  C  C52  1  0.58946000  0.19516000  0.45383000  1.0
  C  C53  1  0.41054000  0.69516000  0.04617000  1.0
  C  C54  1  0.41055000  0.80484000  0.54617000  1.0
  C  C55  1  0.58945000  0.30484000  0.95383000  1.0
  C  C56  1  0.49551000  0.23844000  0.39176000  1.0
  C  C57  1  0.50449000  0.73843000  0.10824000  1.0
  C  C58  1  0.50450000  0.76155000  0.60824000  1.0
  C  C59  1  0.49550000  0.26155000  0.89176000  1.0
  C  C60  1  0.90008000  0.04890000  0.50914000  1.0
  C  C61  1  0.09991000  0.54890000  0.99086000  1.0
  C  C62  1  0.09994000  0.95114000  0.49086000  1.0
  C  C63  1  0.90007000  0.45112000  0.00914000  1.0
  S  S64  1  0.27902000  0.02549000  0.21644000  1.0
  S  S65  1  0.72099000  0.52549000  0.28356000  1.0
  S  S66  1  0.72099000  0.97450000  0.78356000  1.0
  S  S67  1  0.27902000  0.47450000  0.71644000  1.0
  N  N68  1  0.32024000  0.33512000  0.38396000  1.0
  N  N69  1  0.67976000  0.83512000  0.11604000  1.0
  N  N70  1  0.67977000  0.66487000  0.61604000  1.0
  N  N71  1  0.32023000  0.16487000  0.88396000  1.0
  N  N72  1  0.77867000  0.10132000  0.45535000  1.0
  N  N73  1  0.22132000  0.60132000  0.04465000  1.0
  N  N74  1  0.22133000  0.89870000  0.54465000  1.0
  N  N75  1  0.77867000  0.39870000  0.95535000  1.0
  O  O76  1  0.86183000  0.07376000  0.56684000  1.0
  O  O77  1  0.13815000  0.57377000  0.93316000  1.0
  O  O78  1  0.13817000  0.92628000  0.43317000  1.0
  O  O79  1  0.86183000  0.42626000  0.06683000  1.0
  O  O80  1  0.19857000  0.13389000  0.26958000  1.0
  O  O81  1  0.80143000  0.63389000  0.23042000  1.0
  O  O82  1  0.80143000  0.86611000  0.73042000  1.0
  O  O83  1  0.19857000  0.36611000  0.76958000  1.0
  O  O84  1  0.11324000  0.89073000  0.19680000  1.0
  O  O85  1  0.88676000  0.39073000  0.30320000  1.0
  O  O86  1  0.88676000  0.10926000  0.80320000  1.0
  O  O87  1  0.11324000  0.60926000  0.69679000  1.0
  O  O88  1  0.47080000  0.92946000  0.24200000  1.0
  O  O89  1  0.52920000  0.42946000  0.25800000  1.0
  O  O90  1  0.52920000  0.07054000  0.75800000  1.0
  O  O91  1  0.47080000  0.57054000  0.74199000  1.0
  O  O92  1  0.32523000  0.13527000  0.15935000  1.0
  O  O93  1  0.67478000  0.63527000  0.34065000  1.0
  O  O94  1  0.67478000  0.86472000  0.84065000  1.0
  O  O95  1  0.32522000  0.36472000  0.65935000  1.0
  O  O96  1  0.22189000  0.67441000  0.30701000  1.0
  O  O97  1  0.77812000  0.17442000  0.19299000  1.0
  O  O98  1  0.77811000  0.32558000  0.69299000  1.0
  O  O99  1  0.22189000  0.82558000  0.80701000  1.0
  O  O100  1  0.15152000  0.44654000  0.18207000  1.0
  O  O101  1  0.84848000  0.94655000  0.31793000  1.0
  O  O102  1  0.84848000  0.55344000  0.81793000  1.0
  O  O103  1  0.15152000  0.05344000  0.68207000  1.0
