# generated using pymatgen
data_AgH8C11N3O4
_symmetry_space_group_name_H-M   'P 1'
_cell_length_a   7.72680000
_cell_length_b   11.70190000
_cell_length_c   12.50820000
_cell_angle_alpha   90.00000000
_cell_angle_beta   93.29770000
_cell_angle_gamma   90.00000000
_symmetry_Int_Tables_number   1
_chemical_formula_structural   AgH8C11N3O4
_chemical_formula_sum   'Ag4 H32 C44 N12 O16'
_cell_volume   1129.09669884
_cell_formula_units_Z   4
loop_
 _symmetry_equiv_pos_site_id
 _symmetry_equiv_pos_as_xyz
  1  'x, y, z'
loop_
 _atom_site_type_symbol
 _atom_site_label
 _atom_site_symmetry_multiplicity
 _atom_site_fract_x
 _atom_site_fract_y
 _atom_site_fract_z
 _atom_site_occupancy
  Ag  Ag0  1  0.00278000  0.79842000  0.32148000  1.0
  Ag  Ag1  1  0.49722000  0.79841000  0.17852000  1.0
  Ag  Ag2  1  0.99722000  0.20158000  0.67852000  1.0
  Ag  Ag3  1  0.50278000  0.20159000  0.82148000  1.0
  H  H4  1  0.21207000  0.30680000  0.40743000  1.0
  H  H5  1  0.28793000  0.30680000  0.09257000  1.0
  H  H6  1  0.78793000  0.69320000  0.59257000  1.0
  H  H7  1  0.71207000  0.69320000  0.90743000  1.0
  H  H8  1  0.43490000  0.46183000  0.40750000  1.0
  H  H9  1  0.06510000  0.46183000  0.09250000  1.0
  H  H10  1  0.56510000  0.53817000  0.59250000  1.0
  H  H11  1  0.93490000  0.53817000  0.90750000  1.0
  H  H12  1  0.33697000  0.66367000  0.37385000  1.0
  H  H13  1  0.16303000  0.66367000  0.12615000  1.0
  H  H14  1  0.66303000  0.33633000  0.62615000  1.0
  H  H15  1  0.83697000  0.33633000  0.87385000  1.0
  H  H16  1  0.82105000  0.56605000  0.33995000  1.0
  H  H17  1  0.67895000  0.56605000  0.16005000  1.0
  H  H18  1  0.17895000  0.43395000  0.66005000  1.0
  H  H19  1  0.32105000  0.43395000  0.83995000  1.0
  H  H20  1  0.09837000  0.02131000  0.20035000  1.0
  H  H21  1  0.40163000  0.02131000  0.29965000  1.0
  H  H22  1  0.90163000  0.97869000  0.79965000  1.0
  H  H23  1  0.59837000  0.97869000  0.70035000  1.0
  H  H24  1  0.06243000  0.23101000  0.21952000  1.0
  H  H25  1  0.43757000  0.23101000  0.28047000  1.0
  H  H26  1  0.93757000  0.76899000  0.78048000  1.0
  H  H27  1  0.56243000  0.76899000  0.71953000  1.0
  H  H28  1  0.73570000  0.16180000  0.48261000  1.0
  H  H29  1  0.76430000  0.16180000  0.01738000  1.0
  H  H30  1  0.26430000  0.83820000  0.51739000  1.0
  H  H31  1  0.23570000  0.83821000  0.98262000  1.0
  H  H32  1  0.80349000  0.95720000  0.46158000  1.0
  H  H33  1  0.69651000  0.95720000  0.03842000  1.0
  H  H34  1  0.19651000  0.04280000  0.53842000  1.0
  H  H35  1  0.30349000  0.04280000  0.96158000  1.0
  C  C36  1  0.99912000  0.42448000  0.36806000  1.0
  C  C37  1  0.50088000  0.42448000  0.13194000  1.0
  C  C38  1  0.00089000  0.57552000  0.63194000  1.0
  C  C39  1  0.49911000  0.57552000  0.86806000  1.0
  C  C40  1  0.17358000  0.39486000  0.38942000  1.0
  C  C41  1  0.32642000  0.39486000  0.11058000  1.0
  C  C42  1  0.82643000  0.60514000  0.61058000  1.0
  C  C43  1  0.67358000  0.60514000  0.88942000  1.0
  C  C44  1  0.29780000  0.48113000  0.39204000  1.0
  C  C45  1  0.20220000  0.48113000  0.10796000  1.0
  C  C46  1  0.70221000  0.51887000  0.60796000  1.0
  C  C47  1  0.79779000  0.51887000  0.89203000  1.0
  C  C48  1  0.24470000  0.59331000  0.37375000  1.0
  C  C49  1  0.25530000  0.59331000  0.12625000  1.0
  C  C50  1  0.75531000  0.40668000  0.62625000  1.0
  C  C51  1  0.74470000  0.40669000  0.87375000  1.0
  C  C52  1  0.95593000  0.53982000  0.35279000  1.0
  C  C53  1  0.54407000  0.53981000  0.14721000  1.0
  C  C54  1  0.04407000  0.46018000  0.64721000  1.0
  C  C55  1  0.45593000  0.46019000  0.85279000  1.0
  C  C56  1  0.02691000  0.05646000  0.26533000  1.0
  C  C57  1  0.47309000  0.05646000  0.23467000  1.0
  C  C58  1  0.97309000  0.94354000  0.73466000  1.0
  C  C59  1  0.52691000  0.94355000  0.76534000  1.0
  C  C60  1  0.00537000  0.17394000  0.27647000  1.0
  C  C61  1  0.49463000  0.17394000  0.22353000  1.0
  C  C62  1  0.99463000  0.82607000  0.72353000  1.0
  C  C63  1  0.50536000  0.82607000  0.77647000  1.0
  C  C64  1  0.90095000  0.21472000  0.35590000  1.0
  C  C65  1  0.59905000  0.21472000  0.14410000  1.0
  C  C66  1  0.09905000  0.78528000  0.64410000  1.0
  C  C67  1  0.40095000  0.78528000  0.85590000  1.0
  C  C68  1  0.82326000  0.13568000  0.42183000  1.0
  C  C69  1  0.67674000  0.13568000  0.07817000  1.0
  C  C70  1  0.17674000  0.86432000  0.57817000  1.0
  C  C71  1  0.32326000  0.86432000  0.92183000  1.0
  C  C72  1  0.85798000  0.02025000  0.40895000  1.0
  C  C73  1  0.64202000  0.02025000  0.09104000  1.0
  C  C74  1  0.14202000  0.97975000  0.59105000  1.0
  C  C75  1  0.35798000  0.97975000  0.90896000  1.0
  C  C76  1  0.85759000  0.33874000  0.36739000  1.0
  C  C77  1  0.64240000  0.33874000  0.13261000  1.0
  C  C78  1  0.14241000  0.66126000  0.63261000  1.0
  C  C79  1  0.35761000  0.66126000  0.86739000  1.0
  N  N80  1  0.07610000  0.62277000  0.35513000  1.0
  N  N81  1  0.42391000  0.62277000  0.14487000  1.0
  N  N82  1  0.92391000  0.37723000  0.64487000  1.0
  N  N83  1  0.57609000  0.37723000  0.85513000  1.0
  N  N84  1  0.92279000  0.80135000  0.06850000  1.0
  N  N85  1  0.57721000  0.80135000  0.43150000  1.0
  N  N86  1  0.07721000  0.19865000  0.93150000  1.0
  N  N87  1  0.42279000  0.19865000  0.56850000  1.0
  N  N88  1  0.95771000  0.98049000  0.33188000  1.0
  N  N89  1  0.54229000  0.98048000  0.16812000  1.0
  N  N90  1  0.04229000  0.01951000  0.66812000  1.0
  N  N91  1  0.45770000  0.01952000  0.83188000  1.0
  O  O92  1  0.87592000  0.82963000  0.97387000  1.0
  O  O93  1  0.62408000  0.82963000  0.52613000  1.0
  O  O94  1  0.12408000  0.17037000  0.02613000  1.0
  O  O95  1  0.37592000  0.17037000  0.47387000  1.0
  O  O96  1  0.06466000  0.83957000  0.11224000  1.0
  O  O97  1  0.43534000  0.83957000  0.38776000  1.0
  O  O98  1  0.93534000  0.16043000  0.88776000  1.0
  O  O99  1  0.56466000  0.16043000  0.61224000  1.0
  O  O100  1  0.82973000  0.73496000  0.12206000  1.0
  O  O101  1  0.67027000  0.73496000  0.37794000  1.0
  O  O102  1  0.17027000  0.26503000  0.87794000  1.0
  O  O103  1  0.32973000  0.26503000  0.62206000  1.0
  O  O104  1  0.70527000  0.36715000  0.37735000  1.0
  O  O105  1  0.79474000  0.36716000  0.12265000  1.0
  O  O106  1  0.29473000  0.63285000  0.62265000  1.0
  O  O107  1  0.20525000  0.63284000  0.87735000  1.0
