# generated using pymatgen
data_ZnH19C15SN3O7
_symmetry_space_group_name_H-M   'P 1'
_cell_length_a   4.87863000
_cell_length_b   10.39950000
_cell_length_c   17.63240000
_cell_angle_alpha   92.17590000
_cell_angle_beta   89.99980000
_cell_angle_gamma   90.00000000
_symmetry_Int_Tables_number   1
_chemical_formula_structural   ZnH19C15SN3O7
_chemical_formula_sum   'Zn2 H38 C30 S2 N6 O14'
_cell_volume   893.94030887
_cell_formula_units_Z   2
loop_
 _symmetry_equiv_pos_site_id
 _symmetry_equiv_pos_as_xyz
  1  'x, y, z'
loop_
 _atom_site_type_symbol
 _atom_site_label
 _atom_site_symmetry_multiplicity
 _atom_site_fract_x
 _atom_site_fract_y
 _atom_site_fract_z
 _atom_site_occupancy
  Zn  Zn0  1  0.92791000  0.22112000  0.13893000  1.0
  Zn  Zn1  1  0.42791000  0.77888000  0.86107000  1.0
  H  H2  1  0.61634000  0.55669000  0.43019000  1.0
  H  H3  1  0.11634000  0.44331000  0.56981000  1.0
  H  H4  1  0.64371000  0.35829000  0.50353000  1.0
  H  H5  1  0.14370000  0.64171000  0.49647000  1.0
  H  H6  1  0.96245000  0.19780000  0.37671000  1.0
  H  H7  1  0.46245000  0.80220000  0.62329000  1.0
  H  H8  1  0.93093000  0.39539000  0.30355000  1.0
  H  H9  1  0.43092000  0.60461000  0.69645000  1.0
  H  H10  1  0.52444000  0.12082000  0.50582000  1.0
  H  H11  1  0.02444000  0.87918000  0.49419000  1.0
  H  H12  1  0.20439000  0.06684000  0.46697000  1.0
  H  H13  1  0.70439000  0.93316000  0.53303000  1.0
  H  H14  1  0.21291000  0.17039000  0.54928000  1.0
  H  H15  1  0.71291000  0.82962000  0.45072000  1.0
  H  H16  1  0.33054000  0.10044000  0.06309000  1.0
  H  H17  1  0.83053000  0.89956000  0.93691000  1.0
  H  H18  1  0.10190000  0.99312000  0.05363000  1.0
  H  H19  1  0.60190000  0.00688000  0.94637000  1.0
  H  H20  1  0.07822000  0.50719000  0.18695000  1.0
  H  H21  1  0.57821000  0.49281000  0.81306000  1.0
  H  H22  1  0.54877000  0.57819000  0.08113000  1.0
  H  H23  1  0.04877000  0.42181000  0.91887000  1.0
  H  H24  1  0.24392000  0.49614000  0.05537000  1.0
  H  H25  1  0.74392000  0.50386000  0.94463000  1.0
  H  H26  1  0.26884000  0.77134000  0.12578000  1.0
  H  H27  1  0.76884000  0.22866000  0.87422000  1.0
  H  H28  1  0.96535000  0.69055000  0.09939000  1.0
  H  H29  1  0.46535000  0.30945000  0.90061000  1.0
  H  H30  1  0.06745000  0.93948000  0.18790000  1.0
  H  H31  1  0.56745000  0.06052000  0.81210000  1.0
  H  H32  1  0.44680000  0.97067000  0.35529000  1.0
  H  H33  1  0.94681000  0.02933000  0.64471000  1.0
  H  H34  1  0.48211000  0.19988000  0.27865000  1.0
  H  H35  1  0.98211000  0.80012000  0.72135000  1.0
  H  H36  1  0.81140000  0.82514000  0.29263000  1.0
  H  H37  1  0.31140000  0.17486000  0.70737000  1.0
  H  H38  1  0.61616000  0.60394000  0.24110000  1.0
  H  H39  1  0.11616000  0.39606000  0.75890000  1.0
  C  C40  1  0.27025000  0.48821000  0.36349000  1.0
  C  C41  1  0.77024000  0.51179000  0.63651000  1.0
  C  C42  1  0.47352000  0.47784000  0.41891000  1.0
  C  C43  1  0.97351000  0.52216000  0.58108000  1.0
  C  C44  1  0.48716000  0.36648000  0.45993000  1.0
  C  C45  1  0.98716000  0.63352000  0.54007000  1.0
  C  C46  1  0.30239000  0.26485000  0.44629000  1.0
  C  C47  1  0.80238000  0.73515000  0.55371000  1.0
  C  C48  1  0.10603000  0.27631000  0.38897000  1.0
  C  C49  1  0.60602000  0.72368000  0.61103000  1.0
  C  C50  1  0.08713000  0.38739000  0.34738000  1.0
  C  C51  1  0.58713000  0.61261000  0.65262000  1.0
  C  C52  1  0.31211000  0.14882000  0.49421000  1.0
  C  C53  1  0.81211000  0.85118000  0.50579000  1.0
  C  C54  1  0.44329000  0.39052000  0.17929000  1.0
  C  C55  1  0.94329000  0.60948000  0.82072000  1.0
  C  C56  1  0.29741000  0.52054000  0.17556000  1.0
  C  C57  1  0.79741000  0.47946000  0.82444000  1.0
  C  C58  1  0.32970000  0.56987000  0.09486000  1.0
  C  C59  1  0.82970000  0.43013000  0.90515000  1.0
  C  C60  1  0.18488000  0.69800000  0.08551000  1.0
  C  C61  1  0.68488000  0.30200000  0.91449000  1.0
  C  C62  1  0.20472000  0.75332000  0.00714000  1.0
  C  C63  1  0.70472000  0.24668000  0.99286000  1.0
  C  C64  1  0.90416000  0.97954000  0.22286000  1.0
  C  C65  1  0.40415000  0.02047000  0.77714000  1.0
  C  C66  1  0.58092000  0.00047000  0.31049000  1.0
  C  C67  1  0.08093000  0.99953000  0.68951000  1.0
  C  C68  1  0.60043000  0.11243000  0.27203000  1.0
  C  C69  1  0.10043000  0.88757000  0.72797000  1.0
  S  S70  1  0.24906000  0.63265000  0.31386000  1.0
  S  S71  1  0.74905000  0.36735000  0.68614000  1.0
  N  N72  1  0.40853000  0.61451000  0.23245000  1.0
  N  N73  1  0.90853000  0.38549000  0.76755000  1.0
  N  N74  1  0.80221000  0.09806000  0.21733000  1.0
  N  N75  1  0.30221000  0.90194000  0.78267000  1.0
  N  N76  1  0.77405000  0.91816000  0.27844000  1.0
  N  N77  1  0.27404000  0.08184000  0.72156000  1.0
  O  O78  1  0.69606000  0.39116000  0.19665000  1.0
  O  O79  1  0.19605000  0.60884000  0.80335000  1.0
  O  O80  1  0.31079000  0.28874000  0.16175000  1.0
  O  O81  1  0.81079000  0.71126000  0.83825000  1.0
  O  O82  1  0.39288000  0.73154000  0.35790000  1.0
  O  O83  1  0.89287000  0.26846000  0.64211000  1.0
  O  O84  1  0.96107000  0.65358000  0.29608000  1.0
  O  O85  1  0.46107000  0.34643000  0.70392000  1.0
  O  O86  1  0.34343000  0.69011000  0.95664000  1.0
  O  O87  1  0.84343000  0.30988000  0.04336000  1.0
  O  O88  1  0.08563000  0.85915000  0.99590000  1.0
  O  O89  1  0.58563000  0.14085000  0.00410000  1.0
  O  O90  1  0.16340000  0.06632000  0.08749000  1.0
  O  O91  1  0.66339000  0.93368000  0.91251000  1.0
