# generated using pymatgen
data_AgH16C13N5O4
_symmetry_space_group_name_H-M   'P 1'
_cell_length_a   6.63000000
_cell_length_b   10.29990000
_cell_length_c   23.80000000
_cell_angle_alpha   89.99970000
_cell_angle_beta   89.99950000
_cell_angle_gamma   90.98750000
_symmetry_Int_Tables_number   1
_chemical_formula_structural   AgH16C13N5O4
_chemical_formula_sum   'Ag4 H64 C52 N20 O16'
_cell_volume   1625.02103473
_cell_formula_units_Z   4
loop_
 _symmetry_equiv_pos_site_id
 _symmetry_equiv_pos_as_xyz
  1  'x, y, z'
loop_
 _atom_site_type_symbol
 _atom_site_label
 _atom_site_symmetry_multiplicity
 _atom_site_fract_x
 _atom_site_fract_y
 _atom_site_fract_z
 _atom_site_occupancy
  Ag  Ag0  1  0.89255000  0.24887000  0.23785000  1.0
  Ag  Ag1  1  0.39256000  0.74886000  0.26214000  1.0
  Ag  Ag2  1  0.10745000  0.75114000  0.76215000  1.0
  Ag  Ag3  1  0.60746000  0.25114000  0.73785000  1.0
  H  H4  1  0.36881000  0.15614000  0.26733000  1.0
  H  H5  1  0.86881000  0.65615000  0.23266000  1.0
  H  H6  1  0.63117000  0.84386000  0.73267000  1.0
  H  H7  1  0.13120000  0.34384000  0.76733000  1.0
  H  H8  1  0.38063000  0.27034000  0.20923000  1.0
  H  H9  1  0.88061000  0.77034000  0.29076000  1.0
  H  H10  1  0.61936000  0.72966000  0.79077000  1.0
  H  H11  1  0.11940000  0.22965000  0.70923000  1.0
  H  H12  1  0.18588000  0.20558000  0.34994000  1.0
  H  H13  1  0.68591000  0.70559000  0.15005000  1.0
  H  H14  1  0.81411000  0.79444000  0.65006000  1.0
  H  H15  1  0.31411000  0.29441000  0.84995000  1.0
  H  H16  1  0.06352000  0.35881000  0.35688000  1.0
  H  H17  1  0.56354000  0.85882000  0.14311000  1.0
  H  H18  1  0.93648000  0.64121000  0.64313000  1.0
  H  H19  1  0.43648000  0.14119000  0.85688000  1.0
  H  H20  1  0.69315000  0.34364000  0.35944000  1.0
  H  H21  1  0.19317000  0.84367000  0.14056000  1.0
  H  H22  1  0.30685000  0.65636000  0.64057000  1.0
  H  H23  1  0.80684000  0.15633000  0.85943000  1.0
  H  H24  1  0.54541000  0.19691000  0.35063000  1.0
  H  H25  1  0.04544000  0.69692000  0.14936000  1.0
  H  H26  1  0.45459000  0.80310000  0.64937000  1.0
  H  H27  1  0.95458000  0.30308000  0.85063000  1.0
  H  H28  1  0.57632000  0.46840000  0.21958000  1.0
  H  H29  1  0.07631000  0.96840000  0.28043000  1.0
  H  H30  1  0.42366000  0.53159000  0.78042000  1.0
  H  H31  1  0.92370000  0.03159000  0.71958000  1.0
  H  H32  1  0.70797000  0.49959000  0.28394000  1.0
  H  H33  1  0.20796000  0.99960000  0.21606000  1.0
  H  H34  1  0.29204000  0.50041000  0.71605000  1.0
  H  H35  1  0.79206000  0.00040000  0.78394000  1.0
  H  H36  1  0.07869000  0.51277000  0.28210000  1.0
  H  H37  1  0.57869000  0.01277000  0.21790000  1.0
  H  H38  1  0.92133000  0.48724000  0.71791000  1.0
  H  H39  1  0.42133000  0.98723000  0.78210000  1.0
  H  H40  1  0.20904000  0.47685000  0.21846000  1.0
  H  H41  1  0.70902000  0.97684000  0.28154000  1.0
  H  H42  1  0.79095000  0.52316000  0.78155000  1.0
  H  H43  1  0.29099000  0.02315000  0.71846000  1.0
  H  H44  1  0.52891000  0.54874000  0.36784000  1.0
  H  H45  1  0.02894000  0.04876000  0.13217000  1.0
  H  H46  1  0.47111000  0.45126000  0.63217000  1.0
  H  H47  1  0.97109000  0.95124000  0.86784000  1.0
  H  H48  1  0.26069000  0.55649000  0.36717000  1.0
  H  H49  1  0.76070000  0.05652000  0.13283000  1.0
  H  H50  1  0.73934000  0.44352000  0.63284000  1.0
  H  H51  1  0.23933000  0.94349000  0.86717000  1.0
  H  H52  1  0.70777000  0.23655000  0.04813000  1.0
  H  H53  1  0.20783000  0.73650000  0.45186000  1.0
  H  H54  1  0.29220000  0.76345000  0.95187000  1.0
  H  H55  1  0.79216000  0.26351000  0.54813000  1.0
  H  H56  1  0.64506000  0.28410000  0.94543000  1.0
  H  H57  1  0.14510000  0.78405000  0.55456000  1.0
  H  H58  1  0.35492000  0.71590000  0.05457000  1.0
  H  H59  1  0.85486000  0.21595000  0.44543000  1.0
  H  H60  1  0.78990000  0.68645000  0.97459000  1.0
  H  H61  1  0.28985000  0.18643000  0.52540000  1.0
  H  H62  1  0.21010000  0.31354000  0.02542000  1.0
  H  H63  1  0.71011000  0.81358000  0.47460000  1.0
  H  H64  1  0.85542000  0.63823000  0.07599000  1.0
  H  H65  1  0.35536000  0.13820000  0.42399000  1.0
  H  H66  1  0.14459000  0.36176000  0.92401000  1.0
  H  H67  1  0.64462000  0.86181000  0.57601000  1.0
  C  C68  1  0.37731000  0.25875000  0.25505000  1.0
  C  C69  1  0.87731000  0.75875000  0.24495000  1.0
  C  C70  1  0.62267000  0.74125000  0.74496000  1.0
  C  C71  1  0.12270000  0.24124000  0.75505000  1.0
  C  C72  1  0.19607000  0.30935000  0.33993000  1.0
  C  C73  1  0.69610000  0.80936000  0.16006000  1.0
  C  C74  1  0.80392000  0.69066000  0.66008000  1.0
  C  C75  1  0.30392000  0.19065000  0.83993000  1.0
  C  C76  1  0.55488000  0.30110000  0.34107000  1.0
  C  C77  1  0.05490000  0.80112000  0.15893000  1.0
  C  C78  1  0.44512000  0.69890000  0.65893000  1.0
  C  C79  1  0.94511000  0.19888000  0.84107000  1.0
  C  C80  1  0.57098000  0.45624000  0.26530000  1.0
  C  C81  1  0.07097000  0.95625000  0.23470000  1.0
  C  C82  1  0.42903000  0.54375000  0.73470000  1.0
  C  C83  1  0.92905000  0.04375000  0.76530000  1.0
  C  C84  1  0.21001000  0.46419000  0.26412000  1.0
  C  C85  1  0.71001000  0.96419000  0.23588000  1.0
  C  C86  1  0.78999000  0.53581000  0.73588000  1.0
  C  C87  1  0.29001000  0.03580000  0.76412000  1.0
  C  C88  1  0.39060000  0.50493000  0.35008000  1.0
  C  C89  1  0.89062000  0.00495000  0.14992000  1.0
  C  C90  1  0.60941000  0.49508000  0.64992000  1.0
  C  C91  1  0.10941000  0.99506000  0.85009000  1.0
  C  C92  1  0.82179000  0.40609000  0.12989000  1.0
  C  C93  1  0.32178000  0.90604000  0.37010000  1.0
  C  C94  1  0.17820000  0.59391000  0.87012000  1.0
  C  C95  1  0.67821000  0.09396000  0.62989000  1.0
  C  C96  1  0.78483000  0.43422000  0.06812000  1.0
  C  C97  1  0.28483000  0.93418000  0.43188000  1.0
  C  C98  1  0.21515000  0.56577000  0.93189000  1.0
  C  C99  1  0.71516000  0.06583000  0.56812000  1.0
  C  C100  1  0.72683000  0.33420000  0.03117000  1.0
  C  C101  1  0.22685000  0.83416000  0.46882000  1.0
  C  C102  1  0.27316000  0.66579000  0.96883000  1.0
  C  C103  1  0.77313000  0.16585000  0.53118000  1.0
  C  C104  1  0.69184000  0.35990000  0.97468000  1.0
  C  C105  1  0.19186000  0.85986000  0.52531000  1.0
  C  C106  1  0.30814000  0.64009000  0.02532000  1.0
  C  C107  1  0.80810000  0.14015000  0.47468000  1.0
  C  C108  1  0.71477000  0.48747000  0.95553000  1.0
  C  C109  1  0.21476000  0.98744000  0.54445000  1.0
  C  C110  1  0.28522000  0.51253000  0.04447000  1.0
  C  C111  1  0.78520000  0.01257000  0.45554000  1.0
  C  C112  1  0.77297000  0.58870000  0.99131000  1.0
  C  C113  1  0.27295000  0.08866000  0.50868000  1.0
  C  C114  1  0.22704000  0.41129000  0.00869000  1.0
  C  C115  1  0.72703000  0.91134000  0.49132000  1.0
  C  C116  1  0.80831000  0.56103000  0.04745000  1.0
  C  C117  1  0.30829000  0.06099000  0.45253000  1.0
  C  C118  1  0.19169000  0.43896000  0.95255000  1.0
  C  C119  1  0.69168000  0.93901000  0.54746000  1.0
  N  N120  1  0.56508000  0.31624000  0.27903000  1.0
  N  N121  1  0.06510000  0.81624000  0.22097000  1.0
  N  N122  1  0.43491000  0.68376000  0.72097000  1.0
  N  N123  1  0.93492000  0.18375000  0.77903000  1.0
  N  N124  1  0.19403000  0.32368000  0.27754000  1.0
  N  N125  1  0.69403000  0.82368000  0.22245000  1.0
  N  N126  1  0.80597000  0.67633000  0.72246000  1.0
  N  N127  1  0.30599000  0.17631000  0.77755000  1.0
  N  N128  1  0.37911000  0.36670000  0.36484000  1.0
  N  N129  1  0.87913000  0.86672000  0.13516000  1.0
  N  N130  1  0.62090000  0.63331000  0.63517000  1.0
  N  N131  1  0.12088000  0.13329000  0.86484000  1.0
  N  N132  1  0.39443000  0.52404000  0.28818000  1.0
  N  N133  1  0.89443000  0.02405000  0.21182000  1.0
  N  N134  1  0.60558000  0.47596000  0.71182000  1.0
  N  N135  1  0.10559000  0.97595000  0.78818000  1.0
  N  N136  1  0.67591000  0.51744000  0.89660000  1.0
  N  N137  1  0.17591000  0.01741000  0.60338000  1.0
  N  N138  1  0.32409000  0.48255000  0.10340000  1.0
  N  N139  1  0.82407000  0.98259000  0.39661000  1.0
  O  O140  1  0.77225000  0.29221000  0.14638000  1.0
  O  O141  1  0.27227000  0.79217000  0.35361000  1.0
  O  O142  1  0.22773000  0.70779000  0.85362000  1.0
  O  O143  1  0.72773000  0.20785000  0.64639000  1.0
  O  O144  1  0.89708000  0.49642000  0.15958000  1.0
  O  O145  1  0.39704000  0.99638000  0.34040000  1.0
  O  O146  1  0.10292000  0.50357000  0.84042000  1.0
  O  O147  1  0.60297000  0.00362000  0.65960000  1.0
  O  O148  1  0.70092000  0.63128000  0.88061000  1.0
  O  O149  1  0.20091000  0.13125000  0.61937000  1.0
  O  O150  1  0.29908000  0.36872000  0.11939000  1.0
  O  O151  1  0.79910000  0.86874000  0.38062000  1.0
  O  O152  1  0.61787000  0.42728000  0.86522000  1.0
  O  O153  1  0.11788000  0.92725000  0.63477000  1.0
  O  O154  1  0.38214000  0.57272000  0.13478000  1.0
  O  O155  1  0.88211000  0.07275000  0.36523000  1.0
