# generated using pymatgen
data_ZnPH7C4N2O3
_symmetry_space_group_name_H-M   'P 1'
_cell_length_a   5.14678000
_cell_length_b   8.40996000
_cell_length_c   17.13100000
_cell_angle_alpha   89.99950000
_cell_angle_beta   86.26230000
_cell_angle_gamma   89.99980000
_symmetry_Int_Tables_number   1
_chemical_formula_structural   ZnPH7C4N2O3
_chemical_formula_sum   'Zn4 P4 H28 C16 N8 O12'
_cell_volume   739.92465033
_cell_formula_units_Z   4
loop_
 _symmetry_equiv_pos_site_id
 _symmetry_equiv_pos_as_xyz
  1  'x, y, z'
loop_
 _atom_site_type_symbol
 _atom_site_label
 _atom_site_symmetry_multiplicity
 _atom_site_fract_x
 _atom_site_fract_y
 _atom_site_fract_z
 _atom_site_occupancy
  Zn  Zn0  1  0.18308000  0.35535000  0.57079000  1.0
  Zn  Zn1  1  0.81692000  0.85535000  0.92921000  1.0
  Zn  Zn2  1  0.81692000  0.64465000  0.42921000  1.0
  Zn  Zn3  1  0.18307000  0.14464000  0.07079000  1.0
  P  P4  1  0.70350000  0.28279000  0.47432000  1.0
  P  P5  1  0.29651000  0.78279000  0.02568000  1.0
  P  P6  1  0.29651000  0.71721000  0.52568000  1.0
  P  P7  1  0.70348000  0.21721000  0.97432000  1.0
  H  H8  1  0.74284000  0.99751000  0.46890000  1.0
  H  H9  1  0.25717000  0.49750000  0.03110000  1.0
  H  H10  1  0.25716000  0.00249000  0.53110000  1.0
  H  H11  1  0.74283000  0.50249000  0.96890000  1.0
  H  H12  1  0.02422000  0.09524000  0.42506000  1.0
  H  H13  1  0.97578000  0.59524000  0.07494000  1.0
  H  H14  1  0.97578000  0.90476000  0.57494000  1.0
  H  H15  1  0.02421000  0.40475000  0.92506000  1.0
  H  H16  1  0.73109000  0.08277000  0.37412000  1.0
  H  H17  1  0.26891000  0.58276000  0.12588000  1.0
  H  H18  1  0.26891000  0.91723000  0.62588000  1.0
  H  H19  1  0.73109000  0.41723000  0.87412000  1.0
  H  H20  1  0.61803000  0.14869000  0.65543000  1.0
  H  H21  1  0.38197000  0.64869000  0.84457000  1.0
  H  H22  1  0.38196000  0.85132000  0.34457000  1.0
  H  H23  1  0.61803000  0.35130000  0.15543000  1.0
  H  H24  1  0.50845000  0.03601000  0.80868000  1.0
  H  H25  1  0.49156000  0.53600000  0.69133000  1.0
  H  H26  1  0.49155000  0.96400000  0.19132000  1.0
  H  H27  1  0.50846000  0.46399000  0.30867000  1.0
  H  H28  1  0.88044000  0.31598000  0.74001000  1.0
  H  H29  1  0.11956000  0.81597000  0.75999000  1.0
  H  H30  1  0.11955000  0.68403000  0.25999000  1.0
  H  H31  1  0.88043000  0.18403000  0.24001000  1.0
  H  H32  1  0.04609000  0.14178000  0.84745000  1.0
  H  H33  1  0.95391000  0.64177000  0.65255000  1.0
  H  H34  1  0.95390000  0.85823000  0.15255000  1.0
  H  H35  1  0.04611000  0.35823000  0.34745000  1.0
  C  C36  1  0.81081000  0.09688000  0.43150000  1.0
  C  C37  1  0.18920000  0.59687000  0.06850000  1.0
  C  C38  1  0.18919000  0.90312000  0.56850000  1.0
  C  C39  1  0.81080000  0.40312000  0.93150000  1.0
  C  C40  1  0.44952000  0.16488000  0.69598000  1.0
  C  C41  1  0.55050000  0.66487000  0.80402000  1.0
  C  C42  1  0.55049000  0.83514000  0.30402000  1.0
  C  C43  1  0.44951000  0.33512000  0.19597000  1.0
  C  C44  1  0.39640000  0.10824000  0.77071000  1.0
  C  C45  1  0.60361000  0.60824000  0.72931000  1.0
  C  C46  1  0.60359000  0.89176000  0.22930000  1.0
  C  C47  1  0.39641000  0.39176000  0.27070000  1.0
  C  C48  1  0.06753000  0.25643000  0.73693000  1.0
  C  C49  1  0.93247000  0.75642000  0.76307000  1.0
  C  C50  1  0.93247000  0.74358000  0.26307000  1.0
  C  C51  1  0.06753000  0.24357000  0.23693000  1.0
  N  N52  1  0.24209000  0.25768000  0.67551000  1.0
  N  N53  1  0.75792000  0.75767000  0.82449000  1.0
  N  N54  1  0.75791000  0.74234000  0.32449000  1.0
  N  N55  1  0.24207000  0.24232000  0.17552000  1.0
  N  N56  1  0.15523000  0.16768000  0.79519000  1.0
  N  N57  1  0.84477000  0.66767000  0.70482000  1.0
  N  N58  1  0.84476000  0.83233000  0.20481000  1.0
  N  N59  1  0.15523000  0.33232000  0.29519000  1.0
  O  O60  1  0.40359000  0.27910000  0.48241000  1.0
  O  O61  1  0.59642000  0.77910000  0.01759000  1.0
  O  O62  1  0.59642000  0.72090000  0.51759000  1.0
  O  O63  1  0.40358000  0.22090000  0.98241000  1.0
  O  O64  1  0.81740000  0.30314000  0.55480000  1.0
  O  O65  1  0.18260000  0.80313000  0.94520000  1.0
  O  O66  1  0.18260000  0.69687000  0.44520000  1.0
  O  O67  1  0.81739000  0.19686000  0.05480000  1.0
  O  O68  1  0.80774000  0.41135000  0.41464000  1.0
  O  O69  1  0.19226000  0.91135000  0.08536000  1.0
  O  O70  1  0.19227000  0.58865000  0.58536000  1.0
  O  O71  1  0.80773000  0.08865000  0.91464000  1.0
