# generated using pymatgen
data_SmH14C17N3O8
_symmetry_space_group_name_H-M   'P 1'
_cell_length_a   5.87887000
_cell_length_b   16.64170000
_cell_length_c   20.22330000
_cell_angle_alpha   69.56600000
_cell_angle_beta   89.99890000
_cell_angle_gamma   89.99960000
_symmetry_Int_Tables_number   1
_chemical_formula_structural   SmH14C17N3O8
_chemical_formula_sum   'Sm4 H56 C68 N12 O32'
_cell_volume   1854.03492566
_cell_formula_units_Z   4
loop_
 _symmetry_equiv_pos_site_id
 _symmetry_equiv_pos_as_xyz
  1  'x, y, z'
loop_
 _atom_site_type_symbol
 _atom_site_label
 _atom_site_symmetry_multiplicity
 _atom_site_fract_x
 _atom_site_fract_y
 _atom_site_fract_z
 _atom_site_occupancy
  Sm  Sm0  1  0.58237000  0.12992000  0.97125000  1.0
  Sm  Sm1  1  0.08236000  0.87008000  0.52874000  1.0
  Sm  Sm2  1  0.41762000  0.87007000  0.02874000  1.0
  Sm  Sm3  1  0.91762000  0.12992000  0.47126000  1.0
  H  H4  1  0.17740000  0.04449000  0.05623000  1.0
  H  H5  1  0.67739000  0.95551000  0.44377000  1.0
  H  H6  1  0.82259000  0.95550000  0.94377000  1.0
  H  H7  1  0.32260000  0.04450000  0.55623000  1.0
  H  H8  1  0.11574000  0.14317000  0.02891000  1.0
  H  H9  1  0.61575000  0.85684000  0.47108000  1.0
  H  H10  1  0.88425000  0.85683000  0.97109000  1.0
  H  H11  1  0.38425000  0.14317000  0.52892000  1.0
  H  H12  1  0.14711000  0.23781000  0.91900000  1.0
  H  H13  1  0.64710000  0.76219000  0.58100000  1.0
  H  H14  1  0.85289000  0.76219000  0.08100000  1.0
  H  H15  1  0.35289000  0.23781000  0.41900000  1.0
  H  H16  1  0.25889000  0.22659000  0.85107000  1.0
  H  H17  1  0.75885000  0.77341000  0.64893000  1.0
  H  H18  1  0.74110000  0.77341000  0.14893000  1.0
  H  H19  1  0.24114000  0.22659000  0.35108000  1.0
  H  H20  1  0.21297000  0.34293000  0.97567000  1.0
  H  H21  1  0.71293000  0.65708000  0.52432000  1.0
  H  H22  1  0.78704000  0.65706000  0.02433000  1.0
  H  H23  1  0.28705000  0.34292000  0.47569000  1.0
  H  H24  1  0.37564000  0.44493000  0.02692000  1.0
  H  H25  1  0.87560000  0.55507000  0.47307000  1.0
  H  H26  1  0.62437000  0.55506000  0.97308000  1.0
  H  H27  1  0.12440000  0.44494000  0.52693000  1.0
  H  H28  1  0.78067000  0.41445000  0.15947000  1.0
  H  H29  1  0.28064000  0.58556000  0.34052000  1.0
  H  H30  1  0.21936000  0.58555000  0.84052000  1.0
  H  H31  1  0.71936000  0.41445000  0.65948000  1.0
  H  H32  1  0.61348000  0.31795000  0.10341000  1.0
  H  H33  1  0.11346000  0.68206000  0.39658000  1.0
  H  H34  1  0.38653000  0.68205000  0.89659000  1.0
  H  H35  1  0.88654000  0.31794000  0.60342000  1.0
  H  H36  1  0.95229000  0.48589000  0.21190000  1.0
  H  H37  1  0.45225000  0.51411000  0.28809000  1.0
  H  H38  1  0.04775000  0.51411000  0.78809000  1.0
  H  H39  1  0.54777000  0.48590000  0.71191000  1.0
  H  H40  1  0.54266000  0.62991000  0.13550000  1.0
  H  H41  1  0.04261000  0.37009000  0.36449000  1.0
  H  H42  1  0.45741000  0.37008000  0.86450000  1.0
  H  H43  1  0.95742000  0.62993000  0.63551000  1.0
  H  H44  1  0.52207000  0.01812000  0.78228000  1.0
  H  H45  1  0.02204000  0.98188000  0.71773000  1.0
  H  H46  1  0.47791000  0.98188000  0.21773000  1.0
  H  H47  1  0.97794000  0.01812000  0.28227000  1.0
  H  H48  1  0.46924000  0.11920000  0.66025000  1.0
  H  H49  1  0.96920000  0.88080000  0.83975000  1.0
  H  H50  1  0.53074000  0.88080000  0.33975000  1.0
  H  H51  1  0.03081000  0.11920000  0.16025000  1.0
  H  H52  1  0.13261000  0.21641000  0.63002000  1.0
  H  H53  1  0.63256000  0.78359000  0.86998000  1.0
  H  H54  1  0.86737000  0.78358000  0.36998000  1.0
  H  H55  1  0.36745000  0.21642000  0.13002000  1.0
  H  H56  1  0.85773000  0.21538000  0.72569000  1.0
  H  H57  1  0.35768000  0.78462000  0.77431000  1.0
  H  H58  1  0.14224000  0.78461000  0.27430000  1.0
  H  H59  1  0.64230000  0.21538000  0.22570000  1.0
  C  C60  1  0.90100000  0.32389000  0.03613000  1.0
  C  C61  1  0.40098000  0.67611000  0.46387000  1.0
  C  C62  1  0.09899000  0.67610000  0.96387000  1.0
  C  C63  1  0.59900000  0.32389000  0.53613000  1.0
  C  C64  1  0.11682000  0.35922000  0.01521000  1.0
  C  C65  1  0.61678000  0.64078000  0.48478000  1.0
  C  C66  1  0.88318000  0.64077000  0.98479000  1.0
  C  C67  1  0.38322000  0.35922000  0.51523000  1.0
  C  C68  1  0.21086000  0.41580000  0.04455000  1.0
  C  C69  1  0.71084000  0.58419000  0.45544000  1.0
  C  C70  1  0.78916000  0.58419000  0.95544000  1.0
  C  C71  1  0.28915000  0.41581000  0.54456000  1.0
  C  C72  1  0.09046000  0.43537000  0.09666000  1.0
  C  C73  1  0.59041000  0.56462000  0.40333000  1.0
  C  C74  1  0.90957000  0.56463000  0.90334000  1.0
  C  C75  1  0.40958000  0.43538000  0.59667000  1.0
  C  C76  1  0.87580000  0.39936000  0.11911000  1.0
  C  C77  1  0.37577000  0.60064000  0.38088000  1.0
  C  C78  1  0.12422000  0.60064000  0.88089000  1.0
  C  C79  1  0.62424000  0.39935000  0.61912000  1.0
  C  C80  1  0.78206000  0.34483000  0.08804000  1.0
  C  C81  1  0.28202000  0.65517000  0.41195000  1.0
  C  C82  1  0.21797000  0.65516000  0.91195000  1.0
  C  C83  1  0.71797000  0.34483000  0.58806000  1.0
  C  C84  1  0.79297000  0.26521000  0.00484000  1.0
  C  C85  1  0.29293000  0.73479000  0.49515000  1.0
  C  C86  1  0.20704000  0.73478000  0.99516000  1.0
  C  C87  1  0.70707000  0.26521000  0.50485000  1.0
  C  C88  1  0.10298000  0.51441000  0.18159000  1.0
  C  C89  1  0.60293000  0.48559000  0.31840000  1.0
  C  C90  1  0.89706000  0.48559000  0.81841000  1.0
  C  C91  1  0.39710000  0.51442000  0.68160000  1.0
  C  C92  1  0.40404000  0.58443000  0.14262000  1.0
  C  C93  1  0.90398000  0.41556000  0.35737000  1.0
  C  C94  1  0.59602000  0.41556000  0.85738000  1.0
  C  C95  1  0.09604000  0.58445000  0.64262000  1.0
  C  C96  1  0.03665000  0.11711000  0.80680000  1.0
  C  C97  1  0.53662000  0.88289000  0.69320000  1.0
  C  C98  1  0.96334000  0.88289000  0.19319000  1.0
  C  C99  1  0.46335000  0.11711000  0.30681000  1.0
  C  C100  1  0.22376000  0.06064000  0.82268000  1.0
  C  C101  1  0.72375000  0.93937000  0.67733000  1.0
  C  C102  1  0.77622000  0.93937000  0.17732000  1.0
  C  C103  1  0.27624000  0.06064000  0.32268000  1.0
  C  C104  1  0.37781000  0.06211000  0.76953000  1.0
  C  C105  1  0.87777000  0.93789000  0.73047000  1.0
  C  C106  1  0.62220000  0.93788000  0.23047000  1.0
  C  C107  1  0.12222000  0.06212000  0.26953000  1.0
  C  C108  1  0.34722000  0.11913000  0.70082000  1.0
  C  C109  1  0.84720000  0.88087000  0.79918000  1.0
  C  C110  1  0.65277000  0.88087000  0.29917000  1.0
  C  C111  1  0.15281000  0.11914000  0.20082000  1.0
  C  C112  1  0.15950000  0.17424000  0.68438000  1.0
  C  C113  1  0.65944000  0.82575000  0.81562000  1.0
  C  C114  1  0.84049000  0.82576000  0.31562000  1.0
  C  C115  1  0.34054000  0.17425000  0.18438000  1.0
  C  C116  1  0.00593000  0.17337000  0.73708000  1.0
  C  C117  1  0.50591000  0.82663000  0.76291000  1.0
  C  C118  1  0.99405000  0.82662000  0.26292000  1.0
  C  C119  1  0.49408000  0.17337000  0.23709000  1.0
  C  C120  1  0.87107000  0.11832000  0.86227000  1.0
  C  C121  1  0.37107000  0.88169000  0.63773000  1.0
  C  C122  1  0.12891000  0.88168000  0.13773000  1.0
  C  C123  1  0.62892000  0.11832000  0.36228000  1.0
  C  C124  1  0.27405000  0.99810000  0.89470000  1.0
  C  C125  1  0.77405000  0.00190000  0.60530000  1.0
  C  C126  1  0.72593000  0.00190000  0.10530000  1.0
  C  C127  1  0.22592000  0.99810000  0.39470000  1.0
  N  N128  1  0.18421000  0.49297000  0.12681000  1.0
  N  N129  1  0.68416000  0.50702000  0.37319000  1.0
  N  N130  1  0.81583000  0.50703000  0.87318000  1.0
  N  N131  1  0.31585000  0.49298000  0.62681000  1.0
  N  N132  1  0.37928000  0.53790000  0.10139000  1.0
  N  N133  1  0.87922000  0.46209000  0.39860000  1.0
  N  N134  1  0.62077000  0.46209000  0.89861000  1.0
  N  N135  1  0.12080000  0.53792000  0.60140000  1.0
  N  N136  1  0.23872000  0.57202000  0.19304000  1.0
  N  N137  1  0.73867000  0.42798000  0.30694000  1.0
  N  N138  1  0.76134000  0.42797000  0.80695000  1.0
  N  N139  1  0.26136000  0.57204000  0.69305000  1.0
  O  O140  1  0.58123000  0.24996000  0.01310000  1.0
  O  O141  1  0.08121000  0.75004000  0.48689000  1.0
  O  O142  1  0.41877000  0.75003000  0.98690000  1.0
  O  O143  1  0.91877000  0.24996000  0.51311000  1.0
  O  O144  1  0.91406000  0.22697000  0.97073000  1.0
  O  O145  1  0.41404000  0.77303000  0.52926000  1.0
  O  O146  1  0.08594000  0.77303000  0.02927000  1.0
  O  O147  1  0.58595000  0.22697000  0.47074000  1.0
  O  O148  1  0.88958000  0.06169000  0.92497000  1.0
  O  O149  1  0.38958000  0.93831000  0.57502000  1.0
  O  O150  1  0.11042000  0.93831000  0.07503000  1.0
  O  O151  1  0.61039000  0.06169000  0.42498000  1.0
  O  O152  1  0.71737000  0.17569000  0.84871000  1.0
  O  O153  1  0.21736000  0.82430000  0.65129000  1.0
  O  O154  1  0.28262000  0.82430000  0.15129000  1.0
  O  O155  1  0.78263000  0.17569000  0.34871000  1.0
  O  O156  1  0.22207000  0.91998000  0.91080000  1.0
  O  O157  1  0.72208000  0.08002000  0.58921000  1.0
  O  O158  1  0.77791000  0.08002000  0.08920000  1.0
  O  O159  1  0.27788000  0.91998000  0.41079000  1.0
  O  O160  1  0.39042000  0.02287000  0.93795000  1.0
  O  O161  1  0.89042000  0.97713000  0.56205000  1.0
  O  O162  1  0.60957000  0.97712000  0.06205000  1.0
  O  O163  1  0.10956000  0.02288000  0.43796000  1.0
  O  O164  1  0.24439000  0.10295000  0.04311000  1.0
  O  O165  1  0.74439000  0.89705000  0.45689000  1.0
  O  O166  1  0.75560000  0.89705000  0.95689000  1.0
  O  O167  1  0.25560000  0.10295000  0.54311000  1.0
  O  O168  1  0.29455000  0.23241000  0.89624000  1.0
  O  O169  1  0.79453000  0.76759000  0.60376000  1.0
  O  O170  1  0.70545000  0.76759000  0.10376000  1.0
  O  O171  1  0.20546000  0.23242000  0.39624000  1.0
