# generated using pymatgen
data_NaP2H8C2NO6
_symmetry_space_group_name_H-M   'P 1'
_cell_length_a   5.49708000
_cell_length_b   8.11406000
_cell_length_c   9.00076000
_cell_angle_alpha   99.19710000
_cell_angle_beta   102.79100000
_cell_angle_gamma   100.70200000
_symmetry_Int_Tables_number   1
_chemical_formula_structural   NaP2H8C2NO6
_chemical_formula_sum   'Na2 P4 H16 C4 N2 O12'
_cell_volume   376.14035806
_cell_formula_units_Z   2
loop_
 _symmetry_equiv_pos_site_id
 _symmetry_equiv_pos_as_xyz
  1  'x, y, z'
loop_
 _atom_site_type_symbol
 _atom_site_label
 _atom_site_symmetry_multiplicity
 _atom_site_fract_x
 _atom_site_fract_y
 _atom_site_fract_z
 _atom_site_occupancy
  Na  Na0  1  0.44342000  0.62624000  0.15743000  1.0
  Na  Na1  1  0.55659000  0.37376000  0.84257000  1.0
  P  P2  1  0.85849000  0.99556000  0.26735000  1.0
  P  P3  1  0.14154000  0.00445000  0.73267000  1.0
  P  P4  1  0.90392000  0.34541000  0.15667000  1.0
  P  P5  1  0.09608000  0.65459000  0.84333000  1.0
  H  H6  1  0.75170000  0.91593000  0.47263000  1.0
  H  H7  1  0.24829000  0.08407000  0.52737000  1.0
  H  H8  1  0.37169000  0.07999000  0.25920000  1.0
  H  H9  1  0.62831000  0.92001000  0.74080000  1.0
  H  H10  1  0.39714000  0.26966000  0.21263000  1.0
  H  H11  1  0.60285000  0.73033000  0.78737000  1.0
  H  H12  1  0.01188000  0.33473000  0.49554000  1.0
  H  H13  1  0.98812000  0.66526000  0.50446000  1.0
  H  H14  1  0.72608000  0.40939000  0.44560000  1.0
  H  H15  1  0.27392000  0.59061000  0.55441000  1.0
  H  H16  1  0.71765000  0.21299000  0.50930000  1.0
  H  H17  1  0.28235000  0.78700000  0.49070000  1.0
  H  H18  1  0.41446000  0.10535000  0.08196000  1.0
  H  H19  1  0.58554000  0.89465000  0.91803000  1.0
  H  H20  1  0.99018000  0.18192000  0.95501000  1.0
  H  H21  1  0.00982000  0.81807000  0.04499000  1.0
  C  C22  1  0.75538000  0.20041000  0.27131000  1.0
  C  C23  1  0.24461000  0.79959000  0.72869000  1.0
  C  C24  1  0.80601000  0.29496000  0.44063000  1.0
  C  C25  1  0.19399000  0.70504000  0.55937000  1.0
  N  N26  1  0.47262000  0.15899000  0.20094000  1.0
  N  N27  1  0.52739000  0.84101000  0.79905000  1.0
  O  O28  1  0.67844000  0.88787000  0.35173000  1.0
  O  O29  1  0.32156000  0.11213000  0.64827000  1.0
  O  O30  1  0.79718000  0.89727000  0.10055000  1.0
  O  O31  1  0.20283000  0.10273000  0.89945000  1.0
  O  O32  1  0.13800000  0.03429000  0.35858000  1.0
  O  O33  1  0.86198000  0.96574000  0.64142000  1.0
  O  O34  1  0.74330000  0.47600000  0.13960000  1.0
  O  O35  1  0.25671000  0.52401000  0.86041000  1.0
  O  O36  1  0.84325000  0.22817000  0.98500000  1.0
  O  O37  1  0.15673000  0.77184000  0.01499000  1.0
  O  O38  1  0.18960000  0.40379000  0.22992000  1.0
  O  O39  1  0.81041000  0.59620000  0.77008000  1.0
