# generated using pymatgen
data_ZnH8C9N3O2
_symmetry_space_group_name_H-M   'P 1'
_cell_length_a   8.84427000
_cell_length_b   9.95679000
_cell_length_c   11.24550000
_cell_angle_alpha   89.99990000
_cell_angle_beta   92.51420000
_cell_angle_gamma   90.00000000
_symmetry_Int_Tables_number   1
_chemical_formula_structural   ZnH8C9N3O2
_chemical_formula_sum   'Zn4 H32 C36 N12 O8'
_cell_volume   989.33152483
_cell_formula_units_Z   4
loop_
 _symmetry_equiv_pos_site_id
 _symmetry_equiv_pos_as_xyz
  1  'x, y, z'
loop_
 _atom_site_type_symbol
 _atom_site_label
 _atom_site_symmetry_multiplicity
 _atom_site_fract_x
 _atom_site_fract_y
 _atom_site_fract_z
 _atom_site_occupancy
  Zn  Zn0  1  0.79036000  0.27331000  0.87376000  1.0
  Zn  Zn1  1  0.70964000  0.77331000  0.12624000  1.0
  Zn  Zn2  1  0.20964000  0.72669000  0.12624000  1.0
  Zn  Zn3  1  0.29036000  0.22669000  0.87376000  1.0
  H  H4  1  0.94072000  0.92320000  0.33700000  1.0
  H  H5  1  0.55928000  0.42320000  0.66300000  1.0
  H  H6  1  0.05928000  0.07680000  0.66300000  1.0
  H  H7  1  0.44072000  0.57680000  0.33700000  1.0
  H  H8  1  0.10753000  0.10590000  0.41761000  1.0
  H  H9  1  0.39247000  0.60590000  0.58239000  1.0
  H  H10  1  0.89247000  0.89410000  0.58239000  1.0
  H  H11  1  0.60753000  0.39410000  0.41761000  1.0
  H  H12  1  0.14341000  0.31573000  0.30562000  1.0
  H  H13  1  0.35659000  0.81574000  0.69438000  1.0
  H  H14  1  0.85659000  0.68427000  0.69438000  1.0
  H  H15  1  0.64342000  0.18426000  0.30562000  1.0
  H  H16  1  0.00781000  0.35533000  0.10829000  1.0
  H  H17  1  0.49219000  0.85533000  0.89171000  1.0
  H  H18  1  0.99219000  0.64467000  0.89171000  1.0
  H  H19  1  0.50781000  0.14467000  0.10829000  1.0
  H  H20  1  0.87942000  0.45294000  0.67948000  1.0
  H  H21  1  0.62058000  0.95294000  0.32052000  1.0
  H  H22  1  0.12058000  0.54706000  0.32052000  1.0
  H  H23  1  0.37942000  0.04706000  0.67947000  1.0
  H  H24  1  0.90519000  0.30745000  0.59542000  1.0
  H  H25  1  0.59481000  0.80745000  0.40458000  1.0
  H  H26  1  0.09481000  0.69255000  0.40458000  1.0
  H  H27  1  0.40519000  0.19255000  0.59542000  1.0
  H  H28  1  0.14046000  0.40844000  0.51164000  1.0
  H  H29  1  0.35954000  0.90844000  0.48835000  1.0
  H  H30  1  0.85954000  0.59156000  0.48835000  1.0
  H  H31  1  0.64046000  0.09156000  0.51165000  1.0
  H  H32  1  0.11345000  0.55519000  0.59564000  1.0
  H  H33  1  0.38655000  0.05519000  0.40436000  1.0
  H  H34  1  0.88655000  0.44481000  0.40436000  1.0
  H  H35  1  0.61345000  0.94481000  0.59564000  1.0
  C  C36  1  0.90218000  0.15780000  0.11182000  1.0
  C  C37  1  0.59782000  0.65780000  0.88818000  1.0
  C  C38  1  0.09783000  0.84220000  0.88818000  1.0
  C  C39  1  0.40218000  0.34220000  0.11182000  1.0
  C  C40  1  0.88323000  0.03651000  0.17487000  1.0
  C  C41  1  0.61677000  0.53651000  0.82513000  1.0
  C  C42  1  0.11677000  0.96349000  0.82513000  1.0
  C  C43  1  0.38323000  0.46349000  0.17487000  1.0
  C  C44  1  0.95537000  0.01573000  0.28729000  1.0
  C  C45  1  0.54463000  0.51573000  0.71271000  1.0
  C  C46  1  0.04463000  0.98427000  0.71271000  1.0
  C  C47  1  0.45537000  0.48427000  0.28729000  1.0
  C  C48  1  0.04745000  0.11862000  0.33153000  1.0
  C  C49  1  0.45255000  0.61862000  0.66847000  1.0
  C  C50  1  0.95255000  0.88138000  0.66847000  1.0
  C  C51  1  0.54745000  0.38138000  0.33153000  1.0
  C  C52  1  0.06746000  0.23939000  0.26736000  1.0
  C  C53  1  0.43254000  0.73939000  0.73264000  1.0
  C  C54  1  0.93254000  0.76061000  0.73264000  1.0
  C  C55  1  0.56746000  0.26061000  0.26736000  1.0
  C  C56  1  0.99458000  0.26205000  0.15743000  1.0
  C  C57  1  0.50541000  0.76205000  0.84257000  1.0
  C  C58  1  0.00542000  0.73795000  0.84256000  1.0
  C  C59  1  0.49459000  0.23795000  0.15743000  1.0
  C  C60  1  0.06561000  0.33134000  0.73818000  1.0
  C  C61  1  0.43439000  0.83134000  0.26182000  1.0
  C  C62  1  0.93438000  0.66866000  0.26182000  1.0
  C  C63  1  0.56561000  0.16866000  0.73818000  1.0
  C  C64  1  0.96713000  0.39148000  0.63931000  1.0
  C  C65  1  0.53287000  0.89148000  0.36069000  1.0
  C  C66  1  0.03287000  0.60852000  0.36069000  1.0
  C  C67  1  0.46713000  0.10852000  0.63931000  1.0
  C  C68  1  0.05291000  0.47232000  0.54933000  1.0
  C  C69  1  0.44709000  0.97232000  0.45067000  1.0
  C  C70  1  0.94709000  0.52768000  0.45067000  1.0
  C  C71  1  0.55291000  0.02768000  0.54933000  1.0
  N  N72  1  0.81607000  0.14562000  0.00783000  1.0
  N  N73  1  0.68393000  0.64561000  0.99217000  1.0
  N  N74  1  0.18393000  0.85439000  0.99217000  1.0
  N  N75  1  0.31607000  0.35439000  0.00783000  1.0
  N  N76  1  0.74865000  0.02605000  0.00502000  1.0
  N  N77  1  0.75135000  0.52605000  0.99498000  1.0
  N  N78  1  0.25135000  0.97395000  0.99498000  1.0
  N  N79  1  0.24865000  0.47395000  0.00502000  1.0
  N  N80  1  0.78706000  0.95877000  0.10440000  1.0
  N  N81  1  0.71294000  0.45877000  0.89560000  1.0
  N  N82  1  0.21294000  0.04123000  0.89560000  1.0
  N  N83  1  0.28706000  0.54123000  0.10440000  1.0
  O  O84  1  0.00936000  0.29612000  0.83607000  1.0
  O  O85  1  0.49064000  0.79612000  0.16393000  1.0
  O  O86  1  0.99064000  0.70388000  0.16393000  1.0
  O  O87  1  0.50936000  0.20388000  0.83607000  1.0
  O  O88  1  0.20614000  0.31251000  0.72203000  1.0
  O  O89  1  0.29386000  0.81251000  0.27797000  1.0
  O  O90  1  0.79386000  0.68749000  0.27797000  1.0
  O  O91  1  0.70614000  0.18749000  0.72203000  1.0
