# generated using pymatgen
data_Al3H23(C5O2)7
_symmetry_space_group_name_H-M   'P 1'
_cell_length_a   12.06690000
_cell_length_b   12.32050000
_cell_length_c   26.99000000
_cell_angle_alpha   82.77310000
_cell_angle_beta   82.48090000
_cell_angle_gamma   62.99270000
_symmetry_Int_Tables_number   1
_chemical_formula_structural   Al3H23(C5O2)7
_chemical_formula_sum   'Al6 H46 C70 O28'
_cell_volume   3534.26716427
_cell_formula_units_Z   2
loop_
 _symmetry_equiv_pos_site_id
 _symmetry_equiv_pos_as_xyz
  1  'x, y, z'
loop_
 _atom_site_type_symbol
 _atom_site_label
 _atom_site_symmetry_multiplicity
 _atom_site_fract_x
 _atom_site_fract_y
 _atom_site_fract_z
 _atom_site_occupancy
  Al  Al0  1  0.40204000  0.40345000  0.50964000  1.0
  Al  Al1  1  0.66156000  0.42134000  0.49566000  1.0
  Al  Al2  1  0.42361000  0.65601000  0.49712000  1.0
  Al  Al3  1  0.93259000  0.93442000  0.97853000  1.0
  Al  Al4  1  0.91377000  0.68023000  0.99551000  1.0
  Al  Al5  1  0.67460000  0.91333000  0.99410000  1.0
  H  H6  1  0.36175000  0.66035000  0.27067000  1.0
  H  H7  1  0.79164000  0.26598000  0.26622000  1.0
  H  H8  1  0.23858000  0.80993000  0.26978000  1.0
  H  H9  1  0.86808000  0.10628000  0.27955000  1.0
  H  H10  1  0.78898000  0.23917000  0.18202000  1.0
  H  H11  1  0.55512000  0.37598000  0.26968000  1.0
  H  H12  1  0.55162000  0.34216000  0.18660000  1.0
  H  H13  1  0.87067000  0.08006000  0.19490000  1.0
  H  H14  1  0.48410000  0.73336000  0.80275000  1.0
  H  H15  1  0.46733000  0.71578000  0.71913000  1.0
  H  H16  1  0.73830000  0.78645000  0.67976000  1.0
  H  H17  1  0.33982000  0.63162000  0.19081000  1.0
  H  H18  1  0.57429000  0.85090000  0.69118000  1.0
  H  H19  1  0.59190000  0.86874000  0.77469000  1.0
  H  H20  1  0.97758000  0.73398000  0.30919000  1.0
  H  H21  1  0.75611000  0.80255000  0.76325000  1.0
  H  H22  1  0.79131000  0.46104000  0.71183000  1.0
  H  H23  1  0.86799000  0.55332000  0.69173000  1.0
  H  H24  1  0.81106000  0.47848000  0.79514000  1.0
  H  H25  1  0.55667000  0.55566000  0.72763000  1.0
  H  H26  1  0.57285000  0.57330000  0.81112000  1.0
  H  H27  1  0.88424000  0.57390000  0.77508000  1.0
  H  H28  1  0.10458000  0.52834000  0.22084000  1.0
  H  H29  1  0.02506000  0.85114000  0.29538000  1.0
  H  H30  1  0.98749000  0.86047000  0.21181000  1.0
  H  H31  1  0.95235000  0.73528000  0.22477000  1.0
  H  H32  1  0.30914000  0.48513000  0.28247000  1.0
  H  H33  1  0.26338000  0.48622000  0.20149000  1.0
  H  H34  1  0.06582000  0.95434000  0.16251000  1.0
  H  H35  1  0.11964000  0.96374000  0.21956000  1.0
  H  H36  1  0.16849000  0.02061000  0.16172000  1.0
  H  H37  1  0.34444000  0.82688000  0.17984000  1.0
  H  H38  1  0.27148000  0.80402000  0.13250000  1.0
  H  H39  1  0.46925000  0.25496000  0.20684000  1.0
  H  H40  1  0.17652000  0.33549000  0.26424000  1.0
  H  H41  1  0.28552000  0.29118000  0.31005000  1.0
  H  H42  1  0.13431000  0.30266000  0.32787000  1.0
  H  H43  1  0.15252000  0.48280000  0.35292000  1.0
  H  H44  1  0.03917000  0.52851000  0.30933000  1.0
  H  H45  1  0.46727000  0.29413000  0.28961000  1.0
  H  H46  1  0.74113000  0.98830000  0.30737000  1.0
  H  H47  1  0.57666000  0.06561000  0.30989000  1.0
  H  H48  1  0.58615000  0.02673000  0.22631000  1.0
  H  H49  1  0.75081000  0.95513000  0.22314000  1.0
  H  H50  1  0.28705000  0.30520000  0.55212000  1.0
  H  H51  1  0.04952000  0.03105000  0.99580000  1.0
  C  C52  1  0.62125000  0.28101000  0.43512000  1.0
  C  C53  1  0.25637000  0.71160000  0.20454000  1.0
  C  C54  1  0.14565000  0.68204000  0.19952000  1.0
  C  C55  1  0.61607000  0.61436000  0.41753000  1.0
  C  C56  1  0.18198000  0.55078000  0.22351000  1.0
  C  C57  1  0.20840000  0.54060000  0.27902000  1.0
  C  C58  1  0.12319000  0.69028000  0.14749000  1.0
  C  C59  1  0.20067000  0.66322000  0.34617000  1.0
  C  C60  1  0.22586000  0.65174000  0.38926000  1.0
  C  C61  1  0.55226000  0.28885000  0.26740000  1.0
  C  C62  1  0.66232000  0.06199000  0.28874000  1.0
  C  C63  1  0.66086000  0.66611000  0.26854000  1.0
  C  C64  1  0.66743000  0.03876000  0.23327000  1.0
  C  C65  1  0.68493000  0.10219000  0.10314000  1.0
  C  C66  1  0.66666667  0.18465000  0.29196000  1.0
  C  C67  1  0.27777000  0.61902000  0.43684000  1.0
  C  C68  1  0.55239000  0.26543000  0.21243000  1.0
  C  C69  1  0.67019000  0.14779000  0.19831000  1.0
  C  C70  1  0.78744000  0.16182000  0.20674000  1.0
  C  C71  1  0.78697000  0.18046000  0.26237000  1.0
  C  C72  1  0.67496000  0.12485000  0.14652000  1.0
  C  C73  1  0.66021000  0.20796000  0.34382000  1.0
  C  C74  1  0.65138000  0.65308000  0.31884000  1.0
  C  C75  1  0.64973000  0.23185000  0.38704000  1.0
  C  C76  1  0.55548000  0.64357000  0.73214000  1.0
  C  C77  1  0.66201000  0.77813000  0.70431000  1.0
  C  C78  1  0.67335000  0.78951000  0.75972000  1.0
  C  C79  1  0.61555000  0.28199000  0.57720000  1.0
  C  C80  1  0.70049000  0.69464000  0.88765000  1.0
  C  C81  1  0.66587000  0.65291000  0.69838000  1.0
  C  C82  1  0.56641000  0.65513000  0.78760000  1.0
  C  C83  1  0.68426000  0.67219000  0.79214000  1.0
  C  C84  1  0.80120000  0.56130000  0.77158000  1.0
  C  C85  1  0.64132000  0.64013000  0.36482000  1.0
  C  C86  1  0.78969000  0.54918000  0.71629000  1.0
  C  C87  1  0.69313000  0.68401000  0.84409000  1.0
  C  C88  1  0.65454000  0.64286000  0.64648000  1.0
  C  C89  1  0.64500000  0.63374000  0.60299000  1.0
  C  C90  1  0.10822000  0.69094000  0.86349000  1.0
  C  C91  1  0.62133000  0.61080000  0.55579000  1.0
  C  C92  1  0.13258000  0.67833000  0.81840000  1.0
  C  C93  1  0.15661000  0.66697000  0.76897000  1.0
  C  C94  1  0.17627000  0.65894000  0.72324000  1.0
  C  C95  1  0.20108000  0.64913000  0.67373000  1.0
  C  C96  1  0.26522000  0.71614000  0.26081000  1.0
  C  C97  1  0.22633000  0.63960000  0.62848000  1.0
  C  C98  1  0.69118000  0.10285000  0.86213000  1.0
  C  C99  1  0.68212000  0.12841000  0.81695000  1.0
  C  C100  1  0.67301000  0.15470000  0.76751000  1.0
  C  C101  1  0.66589000  0.17711000  0.72185000  1.0
  C  C102  1  0.65560000  0.20412000  0.67249000  1.0
  C  C103  1  0.27818000  0.61401000  0.57784000  1.0
  C  C104  1  0.64444000  0.23101000  0.62747000  1.0
  C  C105  1  0.05523000  0.72289000  0.05558000  1.0
  C  C106  1  0.71466000  0.72551000  0.07324000  1.0
  C  C107  1  0.04212000  0.76131000  0.28468000  1.0
  C  C108  1  0.71518000  0.05455000  0.05468000  1.0
  C  C109  1  0.05738000  0.72189000  0.91378000  1.0
  C  C110  1  0.72270000  0.71851000  0.93494000  1.0
  C  C111  1  0.71745000  0.05332000  0.91275000  1.0
  C  C112  1  0.68829000  0.70058000  0.12592000  1.0
  C  C113  1  0.67788000  0.68882000  0.17193000  1.0
  C  C114  1  0.66815000  0.67670000  0.22224000  1.0
  C  C115  1  0.25908000  0.82247000  0.17221000  1.0
  C  C116  1  0.14693000  0.94662000  0.17969000  1.0
  C  C117  1  0.14016000  0.47799000  0.31373000  1.0
  C  C118  1  0.02224000  0.76687000  0.22889000  1.0
  C  C119  1  0.18638000  0.34469000  0.30324000  1.0
  C  C120  1  0.10172000  0.69886000  0.10403000  1.0
  C  C121  1  0.17826000  0.66992000  0.29419000  1.0
  O  O122  1  0.30364000  0.51243000  0.45625000  1.0
  O  O123  1  0.63725000  0.82625000  0.05276000  1.0
  O  O124  1  0.63185000  0.03449000  0.03721000  1.0
  O  O125  1  0.51588000  0.30196000  0.45763000  1.0
  O  O126  1  0.82077000  0.03557000  0.92632000  1.0
  O  O127  1  0.03151000  0.82812000  0.92419000  1.0
  O  O128  1  0.03812000  0.63964000  0.94284000  1.0
  O  O129  1  0.82494000  0.64275000  0.95368000  1.0
  O  O130  1  0.64244000  0.81684000  0.95448000  1.0
  O  O131  1  0.63428000  0.02705000  0.93895000  1.0
  O  O132  1  0.83920000  0.84136000  0.98969000  1.0
  O  O133  1  0.69897000  0.51048000  0.53689000  1.0
  O  O134  1  0.70457000  0.30465000  0.45056000  1.0
  O  O135  1  0.69498000  0.51474000  0.43803000  1.0
  O  O136  1  0.51331000  0.69076000  0.43827000  1.0
  O  O137  1  0.29868000  0.69964000  0.45504000  1.0
  O  O138  1  0.29519000  0.51379000  0.56332000  1.0
  O  O139  1  0.50847000  0.30609000  0.56553000  1.0
  O  O140  1  0.70012000  0.30283000  0.54935000  1.0
  O  O141  1  0.52100000  0.68895000  0.53647000  1.0
  O  O142  1  0.30763000  0.69461000  0.55273000  1.0
  O  O143  1  0.49691000  0.49486000  0.50102000  1.0
  O  O144  1  0.82262000  0.03137000  0.03372000  1.0
  O  O145  1  0.03809000  0.82315000  0.03137000  1.0
  O  O146  1  0.02956000  0.64087000  0.04148000  1.0
  O  O147  1  0.81639000  0.64787000  0.05243000  1.0
  O  O148  1  0.31708000  0.31859000  0.51804000  1.0
  O  O149  1  0.01754000  0.01929000  0.96696000  1.0
