# generated using pymatgen
data_ZnH4C2(N4O)2
_symmetry_space_group_name_H-M   'P 1'
_cell_length_a   7.50914000
_cell_length_b   7.50916000
_cell_length_c   7.77814000
_cell_angle_alpha   63.17830000
_cell_angle_beta   63.17840000
_cell_angle_gamma   86.61100000
_symmetry_Int_Tables_number   1
_chemical_formula_structural   ZnH4C2(N4O)2
_chemical_formula_sum   'Zn2 H8 C4 N16 O4'
_cell_volume   343.49824523
_cell_formula_units_Z   2
loop_
 _symmetry_equiv_pos_site_id
 _symmetry_equiv_pos_as_xyz
  1  'x, y, z'
loop_
 _atom_site_type_symbol
 _atom_site_label
 _atom_site_symmetry_multiplicity
 _atom_site_fract_x
 _atom_site_fract_y
 _atom_site_fract_z
 _atom_site_occupancy
  Zn  Zn0  1  0.29070000  0.70930000  0.75000000  1.0
  Zn  Zn1  1  0.70930000  0.29070000  0.25000000  1.0
  H  H2  1  0.40282000  0.70389000  0.36249000  1.0
  H  H3  1  0.29611000  0.59718000  0.13751000  1.0
  H  H4  1  0.59718000  0.29611000  0.63751000  1.0
  H  H5  1  0.70389000  0.40282000  0.86249000  1.0
  H  H6  1  0.15679000  0.69321000  0.48386000  1.0
  H  H7  1  0.30679000  0.84321000  0.01614000  1.0
  H  H8  1  0.84321000  0.30679000  0.51614000  1.0
  H  H9  1  0.69321000  0.15679000  0.98386000  1.0
  C  C10  1  0.91611000  0.91981000  0.34211000  1.0
  C  C11  1  0.08019000  0.08389000  0.15789000  1.0
  C  C12  1  0.08390000  0.08019000  0.65790000  1.0
  C  C13  1  0.91981000  0.91610000  0.84211000  1.0
  N  N14  1  0.61243000  0.77354000  0.58121000  1.0
  N  N15  1  0.22646000  0.38757000  0.91879000  1.0
  N  N16  1  0.38757000  0.22646000  0.41879000  1.0
  N  N17  1  0.77353000  0.61243000  0.08121000  1.0
  N  N18  1  0.73268000  0.64387000  0.62518000  1.0
  N  N19  1  0.35613000  0.26732000  0.87483000  1.0
  N  N20  1  0.26733000  0.35613000  0.37482000  1.0
  N  N21  1  0.64387000  0.73268000  0.12517000  1.0
  N  N22  1  0.72322000  0.94912000  0.40397000  1.0
  N  N23  1  0.05088000  0.27678000  0.09603000  1.0
  N  N24  1  0.27678000  0.05088000  0.59603000  1.0
  N  N25  1  0.94912000  0.72322000  0.90397000  1.0
  N  N26  1  0.92540000  0.73249000  0.47647000  1.0
  N  N27  1  0.26751000  0.07459000  0.02353000  1.0
  N  N28  1  0.07460000  0.26751000  0.52353000  1.0
  N  N29  1  0.73249000  0.92540000  0.97647000  1.0
  O  O30  1  0.28679000  0.71861000  0.48186000  1.0
  O  O31  1  0.28139000  0.71322000  0.01814000  1.0
  O  O32  1  0.71321000  0.28139000  0.51814000  1.0
  O  O33  1  0.71861000  0.28679000  0.98185000  1.0
