# generated using pymatgen
data_ZnH7C8SNO4
_symmetry_space_group_name_H-M   'P 1'
_cell_length_a   18.22220000
_cell_length_b   20.99610000
_cell_length_c   21.12670000
_cell_angle_alpha   90.00000000
_cell_angle_beta   89.99990000
_cell_angle_gamma   90.00000000
_symmetry_Int_Tables_number   1
_chemical_formula_structural   ZnH7C8SNO4
_chemical_formula_sum   'Zn16 H112 C128 S16 N16 O64'
_cell_volume   8082.97260521
_cell_formula_units_Z   16
loop_
 _symmetry_equiv_pos_site_id
 _symmetry_equiv_pos_as_xyz
  1  'x, y, z'
loop_
 _atom_site_type_symbol
 _atom_site_label
 _atom_site_symmetry_multiplicity
 _atom_site_fract_x
 _atom_site_fract_y
 _atom_site_fract_z
 _atom_site_occupancy
  Zn  Zn0  1  0.16062000  0.47680000  0.01047000  1.0
  Zn  Zn1  1  0.66062000  0.02320000  0.98953000  1.0
  Zn  Zn2  1  0.33938000  0.97680000  0.48953000  1.0
  Zn  Zn3  1  0.83938000  0.52320000  0.51047000  1.0
  Zn  Zn4  1  0.83938000  0.52320000  0.98953000  1.0
  Zn  Zn5  1  0.33938000  0.97680000  0.01047000  1.0
  Zn  Zn6  1  0.66062000  0.02320000  0.51047000  1.0
  Zn  Zn7  1  0.16062000  0.47680000  0.48953000  1.0
  Zn  Zn8  1  0.31138000  0.50587000  0.98837000  1.0
  Zn  Zn9  1  0.81138000  0.99413000  0.01163000  1.0
  Zn  Zn10  1  0.18862000  0.00587000  0.51163000  1.0
  Zn  Zn11  1  0.68862000  0.49413000  0.48837000  1.0
  Zn  Zn12  1  0.68862000  0.49413000  0.01163000  1.0
  Zn  Zn13  1  0.18862000  0.00587000  0.98837000  1.0
  Zn  Zn14  1  0.81138000  0.99413000  0.48837000  1.0
  Zn  Zn15  1  0.31138000  0.50587000  0.51163000  1.0
  H  H16  1  0.05722000  0.40580000  0.03742000  1.0
  H  H17  1  0.55722000  0.09420000  0.96258000  1.0
  H  H18  1  0.44278000  0.90580000  0.46258000  1.0
  H  H19  1  0.94278000  0.59420000  0.53742000  1.0
  H  H20  1  0.94278000  0.59420000  0.96258000  1.0
  H  H21  1  0.44278000  0.90580000  0.03742000  1.0
  H  H22  1  0.55722000  0.09420000  0.53742000  1.0
  H  H23  1  0.05722000  0.40580000  0.46258000  1.0
  H  H24  1  0.43146000  0.56664000  0.97451000  1.0
  H  H25  1  0.93146000  0.93336000  0.02549000  1.0
  H  H26  1  0.06854000  0.06664000  0.52549000  1.0
  H  H27  1  0.56854000  0.43336000  0.47451000  1.0
  H  H28  1  0.56854000  0.43336000  0.02549000  1.0
  H  H29  1  0.06854000  0.06664000  0.97451000  1.0
  H  H30  1  0.93146000  0.93336000  0.47451000  1.0
  H  H31  1  0.43146000  0.56664000  0.52549000  1.0
  H  H32  1  0.41007000  0.31188000  0.99749000  1.0
  H  H33  1  0.91007000  0.18812000  0.00251000  1.0
  H  H34  1  0.08993000  0.81188000  0.50251000  1.0
  H  H35  1  0.58993000  0.68812000  0.49749000  1.0
  H  H36  1  0.58993000  0.68812000  0.00251000  1.0
  H  H37  1  0.08993000  0.81188000  0.99749000  1.0
  H  H38  1  0.91007000  0.18812000  0.49749000  1.0
  H  H39  1  0.41007000  0.31188000  0.50251000  1.0
  H  H40  1  0.41819000  0.18524000  0.99618000  1.0
  H  H41  1  0.91819000  0.31476000  0.00382000  1.0
  H  H42  1  0.08181000  0.68524000  0.50382000  1.0
  H  H43  1  0.58181000  0.81476000  0.49618000  1.0
  H  H44  1  0.58181000  0.81476000  0.00382000  1.0
  H  H45  1  0.08181000  0.68524000  0.99618000  1.0
  H  H46  1  0.91819000  0.31476000  0.49618000  1.0
  H  H47  1  0.41819000  0.18524000  0.50382000  1.0
  H  H48  1  0.09676000  0.43345000  0.81306000  1.0
  H  H49  1  0.59676000  0.06655000  0.18694000  1.0
  H  H50  1  0.40324000  0.93345000  0.68694000  1.0
  H  H51  1  0.90324000  0.56655000  0.31306000  1.0
  H  H52  1  0.90324000  0.56655000  0.18694000  1.0
  H  H53  1  0.40324000  0.93345000  0.81306000  1.0
  H  H54  1  0.59676000  0.06655000  0.31306000  1.0
  H  H55  1  0.09676000  0.43345000  0.68694000  1.0
  H  H56  1  0.37236000  0.53536000  0.18694000  1.0
  H  H57  1  0.87236000  0.96464000  0.81306000  1.0
  H  H58  1  0.12764000  0.03536000  0.31306000  1.0
  H  H59  1  0.62764000  0.46464000  0.68694000  1.0
  H  H60  1  0.62764000  0.46464000  0.81306000  1.0
  H  H61  1  0.12764000  0.03536000  0.18694000  1.0
  H  H62  1  0.87236000  0.96464000  0.68694000  1.0
  H  H63  1  0.37236000  0.53536000  0.31306000  1.0
  H  H64  1  0.95735000  0.41993000  0.96657000  1.0
  H  H65  1  0.45735000  0.08007000  0.03343000  1.0
  H  H66  1  0.54265000  0.91993000  0.53343000  1.0
  H  H67  1  0.04265000  0.58007000  0.46657000  1.0
  H  H68  1  0.04265000  0.58007000  0.03343000  1.0
  H  H69  1  0.54265000  0.91993000  0.96657000  1.0
  H  H70  1  0.45735000  0.08007000  0.46657000  1.0
  H  H71  1  0.95735000  0.41993000  0.53343000  1.0
  H  H72  1  0.04357000  0.42002000  0.92503000  1.0
  H  H73  1  0.54357000  0.07998000  0.07497000  1.0
  H  H74  1  0.45643000  0.92002000  0.57497000  1.0
  H  H75  1  0.95643000  0.57998000  0.42503000  1.0
  H  H76  1  0.95643000  0.57998000  0.07497000  1.0
  H  H77  1  0.45643000  0.92002000  0.92503000  1.0
  H  H78  1  0.54357000  0.07998000  0.42503000  1.0
  H  H79  1  0.04357000  0.42002000  0.57497000  1.0
  H  H80  1  0.95517000  0.46346000  0.07739000  1.0
  H  H81  1  0.45517000  0.03654000  0.92261000  1.0
  H  H82  1  0.54483000  0.96346000  0.42261000  1.0
  H  H83  1  0.04483000  0.53654000  0.57739000  1.0
  H  H84  1  0.04483000  0.53654000  0.92261000  1.0
  H  H85  1  0.54483000  0.96346000  0.07739000  1.0
  H  H86  1  0.45517000  0.03654000  0.57739000  1.0
  H  H87  1  0.95517000  0.46346000  0.42261000  1.0
  H  H88  1  0.03976000  0.49218000  0.11013000  1.0
  H  H89  1  0.53976000  0.00782000  0.88987000  1.0
  H  H90  1  0.46024000  0.99218000  0.38987000  1.0
  H  H91  1  0.96024000  0.50782000  0.61013000  1.0
  H  H92  1  0.96024000  0.50782000  0.88987000  1.0
  H  H93  1  0.46024000  0.99218000  0.11013000  1.0
  H  H94  1  0.53976000  0.00782000  0.61013000  1.0
  H  H95  1  0.03976000  0.49218000  0.38987000  1.0
  H  H96  1  0.44091000  0.48600000  0.89643000  1.0
  H  H97  1  0.94091000  0.01400000  0.10357000  1.0
  H  H98  1  0.05909000  0.98600000  0.60357000  1.0
  H  H99  1  0.55909000  0.51400000  0.39643000  1.0
  H  H100  1  0.55909000  0.51400000  0.10357000  1.0
  H  H101  1  0.05909000  0.98600000  0.89643000  1.0
  H  H102  1  0.94091000  0.01400000  0.39643000  1.0
  H  H103  1  0.44091000  0.48600000  0.60357000  1.0
  H  H104  1  0.44730000  0.42853000  0.95729000  1.0
  H  H105  1  0.94730000  0.07147000  0.04271000  1.0
  H  H106  1  0.05270000  0.92853000  0.54271000  1.0
  H  H107  1  0.55270000  0.57147000  0.45729000  1.0
  H  H108  1  0.55270000  0.57147000  0.04271000  1.0
  H  H109  1  0.05270000  0.92853000  0.95729000  1.0
  H  H110  1  0.94730000  0.07147000  0.45729000  1.0
  H  H111  1  0.44730000  0.42853000  0.54271000  1.0
  H  H112  1  0.43902000  0.46589000  0.07069000  1.0
  H  H113  1  0.93902000  0.03411000  0.92931000  1.0
  H  H114  1  0.06098000  0.96589000  0.42931000  1.0
  H  H115  1  0.56098000  0.53411000  0.57069000  1.0
  H  H116  1  0.56097000  0.53411000  0.92931000  1.0
  H  H117  1  0.06098000  0.96589000  0.07069000  1.0
  H  H118  1  0.93902000  0.03411000  0.57069000  1.0
  H  H119  1  0.43902000  0.46589000  0.42931000  1.0
  H  H120  1  0.42654000  0.54797000  0.08472000  1.0
  H  H121  1  0.92655000  0.95203000  0.91528000  1.0
  H  H122  1  0.07345000  0.04797000  0.41528000  1.0
  H  H123  1  0.57346000  0.45203000  0.58472000  1.0
  H  H124  1  0.57346000  0.45203000  0.91528000  1.0
  H  H125  1  0.07345000  0.04797000  0.08472000  1.0
  H  H126  1  0.92655000  0.95203000  0.58472000  1.0
  H  H127  1  0.42655000  0.54797000  0.41528000  1.0
  C  C128  1  0.26848000  0.36925000  0.00227000  1.0
  C  C129  1  0.76848000  0.13075000  0.99773000  1.0
  C  C130  1  0.23152000  0.86925000  0.49773000  1.0
  C  C131  1  0.73152000  0.63075000  0.50227000  1.0
  C  C132  1  0.73152000  0.63075000  0.99773000  1.0
  C  C133  1  0.23152000  0.86925000  0.00227000  1.0
  C  C134  1  0.76848000  0.13075000  0.50227000  1.0
  C  C135  1  0.26848000  0.36925000  0.49773000  1.0
  C  C136  1  0.29161000  0.30165000  0.00103000  1.0
  C  C137  1  0.79161000  0.19835000  0.99897000  1.0
  C  C138  1  0.20839000  0.80165000  0.49897000  1.0
  C  C139  1  0.70839000  0.69835000  0.50103000  1.0
  C  C140  1  0.70839000  0.69835000  0.99897000  1.0
  C  C141  1  0.20839000  0.80165000  0.00103000  1.0
  C  C142  1  0.79161000  0.19835000  0.50103000  1.0
  C  C143  1  0.29161000  0.30165000  0.49897000  1.0
  C  C144  1  0.36339000  0.27963000  0.99858000  1.0
  C  C145  1  0.86339000  0.22037000  0.00142000  1.0
  C  C146  1  0.13661000  0.77963000  0.50142000  1.0
  C  C147  1  0.63661000  0.72037000  0.49858000  1.0
  C  C148  1  0.63661000  0.72037000  0.00142000  1.0
  C  C149  1  0.13661000  0.77963000  0.99858000  1.0
  C  C150  1  0.86339000  0.22037000  0.49858000  1.0
  C  C151  1  0.36339000  0.27963000  0.50142000  1.0
  C  C152  1  0.36764000  0.21275000  0.99784000  1.0
  C  C153  1  0.86764000  0.28725000  0.00216000  1.0
  C  C154  1  0.13236000  0.71275000  0.50216000  1.0
  C  C155  1  0.63236000  0.78725000  0.49784000  1.0
  C  C156  1  0.63236000  0.78725000  0.00216000  1.0
  C  C157  1  0.13236000  0.71275000  0.99784000  1.0
  C  C158  1  0.86764000  0.28725000  0.49784000  1.0
  C  C159  1  0.36764000  0.21275000  0.50216000  1.0
  C  C160  1  0.29906000  0.18420000  0.99887000  1.0
  C  C161  1  0.79906000  0.31580000  0.00113000  1.0
  C  C162  1  0.20094000  0.68420000  0.50113000  1.0
  C  C163  1  0.70094000  0.81580000  0.49887000  1.0
  C  C164  1  0.70094000  0.81580000  0.00113000  1.0
  C  C165  1  0.20094000  0.68420000  0.99887000  1.0
  C  C166  1  0.79906000  0.31580000  0.49887000  1.0
  C  C167  1  0.29906000  0.18420000  0.50113000  1.0
  C  C168  1  0.28201000  0.11543000  0.99721000  1.0
  C  C169  1  0.78201000  0.38457000  0.00279000  1.0
  C  C170  1  0.21800000  0.61543000  0.50279000  1.0
  C  C171  1  0.71799000  0.88457000  0.49721000  1.0
  C  C172  1  0.71799000  0.88457000  0.00279000  1.0
  C  C173  1  0.21799000  0.61543000  0.99721000  1.0
  C  C174  1  0.78200000  0.38457000  0.49721000  1.0
  C  C175  1  0.28201000  0.11543000  0.50279000  1.0
  C  C176  1  0.22139000  0.48368000  0.87665000  1.0
  C  C177  1  0.72139000  0.01632000  0.12335000  1.0
  C  C178  1  0.27861000  0.98368000  0.62335000  1.0
  C  C179  1  0.77861000  0.51632000  0.37665000  1.0
  C  C180  1  0.77861000  0.51632000  0.12335000  1.0
  C  C181  1  0.27861000  0.98368000  0.87665000  1.0
  C  C182  1  0.72139000  0.01632000  0.37665000  1.0
  C  C183  1  0.22139000  0.48368000  0.62335000  1.0
  C  C184  1  0.20501000  0.47637000  0.80847000  1.0
  C  C185  1  0.70501000  0.02363000  0.19153000  1.0
  C  C186  1  0.29498000  0.97637000  0.69153000  1.0
  C  C187  1  0.79499000  0.52363000  0.30847000  1.0
  C  C188  1  0.79499000  0.52363000  0.19153000  1.0
  C  C189  1  0.29499000  0.97637000  0.80847000  1.0
  C  C190  1  0.70501000  0.02363000  0.30847000  1.0
  C  C191  1  0.20501000  0.47637000  0.69153000  1.0
  C  C192  1  0.14093000  0.45125000  0.78327000  1.0
  C  C193  1  0.64093000  0.04875000  0.21673000  1.0
  C  C194  1  0.35907000  0.95125000  0.71673000  1.0
  C  C195  1  0.85907000  0.54875000  0.28327000  1.0
  C  C196  1  0.85907000  0.54875000  0.21673000  1.0
  C  C197  1  0.35907000  0.95125000  0.78327000  1.0
  C  C198  1  0.64093000  0.04875000  0.28327000  1.0
  C  C199  1  0.14093000  0.45125000  0.71673000  1.0
  C  C200  1  0.24274000  0.49687000  0.12335000  1.0
  C  C201  1  0.74274000  0.00313000  0.87665000  1.0
  C  C202  1  0.25726000  0.99687000  0.37665000  1.0
  C  C203  1  0.75726000  0.50313000  0.62335000  1.0
  C  C204  1  0.75726000  0.50313000  0.87665000  1.0
  C  C205  1  0.25726000  0.99687000  0.12335000  1.0
  C  C206  1  0.74274000  0.00313000  0.62335000  1.0
  C  C207  1  0.24274000  0.49687000  0.37665000  1.0
  C  C208  1  0.25966000  0.50241000  0.19155000  1.0
  C  C209  1  0.75966000  0.99759000  0.80845000  1.0
  C  C210  1  0.24034000  0.00241000  0.30845000  1.0
  C  C211  1  0.74034000  0.49759000  0.69155000  1.0
  C  C212  1  0.74034000  0.49759000  0.80845000  1.0
  C  C213  1  0.24034000  0.00241000  0.19155000  1.0
  C  C214  1  0.75966000  0.99759000  0.69155000  1.0
  C  C215  1  0.25966000  0.50241000  0.30845000  1.0
  C  C216  1  0.32632000  0.52175000  0.21675000  1.0
  C  C217  1  0.82632000  0.97825000  0.78325000  1.0
  C  C218  1  0.17368000  0.02175000  0.28325000  1.0
  C  C219  1  0.67368000  0.47825000  0.71675000  1.0
  C  C220  1  0.67368000  0.47825000  0.78325000  1.0
  C  C221  1  0.17368000  0.02175000  0.21675000  1.0
  C  C222  1  0.82632000  0.97825000  0.71675000  1.0
  C  C223  1  0.32632000  0.52175000  0.28325000  1.0
  C  C224  1  0.00919000  0.44581000  0.95901000  1.0
  C  C225  1  0.50919000  0.05419000  0.04099000  1.0
  C  C226  1  0.49081000  0.94581000  0.54099000  1.0
  C  C227  1  0.99081000  0.55419000  0.45901000  1.0
  C  C228  1  0.99081000  0.55419000  0.04099000  1.0
  C  C229  1  0.49081000  0.94581000  0.95901000  1.0
  C  C230  1  0.50919000  0.05419000  0.45901000  1.0
  C  C231  1  0.00919000  0.44581000  0.54099000  1.0
  C  C232  1  0.00707000  0.48815000  0.06674000  1.0
  C  C233  1  0.50707000  0.01185000  0.93326000  1.0
  C  C234  1  0.49293000  0.98815000  0.43326000  1.0
  C  C235  1  0.99293000  0.51185000  0.56674000  1.0
  C  C236  1  0.99293000  0.51185000  0.93326000  1.0
  C  C237  1  0.49293000  0.98815000  0.06674000  1.0
  C  C238  1  0.50707000  0.01185000  0.56674000  1.0
  C  C239  1  0.00707000  0.48815000  0.43326000  1.0
  C  C240  1  0.46270000  0.47743000  0.94417000  1.0
  C  C241  1  0.96270000  0.02257000  0.05583000  1.0
  C  C242  1  0.03730000  0.97743000  0.55583000  1.0
  C  C243  1  0.53730000  0.52257000  0.44417000  1.0
  C  C244  1  0.53730000  0.52257000  0.05583000  1.0
  C  C245  1  0.03730000  0.97743000  0.94417000  1.0
  C  C246  1  0.96270000  0.02257000  0.44417000  1.0
  C  C247  1  0.46270000  0.47743000  0.55583000  1.0
  C  C248  1  0.45455000  0.51365000  0.05394000  1.0
  C  C249  1  0.95455000  0.98635000  0.94606000  1.0
  C  C250  1  0.04545000  0.01365000  0.44606000  1.0
  C  C251  1  0.54545000  0.48635000  0.55394000  1.0
  C  C252  1  0.54545000  0.48635000  0.94606000  1.0
  C  C253  1  0.04545000  0.01365000  0.05394000  1.0
  C  C254  1  0.95455000  0.98635000  0.55394000  1.0
  C  C255  1  0.45455000  0.51365000  0.44606000  1.0
  S  S256  1  0.22975000  0.23988000  0.00149000  1.0
  S  S257  1  0.72975000  0.26012000  0.99851000  1.0
  S  S258  1  0.27025000  0.73988000  0.49850000  1.0
  S  S259  1  0.77025000  0.76012000  0.50149000  1.0
  S  S260  1  0.77025000  0.76012000  0.99851000  1.0
  S  S261  1  0.27025000  0.73988000  0.00149000  1.0
  S  S262  1  0.72975000  0.26012000  0.50149000  1.0
  S  S263  1  0.22975000  0.23988000  0.49851000  1.0
  S  S264  1  0.26530000  0.49920000  0.75000000  1.0
  S  S265  1  0.76530000  0.00080000  0.25000000  1.0
  S  S266  1  0.23470000  0.99920000  0.75000000  1.0
  S  S267  1  0.73470000  0.50080000  0.25000000  1.0
  S  S268  1  0.19715000  0.48464000  0.25000000  1.0
  S  S269  1  0.69716000  0.01536000  0.75000000  1.0
  S  S270  1  0.30284000  0.98464000  0.25000000  1.0
  S  S271  1  0.80285000  0.51536000  0.75000000  1.0
  N  N272  1  0.05031000  0.45085000  0.01973000  1.0
  N  N273  1  0.55031000  0.04915000  0.98027000  1.0
  N  N274  1  0.44969000  0.95085000  0.48027000  1.0
  N  N275  1  0.94969000  0.54915000  0.51973000  1.0
  N  N276  1  0.94969000  0.54915000  0.98027000  1.0
  N  N277  1  0.44969000  0.95085000  0.01973000  1.0
  N  N278  1  0.55031000  0.04915000  0.51973000  1.0
  N  N279  1  0.05031000  0.45085000  0.48027000  1.0
  N  N280  1  0.42434000  0.52045000  0.98900000  1.0
  N  N281  1  0.92434000  0.97955000  0.01100000  1.0
  N  N282  1  0.07566000  0.02045000  0.51100000  1.0
  N  N283  1  0.57566000  0.47955000  0.48900000  1.0
  N  N284  1  0.57566000  0.47955000  0.01100000  1.0
  N  N285  1  0.07566000  0.02045000  0.98900000  1.0
  N  N286  1  0.92434000  0.97955000  0.48900000  1.0
  N  N287  1  0.42434000  0.52045000  0.51100000  1.0
  O  O288  1  0.20120000  0.38234000  0.01192000  1.0
  O  O289  1  0.70120000  0.11766000  0.98808000  1.0
  O  O290  1  0.29881000  0.88234000  0.48808000  1.0
  O  O291  1  0.79880000  0.61766000  0.51192000  1.0
  O  O292  1  0.79880000  0.61766000  0.98808000  1.0
  O  O293  1  0.29880000  0.88234000  0.01192000  1.0
  O  O294  1  0.70120000  0.11766000  0.51192000  1.0
  O  O295  1  0.20120000  0.38234000  0.48808000  1.0
  O  O296  1  0.32013000  0.40931000  0.99303000  1.0
  O  O297  1  0.82013000  0.09069000  0.00697000  1.0
  O  O298  1  0.17987000  0.90931000  0.50697000  1.0
  O  O299  1  0.67987000  0.59069000  0.49303000  1.0
  O  O300  1  0.67987000  0.59069000  0.00697000  1.0
  O  O301  1  0.17987000  0.90931000  0.99303000  1.0
  O  O302  1  0.82013000  0.09069000  0.49303000  1.0
  O  O303  1  0.32013000  0.40931000  0.50697000  1.0
  O  O304  1  0.33561000  0.07679000  0.00334000  1.0
  O  O305  1  0.83561000  0.42321000  0.99666000  1.0
  O  O306  1  0.16439000  0.57679000  0.49666000  1.0
  O  O307  1  0.66439000  0.92321000  0.50334000  1.0
  O  O308  1  0.66439000  0.92321000  0.99666000  1.0
  O  O309  1  0.16439000  0.57679000  0.00334000  1.0
  O  O310  1  0.83561000  0.42321000  0.50334000  1.0
  O  O311  1  0.33561000  0.07679000  0.49666000  1.0
  O  O312  1  0.21473000  0.10038000  0.98972000  1.0
  O  O313  1  0.71473000  0.39962000  0.01028000  1.0
  O  O314  1  0.28526000  0.60038000  0.51028000  1.0
  O  O315  1  0.78527000  0.89962000  0.48972000  1.0
  O  O316  1  0.78527000  0.89962000  0.01028000  1.0
  O  O317  1  0.28527000  0.60038000  0.98972000  1.0
  O  O318  1  0.71474000  0.39962000  0.48972000  1.0
  O  O319  1  0.21473000  0.10038000  0.51028000  1.0
  O  O320  1  0.28575000  0.50084000  0.89299000  1.0
  O  O321  1  0.78575000  0.99916000  0.10701000  1.0
  O  O322  1  0.21425000  0.00084000  0.60701000  1.0
  O  O323  1  0.71425000  0.49916000  0.39299000  1.0
  O  O324  1  0.71425000  0.49916000  0.10701000  1.0
  O  O325  1  0.21425000  0.00084000  0.89299000  1.0
  O  O326  1  0.78575000  0.99916000  0.39299000  1.0
  O  O327  1  0.28575000  0.50084000  0.60701000  1.0
  O  O328  1  0.16796000  0.47170000  0.91387000  1.0
  O  O329  1  0.66796000  0.02830000  0.08613000  1.0
  O  O330  1  0.33204000  0.97170000  0.58613000  1.0
  O  O331  1  0.83204000  0.52830000  0.41387000  1.0
  O  O332  1  0.83204000  0.52830000  0.08613000  1.0
  O  O333  1  0.33204000  0.97170000  0.91387000  1.0
  O  O334  1  0.66796000  0.02830000  0.41387000  1.0
  O  O335  1  0.16796000  0.47170000  0.58613000  1.0
  O  O336  1  0.17732000  0.48279000  0.10678000  1.0
  O  O337  1  0.67732000  0.01721000  0.89322000  1.0
  O  O338  1  0.32268000  0.98279000  0.39322000  1.0
  O  O339  1  0.82269000  0.51721000  0.60677000  1.0
  O  O340  1  0.82268000  0.51721000  0.89322000  1.0
  O  O341  1  0.32268000  0.98279000  0.10678000  1.0
  O  O342  1  0.67732000  0.01721000  0.60678000  1.0
  O  O343  1  0.17732000  0.48279000  0.39322000  1.0
  O  O344  1  0.29629000  0.50698000  0.08612000  1.0
  O  O345  1  0.79629000  0.99302000  0.91388000  1.0
  O  O346  1  0.20371000  0.00698000  0.41388000  1.0
  O  O347  1  0.70372000  0.49302000  0.58612000  1.0
  O  O348  1  0.70371000  0.49302000  0.91388000  1.0
  O  O349  1  0.20371000  0.00698000  0.08612000  1.0
  O  O350  1  0.79629000  0.99302000  0.58612000  1.0
  O  O351  1  0.29629000  0.50698000  0.41388000  1.0
