# generated using pymatgen
data_Zn4H88C103N16O9F10
_symmetry_space_group_name_H-M   'P 1'
_cell_length_a   15.70240000
_cell_length_b   17.50040000
_cell_length_c   19.47540000
_cell_angle_alpha   108.57800000
_cell_angle_beta   113.61000000
_cell_angle_gamma   99.22360000
_symmetry_Int_Tables_number   1
_chemical_formula_structural   Zn4H88C103N16O9F10
_chemical_formula_sum   'Zn4 H88 C103 N16 O9 F10'
_cell_volume   4385.51673722
_cell_formula_units_Z   1
loop_
 _symmetry_equiv_pos_site_id
 _symmetry_equiv_pos_as_xyz
  1  'x, y, z'
loop_
 _atom_site_type_symbol
 _atom_site_label
 _atom_site_symmetry_multiplicity
 _atom_site_fract_x
 _atom_site_fract_y
 _atom_site_fract_z
 _atom_site_occupancy
  Zn  Zn0  1  0.63142000  0.10722000  0.99509000  1.0
  Zn  Zn1  1  0.36958000  0.00784000  0.99896000  1.0
  Zn  Zn2  1  0.65248000  0.99898000  0.11424000  1.0
  Zn  Zn3  1  0.35576000  0.04140000  0.85769000  1.0
  H  H4  1  0.31568000  0.93441000  0.11001000  1.0
  H  H5  1  0.62476000  0.99074000  0.68637000  1.0
  H  H6  1  0.31349000  0.95568000  0.57578000  1.0
  H  H7  1  0.20945000  0.88405000  0.29103000  1.0
  H  H8  1  0.92970000  0.26677000  0.41310000  1.0
  H  H9  1  0.06686000  0.33239000  0.55650000  1.0
  H  H10  1  0.25136000  0.61950000  0.76126000  1.0
  H  H11  1  0.10387000  0.77457000  0.65737000  1.0
  H  H12  1  0.84091000  0.58024000  0.39010000  1.0
  H  H13  1  0.58666000  0.70978000  0.20026000  1.0
  H  H14  1  0.57429000  0.56876000  0.20457000  1.0
  H  H15  1  0.10764000  0.98142000  0.73966000  1.0
  H  H16  1  0.53134000  0.41486000  0.13414000  1.0
  H  H17  1  0.34756000  0.05989000  0.70692000  1.0
  H  H18  1  0.88818000  0.79686000  0.67238000  1.0
  H  H19  1  0.93262000  0.87555000  0.05376000  1.0
  H  H20  1  0.87074000  0.98512000  0.87584000  1.0
  H  H21  1  0.41196000  0.72995000  0.94708000  1.0
  H  H22  1  0.91492000  0.19021000  0.96902000  1.0
  H  H23  1  0.96301000  0.12269000  0.01474000  1.0
  H  H24  1  0.85022000  0.23539000  0.06969000  1.0
  H  H25  1  0.90252000  0.17194000  0.11705000  1.0
  H  H26  1  0.13665000  0.97636000  0.96864000  1.0
  H  H27  1  0.07289000  0.26070000  0.15457000  1.0
  H  H28  1  0.01345000  0.32411000  0.19693000  1.0
  H  H29  1  0.01927000  0.32527000  0.10807000  1.0
  H  H30  1  0.76877000  0.84843000  0.40131000  1.0
  H  H31  1  0.63986000  0.80516000  0.36432000  1.0
  H  H32  1  0.80790000  0.82600000  0.52798000  1.0
  H  H33  1  0.68223000  0.79578000  0.50213000  1.0
  H  H34  1  0.64198000  0.66480000  0.37852000  1.0
  H  H35  1  0.73776000  0.66707000  0.46845000  1.0
  H  H36  1  0.76634000  0.69516000  0.39866000  1.0
  H  H37  1  0.75679000  0.30560000  0.16780000  1.0
  H  H38  1  0.35174000  0.47298000  0.73706000  1.0
  H  H39  1  0.31231000  0.53090000  0.67633000  1.0
  H  H40  1  0.26387000  0.33629000  0.60835000  1.0
  H  H41  1  0.22165000  0.39290000  0.54812000  1.0
  H  H42  1  0.39650000  0.47397000  0.59309000  1.0
  H  H43  1  0.37107000  0.36217000  0.54484000  1.0
  H  H44  1  0.44090000  0.41810000  0.65408000  1.0
  H  H45  1  0.49963000  0.53003000  0.84752000  1.0
  H  H46  1  0.58619000  0.62183000  0.94000000  1.0
  H  H47  1  0.41931000  0.63238000  0.79610000  1.0
  H  H48  1  0.63290000  0.02269000  0.25852000  1.0
  H  H49  1  0.51951000  0.71818000  0.88341000  1.0
  H  H50  1  0.63713000  0.66112000  0.83796000  1.0
  H  H51  1  0.55139000  0.68593000  0.76339000  1.0
  H  H52  1  0.53429000  0.57795000  0.74818000  1.0
  H  H53  1  0.45138000  0.22442000  0.79620000  1.0
  H  H54  1  0.45057000  0.32933000  0.80676000  1.0
  H  H55  1  0.26819000  0.16801000  0.69766000  1.0
  H  H56  1  0.27392000  0.27117000  0.70225000  1.0
  H  H57  1  0.39812000  0.26708000  0.64835000  1.0
  H  H58  1  0.28563000  0.18175000  0.57795000  1.0
  H  H59  1  0.30626000  0.91408000  0.22103000  1.0
  H  H60  1  0.38937000  0.16266000  0.64242000  1.0
  H  H61  1  0.86173000  0.01932000  0.69534000  1.0
  H  H62  1  0.98756000  0.02843000  0.73709000  1.0
  H  H63  1  0.88393000  0.09651000  0.83518000  1.0
  H  H64  1  0.00899000  0.10217000  0.88096000  1.0
  H  H65  1  0.04659000  0.19236000  0.81198000  1.0
  H  H66  1  0.99309000  0.24068000  0.87127000  1.0
  H  H67  1  0.92087000  0.18481000  0.76217000  1.0
  H  H68  1  0.29650000  0.81173000  0.59151000  1.0
  H  H69  1  0.24974000  0.73273000  0.61867000  1.0
  H  H70  1  0.61592000  0.94310000  0.33089000  1.0
  H  H71  1  0.46658000  0.84408000  0.70278000  1.0
  H  H72  1  0.42089000  0.76695000  0.73141000  1.0
  H  H73  1  0.36294000  0.65069000  0.58965000  1.0
  H  H74  1  0.49110000  0.70630000  0.63802000  1.0
  H  H75  1  0.40646000  0.72811000  0.55985000  1.0
  H  H76  1  0.75990000  0.77888000  0.97276000  1.0
  H  H77  1  0.67500000  0.78111000  0.01282000  1.0
  H  H78  1  0.88926000  0.78626000  0.10298000  1.0
  H  H79  1  0.81073000  0.79504000  0.14728000  1.0
  H  H80  1  0.70132000  0.64586000  0.05173000  1.0
  H  H81  1  0.28083000  0.79456000  0.90646000  1.0
  H  H82  1  0.82425000  0.64630000  0.09710000  1.0
  H  H83  1  0.76619000  0.63602000  0.99403000  1.0
  H  H84  1  0.63258000  0.37276000  0.99945000  1.0
  H  H85  1  0.57977000  0.27423000  0.90878000  1.0
  H  H86  1  0.79946000  0.35623000  0.03701000  1.0
  H  H87  1  0.74570000  0.25947000  0.94626000  1.0
  H  H88  1  0.68966000  0.33980000  0.85816000  1.0
  H  H89  1  0.81910000  0.38198000  0.92331000  1.0
  H  H90  1  0.74287000  0.43687000  0.94889000  1.0
  H  H91  1  0.70228000  0.95033000  0.59667000  1.0
  C  C92  1  0.78402000  0.03140000  0.97492000  1.0
  C  C93  1  0.75846000  0.25448000  0.18783000  1.0
  C  C94  1  0.77341000  0.66794000  0.05572000  1.0
  C  C95  1  0.64131000  0.31100000  0.97203000  1.0
  C  C96  1  0.73932000  0.32273000  0.97265000  1.0
  C  C97  1  0.74817000  0.37313000  0.92305000  1.0
  C  C98  1  0.40082000  0.19338000  0.99909000  1.0
  C  C99  1  0.29766000  0.82318000  0.86950000  1.0
  C  C100  1  0.55675000  0.00584000  0.21239000  1.0
  C  C101  1  0.46828000  0.26147000  0.00624000  1.0
  C  C102  1  0.47050000  0.96343000  0.20931000  1.0
  C  C103  1  0.79796000  0.26049000  0.26937000  1.0
  C  C104  1  0.07514000  0.96438000  0.83812000  1.0
  C  C105  1  0.37291000  0.91625000  0.27097000  1.0
  C  C106  1  0.46280000  0.93544000  0.27021000  1.0
  C  C107  1  0.26294000  0.78724000  0.78353000  1.0
  C  C108  1  0.54669000  0.93319000  0.33270000  1.0
  C  C109  1  0.54525000  0.92453000  0.40126000  1.0
  C  C110  1  0.45694000  0.91770000  0.40740000  1.0
  C  C111  1  0.61216000  0.81977000  0.12519000  1.0
  C  C112  1  0.36827000  0.90763000  0.33852000  1.0
  C  C113  1  0.63219000  0.92982000  0.47049000  1.0
  C  C114  1  0.63441000  0.94264000  0.54431000  1.0
  C  C115  1  0.54968000  0.94726000  0.55441000  1.0
  C  C116  1  0.45886000  0.92867000  0.48332000  1.0
  C  C117  1  0.37248000  0.92839000  0.49167000  1.0
  C  C118  1  0.53423000  0.74338000  0.06641000  1.0
  C  C119  1  0.28310000  0.90671000  0.41772000  1.0
  C  C120  1  0.27919000  0.89685000  0.34428000  1.0
  C  C121  1  0.55409000  0.97271000  0.63193000  1.0
  C  C122  1  0.47095000  0.98007000  0.64081000  1.0
  C  C123  1  0.41733000  0.05536000  0.74579000  1.0
  C  C124  1  0.37942000  0.95389000  0.57002000  1.0
  C  C125  1  0.84548000  0.41625000  0.35916000  1.0
  C  C126  1  0.85330000  0.33508000  0.34884000  1.0
  C  C127  1  0.92151000  0.32877000  0.41869000  1.0
  C  C128  1  0.98336000  0.40030000  0.49393000  1.0
  C  C129  1  0.47996000  0.01882000  0.72273000  1.0
  C  C130  1  0.97653000  0.48247000  0.50112000  1.0
  C  C131  1  0.90406000  0.49042000  0.43277000  1.0
  C  C132  1  0.05968000  0.39466000  0.56165000  1.0
  C  C133  1  0.12839000  0.46613000  0.63066000  1.0
  C  C134  1  0.12239000  0.55028000  0.64119000  1.0
  C  C135  1  0.47991000  0.76857000  0.00431000  1.0
  C  C136  1  0.04437000  0.55643000  0.57470000  1.0
  C  C137  1  0.03828000  0.63899000  0.58203000  1.0
  C  C138  1  0.96081000  0.64234000  0.51318000  1.0
  C  C139  1  0.89644000  0.57298000  0.44102000  1.0
  C  C140  1  0.54678000  0.22995000  0.01213000  1.0
  C  C141  1  0.19195000  0.62513000  0.71133000  1.0
  C  C142  1  0.18713000  0.70601000  0.71661000  1.0
  C  C143  1  0.10865000  0.71190000  0.65257000  1.0
  C  C144  1  0.51893000  0.65953000  0.06681000  1.0
  C  C145  1  0.45974000  0.34286000  0.00294000  1.0
  C  C146  1  0.41789000  0.42444000  0.92167000  1.0
  C  C147  1  0.55544000  0.03190000  0.79974000  1.0
  C  C148  1  0.41719000  0.34612000  0.92443000  1.0
  C  C149  1  0.49901000  0.41736000  0.07413000  1.0
  C  C150  1  0.50257000  0.49759000  0.07170000  1.0
  C  C151  1  0.39521000  0.96057000  0.13737000  1.0
  C  C152  1  0.46363000  0.50307000  0.99331000  1.0
  C  C153  1  0.47425000  0.58529000  0.99271000  1.0
  C  C154  1  0.55341000  0.65176000  0.14311000  1.0
  C  C155  1  0.54630000  0.57364000  0.14557000  1.0
  C  C156  1  0.99477000  0.77465000  0.77010000  1.0
  C  C157  1  0.89070000  0.93379000  0.96734000  1.0
  C  C158  1  0.97891000  0.83309000  0.96267000  1.0
  C  C159  1  0.30676000  0.85474000  0.77084000  1.0
  C  C160  1  0.93535000  0.88147000  0.00074000  1.0
  C  C161  1  0.90227000  0.94313000  0.90129000  1.0
  C  C162  1  0.77860000  0.17426000  0.25485000  1.0
  C  C163  1  0.94764000  0.89570000  0.86537000  1.0
  C  C164  1  0.98331000  0.83543000  0.89320000  1.0
  C  C165  1  0.02834000  0.78801000  0.84913000  1.0
  C  C166  1  0.94845000  0.82072000  0.73549000  1.0
  C  C167  1  0.96754000  0.91096000  0.79667000  1.0
  C  C168  1  0.77448000  0.94072000  0.03114000  1.0
  C  C169  1  0.82560000  0.96982000  0.99326000  1.0
  C  C170  1  0.90583000  0.15342000  0.00346000  1.0
  C  C171  1  0.91203000  0.21027000  0.08390000  1.0
  C  C172  1  0.00978000  0.28408000  0.13878000  1.0
  C  C173  1  0.13104000  0.98759000  0.80229000  1.0
  C  C174  1  0.71227000  0.84057000  0.42058000  1.0
  C  C175  1  0.73247000  0.79305000  0.47569000  1.0
  C  C176  1  0.71881000  0.69985000  0.42760000  1.0
  C  C177  1  0.29326000  0.46919000  0.67988000  1.0
  C  C178  1  0.28292000  0.39761000  0.60457000  1.0
  C  C179  1  0.37797000  0.41376000  0.59885000  1.0
  C  C180  1  0.51093000  0.59598000  0.88774000  1.0
  C  C181  1  0.49786000  0.65131000  0.84033000  1.0
  C  C182  1  0.55830000  0.64352000  0.79501000  1.0
  C  C183  1  0.40523000  0.26582000  0.79238000  1.0
  C  C184  1  0.14639000  0.98481000  0.91915000  1.0
  C  C185  1  0.31679000  0.22731000  0.70653000  1.0
  C  C186  1  0.34916000  0.20865000  0.64026000  1.0
  C  C187  1  0.92525000  0.02329000  0.74995000  1.0
  C  C188  1  0.94916000  0.10184000  0.82616000  1.0
  C  C189  1  0.97895000  0.18433000  0.81737000  1.0
  C  C190  1  0.30858000  0.79291000  0.64244000  1.0
  C  C191  1  0.40934000  0.78280000  0.67865000  1.0
  C  C192  1  0.41789000  0.71310000  0.61295000  1.0
  C  C193  1  0.75351000  0.79975000  0.02971000  1.0
  C  C194  1  0.81185000  0.76513000  0.08883000  1.0
  N  N195  1  0.71150000  0.03319000  0.99464000  1.0
  N  N196  1  0.60645000  0.88165000  0.09940000  1.0
  N  N197  1  0.45354000  0.08741000  0.82916000  1.0
  N  N198  1  0.52242000  0.85022000  0.02377000  1.0
  N  N199  1  0.54205000  0.07223000  0.86333000  1.0
  N  N200  1  0.36300000  0.92455000  0.84345000  1.0
  N  N201  1  0.70501000  0.97720000  0.02970000  1.0
  N  N202  1  0.52664000  0.15129000  0.00829000  1.0
  N  N203  1  0.43526000  0.99689000  0.10102000  1.0
  N  N204  1  0.73391000  0.12231000  0.17459000  1.0
  N  N205  1  0.22756000  0.02004000  0.85859000  1.0
  N  N206  1  0.23712000  0.01663000  0.93066000  1.0
  N  N207  1  0.72117000  0.17269000  0.13200000  1.0
  N  N208  1  0.43262000  0.12465000  0.99752000  1.0
  N  N209  1  0.53586000  0.02463000  0.14670000  1.0
  N  N210  1  0.35547000  0.90526000  0.90427000  1.0
  O  O211  1  0.80935000  0.08768000  0.94603000  1.0
  O  O212  1  0.71540000  0.92689000  0.46282000  1.0
  O  O213  1  0.20672000  0.45811000  0.69075000  1.0
  O  O214  1  0.44138000  0.59329000  0.91886000  1.0
  O  O215  1  0.37416000  0.27118000  0.85426000  1.0
  O  O216  1  0.89550000  0.94410000  0.75485000  1.0
  O  O217  1  0.29752000  0.86147000  0.70083000  1.0
  O  O218  1  0.79618000  0.89248000  0.07384000  1.0
  O  O219  1  0.63666000  0.26316000  0.02042000  1.0
  F  F220  1  0.79782000  0.13981000  0.31018000  1.0
  F  F221  1  0.63479000  0.00727000  0.81228000  1.0
  F  F222  1  0.31392000  0.19239000  0.99549000  1.0
  F  F223  1  0.19873000  0.89960000  0.42408000  1.0
  F  F224  1  0.77800000  0.42469000  0.29292000  1.0
  F  F225  1  0.68829000  0.83460000  0.19880000  1.0
  F  F226  1  0.95449000  0.72153000  0.52108000  1.0
  F  F227  1  0.37141000  0.42346000  0.84507000  1.0
  F  F228  1  0.10892000  0.77065000  0.89405000  1.0
  F  F229  1  0.01751000  0.78006000  0.99470000  1.0
