# generated using pymatgen
data_LaH24C35S2N4O9
_symmetry_space_group_name_H-M   'P 1'
_cell_length_a   11.21560000
_cell_length_b   11.70580000
_cell_length_c   13.99990000
_cell_angle_alpha   108.47800000
_cell_angle_beta   91.56760000
_cell_angle_gamma   113.38500000
_symmetry_Int_Tables_number   1
_chemical_formula_structural   LaH24C35S2N4O9
_chemical_formula_sum   'La2 H48 C70 S4 N8 O18'
_cell_volume   1575.10522109
_cell_formula_units_Z   2
loop_
 _symmetry_equiv_pos_site_id
 _symmetry_equiv_pos_as_xyz
  1  'x, y, z'
loop_
 _atom_site_type_symbol
 _atom_site_label
 _atom_site_symmetry_multiplicity
 _atom_site_fract_x
 _atom_site_fract_y
 _atom_site_fract_z
 _atom_site_occupancy
  La  La0  1  0.84572000  0.64170000  0.15147000  1.0
  La  La1  1  0.15428000  0.35830000  0.84853000  1.0
  H  H2  1  0.52626000  0.62229000  0.11559000  1.0
  H  H3  1  0.47374000  0.37771000  0.88441000  1.0
  H  H4  1  0.38689000  0.73376000  0.08796000  1.0
  H  H5  1  0.61311000  0.26623000  0.91204000  1.0
  H  H6  1  0.49860000  0.96691000  0.08500000  1.0
  H  H7  1  0.50140000  0.03309000  0.91500000  1.0
  H  H8  1  0.70544000  0.15908000  0.09337000  1.0
  H  H9  1  0.29456000  0.84093000  0.90663000  1.0
  H  H10  1  0.94829000  0.25680000  0.10195000  1.0
  H  H11  1  0.05172000  0.74320000  0.89805000  1.0
  H  H12  1  0.16098000  0.23692000  0.11569000  1.0
  H  H13  1  0.83902000  0.76309000  0.88432000  1.0
  H  H14  1  0.28098000  0.10449000  0.13542000  1.0
  H  H15  1  0.71902000  0.89551000  0.86458000  1.0
  H  H16  1  0.15289000  0.88434000  0.15702000  1.0
  H  H17  1  0.84711000  0.11566000  0.84298000  1.0
  H  H18  1  0.83108000  0.94410000  0.30587000  1.0
  H  H19  1  0.16892000  0.05590000  0.69413000  1.0
  H  H20  1  0.83523000  0.08810000  0.48131000  1.0
  H  H21  1  0.16477000  0.91190000  0.51869000  1.0
  H  H22  1  0.84329000  0.00903000  0.62672000  1.0
  H  H23  1  0.15671000  0.99097000  0.37328000  1.0
  H  H24  1  0.84948000  0.83259000  0.68590000  1.0
  H  H25  1  0.15052000  0.16741000  0.31410000  1.0
  H  H26  1  0.85498000  0.61207000  0.64847000  1.0
  H  H27  1  0.14502000  0.38793000  0.35153000  1.0
  H  H28  1  0.85562000  0.41155000  0.52458000  1.0
  H  H29  1  0.14438000  0.58845000  0.47543000  1.0
  H  H30  1  0.83903000  0.27300000  0.33894000  1.0
  H  H31  1  0.16097000  0.72700000  0.66106000  1.0
  H  H32  1  0.83213000  0.37142000  0.20561000  1.0
  H  H33  1  0.16788000  0.62859000  0.79439000  1.0
  H  H34  1  0.50092000  0.62653000  0.29605000  1.0
  H  H35  1  0.49908000  0.37347000  0.70396000  1.0
  H  H36  1  0.50766000  0.28394000  0.34530000  1.0
  H  H37  1  0.49233000  0.71605000  0.65470000  1.0
  H  H38  1  0.49978000  0.27101000  0.52033000  1.0
  H  H39  1  0.50022000  0.72898000  0.47967000  1.0
  H  H40  1  0.29261000  0.75613000  0.47657000  1.0
  H  H41  1  0.70739000  0.24387000  0.52342000  1.0
  H  H42  1  0.36432000  0.92149000  0.23846000  1.0
  H  H43  1  0.63569000  0.07850000  0.76153000  1.0
  H  H44  1  0.56152000  0.11748000  0.35204000  1.0
  H  H45  1  0.43849000  0.88252000  0.64795000  1.0
  H  H46  1  0.74905000  0.48625000  0.91401000  1.0
  H  H47  1  0.25095000  0.51374000  0.08599000  1.0
  H  H48  1  0.67829000  0.58381000  0.93575000  1.0
  H  H49  1  0.32171000  0.41619000  0.06425000  1.0
  C  C50  1  0.57195000  0.72306000  0.11438000  1.0
  C  C51  1  0.42805000  0.27694000  0.88561000  1.0
  C  C52  1  0.49365000  0.78613000  0.09818000  1.0
  C  C53  1  0.50635000  0.21387000  0.90182000  1.0
  C  C54  1  0.55497000  0.91321000  0.09625000  1.0
  C  C55  1  0.44504000  0.08679000  0.90375000  1.0
  C  C56  1  0.69382000  0.97564000  0.10805000  1.0
  C  C57  1  0.30618000  0.02436000  0.89194000  1.0
  C  C58  1  0.76268000  0.10559000  0.10343000  1.0
  C  C59  1  0.23732000  0.89441000  0.89657000  1.0
  C  C60  1  0.89653000  0.16044000  0.11000000  1.0
  C  C61  1  0.10347000  0.83956000  0.89000000  1.0
  C  C62  1  0.97099000  0.08987000  0.12259000  1.0
  C  C63  1  0.02900000  0.91013000  0.87742000  1.0
  C  C64  1  0.10828000  0.14072000  0.12373000  1.0
  C  C65  1  0.89172000  0.85929000  0.87628000  1.0
  C  C66  1  0.17514000  0.06760000  0.13521000  1.0
  C  C67  1  0.82486000  0.93241000  0.86480000  1.0
  C  C68  1  0.10418000  0.94509000  0.14738000  1.0
  C  C69  1  0.89582000  0.05491000  0.85262000  1.0
  C  C70  1  0.90664000  0.96280000  0.13191000  1.0
  C  C71  1  0.09336000  0.03720000  0.86810000  1.0
  C  C72  1  0.76483000  0.90339000  0.12284000  1.0
  C  C73  1  0.23517000  0.09661000  0.87716000  1.0
  C  C74  1  0.83346000  0.91033000  0.36970000  1.0
  C  C75  1  0.16654000  0.08967000  0.63030000  1.0
  C  C76  1  0.83529000  0.99151000  0.46869000  1.0
  C  C77  1  0.16470000  0.00849000  0.53131000  1.0
  C  C78  1  0.83963000  0.94754000  0.54864000  1.0
  C  C79  1  0.16037000  0.05246000  0.45135000  1.0
  C  C80  1  0.84249000  0.82268000  0.52869000  1.0
  C  C81  1  0.15750000  0.17732000  0.47131000  1.0
  C  C82  1  0.84889000  0.77255000  0.60845000  1.0
  C  C83  1  0.15111000  0.22745000  0.39155000  1.0
  C  C84  1  0.85170000  0.65178000  0.58814000  1.0
  C  C85  1  0.14830000  0.34822000  0.41186000  1.0
  C  C86  1  0.84730000  0.57214000  0.48554000  1.0
  C  C87  1  0.15270000  0.42786000  0.51446000  1.0
  C  C88  1  0.84730000  0.44549000  0.46164000  1.0
  C  C89  1  0.15270000  0.55451000  0.53837000  1.0
  C  C90  1  0.83911000  0.37112000  0.36106000  1.0
  C  C91  1  0.16089000  0.62888000  0.63894000  1.0
  C  C92  1  0.83533000  0.42563000  0.28545000  1.0
  C  C93  1  0.16467000  0.57438000  0.71455000  1.0
  C  C94  1  0.84212000  0.61881000  0.40398000  1.0
  C  C95  1  0.15788000  0.38120000  0.59602000  1.0
  C  C96  1  0.84019000  0.74706000  0.42583000  1.0
  C  C97  1  0.15982000  0.25294000  0.57417000  1.0
  C  C98  1  0.50108000  0.57433000  0.34812000  1.0
  C  C99  1  0.49891000  0.42567000  0.65188000  1.0
  C  C100  1  0.50520000  0.44860000  0.31122000  1.0
  C  C101  1  0.49480000  0.55139000  0.68878000  1.0
  C  C102  1  0.50418000  0.38029000  0.37556000  1.0
  C  C103  1  0.49581000  0.61970000  0.62444000  1.0
  C  C104  1  0.50065000  0.43582000  0.48079000  1.0
  C  C105  1  0.49934000  0.56418000  0.51921000  1.0
  C  C106  1  0.50026000  0.36914000  0.54969000  1.0
  C  C107  1  0.49974000  0.63085000  0.45031000  1.0
  C  C108  1  0.35043000  0.83679000  0.45083000  1.0
  C  C109  1  0.64957000  0.16320000  0.54917000  1.0
  C  C110  1  0.31671000  0.82807000  0.35252000  1.0
  C  C111  1  0.68329000  0.17192000  0.64748000  1.0
  C  C112  1  0.39201000  0.93061000  0.31658000  1.0
  C  C113  1  0.60799000  0.06939000  0.68341000  1.0
  C  C114  1  0.50134000  0.03944000  0.37992000  1.0
  C  C115  1  0.49866000  0.96056000  0.62008000  1.0
  C  C116  1  0.53876000  0.05155000  0.48179000  1.0
  C  C117  1  0.46124000  0.94844000  0.51820000  1.0
  C  C118  1  0.96344000  0.43600000  0.01224000  1.0
  C  C119  1  0.03656000  0.56400000  0.98776000  1.0
  S  S120  1  0.51152000  0.37823000  0.17932000  1.0
  S  S121  1  0.48847000  0.62177000  0.82068000  1.0
  S  S122  1  0.17737000  0.68463000  0.26913000  1.0
  S  S123  1  0.82263000  0.31537000  0.73087000  1.0
  N  N124  1  0.70341000  0.77919000  0.12732000  1.0
  N  N125  1  0.29659000  0.22081000  0.87268000  1.0
  N  N126  1  0.97432000  0.89383000  0.14651000  1.0
  N  N127  1  0.02568000  0.10617000  0.85349000  1.0
  N  N128  1  0.83560000  0.79176000  0.34759000  1.0
  N  N129  1  0.16440000  0.20825000  0.65241000  1.0
  N  N130  1  0.83793000  0.54563000  0.30568000  1.0
  N  N131  1  0.16208000  0.45437000  0.69432000  1.0
  O  O132  1  0.61566000  0.48809000  0.15657000  1.0
  O  O133  1  0.38434000  0.51191000  0.84343000  1.0
  O  O134  1  0.53998000  0.26388000  0.16702000  1.0
  O  O135  1  0.46002000  0.73612000  0.83299000  1.0
  O  O136  1  0.38143000  0.34333000  0.12359000  1.0
  O  O137  1  0.61857000  0.65666000  0.87641000  1.0
  O  O138  1  0.07812000  0.73643000  0.25794000  1.0
  O  O139  1  0.92188000  0.26357000  0.74206000  1.0
  O  O140  1  0.13748000  0.58745000  0.31962000  1.0
  O  O141  1  0.86252000  0.41255000  0.68038000  1.0
  O  O142  1  0.22331000  0.64309000  0.17237000  1.0
  O  O143  1  0.77668000  0.35690000  0.82763000  1.0
  O  O144  1  0.88198000  0.43886000  0.07348000  1.0
  O  O145  1  0.11803000  0.56114000  0.92652000  1.0
  O  O146  1  0.99105000  0.33943000  0.97031000  1.0
  O  O147  1  0.00895000  0.66057000  0.02969000  1.0
  O  O148  1  0.72402000  0.54513000  0.96904000  1.0
  O  O149  1  0.27599000  0.45487000  0.03096000  1.0
