# generated using pymatgen
data_H6AuC7N3
_symmetry_space_group_name_H-M   'P 1'
_cell_length_a   7.68894000
_cell_length_b   12.04500000
_cell_length_c   15.75230000
_cell_angle_alpha   90.00050000
_cell_angle_beta   89.99860000
_cell_angle_gamma   89.99870000
_symmetry_Int_Tables_number   1
_chemical_formula_structural   H6AuC7N3
_chemical_formula_sum   'H48 Au8 C56 N24'
_cell_volume   1458.87220591
_cell_formula_units_Z   8
loop_
 _symmetry_equiv_pos_site_id
 _symmetry_equiv_pos_as_xyz
  1  'x, y, z'
loop_
 _atom_site_type_symbol
 _atom_site_label
 _atom_site_symmetry_multiplicity
 _atom_site_fract_x
 _atom_site_fract_y
 _atom_site_fract_z
 _atom_site_occupancy
  H  H0  1  0.06433000  0.28088000  0.17976000  1.0
  H  H1  1  0.56432000  0.71912000  0.32024000  1.0
  H  H2  1  0.93568000  0.21912000  0.67975000  1.0
  H  H3  1  0.43569000  0.78087000  0.82024000  1.0
  H  H4  1  0.93567000  0.71910000  0.82024000  1.0
  H  H5  1  0.43567000  0.28088000  0.67976000  1.0
  H  H6  1  0.06434000  0.78088000  0.32024000  1.0
  H  H7  1  0.56432000  0.21911000  0.17977000  1.0
  H  H8  1  0.90163000  0.17683000  0.29305000  1.0
  H  H9  1  0.40163000  0.82318000  0.20695000  1.0
  H  H10  1  0.09838000  0.32317000  0.79304000  1.0
  H  H11  1  0.59837000  0.67682000  0.70695000  1.0
  H  H12  1  0.09836000  0.82316000  0.70695000  1.0
  H  H13  1  0.59837000  0.17683000  0.79304000  1.0
  H  H14  1  0.90165000  0.67682000  0.20695000  1.0
  H  H15  1  0.40163000  0.32317000  0.29306000  1.0
  H  H16  1  0.88170000  0.97231000  0.28914000  1.0
  H  H17  1  0.38169000  0.02769000  0.21087000  1.0
  H  H18  1  0.11831000  0.52769000  0.78913000  1.0
  H  H19  1  0.61832000  0.47230000  0.71085000  1.0
  H  H20  1  0.11830000  0.02768000  0.71086000  1.0
  H  H21  1  0.61831000  0.97231000  0.78913000  1.0
  H  H22  1  0.88170000  0.47231000  0.21087000  1.0
  H  H23  1  0.38169000  0.52769000  0.28915000  1.0
  H  H24  1  0.02084000  0.86336000  0.17205000  1.0
  H  H25  1  0.52083000  0.13664000  0.32794000  1.0
  H  H26  1  0.97918000  0.63664000  0.67205000  1.0
  H  H27  1  0.47919000  0.36336000  0.82794000  1.0
  H  H28  1  0.97916000  0.13663000  0.82794000  1.0
  H  H29  1  0.47918000  0.86336000  0.67205000  1.0
  H  H30  1  0.02082000  0.36336000  0.32795000  1.0
  H  H31  1  0.52082000  0.63663000  0.17207000  1.0
  H  H32  1  0.36720000  0.14086000  0.89480000  1.0
  H  H33  1  0.86720000  0.85915000  0.60520000  1.0
  H  H34  1  0.63279000  0.35915000  0.39480000  1.0
  H  H35  1  0.13280000  0.64086000  0.10520000  1.0
  H  H36  1  0.63279000  0.85916000  0.10521000  1.0
  H  H37  1  0.13280000  0.14085000  0.39480000  1.0
  H  H38  1  0.36721000  0.64085000  0.60521000  1.0
  H  H39  1  0.86720000  0.35915000  0.89480000  1.0
  H  H40  1  0.33411000  0.00131000  0.88529000  1.0
  H  H41  1  0.83410000  0.99870000  0.61470000  1.0
  H  H42  1  0.66589000  0.49870000  0.38530000  1.0
  H  H43  1  0.16590000  0.50131000  0.11470000  1.0
  H  H44  1  0.66590000  0.99870000  0.11471000  1.0
  H  H45  1  0.16590000  0.00130000  0.38530000  1.0
  H  H46  1  0.33411000  0.50131000  0.61471000  1.0
  H  H47  1  0.83410000  0.49870000  0.88530000  1.0
  Au  Au48  1  0.24068000  0.81865000  0.99932000  1.0
  Au  Au49  1  0.74068000  0.18135000  0.50067000  1.0
  Au  Au50  1  0.75933000  0.68135000  0.49932000  1.0
  Au  Au51  1  0.25932000  0.31865000  0.00067000  1.0
  Au  Au52  1  0.75932000  0.18135000  0.00068000  1.0
  Au  Au53  1  0.25932000  0.81865000  0.49932000  1.0
  Au  Au54  1  0.24068000  0.31865000  0.50068000  1.0
  Au  Au55  1  0.74068000  0.68135000  0.99934000  1.0
  C  C56  1  0.26008000  0.06823000  0.99801000  1.0
  C  C57  1  0.76008000  0.93177000  0.50198000  1.0
  C  C58  1  0.73992000  0.43177000  0.49801000  1.0
  C  C59  1  0.23992000  0.56823000  0.00198000  1.0
  C  C60  1  0.73989000  0.93177000  0.00199000  1.0
  C  C61  1  0.23990000  0.06823000  0.49802000  1.0
  C  C62  1  0.26009000  0.56824000  0.50199000  1.0
  C  C63  1  0.76010000  0.43177000  0.99802000  1.0
  C  C64  1  0.13092000  0.12937000  0.11333000  1.0
  C  C65  1  0.63090000  0.87063000  0.38667000  1.0
  C  C66  1  0.86909000  0.37063000  0.61332000  1.0
  C  C67  1  0.36910000  0.62937000  0.88667000  1.0
  C  C68  1  0.86908000  0.87062000  0.88667000  1.0
  C  C69  1  0.36909000  0.12937000  0.61332000  1.0
  C  C70  1  0.13092000  0.62937000  0.38667000  1.0
  C  C71  1  0.63091000  0.37062000  0.11333000  1.0
  C  C72  1  0.05570000  0.19056000  0.17892000  1.0
  C  C73  1  0.55570000  0.80945000  0.32108000  1.0
  C  C74  1  0.94430000  0.30944000  0.67891000  1.0
  C  C75  1  0.44431000  0.69055000  0.82108000  1.0
  C  C76  1  0.94430000  0.80943000  0.82109000  1.0
  C  C77  1  0.44430000  0.19056000  0.67891000  1.0
  C  C78  1  0.05571000  0.69056000  0.32109000  1.0
  C  C79  1  0.55569000  0.30944000  0.17892000  1.0
  C  C80  1  0.96660000  0.13171000  0.24196000  1.0
  C  C81  1  0.46660000  0.86830000  0.25804000  1.0
  C  C82  1  0.03341000  0.36829000  0.74195000  1.0
  C  C83  1  0.53341000  0.63170000  0.75804000  1.0
  C  C84  1  0.03339000  0.86828000  0.75805000  1.0
  C  C85  1  0.53342000  0.13171000  0.74195000  1.0
  C  C86  1  0.96661000  0.63171000  0.25805000  1.0
  C  C87  1  0.46659000  0.36829000  0.24196000  1.0
  C  C88  1  0.95467000  0.01518000  0.23974000  1.0
  C  C89  1  0.45467000  0.98483000  0.26026000  1.0
  C  C90  1  0.04533000  0.48482000  0.73973000  1.0
  C  C91  1  0.54533000  0.51517000  0.76026000  1.0
  C  C92  1  0.04532000  0.98481000  0.76026000  1.0
  C  C93  1  0.54533000  0.01518000  0.73973000  1.0
  C  C94  1  0.95468000  0.51517000  0.26027000  1.0
  C  C95  1  0.45466000  0.48482000  0.23974000  1.0
  C  C96  1  0.03109000  0.95363000  0.17440000  1.0
  C  C97  1  0.53109000  0.04638000  0.32560000  1.0
  C  C98  1  0.96892000  0.54637000  0.67440000  1.0
  C  C99  1  0.46892000  0.45363000  0.82559000  1.0
  C  C100  1  0.96890000  0.04636000  0.82560000  1.0
  C  C101  1  0.46892000  0.95363000  0.67440000  1.0
  C  C102  1  0.03109000  0.45363000  0.32560000  1.0
  C  C103  1  0.53108000  0.54637000  0.17441000  1.0
  C  C104  1  0.11892000  0.01168000  0.11108000  1.0
  C  C105  1  0.61892000  0.98832000  0.38892000  1.0
  C  C106  1  0.88108000  0.48832000  0.61108000  1.0
  C  C107  1  0.38108000  0.51168000  0.88891000  1.0
  C  C108  1  0.88107000  0.98830000  0.88892000  1.0
  C  C109  1  0.38108000  0.01168000  0.61108000  1.0
  C  C110  1  0.11893000  0.51168000  0.38892000  1.0
  C  C111  1  0.61892000  0.48831000  0.11109000  1.0
  N  N112  1  0.20341000  0.97546000  0.03827000  1.0
  N  N113  1  0.70341000  0.02454000  0.46172000  1.0
  N  N114  1  0.79659000  0.52454000  0.53827000  1.0
  N  N115  1  0.29658000  0.47546000  0.96172000  1.0
  N  N116  1  0.79657000  0.02454000  0.96173000  1.0
  N  N117  1  0.29658000  0.97546000  0.53827000  1.0
  N  N118  1  0.20342000  0.47546000  0.46173000  1.0
  N  N119  1  0.70343000  0.52454000  0.03829000  1.0
  N  N120  1  0.22007000  0.16262000  0.04090000  1.0
  N  N121  1  0.72006000  0.83738000  0.45910000  1.0
  N  N122  1  0.77993000  0.33738000  0.54090000  1.0
  N  N123  1  0.27994000  0.66262000  0.95910000  1.0
  N  N124  1  0.77991000  0.83738000  0.95911000  1.0
  N  N125  1  0.27992000  0.16262000  0.54090000  1.0
  N  N126  1  0.22008000  0.66262000  0.45910000  1.0
  N  N127  1  0.72007000  0.33738000  0.04090000  1.0
  N  N128  1  0.35158000  0.06697000  0.92472000  1.0
  N  N129  1  0.85158000  0.93304000  0.57527000  1.0
  N  N130  1  0.64842000  0.43304000  0.42472000  1.0
  N  N131  1  0.14843000  0.56697000  0.07528000  1.0
  N  N132  1  0.64840000  0.93304000  0.07528000  1.0
  N  N133  1  0.14841000  0.06696000  0.42473000  1.0
  N  N134  1  0.35157000  0.56697000  0.57528000  1.0
  N  N135  1  0.85158000  0.43304000  0.92473000  1.0
