# generated using pymatgen
data_NiH9C8NO6
_symmetry_space_group_name_H-M   'P 1'
_cell_length_a   6.48902000
_cell_length_b   7.92367000
_cell_length_c   10.00538725
_cell_angle_alpha   105.33987064
_cell_angle_beta   108.51799995
_cell_angle_gamma   99.16040000
_symmetry_Int_Tables_number   1
_chemical_formula_structural   NiH9C8NO6
_chemical_formula_sum   'Ni2 H18 C16 N2 O12'
_cell_volume   453.48568303
_cell_formula_units_Z   2
loop_
 _symmetry_equiv_pos_site_id
 _symmetry_equiv_pos_as_xyz
  1  'x, y, z'
loop_
 _atom_site_type_symbol
 _atom_site_label
 _atom_site_symmetry_multiplicity
 _atom_site_fract_x
 _atom_site_fract_y
 _atom_site_fract_z
 _atom_site_occupancy
  Ni  Ni0  1  0.10395000  0.05495000  0.30407000  1.0
  Ni  Ni1  1  0.89580000  0.94446000  0.69575000  1.0
  H  H2  1  0.03514000  0.81722000  0.43315000  1.0
  H  H3  1  0.96275000  0.18014000  0.56621000  1.0
  H  H4  1  0.23664000  0.78346000  0.37531000  1.0
  H  H5  1  0.76262000  0.21363000  0.62546000  1.0
  H  H6  1  0.51670000  0.19652000  0.42314000  1.0
  H  H7  1  0.48139000  0.80139000  0.58100000  1.0
  H  H8  1  0.53353000  0.03809000  0.29209000  1.0
  H  H9  1  0.46676000  0.96289000  0.71073000  1.0
  H  H10  1  0.79410000  0.64686000  0.72545000  1.0
  H  H11  1  0.20691000  0.35434000  0.27510000  1.0
  H  H12  1  0.91250000  0.80412000  0.89621000  1.0
  H  H13  1  0.08912000  0.19719000  0.10415000  1.0
  H  H14  1  0.68326000  0.53822000  0.88298000  1.0
  H  H15  1  0.31626000  0.46155000  0.11643000  1.0
  H  H16  1  0.99899000  0.48329000  0.60599000  1.0
  H  H17  1  0.99843000  0.51388000  0.39548000  1.0
  H  H18  1  0.31255000  0.89722000  0.04013000  1.0
  H  H19  1  0.69181000  0.10925000  0.95655000  1.0
  C  C20  1  0.72644000  0.84042000  0.10796000  1.0
  C  C21  1  0.27578000  0.16186000  0.88972000  1.0
  C  C22  1  0.51962000  0.72953000  0.97493000  1.0
  C  C23  1  0.48199000  0.27305000  0.02342000  1.0
  C  C24  1  0.53007000  0.58339000  0.86486000  1.0
  C  C25  1  0.46979000  0.41697000  0.13453000  1.0
  C  C26  1  0.34320000  0.49450000  0.73170000  1.0
  C  C27  1  0.65542000  0.50427000  0.26861000  1.0
  C  C28  1  0.36006000  0.35118000  0.60650000  1.0
  C  C29  1  0.63756000  0.64583000  0.39449000  1.0
  C  C30  1  0.14432000  0.54954000  0.71053000  1.0
  C  C31  1  0.85450000  0.44953000  0.28994000  1.0
  C  C32  1  0.13250000  0.69340000  0.82127000  1.0
  C  C33  1  0.86840000  0.30812000  0.17813000  1.0
  C  C34  1  0.32003000  0.78311000  0.95441000  1.0
  C  C35  1  0.68244000  0.22072000  0.04363000  1.0
  N  N36  1  0.93266000  0.75284000  0.79589000  1.0
  N  N37  1  0.06822000  0.24862000  0.20406000  1.0
  O  O38  1  0.91809000  0.85102000  0.09311000  1.0
  O  O39  1  0.08394000  0.14927000  0.90462000  1.0
  O  O40  1  0.71627000  0.93054000  0.23000000  1.0
  O  O41  1  0.28672000  0.07302000  0.76769000  1.0
  O  O42  1  0.55251000  0.34777000  0.60240000  1.0
  O  O43  1  0.44518000  0.64731000  0.39944000  1.0
  O  O44  1  0.17042000  0.24643000  0.50584000  1.0
  O  O45  1  0.82689000  0.75182000  0.49461000  1.0
  O  O46  1  0.16299000  0.87524000  0.41111000  1.0
  O  O47  1  0.83472000  0.12164000  0.58789000  1.0
  O  O48  1  0.44327000  0.12355000  0.31524000  1.0
  O  O49  1  0.55681000  0.87678000  0.68807000  1.0
