# generated using pymatgen
data_AgH7C9N4O3
_symmetry_space_group_name_H-M   'P 1'
_cell_length_a   5.10641000
_cell_length_b   11.02570000
_cell_length_c   18.13520000
_cell_angle_alpha   89.99940000
_cell_angle_beta   93.83380000
_cell_angle_gamma   90.00000000
_symmetry_Int_Tables_number   1
_chemical_formula_structural   AgH7C9N4O3
_chemical_formula_sum   'Ag4 H28 C36 N16 O12'
_cell_volume   1018.75850843
_cell_formula_units_Z   4
loop_
 _symmetry_equiv_pos_site_id
 _symmetry_equiv_pos_as_xyz
  1  'x, y, z'
loop_
 _atom_site_type_symbol
 _atom_site_label
 _atom_site_symmetry_multiplicity
 _atom_site_fract_x
 _atom_site_fract_y
 _atom_site_fract_z
 _atom_site_occupancy
  Ag  Ag0  1  0.98832000  0.94913000  0.77067000  1.0
  Ag  Ag1  1  0.48831000  0.55086000  0.27067000  1.0
  Ag  Ag2  1  0.01169000  0.05085000  0.22934000  1.0
  Ag  Ag3  1  0.51168000  0.44913000  0.72933000  1.0
  H  H4  1  0.37401000  0.71208000  0.76320000  1.0
  H  H5  1  0.87401000  0.78790000  0.26321000  1.0
  H  H6  1  0.62600000  0.28790000  0.23679000  1.0
  H  H7  1  0.12599000  0.21209000  0.73679000  1.0
  H  H8  1  0.13172000  0.48815000  0.58728000  1.0
  H  H9  1  0.63176000  0.01185000  0.08729000  1.0
  H  H10  1  0.86827000  0.51185000  0.41271000  1.0
  H  H11  1  0.36825000  0.98814000  0.91272000  1.0
  H  H12  1  0.76903000  0.63448000  0.54923000  1.0
  H  H13  1  0.26906000  0.86552000  0.04923000  1.0
  H  H14  1  0.23098000  0.36553000  0.45076000  1.0
  H  H15  1  0.73095000  0.13448000  0.95077000  1.0
  H  H16  1  0.45888000  0.75542000  0.53530000  1.0
  H  H17  1  0.95890000  0.74459000  0.03529000  1.0
  H  H18  1  0.54111000  0.24458000  0.46470000  1.0
  H  H19  1  0.04110000  0.25542000  0.96470000  1.0
  H  H20  1  0.13867000  0.91895000  0.51310000  1.0
  H  H21  1  0.63869000  0.58107000  0.01309000  1.0
  H  H22  1  0.86132000  0.08106000  0.48691000  1.0
  H  H23  1  0.36129000  0.41894000  0.98691000  1.0
  H  H24  1  0.19136000  0.11501000  0.58773000  1.0
  H  H25  1  0.69134000  0.38500000  0.08772000  1.0
  H  H26  1  0.80866000  0.88499000  0.41228000  1.0
  H  H27  1  0.30864000  0.61501000  0.91228000  1.0
  H  H28  1  0.57251000  0.12957000  0.68090000  1.0
  H  H29  1  0.07248000  0.37044000  0.18090000  1.0
  H  H30  1  0.42751000  0.87043000  0.31910000  1.0
  H  H31  1  0.92750000  0.62957000  0.81910000  1.0
  C  C32  1  0.23632000  0.69358000  0.71571000  1.0
  C  C33  1  0.73633000  0.80641000  0.21572000  1.0
  C  C34  1  0.76368000  0.30642000  0.28428000  1.0
  C  C35  1  0.26367000  0.19358000  0.78428000  1.0
  C  C36  1  0.09925000  0.57073000  0.61832000  1.0
  C  C37  1  0.59926000  0.92927000  0.11832000  1.0
  C  C38  1  0.90076000  0.42926000  0.38168000  1.0
  C  C39  1  0.40074000  0.07073000  0.88168000  1.0
  C  C40  1  0.90051000  0.65241000  0.59767000  1.0
  C  C41  1  0.40054000  0.84759000  0.09767000  1.0
  C  C42  1  0.09949000  0.34759000  0.40233000  1.0
  C  C43  1  0.59948000  0.15240000  0.90233000  1.0
  C  C44  1  0.88015000  0.75742000  0.64044000  1.0
  C  C45  1  0.38016000  0.74258000  0.14044000  1.0
  C  C46  1  0.11986000  0.24258000  0.35956000  1.0
  C  C47  1  0.61985000  0.25742000  0.85956000  1.0
  C  C48  1  0.68094000  0.85292000  0.62342000  1.0
  C  C49  1  0.18093000  0.64708000  0.12342000  1.0
  C  C50  1  0.31908000  0.14708000  0.37658000  1.0
  C  C51  1  0.81906000  0.35292000  0.87658000  1.0
  C  C52  1  0.47880000  0.83812000  0.56812000  1.0
  C  C53  1  0.97880000  0.66189000  0.06811000  1.0
  C  C54  1  0.52121000  0.16189000  0.43188000  1.0
  C  C55  1  0.02119000  0.33811000  0.93188000  1.0
  C  C56  1  0.29735000  0.93151000  0.55554000  1.0
  C  C57  1  0.79736000  0.56850000  0.05553000  1.0
  C  C58  1  0.70265000  0.06850000  0.44447000  1.0
  C  C59  1  0.20263000  0.43151000  0.94446000  1.0
  C  C60  1  0.32517000  0.03829000  0.59629000  1.0
  C  C61  1  0.82516000  0.46171000  0.09628000  1.0
  C  C62  1  0.67484000  0.96171000  0.40372000  1.0
  C  C63  1  0.17483000  0.53829000  0.90372000  1.0
  C  C64  1  0.53577000  0.04653000  0.64924000  1.0
  C  C65  1  0.03575000  0.45349000  0.14924000  1.0
  C  C66  1  0.46425000  0.95348000  0.35076000  1.0
  C  C67  1  0.96424000  0.54652000  0.85076000  1.0
  N  N68  1  0.05249000  0.77635000  0.69928000  1.0
  N  N69  1  0.55249000  0.72364000  0.19928000  1.0
  N  N70  1  0.94750000  0.22364000  0.30071000  1.0
  N  N71  1  0.44750000  0.27635000  0.80072000  1.0
  N  N72  1  0.26586000  0.58980000  0.67813000  1.0
  N  N73  1  0.76587000  0.91019000  0.17813000  1.0
  N  N74  1  0.73413000  0.41019000  0.32187000  1.0
  N  N75  1  0.23413000  0.08981000  0.82187000  1.0
  N  N76  1  0.70596000  0.95603000  0.66367000  1.0
  N  N77  1  0.20595000  0.54398000  0.16367000  1.0
  N  N78  1  0.29405000  0.04397000  0.33632000  1.0
  N  N79  1  0.79404000  0.45603000  0.83632000  1.0
  N  N80  1  0.72189000  0.82184000  0.90311000  1.0
  N  N81  1  0.22189000  0.67816000  0.40311000  1.0
  N  N82  1  0.27811000  0.17816000  0.09689000  1.0
  N  N83  1  0.77811000  0.32184000  0.59689000  1.0
  O  O84  1  0.67049000  0.82337000  0.83262000  1.0
  O  O85  1  0.17052000  0.67663000  0.33262000  1.0
  O  O86  1  0.32950000  0.17664000  0.16738000  1.0
  O  O87  1  0.82949000  0.32337000  0.66738000  1.0
  O  O88  1  0.92064000  0.87753000  0.93105000  1.0
  O  O89  1  0.42060000  0.62245000  0.43107000  1.0
  O  O90  1  0.07937000  0.12247000  0.06895000  1.0
  O  O91  1  0.57937000  0.37752000  0.56894000  1.0
  O  O92  1  0.56988000  0.76525000  0.94309000  1.0
  O  O93  1  0.06989000  0.73476000  0.44309000  1.0
  O  O94  1  0.43012000  0.23476000  0.05692000  1.0
  O  O95  1  0.93012000  0.26524000  0.55691000  1.0
