# generated using pymatgen
data_Ni3H14(C4O3)4
_symmetry_space_group_name_H-M   'P 1'
_cell_length_a   6.19735000
_cell_length_b   6.62172000
_cell_length_c   10.20550000
_cell_angle_alpha   82.82300000
_cell_angle_beta   83.25390000
_cell_angle_gamma   85.58820000
_symmetry_Int_Tables_number   1
_chemical_formula_structural   Ni3H14(C4O3)4
_chemical_formula_sum   'Ni3 H14 C16 O12'
_cell_volume   411.82170644
_cell_formula_units_Z   1
loop_
 _symmetry_equiv_pos_site_id
 _symmetry_equiv_pos_as_xyz
  1  'x, y, z'
loop_
 _atom_site_type_symbol
 _atom_site_label
 _atom_site_symmetry_multiplicity
 _atom_site_fract_x
 _atom_site_fract_y
 _atom_site_fract_z
 _atom_site_occupancy
  Ni  Ni0  1  0.52148000  0.26189000  0.99470000  1.0
  Ni  Ni1  1  0.47853000  0.73811000  0.00530000  1.0
  Ni  Ni2  1  0.00000000  0.50000000  0.00000000  1.0
  H  H3  1  0.40658000  0.30939000  0.41242000  1.0
  H  H4  1  0.59341000  0.69061000  0.58758000  1.0
  H  H5  1  0.26834000  0.33652000  0.65048000  1.0
  H  H6  1  0.73166000  0.66348000  0.34952000  1.0
  H  H7  1  0.63473000  0.19056000  0.57550000  1.0
  H  H8  1  0.36527000  0.80944000  0.42450000  1.0
  H  H9  1  0.77131000  0.16864000  0.33632000  1.0
  H  H10  1  0.22869000  0.83136000  0.66368000  1.0
  H  H11  1  0.66601000  0.46322000  0.15091000  1.0
  H  H12  1  0.33399000  0.53678000  0.84909000  1.0
  H  H13  1  0.81986000  0.91526000  0.97624000  1.0
  H  H14  1  0.18014000  0.08474000  0.02377000  1.0
  H  H15  1  0.75913000  0.94124000  0.12844000  1.0
  H  H16  1  0.24088000  0.05876000  0.87157000  1.0
  C  C17  1  0.18337000  0.22404000  0.21930000  1.0
  C  C18  1  0.81662000  0.77596000  0.78069000  1.0
  C  C19  1  0.09806000  0.23684000  0.36060000  1.0
  C  C20  1  0.90194000  0.76316000  0.63940000  1.0
  C  C21  1  0.23824000  0.28205000  0.44952000  1.0
  C  C22  1  0.76176000  0.71795000  0.55047000  1.0
  C  C23  1  0.16124000  0.29727000  0.58144000  1.0
  C  C24  1  0.83876000  0.70273000  0.41856000  1.0
  C  C25  1  0.94268000  0.26645000  0.62685000  1.0
  C  C26  1  0.05732000  0.73355000  0.37315000  1.0
  C  C27  1  0.80308000  0.21790000  0.53827000  1.0
  C  C28  1  0.19692000  0.78210000  0.46173000  1.0
  C  C29  1  0.87928000  0.20521000  0.40580000  1.0
  C  C30  1  0.12072000  0.79479000  0.59420000  1.0
  C  C31  1  0.86020000  0.29151000  0.76851000  1.0
  C  C32  1  0.13980000  0.70849000  0.23149000  1.0
  O  O33  1  0.04601000  0.21062000  0.13501000  1.0
  O  O34  1  0.95400000  0.78938000  0.86499000  1.0
  O  O35  1  0.38779000  0.22680000  0.18795000  1.0
  O  O36  1  0.61220000  0.77320000  0.81205000  1.0
  O  O37  1  0.00169000  0.32960000  0.84210000  1.0
  O  O38  1  0.99831000  0.67039000  0.15790000  1.0
  O  O39  1  0.65769000  0.27380000  0.80445000  1.0
  O  O40  1  0.34231000  0.72620000  0.19555000  1.0
  O  O41  1  0.68489000  0.48611000  0.05408000  1.0
  O  O42  1  0.31511000  0.51389000  0.94593000  1.0
  O  O43  1  0.70078000  0.97013000  0.04269000  1.0
  O  O44  1  0.29922000  0.02987000  0.95731000  1.0
