# generated using pymatgen
data_CuH6C6N3ClO4
_symmetry_space_group_name_H-M   'P 1'
_cell_length_a   7.61430000
_cell_length_b   9.19339000
_cell_length_c   13.42920000
_cell_angle_alpha   90.00060000
_cell_angle_beta   90.00040000
_cell_angle_gamma   82.69480000
_symmetry_Int_Tables_number   1
_chemical_formula_structural   CuH6C6N3ClO4
_chemical_formula_sum   'Cu4 H24 C24 N12 Cl4 O16'
_cell_volume   932.42995175
_cell_formula_units_Z   4
loop_
 _symmetry_equiv_pos_site_id
 _symmetry_equiv_pos_as_xyz
  1  'x, y, z'
loop_
 _atom_site_type_symbol
 _atom_site_label
 _atom_site_symmetry_multiplicity
 _atom_site_fract_x
 _atom_site_fract_y
 _atom_site_fract_z
 _atom_site_occupancy
  Cu  Cu0  1  0.70866000  0.62647000  0.18055000  1.0
  Cu  Cu1  1  0.79134000  0.87352000  0.68054000  1.0
  Cu  Cu2  1  0.29134000  0.37353000  0.81945000  1.0
  Cu  Cu3  1  0.20866000  0.12648000  0.31946000  1.0
  H  H4  1  0.93296000  0.66473000  0.35609000  1.0
  H  H5  1  0.56705000  0.83527000  0.85608000  1.0
  H  H6  1  0.06704000  0.33527000  0.64392000  1.0
  H  H7  1  0.43295000  0.16472000  0.14392000  1.0
  H  H8  1  0.71652000  0.93122000  0.12370000  1.0
  H  H9  1  0.78348000  0.56877000  0.62370000  1.0
  H  H10  1  0.28348000  0.06878000  0.87630000  1.0
  H  H11  1  0.21652000  0.43122000  0.37630000  1.0
  H  H12  1  0.12034000  0.85756000  0.40421000  1.0
  H  H13  1  0.37967000  0.64244000  0.90420000  1.0
  H  H14  1  0.87966000  0.14244000  0.59579000  1.0
  H  H15  1  0.62033000  0.35755000  0.09579000  1.0
  H  H16  1  0.91369000  0.11762000  0.16693000  1.0
  H  H17  1  0.58631000  0.38237000  0.66692000  1.0
  H  H18  1  0.08633000  0.88238000  0.83307000  1.0
  H  H19  1  0.41368000  0.61762000  0.33307000  1.0
  H  H20  1  0.79317000  0.72175000  0.97776000  1.0
  H  H21  1  0.70682000  0.77825000  0.47775000  1.0
  H  H22  1  0.20683000  0.27826000  0.02224000  1.0
  H  H23  1  0.29317000  0.22175000  0.52224000  1.0
  H  H24  1  0.01991000  0.63690000  0.84631000  1.0
  H  H25  1  0.48009000  0.86311000  0.34631000  1.0
  H  H26  1  0.98010000  0.36311000  0.15369000  1.0
  H  H27  1  0.51991000  0.13689000  0.65369000  1.0
  C  C28  1  0.92725000  0.76692000  0.31447000  1.0
  C  C29  1  0.57275000  0.73308000  0.81447000  1.0
  C  C30  1  0.07274000  0.23308000  0.68553000  1.0
  C  C31  1  0.42725000  0.26692000  0.18554000  1.0
  C  C32  1  0.80781000  0.91384000  0.18599000  1.0
  C  C33  1  0.69219000  0.58616000  0.68599000  1.0
  C  C34  1  0.19218000  0.08616000  0.81401000  1.0
  C  C35  1  0.30782000  0.41384000  0.31401000  1.0
  C  C36  1  0.03305000  0.87306000  0.33993000  1.0
  C  C37  1  0.46695000  0.62695000  0.83993000  1.0
  C  C38  1  0.96695000  0.12694000  0.66007000  1.0
  C  C39  1  0.53305000  0.37305000  0.16007000  1.0
  C  C40  1  0.91699000  0.01779000  0.21068000  1.0
  C  C41  1  0.58301000  0.48220000  0.71068000  1.0
  C  C42  1  0.08302000  0.98220000  0.78932000  1.0
  C  C43  1  0.41698000  0.51779000  0.28932000  1.0
  C  C44  1  0.88529000  0.62201000  0.98737000  1.0
  C  C45  1  0.61470000  0.87799000  0.48737000  1.0
  C  C46  1  0.11471000  0.37800000  0.01263000  1.0
  C  C47  1  0.38529000  0.12201000  0.51263000  1.0
  C  C48  1  0.01170000  0.57669000  0.91576000  1.0
  C  C49  1  0.48830000  0.92331000  0.41576000  1.0
  C  C50  1  0.98830000  0.42332000  0.08424000  1.0
  C  C51  1  0.51170000  0.07669000  0.58424000  1.0
  N  N52  1  0.81296000  0.78623000  0.23691000  1.0
  N  N53  1  0.68704000  0.71377000  0.73691000  1.0
  N  N54  1  0.18703000  0.21378000  0.76309000  1.0
  N  N55  1  0.31296000  0.28622000  0.26309000  1.0
  N  N56  1  0.03101000  0.99867000  0.28782000  1.0
  N  N57  1  0.46899000  0.50133000  0.78782000  1.0
  N  N58  1  0.96899000  0.00134000  0.71218000  1.0
  N  N59  1  0.53101000  0.49866000  0.21218000  1.0
  N  N60  1  0.87192000  0.54549000  0.07212000  1.0
  N  N61  1  0.62808000  0.95451000  0.57213000  1.0
  N  N62  1  0.12808000  0.45452000  0.92788000  1.0
  N  N63  1  0.37191000  0.04549000  0.42787000  1.0
  Cl  Cl64  1  0.33913000  0.83596000  0.09496000  1.0
  Cl  Cl65  1  0.16087000  0.66404000  0.59496000  1.0
  Cl  Cl66  1  0.66087000  0.16404000  0.90504000  1.0
  Cl  Cl67  1  0.83914000  0.33596000  0.40504000  1.0
  O  O68  1  0.50435000  0.75993000  0.05182000  1.0
  O  O69  1  0.99565000  0.74006000  0.55182000  1.0
  O  O70  1  0.49565000  0.24007000  0.94818000  1.0
  O  O71  1  0.00436000  0.25993000  0.44818000  1.0
  O  O72  1  0.22012000  0.72920000  0.11913000  1.0
  O  O73  1  0.27988000  0.77080000  0.61913000  1.0
  O  O74  1  0.77988000  0.27080000  0.88087000  1.0
  O  O75  1  0.72012000  0.22920000  0.38086000  1.0
  O  O76  1  0.38525000  0.91213000  0.18561000  1.0
  O  O77  1  0.11475000  0.58787000  0.68561000  1.0
  O  O78  1  0.61475000  0.08787000  0.81439000  1.0
  O  O79  1  0.88526000  0.41213000  0.31440000  1.0
  O  O80  1  0.25618000  0.94220000  0.02328000  1.0
  O  O81  1  0.24382000  0.55780000  0.52328000  1.0
  O  O82  1  0.74382000  0.05781000  0.97672000  1.0
  O  O83  1  0.75619000  0.44219000  0.47673000  1.0
