# generated using pymatgen
data_LiH4C6NO2
_symmetry_space_group_name_H-M   'P 1'
_cell_length_a   4.92304000
_cell_length_b   10.73170000
_cell_length_c   13.77990000
_cell_angle_alpha   90.00000000
_cell_angle_beta   90.00000000
_cell_angle_gamma   90.00000000
_symmetry_Int_Tables_number   1
_chemical_formula_structural   LiH4C6NO2
_chemical_formula_sum   'Li4 H16 C24 N4 O8'
_cell_volume   728.02778445
_cell_formula_units_Z   4
loop_
 _symmetry_equiv_pos_site_id
 _symmetry_equiv_pos_as_xyz
  1  'x, y, z'
loop_
 _atom_site_type_symbol
 _atom_site_label
 _atom_site_symmetry_multiplicity
 _atom_site_fract_x
 _atom_site_fract_y
 _atom_site_fract_z
 _atom_site_occupancy
  Li  Li0  1  0.36344000  0.99397000  0.43285000  1.0
  Li  Li1  1  0.86344000  0.00604000  0.56715000  1.0
  Li  Li2  1  0.36344000  0.49396000  0.06715000  1.0
  Li  Li3  1  0.86344000  0.50604000  0.93285000  1.0
  H  H4  1  0.93016000  0.70813000  0.59548000  1.0
  H  H5  1  0.43016000  0.29187000  0.40452000  1.0
  H  H6  1  0.93016000  0.20813000  0.90452000  1.0
  H  H7  1  0.43016000  0.79187000  0.09548000  1.0
  H  H8  1  0.50250000  0.84916000  0.80430000  1.0
  H  H9  1  0.00250000  0.15084000  0.19570000  1.0
  H  H10  1  0.50250000  0.34916000  0.69570000  1.0
  H  H11  1  0.00250000  0.65084000  0.30430000  1.0
  H  H12  1  0.75637000  0.56287000  0.72528000  1.0
  H  H13  1  0.25637000  0.43713000  0.27472000  1.0
  H  H14  1  0.75637000  0.06287000  0.77472000  1.0
  H  H15  1  0.25637000  0.93713000  0.22528000  1.0
  H  H16  1  0.30125000  0.70190000  0.92655000  1.0
  H  H17  1  0.80125000  0.29810000  0.07345000  1.0
  H  H18  1  0.30125000  0.20190000  0.57345000  1.0
  H  H19  1  0.80125000  0.79810000  0.42655000  1.0
  C  C20  1  0.34854000  0.87666000  0.61548000  1.0
  C  C21  1  0.84855000  0.12334000  0.38451000  1.0
  C  C22  1  0.34854000  0.37666000  0.88451000  1.0
  C  C23  1  0.84854000  0.62334000  0.11548000  1.0
  C  C24  1  0.01761000  0.70845000  0.66801000  1.0
  C  C25  1  0.51761000  0.29155000  0.33199000  1.0
  C  C26  1  0.01761000  0.20845000  0.83199000  1.0
  C  C27  1  0.51761000  0.79155000  0.16801000  1.0
  C  C28  1  0.22931000  0.79025000  0.69068000  1.0
  C  C29  1  0.72931000  0.20975000  0.30932000  1.0
  C  C30  1  0.22931000  0.29025000  0.80932000  1.0
  C  C31  1  0.72931000  0.70975000  0.19068000  1.0
  C  C32  1  0.33368000  0.78838000  0.78508000  1.0
  C  C33  1  0.83368000  0.21162000  0.21492000  1.0
  C  C34  1  0.33368000  0.28838000  0.71492000  1.0
  C  C35  1  0.83368000  0.71162000  0.28508000  1.0
  C  C36  1  0.92046000  0.62877000  0.73985000  1.0
  C  C37  1  0.42046000  0.37123000  0.26015000  1.0
  C  C38  1  0.92046000  0.12877000  0.76015000  1.0
  C  C39  1  0.42046000  0.87123000  0.23985000  1.0
  C  C40  1  0.22177000  0.70679000  0.85260000  1.0
  C  C41  1  0.72177000  0.29321000  0.14740000  1.0
  C  C42  1  0.22177000  0.20679000  0.64740000  1.0
  C  C43  1  0.72177000  0.79321000  0.35260000  1.0
  N  N44  1  0.01791000  0.62791000  0.83101000  1.0
  N  N45  1  0.51791000  0.37209000  0.16899000  1.0
  N  N46  1  0.01791000  0.12791000  0.66899000  1.0
  N  N47  1  0.51791000  0.87209000  0.33101000  1.0
  O  O48  1  0.19978000  0.90512000  0.54246000  1.0
  O  O49  1  0.69978000  0.09488000  0.45754000  1.0
  O  O50  1  0.19978000  0.40512000  0.95754000  1.0
  O  O51  1  0.69979000  0.59488000  0.04246000  1.0
  O  O52  1  0.58762000  0.91427000  0.62979000  1.0
  O  O53  1  0.08762000  0.08573000  0.37021000  1.0
  O  O54  1  0.58762000  0.41427000  0.87021000  1.0
  O  O55  1  0.08762000  0.58573000  0.12979000  1.0
