# generated using pymatgen
data_NiHC6O7
_symmetry_space_group_name_H-M   'P 1'
_cell_length_a   6.81324000
_cell_length_b   15.00400000
_cell_length_c   15.00362215
_cell_angle_alpha   117.73612960
_cell_angle_beta   98.70540209
_cell_angle_gamma   98.70680000
_symmetry_Int_Tables_number   1
_chemical_formula_structural   NiHC6O7
_chemical_formula_sum   'Ni6 H6 C36 O42'
_cell_volume   1298.04601626
_cell_formula_units_Z   6
loop_
 _symmetry_equiv_pos_site_id
 _symmetry_equiv_pos_as_xyz
  1  'x, y, z'
loop_
 _atom_site_type_symbol
 _atom_site_label
 _atom_site_symmetry_multiplicity
 _atom_site_fract_x
 _atom_site_fract_y
 _atom_site_fract_z
 _atom_site_occupancy
  Ni  Ni0  1  0.46961000  0.26749000  0.58989000  1.0
  Ni  Ni1  1  0.20198000  0.32233000  0.73251000  1.0
  Ni  Ni2  1  0.87962000  0.41008000  0.67756000  1.0
  Ni  Ni3  1  0.53039000  0.73251000  0.41011000  1.0
  Ni  Ni4  1  0.79801000  0.67767000  0.26749000  1.0
  Ni  Ni5  1  0.12039000  0.58993000  0.32245000  1.0
  H  H6  1  0.64978000  0.46486000  0.02166000  1.0
  H  H7  1  0.18469000  0.55655000  0.53504000  1.0
  H  H8  1  0.62811000  0.97841000  0.44335000  1.0
  H  H9  1  0.35021000  0.53513000  0.97834000  1.0
  H  H10  1  0.81532000  0.44347000  0.46497000  1.0
  H  H11  1  0.37190000  0.02160000  0.55666000  1.0
  C  C12  1  0.64158000  0.39307000  0.82479000  1.0
  C  C13  1  0.24850000  0.43155000  0.60681000  1.0
  C  C14  1  0.81687000  0.17522000  0.56836000  1.0
  C  C15  1  0.35842000  0.60693000  0.17521000  1.0
  C  C16  1  0.75151000  0.56846000  0.39320000  1.0
  C  C17  1  0.18313000  0.82479000  0.43164000  1.0
  C  C18  1  0.82986000  0.44902000  0.91173000  1.0
  C  C19  1  0.38083000  0.46253000  0.55085000  1.0
  C  C20  1  0.91819000  0.08828000  0.53735000  1.0
  C  C21  1  0.17013000  0.55097000  0.08827000  1.0
  C  C22  1  0.61919000  0.53749000  0.44917000  1.0
  C  C23  1  0.08181000  0.91173000  0.46265000  1.0
  C  C24  1  0.80400000  0.48054000  0.01191000  1.0
  C  C25  1  0.32325000  0.53118000  0.51935000  1.0
  C  C26  1  0.79205000  0.98813000  0.46873000  1.0
  C  C27  1  0.19601000  0.51946000  0.98810000  1.0
  C  C28  1  0.67677000  0.46884000  0.48067000  1.0
  C  C29  1  0.20794000  0.01187000  0.53127000  1.0
  C  C30  1  0.96717000  0.53055000  0.10160000  1.0
  C  C31  1  0.43644000  0.57104000  0.46947000  1.0
  C  C32  1  0.86552000  0.89842000  0.42897000  1.0
  C  C33  1  0.03283000  0.46944000  0.89840000  1.0
  C  C34  1  0.56356000  0.42896000  0.53054000  1.0
  C  C35  1  0.13448000  0.10158000  0.57103000  1.0
  C  C36  1  0.14759000  0.10188000  0.35663000  1.0
  C  C37  1  0.04555000  0.25472000  0.89826000  1.0
  C  C38  1  0.78973000  0.64345000  0.74507000  1.0
  C  C39  1  0.85242000  0.89811000  0.64336000  1.0
  C  C40  1  0.95444000  0.74527000  0.10174000  1.0
  C  C41  1  0.21026000  0.35654000  0.25491000  1.0
  C  C42  1  0.66964000  0.15305000  0.31734000  1.0
  C  C43  1  0.51673000  0.16407000  0.84653000  1.0
  C  C44  1  0.35243000  0.68269000  0.83614000  1.0
  C  C45  1  0.33031000  0.84691000  0.68263000  1.0
  C  C46  1  0.48328000  0.83592000  0.15346000  1.0
  C  C47  1  0.64757000  0.31730000  0.16386000  1.0
  O  O48  1  0.66324000  0.35987000  0.73147000  1.0
  O  O49  1  0.30339000  0.37148000  0.64010000  1.0
  O  O50  1  0.93183000  0.26854000  0.62844000  1.0
  O  O51  1  0.33677000  0.64014000  0.26854000  1.0
  O  O52  1  0.69661000  0.62853000  0.35991000  1.0
  O  O53  1  0.06817000  0.73147000  0.37156000  1.0
  O  O54  1  0.91900000  0.55411000  0.19216000  1.0
  O  O55  1  0.36472000  0.63810000  0.44599000  1.0
  O  O56  1  0.72679000  0.80788000  0.36197000  1.0
  O  O57  1  0.08099000  0.44589000  0.80784000  1.0
  O  O58  1  0.63529000  0.36191000  0.55402000  1.0
  O  O59  1  0.27321000  0.19212000  0.63803000  1.0
  O  O60  1  0.46747000  0.37694000  0.84294000  1.0
  O  O61  1  0.09049000  0.46580000  0.62291000  1.0
  O  O62  1  0.62457000  0.15707000  0.53414000  1.0
  O  O63  1  0.53253000  0.62306000  0.15706000  1.0
  O  O64  1  0.90952000  0.53421000  0.37710000  1.0
  O  O65  1  0.37542000  0.84293000  0.46586000  1.0
  O  O66  1  0.25721000  0.18320000  0.42106000  1.0
  O  O67  1  0.07327000  0.23774000  0.81681000  1.0
  O  O68  1  0.83531000  0.57906000  0.76195000  1.0
  O  O69  1  0.74278000  0.81680000  0.57893000  1.0
  O  O70  1  0.92675000  0.76226000  0.18320000  1.0
  O  O71  1  0.16469000  0.42095000  0.23806000  1.0
  O  O72  1  0.03760000  0.02197000  0.29100000  1.0
  O  O73  1  0.01598000  0.26909000  0.97830000  1.0
  O  O74  1  0.74504000  0.70906000  0.73081000  1.0
  O  O75  1  0.96244000  0.97802000  0.70900000  1.0
  O  O76  1  0.98402000  0.73092000  0.02171000  1.0
  O  O77  1  0.25495000  0.29090000  0.26913000  1.0
  O  O78  1  0.82613000  0.21532000  0.36813000  1.0
  O  O79  1  0.61086000  0.15266000  0.78423000  1.0
  O  O80  1  0.45821000  0.63185000  0.84745000  1.0
  O  O81  1  0.17383000  0.78464000  0.63183000  1.0
  O  O82  1  0.38915000  0.84732000  0.21576000  1.0
  O  O83  1  0.54180000  0.36817000  0.15258000  1.0
  O  O84  1  0.51419000  0.08997000  0.26544000  1.0
  O  O85  1  0.42452000  0.17521000  0.90967000  1.0
  O  O86  1  0.24883000  0.73465000  0.82510000  1.0
  O  O87  1  0.48576000  0.90998000  0.73454000  1.0
  O  O88  1  0.57550000  0.82480000  0.09033000  1.0
  O  O89  1  0.75117000  0.26534000  0.17489000  1.0
