# generated using pymatgen
data_ZnH16C24(NO)4
_symmetry_space_group_name_H-M   'P 1'
_cell_length_a   5.34558000
_cell_length_b   14.31670000
_cell_length_c   18.72450000
_cell_angle_alpha   100.58400000
_cell_angle_beta   90.02620000
_cell_angle_gamma   100.70500000
_symmetry_Int_Tables_number   1
_chemical_formula_structural   ZnH16C24(NO)4
_chemical_formula_sum   'Zn2 H32 C48 N8 O8'
_cell_volume   1383.22374356
_cell_formula_units_Z   2
loop_
 _symmetry_equiv_pos_site_id
 _symmetry_equiv_pos_as_xyz
  1  'x, y, z'
loop_
 _atom_site_type_symbol
 _atom_site_label
 _atom_site_symmetry_multiplicity
 _atom_site_fract_x
 _atom_site_fract_y
 _atom_site_fract_z
 _atom_site_occupancy
  Zn  Zn0  1  0.07500000  0.00020000  0.75010000  1.0
  Zn  Zn1  1  0.92506000  0.99980000  0.24992000  1.0
  H  H2  1  0.68245000  0.11095000  0.71144000  1.0
  H  H3  1  0.57228000  0.88925000  0.78858000  1.0
  H  H4  1  0.31754000  0.88901000  0.28857000  1.0
  H  H5  1  0.42774000  0.11076000  0.21144000  1.0
  H  H6  1  0.41831000  0.11304000  0.60409000  1.0
  H  H7  1  0.30608000  0.88703000  0.89582000  1.0
  H  H8  1  0.58168000  0.88693000  0.39592000  1.0
  H  H9  1  0.69393000  0.11298000  0.10418000  1.0
  H  H10  1  0.78171000  0.88731000  0.48541000  1.0
  H  H11  1  0.89365000  0.11291000  0.01470000  1.0
  H  H12  1  0.21843000  0.11272000  0.51459000  1.0
  H  H13  1  0.10637000  0.88708000  0.98532000  1.0
  H  H14  1  0.02635000  0.89438000  0.59877000  1.0
  H  H15  1  0.13125000  0.10592000  0.90141000  1.0
  H  H16  1  0.97372000  0.10563000  0.40122000  1.0
  H  H17  1  0.86879000  0.89408000  0.09861000  1.0
  H  H18  1  0.49860000  0.81509000  0.62365000  1.0
  H  H19  1  0.68387000  0.18520000  0.87618000  1.0
  H  H20  1  0.50144000  0.18490000  0.37636000  1.0
  H  H21  1  0.31615000  0.81481000  0.12384000  1.0
  H  H22  1  0.64490000  0.67917000  0.53899000  1.0
  H  H23  1  0.96610000  0.32094000  0.96080000  1.0
  H  H24  1  0.35498000  0.32080000  0.46100000  1.0
  H  H25  1  0.03394000  0.67906000  0.03922000  1.0
  H  H26  1  0.01086000  0.47907000  0.59768000  1.0
  H  H27  1  0.53199000  0.52138000  0.90226000  1.0
  H  H28  1  0.98884000  0.52096000  0.40227000  1.0
  H  H29  1  0.46806000  0.47863000  0.09774000  1.0
  H  H30  1  0.86109000  0.61648000  0.68073000  1.0
  H  H31  1  0.24469000  0.38412000  0.81923000  1.0
  H  H32  1  0.13876000  0.38355000  0.31925000  1.0
  H  H33  1  0.75536000  0.61588000  0.18078000  1.0
  C  C34  1  0.69685000  0.06258000  0.66016000  1.0
  C  C35  1  0.63481000  0.93760000  0.83988000  1.0
  C  C36  1  0.30317000  0.93740000  0.33985000  1.0
  C  C37  1  0.36522000  0.06240000  0.16013000  1.0
  C  C38  1  0.55049000  0.06302000  0.59892000  1.0
  C  C39  1  0.48803000  0.93708000  0.90107000  1.0
  C  C40  1  0.44953000  0.93697000  0.40108000  1.0
  C  C41  1  0.51201000  0.06292000  0.09893000  1.0
  C  C42  1  0.57527000  0.00046000  0.53325000  1.0
  C  C43  1  0.57482000  0.99962000  0.96678000  1.0
  C  C44  1  0.42481000  0.99955000  0.46675000  1.0
  C  C45  1  0.42520000  0.00038000  0.03322000  1.0
  C  C46  1  0.75065000  0.93856000  0.53362000  1.0
  C  C47  1  0.81168000  0.06163000  0.96647000  1.0
  C  C48  1  0.24945000  0.06146000  0.46638000  1.0
  C  C49  1  0.18836000  0.93837000  0.03354000  1.0
  C  C50  1  0.88901000  0.94152000  0.59686000  1.0
  C  C51  1  0.94710000  0.05871000  0.90327000  1.0
  C  C52  1  0.11107000  0.05849000  0.40314000  1.0
  C  C53  1  0.05292000  0.94128000  0.09674000  1.0
  C  C54  1  0.08388000  0.80565000  0.70545000  1.0
  C  C55  1  0.27798000  0.19474000  0.79460000  1.0
  C  C56  1  0.91613000  0.19436000  0.29455000  1.0
  C  C57  1  0.72209000  0.80526000  0.20542000  1.0
  C  C58  1  0.17200000  0.72352000  0.65675000  1.0
  C  C59  1  0.44851000  0.27687000  0.84315000  1.0
  C  C60  1  0.82794000  0.27648000  0.34323000  1.0
  C  C61  1  0.55153000  0.72314000  0.15686000  1.0
  C  C62  1  0.39222000  0.74135000  0.61653000  1.0
  C  C63  1  0.65116000  0.25895000  0.88330000  1.0
  C  C64  1  0.60774000  0.25864000  0.38346000  1.0
  C  C65  1  0.34886000  0.74105000  0.11671000  1.0
  C  C66  1  0.47351000  0.66681000  0.57004000  1.0
  C  C67  1  0.80697000  0.33339000  0.92980000  1.0
  C  C68  1  0.52636000  0.33317000  0.42993000  1.0
  C  C69  1  0.19307000  0.66666667  0.07021000  1.0
  C  C70  1  0.33496000  0.57171000  0.56368000  1.0
  C  C71  1  0.76350000  0.42854000  0.93621000  1.0
  C  C72  1  0.66485000  0.42829000  0.43628000  1.0
  C  C73  1  0.23656000  0.57146000  0.06380000  1.0
  C  C74  1  0.11477000  0.55335000  0.60381000  1.0
  C  C75  1  0.56163000  0.44704000  0.89609000  1.0
  C  C76  1  0.88498000  0.44666000  0.39613000  1.0
  C  C77  1  0.43843000  0.55297000  0.10392000  1.0
  C  C78  1  0.03266000  0.62892000  0.64973000  1.0
  C  C79  1  0.40391000  0.37153000  0.85017000  1.0
  C  C80  1  0.96718000  0.37109000  0.35024000  1.0
  C  C81  1  0.59613000  0.62847000  0.14984000  1.0
  N  N82  1  0.40514000  0.49022000  0.51955000  1.0
  N  N83  1  0.91512000  0.50989000  0.98043000  1.0
  N  N84  1  0.59459000  0.50978000  0.48040000  1.0
  N  N85  1  0.08494000  0.49012000  0.01957000  1.0
  N  N86  1  0.86367000  0.00261000  0.65922000  1.0
  N  N87  1  0.86119000  0.99764000  0.84086000  1.0
  N  N88  1  0.13637000  0.99738000  0.34078000  1.0
  N  N89  1  0.13884000  0.00236000  0.15915000  1.0
  O  O90  1  0.23580000  0.89021000  0.70984000  1.0
  O  O91  1  0.34537000  0.11013000  0.79039000  1.0
  O  O92  1  0.76427000  0.10979000  0.29019000  1.0
  O  O93  1  0.65467000  0.88986000  0.20963000  1.0
  O  O94  1  0.87833000  0.79323000  0.73691000  1.0
  O  O95  1  0.08479000  0.20720000  0.76310000  1.0
  O  O96  1  0.12167000  0.20679000  0.26309000  1.0
  O  O97  1  0.91527000  0.79278000  0.23691000  1.0
