# generated using pymatgen
data_CdH24C28(BrN4)2
_symmetry_space_group_name_H-M   'P 1'
_cell_length_a   8.20629000
_cell_length_b   8.44014000
_cell_length_c   12.36503799
_cell_angle_alpha   88.69545722
_cell_angle_beta   72.38870069
_cell_angle_gamma   63.48290000
_symmetry_Int_Tables_number   1
_chemical_formula_structural   CdH24C28(BrN4)2
_chemical_formula_sum   'Cd1 H24 C28 Br2 N8'
_cell_volume   724.05599133
_cell_formula_units_Z   1
loop_
 _symmetry_equiv_pos_site_id
 _symmetry_equiv_pos_as_xyz
  1  'x, y, z'
loop_
 _atom_site_type_symbol
 _atom_site_label
 _atom_site_symmetry_multiplicity
 _atom_site_fract_x
 _atom_site_fract_y
 _atom_site_fract_z
 _atom_site_occupancy
  Cd  Cd0  1  0.50000000  0.50000000  0.50000000  1.0
  H  H1  1  0.36615000  0.43465000  0.99285000  1.0
  H  H2  1  0.63386000  0.56535000  0.00714000  1.0
  H  H3  1  0.89984000  0.14318000  0.38718000  1.0
  H  H4  1  0.10018000  0.85682000  0.61281000  1.0
  H  H5  1  0.03656000  0.86440000  0.25351000  1.0
  H  H6  1  0.96344000  0.13560000  0.74648000  1.0
  H  H7  1  0.45235000  0.96749000  0.30033000  1.0
  H  H8  1  0.54766000  0.03250000  0.69966000  1.0
  H  H9  1  0.33960000  0.25100000  0.42742000  1.0
  H  H10  1  0.66041000  0.74899000  0.57258000  1.0
  H  H11  1  0.69812000  0.72289000  0.17620000  1.0
  H  H12  1  0.30188000  0.27710000  0.82380000  1.0
  H  H13  1  0.21844000  0.25516000  0.24694000  1.0
  H  H14  1  0.78157000  0.74484000  0.75306000  1.0
  H  H15  1  0.36602000  0.36377000  0.22638000  1.0
  H  H16  1  0.63398000  0.63623000  0.77362000  1.0
  H  H17  1  0.40223000  0.21052000  0.11274000  1.0
  H  H18  1  0.59780000  0.78947000  0.88725000  1.0
  H  H19  1  0.11598000  0.77414000  0.84004000  1.0
  H  H20  1  0.88400000  0.22587000  0.15997000  1.0
  H  H21  1  0.32083000  0.56165000  0.82450000  1.0
  H  H22  1  0.67915000  0.43836000  0.17550000  1.0
  H  H23  1  0.30156000  0.75472000  0.89248000  1.0
  H  H24  1  0.69844000  0.24528000  0.10752000  1.0
  C  C25  1  0.80577000  0.10154000  0.36339000  1.0
  C  C26  1  0.19423000  0.89846000  0.63661000  1.0
  C  C27  1  0.88062000  0.94622000  0.28901000  1.0
  C  C28  1  0.11939000  0.05377000  0.71098000  1.0
  C  C29  1  0.75301000  0.89924000  0.26159000  1.0
  C  C30  1  0.24699000  0.10075000  0.73841000  1.0
  C  C31  1  0.55546000  0.00576000  0.31493000  1.0
  C  C32  1  0.44454000  0.99423000  0.68507000  1.0
  C  C33  1  0.49260000  0.16085000  0.38671000  1.0
  C  C34  1  0.50741000  0.83915000  0.61328000  1.0
  C  C35  1  0.82592000  0.73715000  0.17520000  1.0
  C  C36  1  0.17408000  0.26285000  0.82480000  1.0
  C  C37  1  0.96535000  0.56841000  0.20883000  1.0
  C  C38  1  0.03466000  0.43159000  0.79117000  1.0
  C  C39  1  0.15527000  0.46900000  0.14548000  1.0
  C  C40  1  0.84473000  0.53100000  0.85452000  1.0
  C  C41  1  0.11672000  0.65804000  0.99543000  1.0
  C  C42  1  0.88328000  0.34197000  0.00457000  1.0
  C  C43  1  0.92593000  0.76227000  0.05513000  1.0
  C  C44  1  0.07407000  0.23773000  0.94487000  1.0
  C  C45  1  0.88867000  0.52132000  0.31456000  1.0
  C  C46  1  0.11133000  0.47867000  0.68545000  1.0
  C  C47  1  0.29365000  0.31427000  0.18426000  1.0
  C  C48  1  0.70636000  0.68573000  0.81574000  1.0
  C  C49  1  0.21813000  0.68783000  0.88154000  1.0
  C  C50  1  0.78186000  0.31218000  0.11846000  1.0
  C  C51  1  0.81376000  0.90517000  0.00567000  1.0
  C  C52  1  0.18624000  0.09483000  0.99434000  1.0
  Br  Br53  1  0.63603000  0.33511000  0.67321000  1.0
  Br  Br54  1  0.36392000  0.66494000  0.32683000  1.0
  N  N55  1  0.61524000  0.21023000  0.40854000  1.0
  N  N56  1  0.38477000  0.78976000  0.59145000  1.0
  N  N57  1  0.22810000  0.51662000  0.04200000  1.0
  N  N58  1  0.77189000  0.48338000  0.95800000  1.0
  N  N59  1  0.81009000  0.49313000  0.40324000  1.0
  N  N60  1  0.18991000  0.50687000  0.59676000  1.0
  N  N61  1  0.71469000  0.02564000  0.96827000  1.0
  N  N62  1  0.28530000  0.97436000  0.03173000  1.0
