# generated using pymatgen
data_CdH36C42S2(N5O2)2
_symmetry_space_group_name_H-M   'P 1'
_cell_length_a   10.08260000
_cell_length_b   10.60530000
_cell_length_c   11.16460000
_cell_angle_alpha   71.17970000
_cell_angle_beta   75.99530000
_cell_angle_gamma   68.83760000
_symmetry_Int_Tables_number   1
_chemical_formula_structural   CdH36C42S2(N5O2)2
_chemical_formula_sum   'Cd1 H36 C42 S2 N10 O4'
_cell_volume   1043.07456681
_cell_formula_units_Z   1
loop_
 _symmetry_equiv_pos_site_id
 _symmetry_equiv_pos_as_xyz
  1  'x, y, z'
loop_
 _atom_site_type_symbol
 _atom_site_label
 _atom_site_symmetry_multiplicity
 _atom_site_fract_x
 _atom_site_fract_y
 _atom_site_fract_z
 _atom_site_occupancy
  Cd  Cd0  1  0.99999000  0.00001000  0.50000000  1.0
  H  H1  1  0.18993000  0.07526000  0.98470000  1.0
  H  H2  1  0.81007000  0.92474000  0.01529000  1.0
  H  H3  1  0.98022000  0.10401000  0.73626000  1.0
  H  H4  1  0.01977000  0.89600000  0.26373000  1.0
  H  H5  1  0.34360000  0.92478000  0.50732000  1.0
  H  H6  1  0.65639000  0.07521000  0.49267000  1.0
  H  H7  1  0.50675000  0.91720000  0.64971000  1.0
  H  H8  1  0.49324000  0.08276000  0.35029000  1.0
  H  H9  1  0.39758000  0.00571000  0.84446000  1.0
  H  H10  1  0.60242000  0.99425000  0.15554000  1.0
  H  H11  1  0.84317000  0.23386000  0.11609000  1.0
  H  H12  1  0.15682000  0.76613000  0.88390000  1.0
  H  H13  1  0.02693000  0.14975000  0.14109000  1.0
  H  H14  1  0.97306000  0.85024000  0.85890000  1.0
  H  H15  1  0.75469000  0.48453000  0.02088000  1.0
  H  H16  1  0.24530000  0.51547000  0.97912000  1.0
  H  H17  1  0.20595000  0.28334000  0.04900000  1.0
  H  H18  1  0.79404000  0.71665000  0.95100000  1.0
  H  H19  1  0.86074000  0.39734000  0.75593000  1.0
  H  H20  1  0.13928000  0.60265000  0.24406000  1.0
  H  H21  1  0.82814000  0.77348000  0.61961000  1.0
  H  H22  1  0.17185000  0.22653000  0.38041000  1.0
  H  H23  1  0.26677000  0.70990000  0.56591000  1.0
  H  H24  1  0.73321000  0.29014000  0.43407000  1.0
  H  H25  1  0.31949000  0.44775000  0.63368000  1.0
  H  H26  1  0.68052000  0.55228000  0.36627000  1.0
  H  H27  1  0.11499000  0.34958000  0.69169000  1.0
  H  H28  1  0.88503000  0.65044000  0.30826000  1.0
  H  H29  1  0.51105000  0.51872000  0.68084000  1.0
  H  H30  1  0.48897000  0.48125000  0.31919000  1.0
  H  H31  1  0.65396000  0.36641000  0.73634000  1.0
  H  H32  1  0.34607000  0.63358000  0.26368000  1.0
  H  H33  1  0.49914000  0.71320000  0.82278000  1.0
  H  H34  1  0.50089000  0.28679000  0.17724000  1.0
  H  H35  1  0.58665000  0.26627000  0.95504000  1.0
  H  H36  1  0.41338000  0.73372000  0.04498000  1.0
  C  C37  1  0.17923000  0.06121000  0.80715000  1.0
  C  C38  1  0.82077000  0.93878000  0.19285000  1.0
  C  C39  1  0.09674000  0.06387000  0.72108000  1.0
  C  C40  1  0.90325000  0.93613000  0.27891000  1.0
  C  C41  1  0.30138000  0.96330000  0.59282000  1.0
  C  C42  1  0.69861000  0.03669000  0.40718000  1.0
  C  C43  1  0.39071000  0.96003000  0.67209000  1.0
  C  C44  1  0.60927000  0.03995000  0.32791000  1.0
  C  C45  1  0.32929000  0.00852000  0.78068000  1.0
  C  C46  1  0.67070000  0.99145000  0.21932000  1.0
  C  C47  1  0.98268000  0.18561000  0.94954000  1.0
  C  C48  1  0.01731000  0.81439000  0.05045000  1.0
  C  C49  1  0.95482000  0.22725000  0.07369000  1.0
  C  C50  1  0.04517000  0.77275000  0.92630000  1.0
  C  C51  1  0.97745000  0.36868000  0.04002000  1.0
  C  C52  1  0.02253000  0.63132000  0.95999000  1.0
  C  C53  1  0.86225000  0.49119000  0.01207000  1.0
  C  C54  1  0.13774000  0.50881000  0.98794000  1.0
  C  C55  1  0.11537000  0.37846000  0.02738000  1.0
  C  C56  1  0.88462000  0.62154000  0.97261000  1.0
  C  C57  1  0.95448000  0.55376000  0.66143000  1.0
  C  C58  1  0.04552000  0.44625000  0.33857000  1.0
  C  C59  1  0.93516000  0.69849000  0.62410000  1.0
  C  C60  1  0.06483000  0.30153000  0.37591000  1.0
  C  C61  1  0.18086000  0.66194000  0.59514000  1.0
  C  C62  1  0.81913000  0.33808000  0.40484000  1.0
  C  C63  1  0.20932000  0.51721000  0.63228000  1.0
  C  C64  1  0.79068000  0.48282000  0.36769000  1.0
  C  C65  1  0.09541000  0.46241000  0.66513000  1.0
  C  C66  1  0.90459000  0.53761000  0.33485000  1.0
  C  C67  1  0.70292000  0.56355000  0.66890000  1.0
  C  C68  1  0.29708000  0.43645000  0.33111000  1.0
  C  C69  1  0.60115000  0.47700000  0.73624000  1.0
  C  C70  1  0.39887000  0.52299000  0.26378000  1.0
  C  C71  1  0.54803000  0.48863000  0.87276000  1.0
  C  C72  1  0.45200000  0.51136000  0.12726000  1.0
  C  C73  1  0.49938000  0.61921000  0.90046000  1.0
  C  C74  1  0.50065000  0.38078000  0.09955000  1.0
  C  C75  1  0.54830000  0.36913000  0.97423000  1.0
  C  C76  1  0.45173000  0.63085000  0.02579000  1.0
  C  C77  1  0.73276000  0.03237000  0.75201000  1.0
  C  C78  1  0.26723000  0.96764000  0.24799000  1.0
  S  S79  1  0.63642000  0.99861000  0.89057000  1.0
  S  S80  1  0.36356000  0.00144000  0.10943000  1.0
  N  N81  1  0.15782000  0.01404000  0.61793000  1.0
  N  N82  1  0.84217000  0.98597000  0.38207000  1.0
  N  N83  1  0.11947000  0.10442000  0.91977000  1.0
  N  N84  1  0.88053000  0.89557000  0.08023000  1.0
  N  N85  1  0.04608000  0.74997000  0.59163000  1.0
  N  N86  1  0.95391000  0.25005000  0.40838000  1.0
  N  N87  1  0.84043000  0.49779000  0.69748000  1.0
  N  N88  1  0.15958000  0.50222000  0.30252000  1.0
  N  N89  1  0.80225000  0.05816000  0.65023000  1.0
  N  N90  1  0.19774000  0.94184000  0.34976000  1.0
  O  O91  1  0.88950000  0.23007000  0.87774000  1.0
  O  O92  1  0.11050000  0.76994000  0.12225000  1.0
  O  O93  1  0.66249000  0.68331000  0.59856000  1.0
  O  O94  1  0.33751000  0.31669000  0.40146000  1.0
