# generated using pymatgen
data_Al4H31C68I5O24
_symmetry_space_group_name_H-M   'P 1'
_cell_length_a   6.65386000
_cell_length_b   20.27740000
_cell_length_c   23.84040000
_cell_angle_alpha   90.16000000
_cell_angle_beta   93.20400000
_cell_angle_gamma   90.50060000
_symmetry_Int_Tables_number   1
_chemical_formula_structural   Al4H31C68I5O24
_chemical_formula_sum   'Al4 H31 C68 I5 O24'
_cell_volume   3211.44990092
_cell_formula_units_Z   1
loop_
 _symmetry_equiv_pos_site_id
 _symmetry_equiv_pos_as_xyz
  1  'x, y, z'
loop_
 _atom_site_type_symbol
 _atom_site_label
 _atom_site_symmetry_multiplicity
 _atom_site_fract_x
 _atom_site_fract_y
 _atom_site_fract_z
 _atom_site_occupancy
  Al  Al0  1  0.91071000  0.50534000  0.49799000  1.0
  Al  Al1  1  0.41077000  0.50258000  0.50368000  1.0
  Al  Al2  1  0.23751000  0.99760000  0.99710000  1.0
  Al  Al3  1  0.73679000  0.99821000  0.99695000  1.0
  H  H4  1  0.90579000  0.61973000  0.16252000  1.0
  H  H5  1  0.01035000  0.62878000  0.34551000  1.0
  H  H6  1  0.37123000  0.71411000  0.48203000  1.0
  H  H7  1  0.45115000  0.86261000  0.33018000  1.0
  H  H8  1  0.88983000  0.67011000  0.07212000  1.0
  H  H9  1  0.96879000  0.62438000  0.26437000  1.0
  H  H10  1  0.43961000  0.81309000  0.42404000  1.0
  H  H11  1  0.75495000  0.27261000  0.28847000  1.0
  H  H12  1  0.93377000  0.14596000  0.28427000  1.0
  H  H13  1  0.30625000  0.20208000  0.32470000  1.0
  H  H14  1  0.40693000  0.22498000  0.21149000  1.0
  H  H15  1  0.37315000  0.68774000  0.81674000  1.0
  H  H16  1  0.88977000  0.78836000  0.80272000  1.0
  H  H17  1  0.27981000  0.36917000  0.82173000  1.0
  H  H18  1  0.49857000  0.37584000  0.65175000  1.0
  H  H19  1  0.90356000  0.29831000  0.53481000  1.0
  H  H20  1  0.89983000  0.13710000  0.68030000  1.0
  H  H21  1  0.22257000  0.30889000  0.90759000  1.0
  H  H22  1  0.26010000  0.20678000  0.96544000  1.0
  H  H23  1  0.64933000  0.12452000  0.84676000  1.0
  H  H24  1  0.41538000  0.37560000  0.72880000  1.0
  H  H25  1  0.75839000  0.12942000  0.77244000  1.0
  H  H26  1  0.95485000  0.19795000  0.59407000  1.0
  H  H27  1  0.38619000  0.35482000  0.20140000  1.0
  H  H28  1  0.93720000  0.80497000  0.67743000  1.0
  H  H29  1  0.17438000  0.90359000  0.19143000  1.0
  H  H30  1  0.43079000  0.85437000  0.19307000  1.0
  H  H31  1  0.63369000  0.49210000  0.42863000  1.0
  H  H32  1  0.15616000  0.45912000  0.56265000  1.0
  H  H33  1  0.50143000  0.01047000  0.06949000  1.0
  H  H34  1  0.97551000  0.03907000  0.93323000  1.0
  C  C35  1  0.69006000  0.57847000  0.57879000  1.0
  C  C36  1  0.66901000  0.40276000  0.55591000  1.0
  C  C37  1  0.14148000  0.42872000  0.42078000  1.0
  C  C38  1  0.16600000  0.60485000  0.44939000  1.0
  C  C39  1  0.00300000  0.83401000  0.08188000  1.0
  C  C40  1  0.18537000  0.66640000  0.41602000  1.0
  C  C41  1  0.94221000  0.71704000  0.09009000  1.0
  C  C42  1  0.95121000  0.77289000  0.05719000  1.0
  C  C43  1  0.05601000  0.83860000  0.13948000  1.0
  C  C44  1  0.07396000  0.78069000  0.17365000  1.0
  C  C45  1  0.99787000  0.72067000  0.14799000  1.0
  C  C46  1  0.14819000  0.77861000  0.23222000  1.0
  C  C47  1  0.09767000  0.72356000  0.26617000  1.0
  C  C48  1  0.00323000  0.66741000  0.23940000  1.0
  C  C49  1  0.96680000  0.66462000  0.18254000  1.0
  C  C50  1  0.28567000  0.82609000  0.25795000  1.0
  C  C51  1  0.34270000  0.82566000  0.31400000  1.0
  C  C52  1  0.27676000  0.77500000  0.34953000  1.0
  C  C53  1  0.15531000  0.72240000  0.32558000  1.0
  C  C54  1  0.34696000  0.77242000  0.40675000  1.0
  C  C55  1  0.30818000  0.71821000  0.43903000  1.0
  C  C56  1  0.10570000  0.66951000  0.36115000  1.0
  C  C57  1  0.16640000  0.30518000  0.23087000  1.0
  C  C58  1  0.95602000  0.27471000  0.21020000  1.0
  C  C59  1  0.01513000  0.11900000  0.12338000  1.0
  C  C60  1  0.13824000  0.38041000  0.37640000  1.0
  C  C61  1  0.26331000  0.23552000  0.22971000  1.0
  C  C62  1  0.05655000  0.20389000  0.20686000  1.0
  C  C63  1  0.20633000  0.22253000  0.29138000  1.0
  C  C64  1  0.10567000  0.29292000  0.29485000  1.0
  C  C65  1  0.99963000  0.19197000  0.26975000  1.0
  C  C66  1  0.90009000  0.26128000  0.27164000  1.0
  C  C67  1  0.03247000  0.15814000  0.16221000  1.0
  C  C68  1  0.12721000  0.33910000  0.33910000  1.0
  C  C69  1  0.46617000  0.71437000  0.78787000  1.0
  C  C70  1  0.68574000  0.69642000  0.77380000  1.0
  C  C71  1  0.69136000  0.62488000  0.62474000  1.0
  C  C72  1  0.46942000  0.87309000  0.87548000  1.0
  C  C73  1  0.41248000  0.72499000  0.72402000  1.0
  C  C74  1  0.63147000  0.70510000  0.70849000  1.0
  C  C75  1  0.47817000  0.79918000  0.72954000  1.0
  C  C76  1  0.53350000  0.78901000  0.79465000  1.0
  C  C77  1  0.69801000  0.78165000  0.71548000  1.0
  C  C78  1  0.75428000  0.76996000  0.77957000  1.0
  C  C79  1  0.67125000  0.66210000  0.66423000  1.0
  C  C80  1  0.48964000  0.83308000  0.83815000  1.0
  C  C81  1  0.45906000  0.16049000  0.90852000  1.0
  C  C82  1  0.69456000  0.34192000  0.59051000  1.0
  C  C83  1  0.31369000  0.26797000  0.89392000  1.0
  C  C84  1  0.33548000  0.21205000  0.92626000  1.0
  C  C85  1  0.55515000  0.16538000  0.85855000  1.0
  C  C86  1  0.52419000  0.22014000  0.82261000  1.0
  C  C87  1  0.40277000  0.27278000  0.84148000  1.0
  C  C88  1  0.60542000  0.22413000  0.76755000  1.0
  C  C89  1  0.56250000  0.27988000  0.73309000  1.0
  C  C90  1  0.44518000  0.33198000  0.75434000  1.0
  C  C91  1  0.36943000  0.32878000  0.80643000  1.0
  C  C92  1  0.72646000  0.17274000  0.74668000  1.0
  C  C93  1  0.80550000  0.17664000  0.69500000  1.0
  C  C94  1  0.76823000  0.23209000  0.65949000  1.0
  C  C95  1  0.64106000  0.28349000  0.67772000  1.0
  C  C96  1  0.85777000  0.23759000  0.60714000  1.0
  C  C97  1  0.82788000  0.29253000  0.57392000  1.0
  C  C98  1  0.60016000  0.33666000  0.64068000  1.0
  C  C99  1  0.47220000  0.09861000  0.94197000  1.0
  C  C100  1  0.47394000  0.92144000  0.92007000  1.0
  C  C101  1  0.00054000  0.89739000  0.04930000  1.0
  C  C102  1  0.99949000  0.07251000  0.07735000  1.0
  I  I103  1  0.75598000  0.31603000  0.14777000  1.0
  I  I104  1  0.84192000  0.61607000  0.81130000  1.0
  I  I105  1  0.31641000  0.87949000  0.69579000  1.0
  I  I106  1  0.15560000  0.68816000  0.67831000  1.0
  I  I107  1  0.87998000  0.76577000  0.97024000  1.0
  O  O108  1  0.49129000  0.42198000  0.54201000  1.0
  O  O109  1  0.85283000  0.56945000  0.55448000  1.0
  O  O110  1  0.99621000  0.57551000  0.45081000  1.0
  O  O111  1  0.83249000  0.43140000  0.54402000  1.0
  O  O112  1  0.97122000  0.44285000  0.43952000  1.0
  O  O113  1  0.52139000  0.55015000  0.56752000  1.0
  O  O114  1  0.64997000  0.50928000  0.46664000  1.0
  O  O115  1  0.31256000  0.45300000  0.43701000  1.0
  O  O116  1  0.33035000  0.58519000  0.47327000  1.0
  O  O117  1  0.16326000  0.49354000  0.53460000  1.0
  O  O118  1  0.64868000  0.93508000  0.94143000  1.0
  O  O119  1  0.30702000  0.07901000  0.96128000  1.0
  O  O120  1  0.16414000  0.04785000  0.06284000  1.0
  O  O121  1  0.30869000  0.94648000  0.93334000  1.0
  O  O122  1  0.16800000  0.91713000  0.03244000  1.0
  O  O123  1  0.64139000  0.06960000  0.94789000  1.0
  O  O124  1  0.49428000  0.99327000  0.03143000  1.0
  O  O125  1  0.83288000  0.92622000  0.04236000  1.0
  O  O126  1  0.82308000  0.06070000  0.05593000  1.0
  O  O127  1  0.98071000  0.00741000  0.96368000  1.0
  O  O128  1  0.24623000  0.36211000  0.21042000  1.0
  O  O129  1  0.79616000  0.81908000  0.67817000  1.0
  O  O130  1  0.07211000  0.90155000  0.15951000  1.0
  O  O131  1  0.37646000  0.87491000  0.22610000  1.0
