# generated using pymatgen
data_Er4P6H3(CO6)3
_symmetry_space_group_name_H-M   'P 1'
_cell_length_a   11.66740976
_cell_length_b   11.66780000
_cell_length_c   11.66740000
_cell_angle_alpha   109.47200000
_cell_angle_beta   109.47025601
_cell_angle_gamma   109.47003389
_symmetry_Int_Tables_number   1
_chemical_formula_structural   Er4P6H3(CO6)3
_chemical_formula_sum   'Er8 P12 H6 C6 O36'
_cell_volume   1222.70862735
_cell_formula_units_Z   2
loop_
 _symmetry_equiv_pos_site_id
 _symmetry_equiv_pos_as_xyz
  1  'x, y, z'
loop_
 _atom_site_type_symbol
 _atom_site_label
 _atom_site_symmetry_multiplicity
 _atom_site_fract_x
 _atom_site_fract_y
 _atom_site_fract_z
 _atom_site_occupancy
  Er  Er0  1  0.50001000  0.87701000  0.49998000  1.0
  Er  Er1  1  0.12297000  0.62298000  0.62299000  1.0
  Er  Er2  1  0.37698000  0.49996000  0.99999000  1.0
  Er  Er3  1  0.00003000  0.00004000  0.87702000  1.0
  Er  Er4  1  0.49998000  0.58577000  0.49999000  1.0
  Er  Er5  1  0.41421000  0.91422000  0.91420000  1.0
  Er  Er6  1  0.08573000  0.50001000  0.99998000  1.0
  Er  Er7  1  0.99999000  0.99998000  0.58572000  1.0
  P  P8  1  0.67215000  0.72961000  0.34043000  1.0
  P  P9  1  0.11082000  0.77039000  0.94254000  1.0
  P  P10  1  0.38919000  0.83171000  0.15955000  1.0
  P  P11  1  0.82784000  0.66830000  0.55749000  1.0
  P  P12  1  0.27038000  0.94252000  0.61081000  1.0
  P  P13  1  0.22966000  0.34047000  0.17219000  1.0
  P  P14  1  0.16829000  0.55748000  0.32786000  1.0
  P  P15  1  0.33172000  0.15953000  0.88919000  1.0
  P  P16  1  0.05747000  0.32783000  0.66827000  1.0
  P  P17  1  0.65955000  0.88918000  0.83169000  1.0
  P  P18  1  0.44251000  0.61083000  0.77037000  1.0
  P  P19  1  0.84044000  0.17216000  0.72963000  1.0
  H  H20  1  0.74998000  0.54986000  0.29990000  1.0
  H  H21  1  0.25003000  0.95014000  0.20012000  1.0
  H  H22  1  0.45016000  0.20009000  0.75004000  1.0
  H  H23  1  0.04995000  0.29992000  0.25008000  1.0
  H  H24  1  0.79989000  0.25000000  0.54989000  1.0
  H  H25  1  0.70009000  0.75000000  0.95010000  1.0
  C  C26  1  0.75000000  0.63081000  0.38082000  1.0
  C  C27  1  0.25001000  0.86918000  0.11919000  1.0
  C  C28  1  0.36923000  0.11915000  0.75003000  1.0
  C  C29  1  0.13088000  0.38085000  0.25008000  1.0
  C  C30  1  0.88082000  0.25000000  0.63082000  1.0
  C  C31  1  0.61916000  0.75000000  0.86917000  1.0
  O  O32  1  0.58678000  0.73378000  0.41892000  1.0
  O  O33  1  0.18513000  0.76621000  0.85299000  1.0
  O  O34  1  0.31488000  0.66786000  0.08106000  1.0
  O  O35  1  0.91320000  0.83214000  0.64701000  1.0
  O  O36  1  0.26620000  0.85297000  0.68511000  1.0
  O  O37  1  0.23380000  0.41893000  0.08680000  1.0
  O  O38  1  0.33213000  0.64703000  0.41323000  1.0
  O  O39  1  0.16787000  0.08107000  0.81486000  1.0
  O  O40  1  0.14701000  0.41321000  0.83213000  1.0
  O  O41  1  0.58106000  0.81486000  0.66784000  1.0
  O  O42  1  0.35297000  0.68513000  0.76619000  1.0
  O  O43  1  0.91892000  0.08679000  0.73379000  1.0
  O  O44  1  0.79254000  0.87790000  0.40157000  1.0
  O  O45  1  0.02367000  0.62212000  0.91465000  1.0
  O  O46  1  0.47630000  0.89095000  0.09837000  1.0
  O  O47  1  0.70742000  0.60905000  0.58536000  1.0
  O  O48  1  0.12211000  0.91466000  0.52368000  1.0
  O  O49  1  0.37795000  0.40158000  0.29253000  1.0
  O  O50  1  0.10902000  0.58534000  0.20744000  1.0
  O  O51  1  0.39093000  0.09841000  0.97636000  1.0
  O  O52  1  0.08536000  0.20743000  0.60904000  1.0
  O  O53  1  0.59840000  0.97631000  0.89093000  1.0
  O  O54  1  0.41462000  0.52368000  0.62209000  1.0
  O  O55  1  0.90160000  0.29256000  0.87792000  1.0
  O  O56  1  0.57906000  0.65623000  0.18188000  1.0
  O  O57  1  0.02566000  0.84378000  0.92283000  1.0
  O  O58  1  0.47436000  0.89717000  0.31809000  1.0
  O  O59  1  0.92092000  0.60283000  0.57720000  1.0
  O  O60  1  0.34376000  0.92282000  0.52564000  1.0
  O  O61  1  0.15624000  0.18191000  0.07910000  1.0
  O  O62  1  0.10281000  0.57719000  0.42093000  1.0
  O  O63  1  0.39719000  0.31808000  0.97433000  1.0
  O  O64  1  0.07717000  0.42092000  0.60282000  1.0
  O  O65  1  0.81810000  0.97433000  0.89714000  1.0
  O  O66  1  0.42281000  0.52567000  0.84377000  1.0
  O  O67  1  0.68190000  0.07908000  0.65626000  1.0
