# generated using pymatgen
data_TbAgH14C18(N2O5)2
_symmetry_space_group_name_H-M   'P 1'
_cell_length_a   9.63346000
_cell_length_b   10.78720000
_cell_length_c   12.49910000
_cell_angle_alpha   65.33910000
_cell_angle_beta   76.68560000
_cell_angle_gamma   65.09520000
_symmetry_Int_Tables_number   1
_chemical_formula_structural   TbAgH14C18(N2O5)2
_chemical_formula_sum   'Tb2 Ag2 H28 C36 N8 O20'
_cell_volume   1068.29668648
_cell_formula_units_Z   2
loop_
 _symmetry_equiv_pos_site_id
 _symmetry_equiv_pos_as_xyz
  1  'x, y, z'
loop_
 _atom_site_type_symbol
 _atom_site_label
 _atom_site_symmetry_multiplicity
 _atom_site_fract_x
 _atom_site_fract_y
 _atom_site_fract_z
 _atom_site_occupancy
  Tb  Tb0  1  0.34411000  0.81755000  0.47160000  1.0
  Tb  Tb1  1  0.65588000  0.18247000  0.52841000  1.0
  Ag  Ag2  1  0.97810000  0.33088000  0.84404000  1.0
  Ag  Ag3  1  0.02191000  0.66911000  0.15598000  1.0
  H  H4  1  0.40553000  0.61820000  0.15684000  1.0
  H  H5  1  0.59447000  0.38178000  0.84316000  1.0
  H  H6  1  0.38450000  0.64124000  0.95281000  1.0
  H  H7  1  0.61551000  0.35875000  0.04719000  1.0
  H  H8  1  0.08077000  0.13519000  0.66899000  1.0
  H  H9  1  0.91924000  0.86482000  0.33101000  1.0
  H  H10  1  0.14038000  0.07933000  0.07819000  1.0
  H  H11  1  0.85963000  0.92066000  0.92182000  1.0
  H  H12  1  0.63465000  0.67973000  0.24079000  1.0
  H  H13  1  0.36535000  0.32028000  0.75920000  1.0
  H  H14  1  0.62794000  0.86528000  0.03839000  1.0
  H  H15  1  0.37205000  0.13472000  0.96161000  1.0
  H  H16  1  0.84562000  0.69364000  0.69510000  1.0
  H  H17  1  0.15440000  0.30634000  0.30491000  1.0
  H  H18  1  0.86613000  0.32470000  0.11030000  1.0
  H  H19  1  0.13388000  0.67530000  0.88971000  1.0
  H  H20  1  0.23348000  0.86004000  0.73917000  1.0
  H  H21  1  0.76652000  0.13996000  0.26083000  1.0
  H  H22  1  0.72315000  0.88150000  0.79554000  1.0
  H  H23  1  0.27686000  0.11850000  0.20446000  1.0
  H  H24  1  0.61366000  0.57772000  0.42152000  1.0
  H  H25  1  0.38632000  0.42230000  0.57847000  1.0
  H  H26  1  0.67959000  0.61450000  0.50310000  1.0
  H  H27  1  0.32041000  0.38552000  0.49688000  1.0
  H  H28  1  0.90021000  0.41264000  0.54912000  1.0
  H  H29  1  0.09978000  0.58734000  0.45085000  1.0
  H  H30  1  0.76048000  0.40428000  0.63662000  1.0
  H  H31  1  0.23952000  0.59573000  0.36336000  1.0
  C  C32  1  0.30124000  0.83019000  0.24653000  1.0
  C  C33  1  0.69877000  0.16979000  0.75348000  1.0
  C  C34  1  0.27658000  0.84714000  0.12746000  1.0
  C  C35  1  0.72342000  0.15284000  0.87254000  1.0
  C  C36  1  0.34203000  0.72359000  0.09306000  1.0
  C  C37  1  0.65797000  0.27639000  0.90695000  1.0
  C  C38  1  0.33137000  0.73572000  0.97991000  1.0
  C  C39  1  0.66863000  0.26427000  0.02009000  1.0
  C  C40  1  0.24858000  0.87483000  0.90261000  1.0
  C  C41  1  0.75142000  0.12517000  0.09739000  1.0
  C  C42  1  0.12632000  0.07020000  0.75552000  1.0
  C  C43  1  0.87369000  0.92980000  0.24448000  1.0
  C  C44  1  0.18038000  0.99897000  0.93670000  1.0
  C  C45  1  0.81962000  0.00102000  0.06330000  1.0
  C  C46  1  0.19393000  0.98577000  0.04985000  1.0
  C  C47  1  0.80607000  0.01422000  0.95016000  1.0
  C  C48  1  0.72986000  0.38451000  0.30656000  1.0
  C  C49  1  0.27015000  0.61550000  0.69344000  1.0
  C  C50  1  0.74665000  0.49233000  0.18668000  1.0
  C  C51  1  0.25335000  0.50768000  0.81332000  1.0
  C  C52  1  0.68410000  0.64418000  0.16630000  1.0
  C  C53  1  0.31590000  0.35583000  0.83369000  1.0
  C  C54  1  0.68019000  0.74873000  0.05335000  1.0
  C  C55  1  0.31980000  0.25127000  0.94665000  1.0
  C  C56  1  0.74247000  0.69766000  0.96020000  1.0
  C  C57  1  0.25753000  0.30234000  0.03980000  1.0
  C  C58  1  0.82407000  0.66572000  0.78989000  1.0
  C  C59  1  0.17594000  0.33427000  0.21012000  1.0
  C  C60  1  0.80996000  0.54569000  0.97958000  1.0
  C  C61  1  0.19004000  0.45430000  0.02042000  1.0
  C  C62  1  0.81408000  0.44181000  0.09346000  1.0
  C  C63  1  0.18592000  0.55819000  0.90654000  1.0
  C  C64  1  0.02210000  0.05823000  0.50646000  1.0
  C  C65  1  0.97787000  0.94179000  0.49354000  1.0
  C  C66  1  0.49646000  0.04652000  0.43292000  1.0
  C  C67  1  0.50352000  0.95350000  0.56708000  1.0
  N  N68  1  0.10554000  0.11983000  0.84174000  1.0
  N  N69  1  0.89447000  0.88017000  0.15826000  1.0
  N  N70  1  0.21071000  0.92477000  0.78839000  1.0
  N  N71  1  0.78929000  0.07523000  0.21161000  1.0
  N  N72  1  0.85981000  0.52998000  0.87041000  1.0
  N  N73  1  0.14020000  0.47001000  0.12959000  1.0
  N  N74  1  0.75443000  0.76874000  0.83981000  1.0
  N  N75  1  0.24558000  0.23125000  0.16019000  1.0
  O  O76  1  0.28234000  0.94352000  0.26684000  1.0
  O  O77  1  0.71769000  0.05647000  0.73316000  1.0
  O  O78  1  0.34454000  0.70364000  0.32826000  1.0
  O  O79  1  0.65546000  0.29635000  0.67175000  1.0
  O  O80  1  0.77971000  0.24818000  0.32300000  1.0
  O  O81  1  0.22030000  0.75183000  0.67701000  1.0
  O  O82  1  0.66007000  0.42655000  0.39297000  1.0
  O  O83  1  0.33993000  0.57345000  0.60703000  1.0
  O  O84  1  0.16287000  0.04095000  0.49000000  1.0
  O  O85  1  0.83712000  0.95906000  0.51000000  1.0
  O  O86  1  0.91503000  0.16150000  0.53325000  1.0
  O  O87  1  0.08496000  0.83850000  0.46675000  1.0
  O  O88  1  0.45798000  0.00163000  0.36994000  1.0
  O  O89  1  0.54199000  0.99839000  0.63006000  1.0
  O  O90  1  0.53042000  0.15976000  0.39795000  1.0
  O  O91  1  0.46958000  0.84025000  0.60206000  1.0
  O  O92  1  0.60029000  0.65992000  0.44565000  1.0
  O  O93  1  0.39969000  0.34010000  0.55434000  1.0
  O  O94  1  0.82918000  0.46180000  0.60134000  1.0
  O  O95  1  0.17082000  0.53821000  0.39863000  1.0
