# generated using pymatgen
data_Cu2H5C6(IN)2
_symmetry_space_group_name_H-M   'P 1'
_cell_length_a   4.08038000
_cell_length_b   21.45020000
_cell_length_c   23.55970000
_cell_angle_alpha   115.34400000
_cell_angle_beta   90.01290000
_cell_angle_gamma   95.43070000
_symmetry_Int_Tables_number   1
_chemical_formula_structural   Cu2H5C6(IN)2
_chemical_formula_sum   'Cu16 H40 C48 I16 N16'
_cell_volume   1853.32930108
_cell_formula_units_Z   8
loop_
 _symmetry_equiv_pos_site_id
 _symmetry_equiv_pos_as_xyz
  1  'x, y, z'
loop_
 _atom_site_type_symbol
 _atom_site_label
 _atom_site_symmetry_multiplicity
 _atom_site_fract_x
 _atom_site_fract_y
 _atom_site_fract_z
 _atom_site_occupancy
  Cu  Cu0  1  0.40713000  0.69568000  0.69216000  1.0
  Cu  Cu1  1  0.71069000  0.30438000  0.80780000  1.0
  Cu  Cu2  1  0.59287000  0.30432000  0.30784000  1.0
  Cu  Cu3  1  0.28931000  0.69562000  0.19220000  1.0
  Cu  Cu4  1  0.46571000  0.07320000  0.69271000  1.0
  Cu  Cu5  1  0.39245000  0.92676000  0.80726000  1.0
  Cu  Cu6  1  0.53429000  0.92680000  0.30730000  1.0
  Cu  Cu7  1  0.60755000  0.07324000  0.19274000  1.0
  Cu  Cu8  1  0.89870000  0.90925000  0.73226000  1.0
  Cu  Cu9  1  0.98974000  0.09076000  0.76778000  1.0
  Cu  Cu10  1  0.10130000  0.09075000  0.26774000  1.0
  Cu  Cu11  1  0.01026000  0.90924000  0.23222000  1.0
  Cu  Cu12  1  0.89203000  0.60719000  0.64222000  1.0
  Cu  Cu13  1  0.28417000  0.39287000  0.85769000  1.0
  Cu  Cu14  1  0.10798000  0.39281000  0.35778000  1.0
  Cu  Cu15  1  0.71583000  0.60713000  0.14231000  1.0
  H  H16  1  0.76999000  0.19794000  0.66048000  1.0
  H  H17  1  0.57282000  0.80196000  0.83949000  1.0
  H  H18  1  0.23001000  0.80206000  0.33952000  1.0
  H  H19  1  0.42720000  0.19804000  0.16051000  1.0
  H  H20  1  0.17630000  0.01267000  0.54977000  1.0
  H  H21  1  0.16388000  0.98728000  0.95013000  1.0
  H  H22  1  0.82368000  0.98733000  0.45023000  1.0
  H  H23  1  0.83614000  0.01272000  0.04987000  1.0
  H  H24  1  0.34946000  0.08199000  0.47575000  1.0
  H  H25  1  0.26848000  0.91813000  0.02423000  1.0
  H  H26  1  0.65053000  0.91801000  0.52426000  1.0
  H  H27  1  0.73154000  0.08188000  0.97577000  1.0
  H  H28  1  0.88746000  0.13366000  0.45538000  1.0
  H  H29  1  0.75571000  0.86625000  0.04456000  1.0
  H  H30  1  0.11252000  0.86633000  0.54462000  1.0
  H  H31  1  0.24431000  0.13375000  0.95544000  1.0
  H  H32  1  0.16003000  0.22573000  0.42810000  1.0
  H  H33  1  0.93531000  0.77404000  0.07179000  1.0
  H  H34  1  0.83996000  0.77427000  0.57190000  1.0
  H  H35  1  0.06470000  0.22595000  0.92821000  1.0
  H  H36  1  0.15464000  0.34834000  0.49988000  1.0
  H  H37  1  0.80652000  0.65149000  0.00003000  1.0
  H  H38  1  0.84535000  0.65166000  0.50011000  1.0
  H  H39  1  0.19348000  0.34851000  0.99997000  1.0
  H  H40  1  0.59340000  0.29014000  0.62924000  1.0
  H  H41  1  0.30354000  0.71003000  0.87079000  1.0
  H  H42  1  0.40661000  0.70986000  0.37076000  1.0
  H  H43  1  0.69646000  0.28997000  0.12921000  1.0
  H  H44  1  0.05887000  0.45078000  0.55366000  1.0
  H  H45  1  0.60745000  0.54915000  0.94624000  1.0
  H  H46  1  0.94112000  0.54922000  0.44634000  1.0
  H  H47  1  0.39254000  0.45085000  0.05376000  1.0
  H  H48  1  0.59651000  0.39306000  0.68885000  1.0
  H  H49  1  0.20436000  0.60715000  0.81106000  1.0
  H  H50  1  0.40349000  0.60694000  0.31115000  1.0
  H  H51  1  0.79563000  0.39285000  0.18894000  1.0
  H  H52  1  0.61903000  0.53457000  0.72863000  1.0
  H  H53  1  0.08447000  0.46562000  0.77122000  1.0
  H  H54  1  0.38097000  0.46543000  0.27137000  1.0
  H  H55  1  0.91552000  0.53438000  0.22879000  1.0
  C  C56  1  0.62408000  0.15718000  0.62145000  1.0
  C  C57  1  0.46786000  0.84277000  0.87852000  1.0
  C  C58  1  0.37592000  0.84282000  0.37855000  1.0
  C  C59  1  0.53216000  0.15723000  0.12148000  1.0
  C  C60  1  0.32346000  0.06165000  0.56178000  1.0
  C  C61  1  0.26242000  0.93833000  0.93815000  1.0
  C  C62  1  0.67653000  0.93835000  0.43822000  1.0
  C  C63  1  0.73759000  0.06167000  0.06185000  1.0
  C  C64  1  0.40635000  0.09501000  0.52470000  1.0
  C  C65  1  0.31230000  0.90501000  0.97526000  1.0
  C  C66  1  0.59364000  0.90499000  0.47530000  1.0
  C  C67  1  0.68771000  0.09499000  0.02474000  1.0
  C  C68  1  0.73857000  0.20765000  0.54528000  1.0
  C  C69  1  0.53222000  0.79235000  0.95470000  1.0
  C  C70  1  0.26141000  0.79235000  0.45472000  1.0
  C  C71  1  0.46780000  0.20765000  0.04531000  1.0
  C  C72  1  0.88637000  0.18822000  0.48756000  1.0
  C  C73  1  0.69981000  0.81171000  0.01237000  1.0
  C  C74  1  0.11361000  0.81178000  0.51244000  1.0
  C  C75  1  0.30021000  0.18829000  0.98763000  1.0
  C  C76  1  0.03647000  0.23975000  0.47228000  1.0
  C  C77  1  0.79771000  0.76009000  0.02764000  1.0
  C  C78  1  0.96351000  0.76024000  0.52772000  1.0
  C  C79  1  0.20230000  0.23991000  0.97236000  1.0
  C  C80  1  0.03312000  0.30951000  0.51315000  1.0
  C  C81  1  0.72400000  0.69036000  0.98676000  1.0
  C  C82  1  0.96687000  0.69049000  0.48684000  1.0
  C  C83  1  0.27600000  0.30964000  0.01324000  1.0
  C  C84  1  0.87161000  0.32835000  0.56961000  1.0
  C  C85  1  0.54380000  0.67162000  0.93031000  1.0
  C  C86  1  0.12839000  0.67164000  0.43039000  1.0
  C  C87  1  0.45620000  0.32838000  0.06969000  1.0
  C  C88  1  0.72620000  0.27724000  0.58628000  1.0
  C  C89  1  0.44976000  0.72280000  0.91368000  1.0
  C  C90  1  0.27380000  0.72276000  0.41372000  1.0
  C  C91  1  0.55025000  0.27721000  0.08632000  1.0
  C  C92  1  0.93811000  0.45464000  0.59584000  1.0
  C  C93  1  0.48328000  0.54534000  0.90404000  1.0
  C  C94  1  0.06189000  0.54536000  0.40416000  1.0
  C  C95  1  0.51672000  0.45466000  0.09596000  1.0
  C  C96  1  0.69567000  0.42553000  0.66682000  1.0
  C  C97  1  0.27051000  0.57460000  0.83308000  1.0
  C  C98  1  0.30434000  0.57446000  0.33318000  1.0
  C  C99  1  0.72949000  0.42540000  0.16692000  1.0
  C  C100  1  0.70695000  0.49568000  0.68599000  1.0
  C  C101  1  0.21116000  0.50446000  0.81388000  1.0
  C  C102  1  0.29305000  0.50431000  0.31400000  1.0
  C  C103  1  0.78884000  0.49555000  0.18612000  1.0
  I  I104  1  0.92464000  0.97932000  0.66022000  1.0
  I  I105  1  0.94515000  0.02071000  0.83984000  1.0
  I  I106  1  0.07536000  0.02068000  0.33978000  1.0
  I  I107  1  0.05486000  0.97929000  0.16016000  1.0
  I  I108  1  0.89999000  0.69455000  0.76250000  1.0
  I  I109  1  0.20489000  0.30553000  0.73746000  1.0
  I  I110  1  0.10001000  0.30546000  0.23750000  1.0
  I  I111  1  0.79510000  0.69447000  0.26254000  1.0
  I  I112  1  0.36926000  0.82365000  0.69426000  1.0
  I  I113  1  0.54552000  0.17638000  0.80560000  1.0
  I  I114  1  0.63075000  0.17635000  0.30574000  1.0
  I  I115  1  0.45448000  0.82362000  0.19440000  1.0
  I  I116  1  0.39638000  0.61265000  0.57336000  1.0
  I  I117  1  0.78353000  0.38745000  0.92663000  1.0
  I  I118  1  0.60364000  0.38735000  0.42664000  1.0
  I  I119  1  0.21646000  0.61255000  0.07337000  1.0
  N  N120  1  0.46247000  0.10053000  0.62176000  1.0
  N  N121  1  0.36259000  0.89942000  0.87818000  1.0
  N  N122  1  0.53752000  0.89947000  0.37825000  1.0
  N  N123  1  0.63742000  0.10058000  0.12182000  1.0
  N  N124  1  0.59542000  0.15600000  0.56322000  1.0
  N  N125  1  0.44070000  0.84404000  0.93678000  1.0
  N  N126  1  0.40457000  0.84400000  0.43678000  1.0
  N  N127  1  0.55932000  0.15597000  0.06322000  1.0
  N  N128  1  0.84308000  0.39934000  0.60910000  1.0
  N  N129  1  0.44406000  0.60069000  0.89079000  1.0
  N  N130  1  0.15692000  0.60066000  0.39090000  1.0
  N  N131  1  0.55594000  0.39932000  0.10921000  1.0
  N  N132  1  0.85770000  0.51314000  0.64147000  1.0
  N  N133  1  0.34412000  0.48690000  0.85838000  1.0
  N  N134  1  0.14230000  0.48686000  0.35853000  1.0
  N  N135  1  0.65589000  0.51310000  0.14162000  1.0
