# generated using pymatgen
data_CoH7C7NO6
_symmetry_space_group_name_H-M   'P 1'
_cell_length_a   7.07837000
_cell_length_b   7.24763000
_cell_length_c   9.76791000
_cell_angle_alpha   89.04640000
_cell_angle_beta   71.32620000
_cell_angle_gamma   66.31310000
_symmetry_Int_Tables_number   1
_chemical_formula_structural   CoH7C7NO6
_chemical_formula_sum   'Co2 H14 C14 N2 O12'
_cell_volume   431.09683626
_cell_formula_units_Z   2
loop_
 _symmetry_equiv_pos_site_id
 _symmetry_equiv_pos_as_xyz
  1  'x, y, z'
loop_
 _atom_site_type_symbol
 _atom_site_label
 _atom_site_symmetry_multiplicity
 _atom_site_fract_x
 _atom_site_fract_y
 _atom_site_fract_z
 _atom_site_occupancy
  Co  Co0  1  0.00000000  0.50000000  0.50000000  1.0
  Co  Co1  1  0.50000000  0.50000000  0.00000000  1.0
  H  H2  1  0.09824000  0.66513000  0.02292000  1.0
  H  H3  1  0.90176000  0.33487000  0.97708000  1.0
  H  H4  1  0.21808000  0.47184000  0.90497000  1.0
  H  H5  1  0.78192000  0.52815000  0.09503000  1.0
  H  H6  1  0.30711000  0.27926000  0.09363000  1.0
  H  H7  1  0.69289000  0.72074000  0.90637000  1.0
  H  H8  1  0.36428000  0.37051000  0.21635000  1.0
  H  H9  1  0.63571000  0.62949000  0.78365000  1.0
  H  H10  1  0.29164000  0.91492000  0.76146000  1.0
  H  H11  1  0.70836000  0.08508000  0.23854000  1.0
  H  H12  1  0.35125000  0.63689000  0.57953000  1.0
  H  H13  1  0.64873000  0.36311000  0.42047000  1.0
  H  H14  1  0.19303000  0.08677000  0.29152000  1.0
  H  H15  1  0.80697000  0.91323000  0.70849000  1.0
  C  C16  1  0.20160000  0.14448000  0.62322000  1.0
  C  C17  1  0.79840000  0.85552000  0.37679000  1.0
  C  C18  1  0.27114000  0.94575000  0.65632000  1.0
  C  C19  1  0.72886000  0.05425000  0.34368000  1.0
  C  C20  1  0.30727000  0.79210000  0.55460000  1.0
  C  C21  1  0.69272000  0.20789000  0.44541000  1.0
  C  C22  1  0.28243000  0.84111000  0.42029000  1.0
  C  C23  1  0.71756000  0.15888000  0.57972000  1.0
  C  C24  1  0.21746000  0.04401000  0.39401000  1.0
  C  C25  1  0.78253000  0.95600000  0.60599000  1.0
  C  C26  1  0.14847000  0.32136000  0.72831000  1.0
  C  C27  1  0.85154000  0.67864000  0.27168000  1.0
  C  C28  1  0.31068000  0.68384000  0.30966000  1.0
  C  C29  1  0.68932000  0.31616000  0.69033000  1.0
  N  N30  1  0.17137000  0.19376000  0.49463000  1.0
  N  N31  1  0.82863000  0.80624000  0.50537000  1.0
  O  O32  1  0.17453000  0.28770000  0.85095000  1.0
  O  O33  1  0.82548000  0.71231000  0.14905000  1.0
  O  O34  1  0.07817000  0.49760000  0.68820000  1.0
  O  O35  1  0.92183000  0.50240000  0.31180000  1.0
  O  O36  1  0.30021000  0.51839000  0.35476000  1.0
  O  O37  1  0.69979000  0.48161000  0.64524000  1.0
  O  O38  1  0.34234000  0.72137000  0.17901000  1.0
  O  O39  1  0.65767000  0.27863000  0.82099000  1.0
  O  O40  1  0.23965000  0.58895000  0.94347000  1.0
  O  O41  1  0.76035000  0.41105000  0.05653000  1.0
  O  O42  1  0.42695000  0.29631000  0.11251000  1.0
  O  O43  1  0.57305000  0.70369000  0.88749000  1.0
