# generated using pymatgen
data_ScH6(C2O)6
_symmetry_space_group_name_H-M   'P 1'
_cell_length_a   8.95157000
_cell_length_b   10.74070000
_cell_length_c   32.85410000
_cell_angle_alpha   89.99980000
_cell_angle_beta   89.99990000
_cell_angle_gamma   67.40100000
_symmetry_Int_Tables_number   1
_chemical_formula_structural   ScH6(C2O)6
_chemical_formula_sum   'Sc8 H48 C96 O48'
_cell_volume   2916.25254298
_cell_formula_units_Z   8
loop_
 _symmetry_equiv_pos_site_id
 _symmetry_equiv_pos_as_xyz
  1  'x, y, z'
loop_
 _atom_site_type_symbol
 _atom_site_label
 _atom_site_symmetry_multiplicity
 _atom_site_fract_x
 _atom_site_fract_y
 _atom_site_fract_z
 _atom_site_occupancy
  Sc  Sc0  1  0.27361000  0.74631000  0.61392000  1.0
  Sc  Sc1  1  0.77668000  0.74273000  0.63683000  1.0
  Sc  Sc2  1  0.72639000  0.75369000  0.11392000  1.0
  Sc  Sc3  1  0.22330000  0.75727000  0.13685000  1.0
  Sc  Sc4  1  0.72638000  0.25370000  0.38609000  1.0
  Sc  Sc5  1  0.22332000  0.25729000  0.36316000  1.0
  Sc  Sc6  1  0.27365000  0.24627000  0.88608000  1.0
  Sc  Sc7  1  0.77669000  0.24271000  0.86316000  1.0
  H  H8  1  0.06790000  0.14302000  0.61260000  1.0
  H  H9  1  0.93468000  0.38702000  0.63294000  1.0
  H  H10  1  0.47391000  0.34884000  0.63761000  1.0
  H  H11  1  0.60983000  0.10201000  0.62117000  1.0
  H  H12  1  0.95457000  0.11457000  0.74321000  1.0
  H  H13  1  0.11342000  0.98940000  0.68297000  1.0
  H  H14  1  0.53317000  0.04963000  0.72683000  1.0
  H  H15  1  0.37414000  0.17597000  0.78690000  1.0
  H  H16  1  0.23023000  0.57337000  0.50890000  1.0
  H  H17  1  0.16824000  0.50411000  0.44014000  1.0
  H  H18  1  0.75472000  0.88901000  0.53927000  1.0
  H  H19  1  0.73192000  0.06923000  0.48801000  1.0
  H  H20  1  0.93208000  0.35698000  0.11261000  1.0
  H  H21  1  0.06531000  0.11298000  0.13294000  1.0
  H  H22  1  0.52608000  0.15117000  0.13761000  1.0
  H  H23  1  0.39015000  0.39799000  0.12116000  1.0
  H  H24  1  0.04543000  0.38546000  0.24321000  1.0
  H  H25  1  0.88657000  0.51061000  0.18297000  1.0
  H  H26  1  0.46683000  0.45038000  0.22684000  1.0
  H  H27  1  0.62587000  0.32405000  0.28690000  1.0
  H  H28  1  0.76977000  0.92663000  0.00889000  1.0
  H  H29  1  0.83177000  0.99588000  0.94014000  1.0
  H  H30  1  0.24527000  0.61098000  0.03927000  1.0
  H  H31  1  0.26809000  0.43075000  0.98800000  1.0
  H  H32  1  0.93208000  0.85698000  0.38740000  1.0
  H  H33  1  0.06530000  0.61299000  0.36706000  1.0
  H  H34  1  0.52607000  0.65117000  0.36239000  1.0
  H  H35  1  0.39015000  0.89799000  0.37884000  1.0
  H  H36  1  0.04542000  0.88546000  0.25679000  1.0
  H  H37  1  0.88658000  0.01061000  0.31703000  1.0
  H  H38  1  0.46683000  0.95038000  0.27317000  1.0
  H  H39  1  0.62587000  0.82406000  0.21310000  1.0
  H  H40  1  0.76978000  0.42663000  0.49110000  1.0
  H  H41  1  0.83177000  0.49589000  0.55986000  1.0
  H  H42  1  0.24527000  0.11098000  0.46073000  1.0
  H  H43  1  0.26807000  0.93075000  0.51199000  1.0
  H  H44  1  0.06793000  0.64302000  0.88739000  1.0
  H  H45  1  0.93470000  0.88702000  0.86705000  1.0
  H  H46  1  0.47394000  0.84883000  0.86239000  1.0
  H  H47  1  0.60986000  0.60201000  0.87884000  1.0
  H  H48  1  0.95457000  0.61455000  0.75679000  1.0
  H  H49  1  0.11343000  0.48939000  0.81703000  1.0
  H  H50  1  0.53317000  0.54962000  0.77317000  1.0
  H  H51  1  0.37412000  0.67596000  0.71310000  1.0
  H  H52  1  0.23023000  0.07337000  0.99110000  1.0
  H  H53  1  0.16823000  0.00411000  0.05986000  1.0
  H  H54  1  0.75474000  0.38903000  0.96073000  1.0
  H  H55  1  0.73191000  0.56925000  0.01199000  1.0
  C  C56  1  0.42945000  0.92523000  0.66769000  1.0
  C  C57  1  0.52351000  0.79692000  0.55991000  1.0
  C  C58  1  0.61593000  0.52831000  0.64515000  1.0
  C  C59  1  0.93840000  0.18909000  0.61865000  1.0
  C  C60  1  0.86477000  0.32391000  0.62991000  1.0
  C  C61  1  0.69703000  0.38117000  0.63646000  1.0
  C  C62  1  0.60415000  0.30208000  0.63273000  1.0
  C  C63  1  0.67883000  0.16609000  0.62312000  1.0
  C  C64  1  0.84598000  0.10954000  0.61558000  1.0
  C  C65  1  0.92684000  0.96297000  0.60625000  1.0
  C  C66  1  0.15577000  0.15079000  0.76878000  1.0
  C  C67  1  0.08079000  0.10064000  0.73914000  1.0
  C  C68  1  0.16891000  0.03141000  0.70572000  1.0
  C  C69  1  0.33281000  0.01092000  0.70166000  1.0
  C  C70  1  0.40626000  0.06530000  0.73055000  1.0
  C  C71  1  0.31783000  0.13545000  0.76386000  1.0
  C  C72  1  0.06640000  0.21283000  0.80666000  1.0
  C  C73  1  0.51297000  0.89954000  0.52831000  1.0
  C  C74  1  0.03498000  0.53816000  0.53833000  1.0
  C  C75  1  0.13007000  0.54079000  0.50462000  1.0
  C  C76  1  0.06871000  0.58453000  0.57883000  1.0
  C  C77  1  0.09518000  0.50287000  0.46647000  1.0
  C  C78  1  0.64412000  0.93819000  0.52186000  1.0
  C  C79  1  0.63123000  0.03835000  0.49368000  1.0
  C  C80  1  0.57056000  0.57478000  0.16769000  1.0
  C  C81  1  0.47646000  0.70309000  0.05991000  1.0
  C  C82  1  0.38406000  0.97170000  0.14515000  1.0
  C  C83  1  0.06159000  0.31091000  0.11865000  1.0
  C  C84  1  0.13522000  0.17609000  0.12991000  1.0
  C  C85  1  0.30295000  0.11883000  0.13646000  1.0
  C  C86  1  0.39584000  0.19792000  0.13273000  1.0
  C  C87  1  0.32115000  0.33390000  0.12312000  1.0
  C  C88  1  0.15400000  0.39047000  0.11558000  1.0
  C  C89  1  0.07314000  0.53703000  0.10625000  1.0
  C  C90  1  0.84422000  0.34924000  0.26879000  1.0
  C  C91  1  0.91921000  0.39938000  0.23914000  1.0
  C  C92  1  0.83109000  0.46860000  0.20573000  1.0
  C  C93  1  0.66718000  0.48909000  0.20167000  1.0
  C  C94  1  0.59375000  0.43471000  0.23055000  1.0
  C  C95  1  0.68218000  0.36456000  0.26387000  1.0
  C  C96  1  0.93360000  0.28719000  0.30667000  1.0
  C  C97  1  0.48702000  0.60045000  0.02831000  1.0
  C  C98  1  0.96502000  0.96183000  0.03833000  1.0
  C  C99  1  0.86993000  0.95921000  0.00461000  1.0
  C  C100  1  0.93128000  0.91546000  0.07883000  1.0
  C  C101  1  0.90483000  0.99713000  0.96647000  1.0
  C  C102  1  0.35586000  0.56180000  0.02185000  1.0
  C  C103  1  0.36877000  0.46165000  0.99367000  1.0
  C  C104  1  0.57056000  0.07477000  0.33231000  1.0
  C  C105  1  0.47648000  0.20307000  0.44010000  1.0
  C  C106  1  0.38405000  0.47170000  0.35485000  1.0
  C  C107  1  0.06158000  0.81091000  0.38135000  1.0
  C  C108  1  0.13522000  0.67609000  0.37009000  1.0
  C  C109  1  0.30295000  0.61883000  0.36354000  1.0
  C  C110  1  0.39584000  0.69792000  0.36727000  1.0
  C  C111  1  0.32115000  0.83391000  0.37688000  1.0
  C  C112  1  0.15400000  0.89047000  0.38442000  1.0
  C  C113  1  0.07314000  0.03705000  0.39375000  1.0
  C  C114  1  0.84421000  0.84924000  0.23121000  1.0
  C  C115  1  0.91921000  0.89939000  0.26086000  1.0
  C  C116  1  0.83109000  0.96861000  0.29427000  1.0
  C  C117  1  0.66719000  0.98909000  0.29833000  1.0
  C  C118  1  0.59374000  0.93472000  0.26945000  1.0
  C  C119  1  0.68217000  0.86457000  0.23614000  1.0
  C  C120  1  0.93359000  0.78719000  0.19334000  1.0
  C  C121  1  0.48702000  0.10044000  0.47169000  1.0
  C  C122  1  0.96503000  0.46184000  0.46168000  1.0
  C  C123  1  0.86994000  0.45921000  0.49538000  1.0
  C  C124  1  0.93129000  0.41547000  0.42117000  1.0
  C  C125  1  0.90484000  0.49714000  0.53353000  1.0
  C  C126  1  0.35586000  0.06180000  0.47815000  1.0
  C  C127  1  0.36876000  0.96164000  0.50633000  1.0
  C  C128  1  0.42945000  0.42522000  0.83231000  1.0
  C  C129  1  0.52354000  0.29692000  0.94009000  1.0
  C  C130  1  0.61596000  0.02829000  0.85485000  1.0
  C  C131  1  0.93843000  0.68909000  0.88135000  1.0
  C  C132  1  0.86480000  0.82390000  0.87009000  1.0
  C  C133  1  0.69706000  0.88117000  0.86353000  1.0
  C  C134  1  0.60418000  0.80207000  0.86727000  1.0
  C  C135  1  0.67886000  0.66609000  0.87688000  1.0
  C  C136  1  0.84602000  0.60953000  0.88442000  1.0
  C  C137  1  0.92687000  0.46295000  0.89375000  1.0
  C  C138  1  0.15577000  0.65077000  0.73121000  1.0
  C  C139  1  0.08079000  0.60062000  0.76086000  1.0
  C  C140  1  0.16891000  0.53140000  0.79428000  1.0
  C  C141  1  0.33281000  0.51091000  0.79833000  1.0
  C  C142  1  0.40625000  0.56528000  0.76945000  1.0
  C  C143  1  0.31782000  0.63544000  0.73614000  1.0
  C  C144  1  0.06638000  0.71282000  0.69334000  1.0
  C  C145  1  0.51299000  0.39955000  0.97169000  1.0
  C  C146  1  0.03498000  0.03816000  0.96168000  1.0
  C  C147  1  0.13007000  0.04079000  0.99538000  1.0
  C  C148  1  0.06872000  0.08453000  0.92117000  1.0
  C  C149  1  0.09516000  0.00286000  0.03353000  1.0
  C  C150  1  0.64414000  0.43820000  0.97815000  1.0
  C  C151  1  0.63123000  0.53836000  0.00633000  1.0
  O  O152  1  0.35545000  0.88392000  0.64120000  1.0
  O  O153  1  0.40727000  0.75624000  0.56257000  1.0
  O  O154  1  0.46409000  0.58316000  0.63917000  1.0
  O  O155  1  0.64614000  0.75525000  0.58324000  1.0
  O  O156  1  0.91993000  0.22450000  0.81045000  1.0
  O  O157  1  0.19111000  0.61642000  0.58207000  1.0
  O  O158  1  0.58157000  0.89604000  0.66685000  1.0
  O  O159  1  0.97318000  0.59107000  0.60836000  1.0
  O  O160  1  0.84619000  0.88921000  0.61165000  1.0
  O  O161  1  0.14135000  0.24985000  0.83402000  1.0
  O  O162  1  0.70121000  0.59221000  0.65766000  1.0
  O  O163  1  0.07274000  0.91767000  0.59377000  1.0
  O  O164  1  0.64454000  0.61609000  0.14120000  1.0
  O  O165  1  0.59271000  0.74376000  0.06258000  1.0
  O  O166  1  0.53591000  0.91683000  0.13917000  1.0
  O  O167  1  0.35384000  0.74473000  0.08325000  1.0
  O  O168  1  0.08008000  0.27551000  0.31045000  1.0
  O  O169  1  0.80887000  0.88357000  0.08207000  1.0
  O  O170  1  0.41844000  0.60395000  0.16685000  1.0
  O  O171  1  0.02682000  0.90891000  0.10835000  1.0
  O  O172  1  0.15381000  0.61078000  0.11165000  1.0
  O  O173  1  0.85865000  0.25016000  0.33402000  1.0
  O  O174  1  0.29878000  0.90779000  0.15766000  1.0
  O  O175  1  0.92724000  0.58234000  0.09377000  1.0
  O  O176  1  0.64455000  0.11608000  0.35880000  1.0
  O  O177  1  0.59273000  0.24374000  0.43743000  1.0
  O  O178  1  0.53590000  0.41684000  0.36083000  1.0
  O  O179  1  0.35386000  0.24473000  0.41676000  1.0
  O  O180  1  0.08006000  0.77551000  0.18956000  1.0
  O  O181  1  0.80890000  0.38357000  0.41793000  1.0
  O  O182  1  0.41844000  0.10396000  0.33315000  1.0
  O  O183  1  0.02683000  0.40892000  0.39164000  1.0
  O  O184  1  0.15381000  0.11079000  0.38835000  1.0
  O  O185  1  0.85865000  0.75015000  0.16598000  1.0
  O  O186  1  0.29878000  0.40779000  0.34233000  1.0
  O  O187  1  0.92725000  0.08234000  0.40623000  1.0
  O  O188  1  0.35547000  0.38390000  0.85880000  1.0
  O  O189  1  0.40730000  0.25624000  0.93742000  1.0
  O  O190  1  0.46411000  0.08315000  0.86083000  1.0
  O  O191  1  0.64617000  0.25526000  0.91676000  1.0
  O  O192  1  0.91991000  0.72448000  0.68955000  1.0
  O  O193  1  0.19112000  0.11641000  0.91793000  1.0
  O  O194  1  0.58158000  0.39604000  0.83315000  1.0
  O  O195  1  0.97320000  0.09107000  0.89164000  1.0
  O  O196  1  0.84620000  0.38920000  0.88835000  1.0
  O  O197  1  0.14134000  0.74985000  0.66598000  1.0
  O  O198  1  0.70123000  0.09220000  0.84233000  1.0
  O  O199  1  0.07277000  0.41764000  0.90622000  1.0
