# generated using pymatgen
data_Dy2H22C15O14
_symmetry_space_group_name_H-M   'P 1'
_cell_length_a   7.90457000
_cell_length_b   8.37481228
_cell_length_c   19.41720000
_cell_angle_alpha   88.23970970
_cell_angle_beta   86.25370000
_cell_angle_gamma   61.85609991
_symmetry_Int_Tables_number   1
_chemical_formula_structural   Dy2H22C15O14
_chemical_formula_sum   'Dy4 H44 C30 O28'
_cell_volume   1131.00395664
_cell_formula_units_Z   2
loop_
 _symmetry_equiv_pos_site_id
 _symmetry_equiv_pos_as_xyz
  1  'x, y, z'
loop_
 _atom_site_type_symbol
 _atom_site_label
 _atom_site_symmetry_multiplicity
 _atom_site_fract_x
 _atom_site_fract_y
 _atom_site_fract_z
 _atom_site_occupancy
  Dy  Dy0  1  0.28393000  0.92578000  0.51072000  1.0
  Dy  Dy1  1  0.79012000  0.92585000  0.98931000  1.0
  Dy  Dy2  1  0.71607000  0.07422000  0.48928000  1.0
  Dy  Dy3  1  0.20987000  0.07416000  0.01069000  1.0
  H  H4  1  0.22967000  0.51590000  0.67598000  1.0
  H  H5  1  0.41498000  0.54503000  0.70711000  1.0
  H  H6  1  0.98973000  0.82782000  0.73061000  1.0
  H  H7  1  0.78827000  0.54207000  0.53585000  1.0
  H  H8  1  0.69212000  0.43738000  0.59382000  1.0
  H  H9  1  0.89971000  0.44380000  0.68611000  1.0
  H  H10  1  0.00161000  0.54303000  0.62662000  1.0
  H  H11  1  0.74156000  0.77141000  0.70617000  1.0
  H  H12  1  0.57033000  0.72151000  0.67015000  1.0
  H  H13  1  0.64998000  0.72293000  0.43317000  1.0
  H  H14  1  0.57624000  0.57449000  0.43706000  1.0
  H  H15  1  0.25428000  0.51604000  0.82408000  1.0
  H  H16  1  0.03998000  0.54508000  0.79285000  1.0
  H  H17  1  0.18267000  0.82780000  0.76942000  1.0
  H  H18  1  0.67060000  0.54206000  0.96407000  1.0
  H  H19  1  0.87111000  0.43721000  0.90599000  1.0
  H  H20  1  0.65682000  0.44379000  0.81386000  1.0
  H  H21  1  0.45590000  0.54265000  0.87346000  1.0
  H  H22  1  0.48690000  0.77123000  0.79386000  1.0
  H  H23  1  0.70793000  0.72190000  0.82978000  1.0
  H  H24  1  0.62683000  0.72272000  0.06675000  1.0
  H  H25  1  0.84906000  0.57457000  0.06294000  1.0
  H  H26  1  0.77033000  0.48410000  0.32402000  1.0
  H  H27  1  0.58502000  0.45496000  0.29289000  1.0
  H  H28  1  0.01029000  0.17217000  0.26939000  1.0
  H  H29  1  0.21173000  0.45793000  0.46415000  1.0
  H  H30  1  0.30788000  0.56262000  0.40618000  1.0
  H  H31  1  0.10029000  0.55621000  0.31389000  1.0
  H  H32  1  0.99838000  0.45698000  0.37338000  1.0
  H  H33  1  0.25844000  0.22860000  0.29383000  1.0
  H  H34  1  0.42966000  0.27850000  0.32985000  1.0
  H  H35  1  0.35002000  0.27706000  0.56683000  1.0
  H  H36  1  0.42376000  0.42550000  0.56294000  1.0
  H  H37  1  0.74571000  0.48397000  0.17592000  1.0
  H  H38  1  0.96003000  0.45492000  0.20715000  1.0
  H  H39  1  0.81734000  0.17220000  0.23058000  1.0
  H  H40  1  0.32940000  0.45794000  0.03593000  1.0
  H  H41  1  0.12889000  0.56279000  0.09401000  1.0
  H  H42  1  0.34318000  0.55621000  0.18614000  1.0
  H  H43  1  0.54410000  0.45735000  0.12654000  1.0
  H  H44  1  0.51310000  0.22877000  0.20614000  1.0
  H  H45  1  0.29207000  0.27810000  0.17023000  1.0
  H  H46  1  0.37317000  0.27728000  0.93325000  1.0
  H  H47  1  0.15094000  0.42543000  0.93706000  1.0
  C  C48  1  0.27031000  0.72776000  0.62731000  1.0
  C  C49  1  0.26578000  0.62125000  0.69102000  1.0
  C  C50  1  0.97944000  0.27119000  0.55648000  1.0
  C  C51  1  0.82162000  0.45127000  0.58102000  1.0
  C  C52  1  0.87024000  0.53321000  0.64078000  1.0
  C  C53  1  0.70745000  0.72307000  0.65977000  1.0
  C  C54  1  0.68999000  0.85418000  0.60221000  1.0
  C  C55  1  0.00161000  0.72786000  0.87268000  1.0
  C  C56  1  0.11291000  0.62131000  0.80901000  1.0
  C  C57  1  0.74985000  0.27123000  0.94350000  1.0
  C  C58  1  0.72771000  0.45125000  0.91890000  1.0
  C  C59  1  0.59692000  0.53315000  0.85921000  1.0
  C  C60  1  0.56941000  0.72320000  0.84022000  1.0
  C  C61  1  0.45567000  0.85425000  0.89775000  1.0
  C  C62  1  0.72969000  0.27224000  0.37269000  1.0
  C  C63  1  0.73423000  0.37874000  0.30899000  1.0
  C  C64  1  0.02055000  0.72882000  0.44352000  1.0
  C  C65  1  0.17839000  0.54873000  0.41899000  1.0
  C  C66  1  0.12976000  0.46680000  0.35922000  1.0
  C  C67  1  0.29255000  0.27693000  0.34023000  1.0
  C  C68  1  0.31001000  0.14582000  0.39778000  1.0
  C  C69  1  0.99840000  0.27214000  0.12732000  1.0
  C  C70  1  0.88709000  0.37869000  0.19099000  1.0
  C  C71  1  0.25016000  0.72876000  0.05650000  1.0
  C  C72  1  0.27229000  0.54875000  0.08110000  1.0
  C  C73  1  0.40308000  0.46685000  0.14079000  1.0
  C  C74  1  0.43059000  0.27680000  0.15978000  1.0
  C  C75  1  0.54434000  0.14574000  0.10225000  1.0
  C  C76  1  0.13127000  0.73758000  0.75001000  1.0
  C  C77  1  0.86873000  0.26242000  0.24999000  1.0
  O  O78  1  0.20669000  0.89728000  0.63000000  1.0
  O  O79  1  0.34611000  0.64281000  0.56955000  1.0
  O  O80  1  0.93619000  0.15515000  0.53256000  1.0
  O  O81  1  0.15621000  0.23113000  0.55718000  1.0
  O  O82  1  0.81869000  0.90309000  0.59313000  1.0
  O  O83  1  0.55197000  0.91040000  0.56087000  1.0
  O  O84  1  0.53246000  0.70876000  0.43883000  1.0
  O  O85  1  0.89554000  0.89735000  0.86998000  1.0
  O  O86  1  0.01083000  0.64289000  0.93043000  1.0
  O  O87  1  0.90908000  0.15518000  0.96738000  1.0
  O  O88  1  0.61297000  0.23129000  0.94295000  1.0
  O  O89  1  0.27803000  0.90335000  0.90674000  1.0
  O  O90  1  0.53746000  0.91030000  0.93920000  1.0
  O  O91  1  0.75843000  0.70876000  0.06115000  1.0
  O  O92  1  0.79331000  0.10271000  0.37000000  1.0
  O  O93  1  0.65390000  0.35718000  0.43045000  1.0
  O  O94  1  0.06381000  0.84485000  0.46744000  1.0
  O  O95  1  0.84379000  0.76887000  0.44282000  1.0
  O  O96  1  0.18131000  0.09691000  0.40686000  1.0
  O  O97  1  0.44804000  0.08959000  0.43912000  1.0
  O  O98  1  0.46754000  0.29124000  0.56117000  1.0
  O  O99  1  0.10448000  0.10264000  0.13002000  1.0
  O  O100  1  0.98917000  0.35711000  0.06957000  1.0
  O  O101  1  0.09091000  0.84483000  0.03262000  1.0
  O  O102  1  0.38702000  0.76871000  0.05705000  1.0
  O  O103  1  0.72197000  0.09665000  0.09327000  1.0
  O  O104  1  0.46254000  0.08970000  0.06080000  1.0
  O  O105  1  0.24157000  0.29124000  0.93885000  1.0
