# generated using pymatgen
data_VH5C6NCl3
_symmetry_space_group_name_H-M   'P 1'
_cell_length_a   9.23638000
_cell_length_b   10.36520000
_cell_length_c   10.69840000
_cell_angle_alpha   96.24160000
_cell_angle_beta   114.68000000
_cell_angle_gamma   106.31700000
_symmetry_Int_Tables_number   1
_chemical_formula_structural   VH5C6NCl3
_chemical_formula_sum   'V4 H20 C24 N4 Cl12'
_cell_volume   862.66211228
_cell_formula_units_Z   4
loop_
 _symmetry_equiv_pos_site_id
 _symmetry_equiv_pos_as_xyz
  1  'x, y, z'
loop_
 _atom_site_type_symbol
 _atom_site_label
 _atom_site_symmetry_multiplicity
 _atom_site_fract_x
 _atom_site_fract_y
 _atom_site_fract_z
 _atom_site_occupancy
  V  V0  1  0.51711000  0.63291000  0.89770000  1.0
  V  V1  1  0.48289000  0.36708000  0.10230000  1.0
  V  V2  1  0.99502000  0.86380000  0.10028000  1.0
  V  V3  1  0.00498000  0.13620000  0.89973000  1.0
  H  H4  1  0.25045000  0.69678000  0.56697000  1.0
  H  H5  1  0.74955000  0.30322000  0.43303000  1.0
  H  H6  1  0.93495000  0.35372000  0.19042000  1.0
  H  H7  1  0.06504000  0.64628000  0.80957000  1.0
  H  H8  1  0.04136000  0.60542000  0.30722000  1.0
  H  H9  1  0.95863000  0.39458000  0.69277000  1.0
  H  H10  1  0.03539000  0.19218000  0.33015000  1.0
  H  H11  1  0.96460000  0.80782000  0.66985000  1.0
  H  H12  1  0.24326000  0.28202000  0.58988000  1.0
  H  H13  1  0.75674000  0.71797000  0.41011000  1.0
  H  H14  1  0.08450000  0.86015000  0.46172000  1.0
  H  H15  1  0.91550000  0.13985000  0.53828000  1.0
  H  H16  1  0.27991000  0.95701000  0.72328000  1.0
  H  H17  1  0.72010000  0.04299000  0.27672000  1.0
  H  H18  1  0.54960000  0.15908000  0.81105000  1.0
  H  H19  1  0.45041000  0.84093000  0.18895000  1.0
  H  H20  1  0.62464000  0.26799000  0.64007000  1.0
  H  H21  1  0.37537000  0.73202000  0.35993000  1.0
  H  H22  1  0.43084000  0.17102000  0.37790000  1.0
  H  H23  1  0.56916000  0.82898000  0.62210000  1.0
  C  C24  1  0.25895000  0.49473000  0.59306000  1.0
  C  C25  1  0.74105000  0.50527000  0.40694000  1.0
  C  C26  1  0.20275000  0.58698000  0.51314000  1.0
  C  C27  1  0.79724000  0.41302000  0.48685000  1.0
  C  C28  1  0.08612000  0.53524000  0.36938000  1.0
  C  C29  1  0.91388000  0.46476000  0.63062000  1.0
  C  C30  1  0.02533000  0.39322000  0.30362000  1.0
  C  C31  1  0.97467000  0.60678000  0.69637000  1.0
  C  C32  1  0.08144000  0.30224000  0.38272000  1.0
  C  C33  1  0.91856000  0.69777000  0.61728000  1.0
  C  C34  1  0.19779000  0.35131000  0.52695000  1.0
  C  C35  1  0.80221000  0.64869000  0.47305000  1.0
  C  C36  1  0.24762000  0.00938000  0.40488000  1.0
  C  C37  1  0.75238000  0.99062000  0.59512000  1.0
  C  C38  1  0.20324000  0.94902000  0.50244000  1.0
  C  C39  1  0.79676000  0.05098000  0.49756000  1.0
  C  C40  1  0.31239000  0.00362000  0.64755000  1.0
  C  C41  1  0.68762000  0.99638000  0.35245000  1.0
  C  C42  1  0.46446000  0.11757000  0.69703000  1.0
  C  C43  1  0.53554000  0.88243000  0.30297000  1.0
  C  C44  1  0.50671000  0.17850000  0.60053000  1.0
  C  C45  1  0.49329000  0.82150000  0.39947000  1.0
  C  C46  1  0.40000000  0.12548000  0.45471000  1.0
  C  C47  1  0.60001000  0.87452000  0.54530000  1.0
  N  N48  1  0.37163000  0.54666000  0.73416000  1.0
  N  N49  1  0.62837000  0.45334000  0.26584000  1.0
  N  N50  1  0.14140000  0.95252000  0.26299000  1.0
  N  N51  1  0.85859000  0.04748000  0.73701000  1.0
  Cl  Cl52  1  0.44573000  0.81807000  0.91402000  1.0
  Cl  Cl53  1  0.55427000  0.18193000  0.08598000  1.0
  Cl  Cl54  1  0.37298000  0.54849000  0.03166000  1.0
  Cl  Cl55  1  0.62701000  0.45151000  0.96834000  1.0
  Cl  Cl56  1  0.72852000  0.71321000  0.83845000  1.0
  Cl  Cl57  1  0.27148000  0.28679000  0.16155000  1.0
  Cl  Cl58  1  0.78759000  0.77586000  0.16257000  1.0
  Cl  Cl59  1  0.21240000  0.22414000  0.83743000  1.0
  Cl  Cl60  1  0.07609000  0.68470000  0.08318000  1.0
  Cl  Cl61  1  0.92392000  0.31530000  0.91682000  1.0
  Cl  Cl62  1  0.87299000  0.04259000  0.03706000  1.0
  Cl  Cl63  1  0.12700000  0.95741000  0.96294000  1.0
