# generated using pymatgen
data_ZnH12C12(O2F)4
_symmetry_space_group_name_H-M   'P 1'
_cell_length_a   5.08249000
_cell_length_b   8.81537000
_cell_length_c   9.36002000
_cell_angle_alpha   116.20000000
_cell_angle_beta   95.60640000
_cell_angle_gamma   93.72630000
_symmetry_Int_Tables_number   1
_chemical_formula_structural   ZnH12C12(O2F)4
_chemical_formula_sum   'Zn1 H12 C12 O8 F4'
_cell_volume   371.72499485
_cell_formula_units_Z   1
loop_
 _symmetry_equiv_pos_site_id
 _symmetry_equiv_pos_as_xyz
  1  'x, y, z'
loop_
 _atom_site_type_symbol
 _atom_site_label
 _atom_site_symmetry_multiplicity
 _atom_site_fract_x
 _atom_site_fract_y
 _atom_site_fract_z
 _atom_site_occupancy
  Zn  Zn0  1  0.00000000  0.00000000  0.50000000  1.0
  H  H1  1  0.60882000  0.19880000  0.36840000  1.0
  H  H2  1  0.39118000  0.80119000  0.63160000  1.0
  H  H3  1  0.61407000  0.07142000  0.15801000  1.0
  H  H4  1  0.38593000  0.92858000  0.84199000  1.0
  H  H5  1  0.10213000  0.07829000  0.20236000  1.0
  H  H6  1  0.89787000  0.92171000  0.79765000  1.0
  H  H7  1  0.01783000  0.29165000  0.28597000  1.0
  H  H8  1  0.98218000  0.70835000  0.71403000  1.0
  H  H9  1  0.52597000  0.91750000  0.31694000  1.0
  H  H10  1  0.47403000  0.08250000  0.68306000  1.0
  H  H11  1  0.08586000  0.29805000  0.54029000  1.0
  H  H12  1  0.91414000  0.70195000  0.45971000  1.0
  C  C13  1  0.19622000  0.67252000  0.26601000  1.0
  C  C14  1  0.80378000  0.32748000  0.73400000  1.0
  C  C15  1  0.34970000  0.58271000  0.12813000  1.0
  C  C16  1  0.65030000  0.41729000  0.87187000  1.0
  C  C17  1  0.48095000  0.44378000  0.11529000  1.0
  C  C18  1  0.51905000  0.55622000  0.88471000  1.0
  C  C19  1  0.62792000  0.36348000  0.99043000  1.0
  C  C20  1  0.37208000  0.63652000  0.00957000  1.0
  C  C21  1  0.71429000  0.10409000  0.27928000  1.0
  C  C22  1  0.28571000  0.89591000  0.72072000  1.0
  C  C23  1  0.00312000  0.17210000  0.29615000  1.0
  C  C24  1  0.99688000  0.82790000  0.70385000  1.0
  O  O25  1  0.24483000  0.83595000  0.33780000  1.0
  O  O26  1  0.75518000  0.16405000  0.66220000  1.0
  O  O27  1  0.03568000  0.58397000  0.30082000  1.0
  O  O28  1  0.96432000  0.41603000  0.69918000  1.0
  O  O29  1  0.71078000  0.95315000  0.30340000  1.0
  O  O30  1  0.28922000  0.04685000  0.69660000  1.0
  O  O31  1  0.14775000  0.19821000  0.44815000  1.0
  O  O32  1  0.85225000  0.80179000  0.55185000  1.0
  F  F33  1  0.47554000  0.38870000  0.22883000  1.0
  F  F34  1  0.52445000  0.61130000  0.77117000  1.0
  F  F35  1  0.75595000  0.23214000  0.98781000  1.0
  F  F36  1  0.24405000  0.76786000  0.01219000  1.0
