# generated using pymatgen
data_CuH6C6(NO3)2
_symmetry_space_group_name_H-M   'P 1'
_cell_length_a   6.95728000
_cell_length_b   6.95788881
_cell_length_c   10.64250000
_cell_angle_alpha   93.00547163
_cell_angle_beta   93.01690000
_cell_angle_gamma   119.79235250
_symmetry_Int_Tables_number   1
_chemical_formula_structural   CuH6C6(NO3)2
_chemical_formula_sum   'Cu2 H12 C12 N4 O12'
_cell_volume   444.63240398
_cell_formula_units_Z   2
loop_
 _symmetry_equiv_pos_site_id
 _symmetry_equiv_pos_as_xyz
  1  'x, y, z'
loop_
 _atom_site_type_symbol
 _atom_site_label
 _atom_site_symmetry_multiplicity
 _atom_site_fract_x
 _atom_site_fract_y
 _atom_site_fract_z
 _atom_site_occupancy
  Cu  Cu0  1  0.50001000  0.50000000  0.50000000  1.0
  Cu  Cu1  1  0.00000000  0.00000000  0.00000000  1.0
  H  H2  1  0.42384000  0.07623000  0.74999000  1.0
  H  H3  1  0.57617000  0.92378000  0.25000000  1.0
  H  H4  1  0.83071000  0.66920000  0.74996000  1.0
  H  H5  1  0.16930000  0.33081000  0.25004000  1.0
  H  H6  1  0.19037000  0.09854000  0.58940000  1.0
  H  H7  1  0.40144000  0.30964000  0.91053000  1.0
  H  H8  1  0.80964000  0.90146000  0.41060000  1.0
  H  H9  1  0.59856000  0.69036000  0.08947000  1.0
  H  H10  1  0.05817000  0.22280000  0.56225000  1.0
  H  H11  1  0.27710000  0.44182000  0.93778000  1.0
  H  H12  1  0.94183000  0.77719000  0.43775000  1.0
  H  H13  1  0.72290000  0.55819000  0.06222000  1.0
  C  C14  1  0.47417000  0.82462000  0.65333000  1.0
  C  C15  1  0.67535000  0.02581000  0.84660000  1.0
  C  C16  1  0.52583000  0.17538000  0.34667000  1.0
  C  C17  1  0.32466000  0.97419000  0.15339000  1.0
  C  C18  1  0.51406000  0.98580000  0.74996000  1.0
  C  C19  1  0.48593000  0.01419000  0.25004000  1.0
  C  C20  1  0.74018000  0.75975000  0.74999000  1.0
  C  C21  1  0.25982000  0.24025000  0.25001000  1.0
  C  C22  1  0.30790000  0.76285000  0.53955000  1.0
  C  C23  1  0.73715000  0.19212000  0.96038000  1.0
  C  C24  1  0.69210000  0.23715000  0.46045000  1.0
  C  C25  1  0.26285000  0.80788000  0.03962000  1.0
  N  N26  1  0.58841000  0.71480000  0.65379000  1.0
  N  N27  1  0.78517000  0.91155000  0.84616000  1.0
  N  N28  1  0.41158000  0.28519000  0.34621000  1.0
  N  N29  1  0.21484000  0.08846000  0.15383000  1.0
  O  O30  1  0.30708000  0.62750000  0.45301000  1.0
  O  O31  1  0.87250000  0.19294000  0.04698000  1.0
  O  O32  1  0.69292000  0.37250000  0.54699000  1.0
  O  O33  1  0.12750000  0.80706000  0.95302000  1.0
  O  O34  1  0.18739000  0.84965000  0.53592000  1.0
  O  O35  1  0.65039000  0.31270000  0.96403000  1.0
  O  O36  1  0.81260000  0.15034000  0.46409000  1.0
  O  O37  1  0.34962000  0.68732000  0.03597000  1.0
  O  O38  1  0.19866000  0.24338000  0.60319000  1.0
  O  O39  1  0.25655000  0.30139000  0.89682000  1.0
  O  O40  1  0.80134000  0.75661000  0.39681000  1.0
  O  O41  1  0.74345000  0.69862000  0.10318000  1.0
