# generated using pymatgen
data_CdH6C8(IN)4
_symmetry_space_group_name_H-M   'P 1'
_cell_length_a   4.19017000
_cell_length_b   10.80550000
_cell_length_c   17.18630000
_cell_angle_alpha   90.00010000
_cell_angle_beta   89.99990000
_cell_angle_gamma   89.87300000
_symmetry_Int_Tables_number   1
_chemical_formula_structural   CdH6C8(IN)4
_chemical_formula_sum   'Cd2 H12 C16 I8 N8'
_cell_volume   778.14016442
_cell_formula_units_Z   2
loop_
 _symmetry_equiv_pos_site_id
 _symmetry_equiv_pos_as_xyz
  1  'x, y, z'
loop_
 _atom_site_type_symbol
 _atom_site_label
 _atom_site_symmetry_multiplicity
 _atom_site_fract_x
 _atom_site_fract_y
 _atom_site_fract_z
 _atom_site_occupancy
  Cd  Cd0  1  0.00000000  0.50000000  0.50000000  1.0
  Cd  Cd1  1  0.00000000  0.00000000  0.00000000  1.0
  H  H2  1  0.82543000  0.20496000  0.52255000  1.0
  H  H3  1  0.17457000  0.29504000  0.02255000  1.0
  H  H4  1  0.17458000  0.79504000  0.47745000  1.0
  H  H5  1  0.82542000  0.70496000  0.97745000  1.0
  H  H6  1  0.23043000  0.27926000  0.78389000  1.0
  H  H7  1  0.76957000  0.22074000  0.28389000  1.0
  H  H8  1  0.76956000  0.72074000  0.21611000  1.0
  H  H9  1  0.23043000  0.77926000  0.71611000  1.0
  H  H10  1  0.17308000  0.45418000  0.68685000  1.0
  H  H11  1  0.82692000  0.04582000  0.18685000  1.0
  H  H12  1  0.82692000  0.54582000  0.31315000  1.0
  H  H13  1  0.17308000  0.95418000  0.81315000  1.0
  C  C14  1  0.91061000  0.22176000  0.58161000  1.0
  C  C15  1  0.08938000  0.27824000  0.08161000  1.0
  C  C16  1  0.08939000  0.77824000  0.41839000  1.0
  C  C17  1  0.91062000  0.72176000  0.91839000  1.0
  C  C18  1  0.92491000  0.12826000  0.63810000  1.0
  C  C19  1  0.07508000  0.37174000  0.13810000  1.0
  C  C20  1  0.07509000  0.87174000  0.36190000  1.0
  C  C21  1  0.92491000  0.62826000  0.86190000  1.0
  C  C22  1  0.13356000  0.26311000  0.72584000  1.0
  C  C23  1  0.86644000  0.23689000  0.22584000  1.0
  C  C24  1  0.86644000  0.73690000  0.27416000  1.0
  C  C25  1  0.13356000  0.76311000  0.77416000  1.0
  C  C26  1  0.10792000  0.35929000  0.67204000  1.0
  C  C27  1  0.89208000  0.14071000  0.17204000  1.0
  C  C28  1  0.89208000  0.64071000  0.32796000  1.0
  C  C29  1  0.10793000  0.85929000  0.82796000  1.0
  I  I30  1  0.51084000  0.63408000  0.58863000  1.0
  I  I31  1  0.48916000  0.86592000  0.08863000  1.0
  I  I32  1  0.48916000  0.36592000  0.41136000  1.0
  I  I33  1  0.51084000  0.13407000  0.91136000  1.0
  I  I34  1  0.75230000  0.94902000  0.61092000  1.0
  I  I35  1  0.24769000  0.55098000  0.11092000  1.0
  I  I36  1  0.24770000  0.05098000  0.38908000  1.0
  I  I37  1  0.75231000  0.44902000  0.88908000  1.0
  N  N38  1  0.00203000  0.33700000  0.59959000  1.0
  N  N39  1  0.99797000  0.16300000  0.09959000  1.0
  N  N40  1  0.99798000  0.66300000  0.40041000  1.0
  N  N41  1  0.00203000  0.83701000  0.90041000  1.0
  N  N42  1  0.04129000  0.14731000  0.70896000  1.0
  N  N43  1  0.95871000  0.35269000  0.20896000  1.0
  N  N44  1  0.95871000  0.85269000  0.29104000  1.0
  N  N45  1  0.04129000  0.64731000  0.79104000  1.0
