# generated using pymatgen
data_Zn3H20C28(N5O3)2
_symmetry_space_group_name_H-M   'P 1'
_cell_length_a   10.20820000
_cell_length_b   12.81790000
_cell_length_c   12.81780000
_cell_angle_alpha   97.42730000
_cell_angle_beta   99.14270000
_cell_angle_gamma   99.14280000
_symmetry_Int_Tables_number   1
_chemical_formula_structural   Zn3H20C28(N5O3)2
_chemical_formula_sum   'Zn6 H40 C56 N20 O12'
_cell_volume   1614.16415464
_cell_formula_units_Z   2
loop_
 _symmetry_equiv_pos_site_id
 _symmetry_equiv_pos_as_xyz
  1  'x, y, z'
loop_
 _atom_site_type_symbol
 _atom_site_label
 _atom_site_symmetry_multiplicity
 _atom_site_fract_x
 _atom_site_fract_y
 _atom_site_fract_z
 _atom_site_occupancy
  Zn  Zn0  1  0.75000000  0.43659000  0.56341000  1.0
  Zn  Zn1  1  0.25000000  0.56341000  0.43659000  1.0
  Zn  Zn2  1  0.55435000  0.50647000  0.74874000  1.0
  Zn  Zn3  1  0.94565000  0.25126000  0.49353000  1.0
  Zn  Zn4  1  0.44565000  0.49353000  0.25126000  1.0
  Zn  Zn5  1  0.05435000  0.74874000  0.50647000  1.0
  H  H6  1  0.04394000  0.95760000  0.63794000  1.0
  H  H7  1  0.45606000  0.36206000  0.04241000  1.0
  H  H8  1  0.95606000  0.04241000  0.36206000  1.0
  H  H9  1  0.54394000  0.63794000  0.95759000  1.0
  H  H10  1  0.25121000  0.86305000  0.40005000  1.0
  H  H11  1  0.24879000  0.59995000  0.13695000  1.0
  H  H12  1  0.74879000  0.13695000  0.59995000  1.0
  H  H13  1  0.75121000  0.40005000  0.86305000  1.0
  H  H14  1  0.19202000  0.14050000  0.68282000  1.0
  H  H15  1  0.30798000  0.31718000  0.85951000  1.0
  H  H16  1  0.80798000  0.85950000  0.31718000  1.0
  H  H17  1  0.69202000  0.68282000  0.14049000  1.0
  H  H18  1  0.40890000  0.03952000  0.43607000  1.0
  H  H19  1  0.09111000  0.56393000  0.96048000  1.0
  H  H20  1  0.59110000  0.96048000  0.56393000  1.0
  H  H21  1  0.90889000  0.43607000  0.03952000  1.0
  H  H22  1  0.92230000  0.62774000  0.82953000  1.0
  H  H23  1  0.57770000  0.17047000  0.37226000  1.0
  H  H24  1  0.07770000  0.37226000  0.17047000  1.0
  H  H25  1  0.42230000  0.82953000  0.62774000  1.0
  H  H26  1  0.65397000  0.68709000  0.61709000  1.0
  H  H27  1  0.84603000  0.38291000  0.31291000  1.0
  H  H28  1  0.34602000  0.31291000  0.38291000  1.0
  H  H29  1  0.15397000  0.61709000  0.68709000  1.0
  H  H30  1  0.00368000  0.74773000  0.00580000  1.0
  H  H31  1  0.49632000  0.99420000  0.25227000  1.0
  H  H32  1  0.99632000  0.25227000  0.99420000  1.0
  H  H33  1  0.50368000  0.00580000  0.74773000  1.0
  H  H34  1  0.65754000  0.84088000  0.73289000  1.0
  H  H35  1  0.84246000  0.26711000  0.15912000  1.0
  H  H36  1  0.34246000  0.15912000  0.26711000  1.0
  H  H37  1  0.15754000  0.73289000  0.84087000  1.0
  H  H38  1  0.91101000  0.91367000  0.04534000  1.0
  H  H39  1  0.58899000  0.95466000  0.08633000  1.0
  H  H40  1  0.08899000  0.08633000  0.95466000  1.0
  H  H41  1  0.41101000  0.04534000  0.91367000  1.0
  H  H42  1  0.73521000  0.95891000  0.90845000  1.0
  H  H43  1  0.76479000  0.09155000  0.04109000  1.0
  H  H44  1  0.26479000  0.04109000  0.09155000  1.0
  H  H45  1  0.23521000  0.90845000  0.95891000  1.0
  C  C46  1  0.84900000  0.66514000  0.59350000  1.0
  C  C47  1  0.65100000  0.40650000  0.33486000  1.0
  C  C48  1  0.15100000  0.33486000  0.40650000  1.0
  C  C49  1  0.34900000  0.59350000  0.66514000  1.0
  C  C50  1  0.12538000  0.98041000  0.59499000  1.0
  C  C51  1  0.37462000  0.40501000  0.01959000  1.0
  C  C52  1  0.87462000  0.01959000  0.40501000  1.0
  C  C53  1  0.62538000  0.59499000  0.98041000  1.0
  C  C54  1  0.24089000  0.92722000  0.46110000  1.0
  C  C55  1  0.25911000  0.53890000  0.07278000  1.0
  C  C56  1  0.75911000  0.07278000  0.53890000  1.0
  C  C57  1  0.74089000  0.46110000  0.92722000  1.0
  C  C58  1  0.20804000  0.08038000  0.62017000  1.0
  C  C59  1  0.29197000  0.37983000  0.91962000  1.0
  C  C60  1  0.79197000  0.91962000  0.37983000  1.0
  C  C61  1  0.70803000  0.62017000  0.08037000  1.0
  C  C62  1  0.32830000  0.02480000  0.48158000  1.0
  C  C63  1  0.17169000  0.51842000  0.97520000  1.0
  C  C64  1  0.67170000  0.97520000  0.51842000  1.0
  C  C65  1  0.82831000  0.48158000  0.02480000  1.0
  C  C66  1  0.31447000  0.10272000  0.56455000  1.0
  C  C67  1  0.18553000  0.43544000  0.89728000  1.0
  C  C68  1  0.68553000  0.89728000  0.43545000  1.0
  C  C69  1  0.81447000  0.56455000  0.10272000  1.0
  C  C70  1  0.41173000  0.20232000  0.59524000  1.0
  C  C71  1  0.08827000  0.40476000  0.79768000  1.0
  C  C72  1  0.58827000  0.79768000  0.40477000  1.0
  C  C73  1  0.91173000  0.59524000  0.20232000  1.0
  C  C74  1  0.88358000  0.70155000  0.84698000  1.0
  C  C75  1  0.61642000  0.15302000  0.29845000  1.0
  C  C76  1  0.11642000  0.29845000  0.15302000  1.0
  C  C77  1  0.38358000  0.84698000  0.70155000  1.0
  C  C78  1  0.73812000  0.65606000  0.66152000  1.0
  C  C79  1  0.76188000  0.33848000  0.34394000  1.0
  C  C80  1  0.26188000  0.34394000  0.33848000  1.0
  C  C81  1  0.23812000  0.66152000  0.65606000  1.0
  C  C82  1  0.92807000  0.76838000  0.94544000  1.0
  C  C83  1  0.57193000  0.05456000  0.23162000  1.0
  C  C84  1  0.07193000  0.23162000  0.05456000  1.0
  C  C85  1  0.42807000  0.94544000  0.76838000  1.0
  C  C86  1  0.73440000  0.82096000  0.79248000  1.0
  C  C87  1  0.76561000  0.20752000  0.17904000  1.0
  C  C88  1  0.26561000  0.17904000  0.20752000  1.0
  C  C89  1  0.23439000  0.79248000  0.82096000  1.0
  C  C90  1  0.87626000  0.86181000  0.96811000  1.0
  C  C91  1  0.62374000  0.03190000  0.13819000  1.0
  C  C92  1  0.12374000  0.13819000  0.03189000  1.0
  C  C93  1  0.37626000  0.96810000  0.86181000  1.0
  C  C94  1  0.78641000  0.72789000  0.76931000  1.0
  C  C95  1  0.71359000  0.23069000  0.27211000  1.0
  C  C96  1  0.21359000  0.27211000  0.23069000  1.0
  C  C97  1  0.28641000  0.76931000  0.72789000  1.0
  C  C98  1  0.77860000  0.88752000  0.89123000  1.0
  C  C99  1  0.72140000  0.10877000  0.11248000  1.0
  C  C100  1  0.22140000  0.11248000  0.10877000  1.0
  C  C101  1  0.27860000  0.89123000  0.88752000  1.0
  N  N102  1  0.14232000  0.90447000  0.51760000  1.0
  N  N103  1  0.35768000  0.48240000  0.09553000  1.0
  N  N104  1  0.85768000  0.09553000  0.48240000  1.0
  N  N105  1  0.64232000  0.51760000  0.90447000  1.0
  N  N106  1  0.40888000  0.27857000  0.67746000  1.0
  N  N107  1  0.09112000  0.32254000  0.72143000  1.0
  N  N108  1  0.59112000  0.72143000  0.32254000  1.0
  N  N109  1  0.90888000  0.67746000  0.27857000  1.0
  N  N110  1  0.51581000  0.35244000  0.67829000  1.0
  N  N111  1  0.98419000  0.32171000  0.64756000  1.0
  N  N112  1  0.48419000  0.64756000  0.32171000  1.0
  N  N113  1  0.01581000  0.67829000  0.35244000  1.0
  N  N114  1  0.58235000  0.32289000  0.60055000  1.0
  N  N115  1  0.91765000  0.39945000  0.67711000  1.0
  N  N116  1  0.41765000  0.67711000  0.39945000  1.0
  N  N117  1  0.08235000  0.60055000  0.32289000  1.0
  N  N118  1  0.51890000  0.22852000  0.54715000  1.0
  N  N119  1  0.98110000  0.45285000  0.77148000  1.0
  N  N120  1  0.48110000  0.77148000  0.45286000  1.0
  N  N121  1  0.01890000  0.54715000  0.22852000  1.0
  O  O122  1  0.69790000  0.54819000  0.67141000  1.0
  O  O123  1  0.80210000  0.32859000  0.45181000  1.0
  O  O124  1  0.30210000  0.45181000  0.32859000  1.0
  O  O125  1  0.19790000  0.67141000  0.54819000  1.0
  O  O126  1  0.87983000  0.58172000  0.54816000  1.0
  O  O127  1  0.62017000  0.45184000  0.41828000  1.0
  O  O128  1  0.12017000  0.41828000  0.45184000  1.0
  O  O129  1  0.37983000  0.54816000  0.58172000  1.0
  O  O130  1  0.90592000  0.76029000  0.58564000  1.0
  O  O131  1  0.59408000  0.41436000  0.23971000  1.0
  O  O132  1  0.09408000  0.23971000  0.41436000  1.0
  O  O133  1  0.40592000  0.58564000  0.76029000  1.0
