# generated using pymatgen
data_CuH14C22(NO)4
_symmetry_space_group_name_H-M   'P 1'
_cell_length_a   9.41714000
_cell_length_b   11.14960000
_cell_length_c   11.46810000
_cell_angle_alpha   63.78300000
_cell_angle_beta   89.98980000
_cell_angle_gamma   65.03200000
_symmetry_Int_Tables_number   1
_chemical_formula_structural   CuH14C22(NO)4
_chemical_formula_sum   'Cu2 H28 C44 N8 O8'
_cell_volume   953.25344671
_cell_formula_units_Z   2
loop_
 _symmetry_equiv_pos_site_id
 _symmetry_equiv_pos_as_xyz
  1  'x, y, z'
loop_
 _atom_site_type_symbol
 _atom_site_label
 _atom_site_symmetry_multiplicity
 _atom_site_fract_x
 _atom_site_fract_y
 _atom_site_fract_z
 _atom_site_occupancy
  Cu  Cu0  1  0.50000000  0.00000000  0.00000000  1.0
  Cu  Cu1  1  0.50000000  0.00000000  0.50000000  1.0
  H  H2  1  0.98803000  0.42287000  0.97079000  1.0
  H  H3  1  0.41045000  0.57699000  0.52929000  1.0
  H  H4  1  0.01197000  0.57713000  0.02920000  1.0
  H  H5  1  0.58956000  0.42301000  0.47071000  1.0
  H  H6  1  0.79821000  0.50626000  0.10738000  1.0
  H  H7  1  0.30399000  0.49382000  0.39253000  1.0
  H  H8  1  0.20178000  0.49374000  0.89261000  1.0
  H  H9  1  0.69601000  0.50618000  0.60747000  1.0
  H  H10  1  0.78163000  0.30338000  0.31560000  1.0
  H  H11  1  0.08455000  0.69687000  0.18441000  1.0
  H  H12  1  0.21836000  0.69662000  0.68439000  1.0
  H  H13  1  0.91546000  0.30313000  0.81560000  1.0
  H  H14  1  0.53192000  0.88492000  0.80235000  1.0
  H  H15  1  0.41683000  0.11531000  0.69756000  1.0
  H  H16  1  0.46808000  0.11508000  0.19765000  1.0
  H  H17  1  0.58317000  0.88469000  0.30244000  1.0
  H  H18  1  0.52805000  0.67092000  0.79389000  1.0
  H  H19  1  0.19898000  0.32924000  0.70604000  1.0
  H  H20  1  0.47196000  0.32908000  0.20612000  1.0
  H  H21  1  0.80102000  0.67076000  0.29396000  1.0
  H  H22  1  0.44895000  0.52030000  0.19607000  1.0
  H  H23  1  0.96956000  0.47976000  0.30385000  1.0
  H  H24  1  0.55104000  0.47970000  0.80393000  1.0
  H  H25  1  0.03044000  0.52024000  0.69615000  1.0
  H  H26  1  0.42989000  0.75631000  0.17720000  1.0
  H  H27  1  0.18642000  0.24373000  0.32277000  1.0
  H  H28  1  0.57010000  0.24369000  0.82280000  1.0
  H  H29  1  0.81358000  0.75626000  0.67722000  1.0
  C  C30  1  0.20242000  0.14674000  0.03270000  1.0
  C  C31  1  0.34897000  0.85305000  0.46758000  1.0
  C  C32  1  0.79758000  0.85326000  0.96730000  1.0
  C  C33  1  0.65103000  0.14695000  0.53242000  1.0
  C  C34  1  0.07654000  0.18757000  0.10810000  1.0
  C  C35  1  0.26380000  0.81232000  0.39217000  1.0
  C  C36  1  0.92346000  0.81243000  0.89190000  1.0
  C  C37  1  0.73620000  0.18768000  0.60784000  1.0
  C  C38  1  0.97748000  0.34157000  0.06336000  1.0
  C  C39  1  0.31859000  0.65836000  0.43680000  1.0
  C  C40  1  0.02252000  0.65843000  0.93664000  1.0
  C  C41  1  0.68141000  0.34164000  0.56321000  1.0
  C  C42  1  0.87191000  0.38671000  0.13804000  1.0
  C  C43  1  0.25815000  0.61334000  0.36201000  1.0
  C  C44  1  0.12809000  0.61329000  0.86196000  1.0
  C  C45  1  0.74186000  0.38666000  0.63799000  1.0
  C  C46  1  0.86426000  0.27441000  0.25418000  1.0
  C  C47  1  0.13825000  0.72572000  0.24592000  1.0
  C  C48  1  0.13573000  0.72559000  0.74582000  1.0
  C  C49  1  0.86175000  0.27428000  0.75408000  1.0
  C  C50  1  0.05807000  0.08339000  0.22552000  1.0
  C  C51  1  0.14130000  0.91659000  0.27472000  1.0
  C  C52  1  0.94193000  0.91661000  0.77448000  1.0
  C  C53  1  0.85870000  0.08341000  0.72528000  1.0
  C  C54  1  0.50840000  0.80407000  0.88595000  1.0
  C  C55  1  0.31251000  0.19611000  0.61397000  1.0
  C  C56  1  0.49160000  0.19593000  0.11405000  1.0
  C  C57  1  0.68749000  0.80389000  0.38603000  1.0
  C  C58  1  0.51217000  0.67893000  0.88460000  1.0
  C  C59  1  0.19113000  0.32120000  0.61534000  1.0
  C  C60  1  0.48783000  0.32107000  0.11540000  1.0
  C  C61  1  0.80887000  0.67880000  0.38466000  1.0
  C  C62  1  0.49345000  0.56984000  0.99717000  1.0
  C  C63  1  0.06335000  0.43021000  0.50281000  1.0
  C  C64  1  0.50654000  0.43016000  0.00284000  1.0
  C  C65  1  0.93666000  0.56979000  0.49719000  1.0
  C  C66  1  0.46393000  0.59900000  0.10446000  1.0
  C  C67  1  0.06314000  0.40107000  0.39548000  1.0
  C  C68  1  0.53606000  0.40100000  0.89554000  1.0
  C  C69  1  0.93686000  0.59892000  0.60452000  1.0
  C  C70  1  0.45624000  0.72969000  0.09654000  1.0
  C  C71  1  0.18611000  0.27042000  0.40341000  1.0
  C  C72  1  0.54375000  0.27032000  0.90346000  1.0
  C  C73  1  0.81389000  0.72958000  0.59659000  1.0
  N  N74  1  0.48096000  0.83016000  0.98985000  1.0
  N  N75  1  0.31122000  0.16997000  0.51010000  1.0
  N  N76  1  0.51904000  0.16985000  0.01015000  1.0
  N  N77  1  0.68878000  0.83003000  0.48990000  1.0
  N  N78  1  0.95332000  0.12596000  0.29631000  1.0
  N  N79  1  0.07902000  0.87416000  0.20386000  1.0
  N  N80  1  0.04668000  0.87404000  0.70369000  1.0
  N  N81  1  0.92098000  0.12584000  0.79615000  1.0
  O  O82  1  0.33138000  0.01757000  0.10135000  1.0
  O  O83  1  0.34888000  0.98222000  0.39896000  1.0
  O  O84  1  0.66862000  0.98243000  0.89865000  1.0
  O  O85  1  0.65112000  0.01779000  0.60103000  1.0
  O  O86  1  0.18417000  0.24004000  0.91377000  1.0
  O  O87  1  0.42403000  0.75963000  0.58647000  1.0
  O  O88  1  0.81584000  0.75996000  0.08623000  1.0
  O  O89  1  0.57597000  0.24038000  0.41353000  1.0
