# generated using pymatgen
data_Cd3H46C36(NO13)2
_symmetry_space_group_name_H-M   'P 1'
_cell_length_a   10.96440000
_cell_length_b   11.15690000
_cell_length_c   11.68570000
_cell_angle_alpha   76.23680000
_cell_angle_beta   70.60430000
_cell_angle_gamma   72.24990000
_symmetry_Int_Tables_number   1
_chemical_formula_structural   Cd3H46C36(NO13)2
_chemical_formula_sum   'Cd3 H46 C36 N2 O26'
_cell_volume   1269.23295729
_cell_formula_units_Z   1
loop_
 _symmetry_equiv_pos_site_id
 _symmetry_equiv_pos_as_xyz
  1  'x, y, z'
loop_
 _atom_site_type_symbol
 _atom_site_label
 _atom_site_symmetry_multiplicity
 _atom_site_fract_x
 _atom_site_fract_y
 _atom_site_fract_z
 _atom_site_occupancy
  Cd  Cd0  1  0.76356000  0.05374000  0.92036000  1.0
  Cd  Cd1  1  0.23644000  0.94626000  0.07964000  1.0
  Cd  Cd2  1  0.00000000  0.50000000  0.00000000  1.0
  H  H3  1  0.35816000  0.91416000  0.48398000  1.0
  H  H4  1  0.64184000  0.08585000  0.51602000  1.0
  H  H5  1  0.41462000  0.69701000  0.82799000  1.0
  H  H6  1  0.58538000  0.30300000  0.17201000  1.0
  H  H7  1  0.75782000  0.72842000  0.51305000  1.0
  H  H8  1  0.24218000  0.27158000  0.48696000  1.0
  H  H9  1  0.48242000  0.03468000  0.33421000  1.0
  H  H10  1  0.51758000  0.96533000  0.66578000  1.0
  H  H11  1  0.46112000  0.90019000  0.29320000  1.0
  H  H12  1  0.53889000  0.09981000  0.70681000  1.0
  H  H13  1  0.14322000  0.91852000  0.58265000  1.0
  H  H14  1  0.85677000  0.08148000  0.41735000  1.0
  H  H15  1  0.19772000  0.02161000  0.64105000  1.0
  H  H16  1  0.80227000  0.97840000  0.35895000  1.0
  H  H17  1  0.57636000  0.51261000  0.86618000  1.0
  H  H18  1  0.42364000  0.48739000  0.13383000  1.0
  H  H19  1  0.56662000  0.65235000  0.91938000  1.0
  H  H20  1  0.43339000  0.34765000  0.08062000  1.0
  H  H21  1  0.82570000  0.27910000  0.71901000  1.0
  H  H22  1  0.17430000  0.72090000  0.28099000  1.0
  H  H23  1  0.72623000  0.44977000  0.57151000  1.0
  H  H24  1  0.27377000  0.55022000  0.42849000  1.0
  H  H25  1  0.34377000  0.37142000  0.77417000  1.0
  H  H26  1  0.65623000  0.62856000  0.22583000  1.0
  H  H27  1  0.45903000  0.20564000  0.91694000  1.0
  H  H28  1  0.54098000  0.79434000  0.08306000  1.0
  H  H29  1  0.47131000  0.61119000  0.56806000  1.0
  H  H30  1  0.52867000  0.38881000  0.43195000  1.0
  H  H31  1  0.35840000  0.51832000  0.59049000  1.0
  H  H32  1  0.64159000  0.48166000  0.40952000  1.0
  H  H33  1  0.75447000  0.81087000  0.89815000  1.0
  H  H34  1  0.24553000  0.18913000  0.10184000  1.0
  H  H35  1  0.61690000  0.90199000  0.87384000  1.0
  H  H36  1  0.38310000  0.09800000  0.12616000  1.0
  H  H37  1  0.79448000  0.26883000  0.99686000  1.0
  H  H38  1  0.20552000  0.73118000  0.00314000  1.0
  H  H39  1  0.89431000  0.14596000  0.04576000  1.0
  H  H40  1  0.10569000  0.85405000  0.95423000  1.0
  H  H41  1  0.06235000  0.22192000  0.04592000  1.0
  H  H42  1  0.93765000  0.77808000  0.95407000  1.0
  H  H43  1  0.16016000  0.23478000  0.91629000  1.0
  H  H44  1  0.83984000  0.76522000  0.08370000  1.0
  H  H45  1  0.21891000  0.57889000  0.87751000  1.0
  H  H46  1  0.78110000  0.42112000  0.12248000  1.0
  H  H47  1  0.13714000  0.65784000  0.78378000  1.0
  H  H48  1  0.86285000  0.34217000  0.21622000  1.0
  C  C49  1  0.56387000  0.82476000  0.48507000  1.0
  C  C50  1  0.43613000  0.17524000  0.51493000  1.0
  C  C51  1  0.42501000  0.85580000  0.53769000  1.0
  C  C52  1  0.57499000  0.14420000  0.46231000  1.0
  C  C53  1  0.37496000  0.80822000  0.66133000  1.0
  C  C54  1  0.62504000  0.19179000  0.33867000  1.0
  C  C55  1  0.45866000  0.73249000  0.73276000  1.0
  C  C56  1  0.54134000  0.26751000  0.26725000  1.0
  C  C57  1  0.59673000  0.70542000  0.67840000  1.0
  C  C58  1  0.40327000  0.29458000  0.32160000  1.0
  C  C59  1  0.65031000  0.75064000  0.55442000  1.0
  C  C60  1  0.34968000  0.24936000  0.44558000  1.0
  C  C61  1  0.53608000  0.94647000  0.29456000  1.0
  C  C62  1  0.46392000  0.05353000  0.70544000  1.0
  C  C63  1  0.61443000  0.98163000  0.16306000  1.0
  C  C64  1  0.38558000  0.01837000  0.83694000  1.0
  C  C65  1  0.15551000  0.93794000  0.66587000  1.0
  C  C66  1  0.84449000  0.06206000  0.33413000  1.0
  C  C67  1  0.01873000  0.97115000  0.75654000  1.0
  C  C68  1  0.98126000  0.02886000  0.24346000  1.0
  C  C69  1  0.63465000  0.57851000  0.86324000  1.0
  C  C70  1  0.36535000  0.42149000  0.13676000  1.0
  C  C71  1  0.74420000  0.50915000  0.92536000  1.0
  C  C72  1  0.25580000  0.49085000  0.07464000  1.0
  C  C73  1  0.71919000  0.30339000  0.72826000  1.0
  C  C74  1  0.28081000  0.69661000  0.27174000  1.0
  C  C75  1  0.66303000  0.39681000  0.64564000  1.0
  C  C76  1  0.33697000  0.60319000  0.35436000  1.0
  C  C77  1  0.52637000  0.42168000  0.65806000  1.0
  C  C78  1  0.47362000  0.57831000  0.34194000  1.0
  C  C79  1  0.45087000  0.35382000  0.75912000  1.0
  C  C80  1  0.54913000  0.64617000  0.24088000  1.0
  C  C81  1  0.51407000  0.26232000  0.83879000  1.0
  C  C82  1  0.48594000  0.73767000  0.16121000  1.0
  C  C83  1  0.46485000  0.51566000  0.56546000  1.0
  C  C84  1  0.53514000  0.48433000  0.43454000  1.0
  N  N85  1  0.64636000  0.23516000  0.82247000  1.0
  N  N86  1  0.35365000  0.76483000  0.17753000  1.0
  O  O87  1  0.62275000  0.86383000  0.36407000  1.0
  O  O88  1  0.37725000  0.13618000  0.63593000  1.0
  O  O89  1  0.24042000  0.83073000  0.72006000  1.0
  O  O90  1  0.75958000  0.16928000  0.27994000  1.0
  O  O91  1  0.68757000  0.63471000  0.74045000  1.0
  O  O92  1  0.31243000  0.36529000  0.25955000  1.0
  O  O93  1  0.73829000  0.93173000  0.12527000  1.0
  O  O94  1  0.26171000  0.06827000  0.87473000  1.0
  O  O95  1  0.54819000  0.06290000  0.09442000  1.0
  O  O96  1  0.45181000  0.93710000  0.90558000  1.0
  O  O97  1  0.93276000  0.06047000  0.71851000  1.0
  O  O98  1  0.06724000  0.93955000  0.28149000  1.0
  O  O99  1  0.99665000  0.90979000  0.86665000  1.0
  O  O100  1  0.00335000  0.09021000  0.13334000  1.0
  O  O101  1  0.70853000  0.42943000  0.02100000  1.0
  O  O102  1  0.29147000  0.57058000  0.97900000  1.0
  O  O103  1  0.85529000  0.53799000  0.88462000  1.0
  O  O104  1  0.14471000  0.46201000  0.11538000  1.0
  O  O105  1  0.71496000  0.89369000  0.85652000  1.0
  O  O106  1  0.28503000  0.10630000  0.14348000  1.0
  O  O107  1  0.85192000  0.18446000  0.97791000  1.0
  O  O108  1  0.14808000  0.81555000  0.02208000  1.0
  O  O109  1  0.11546000  0.28032000  0.98763000  1.0
  O  O110  1  0.88455000  0.71968000  0.01237000  1.0
  O  O111  1  0.16068000  0.57233000  0.82847000  1.0
  O  O112  1  0.83932000  0.42767000  0.17153000  1.0
