# generated using pymatgen
data_CoH10C11N2O5
_symmetry_space_group_name_H-M   'P 1'
_cell_length_a   11.34040000
_cell_length_b   11.34470000
_cell_length_c   24.68820000
_cell_angle_alpha   89.99670000
_cell_angle_beta   89.99900000
_cell_angle_gamma   89.99820000
_symmetry_Int_Tables_number   1
_chemical_formula_structural   CoH10C11N2O5
_chemical_formula_sum   'Co8 H80 C88 N16 O40'
_cell_volume   3176.22174837
_cell_formula_units_Z   8
loop_
 _symmetry_equiv_pos_site_id
 _symmetry_equiv_pos_as_xyz
  1  'x, y, z'
loop_
 _atom_site_type_symbol
 _atom_site_label
 _atom_site_symmetry_multiplicity
 _atom_site_fract_x
 _atom_site_fract_y
 _atom_site_fract_z
 _atom_site_occupancy
  Co  Co0  1  0.40226000  0.40208000  0.12504000  1.0
  Co  Co1  1  0.59817000  0.40255000  0.37508000  1.0
  Co  Co2  1  0.59812000  0.59750000  0.62495000  1.0
  Co  Co3  1  0.40200000  0.59769000  0.87497000  1.0
  Co  Co4  1  0.49985000  0.29030000  0.24983000  1.0
  Co  Co5  1  0.70984000  0.50000000  0.50000000  1.0
  Co  Co6  1  0.49991000  0.70971000  0.75008000  1.0
  Co  Co7  1  0.29033000  0.50007000  0.99989000  1.0
  H  H8  1  0.55511000  0.44241000  0.94854000  1.0
  H  H9  1  0.55749000  0.55507000  0.19864000  1.0
  H  H10  1  0.44493000  0.55756000  0.44857000  1.0
  H  H11  1  0.44244000  0.44493000  0.69851000  1.0
  H  H12  1  0.44495000  0.44244000  0.55143000  1.0
  H  H13  1  0.55750000  0.44495000  0.80141000  1.0
  H  H14  1  0.55502000  0.55760000  0.05142000  1.0
  H  H15  1  0.44242000  0.55502000  0.30152000  1.0
  H  H16  1  0.48669000  0.19264000  0.06086000  1.0
  H  H17  1  0.80745000  0.48682000  0.31095000  1.0
  H  H18  1  0.51354000  0.80726000  0.56088000  1.0
  H  H19  1  0.19262000  0.51327000  0.81085000  1.0
  H  H20  1  0.51356000  0.19271000  0.43912000  1.0
  H  H21  1  0.80742000  0.51317000  0.68908000  1.0
  H  H22  1  0.48659000  0.80737000  0.93911000  1.0
  H  H23  1  0.19266000  0.48667000  0.18917000  1.0
  H  H24  1  0.74361000  0.41772000  0.05368000  1.0
  H  H25  1  0.58229000  0.74365000  0.30371000  1.0
  H  H26  1  0.25628000  0.58221000  0.55363000  1.0
  H  H27  1  0.41773000  0.25634000  0.80362000  1.0
  H  H28  1  0.25627000  0.41781000  0.44639000  1.0
  H  H29  1  0.58228000  0.25633000  0.69631000  1.0
  H  H30  1  0.74366000  0.58226000  0.94632000  1.0
  H  H31  1  0.41772000  0.74367000  0.19635000  1.0
  H  H32  1  0.95745000  0.43133000  0.02704000  1.0
  H  H33  1  0.56861000  0.95748000  0.27707000  1.0
  H  H34  1  0.04249000  0.56870000  0.52701000  1.0
  H  H35  1  0.43133000  0.04253000  0.77701000  1.0
  H  H36  1  0.04245000  0.43130000  0.47301000  1.0
  H  H37  1  0.56862000  0.04251000  0.72294000  1.0
  H  H38  1  0.95749000  0.56870000  0.97293000  1.0
  H  H39  1  0.43132000  0.95744000  0.22297000  1.0
  H  H40  1  0.05955000  0.31726000  0.18596000  1.0
  H  H41  1  0.68268000  0.05947000  0.43598000  1.0
  H  H42  1  0.94044000  0.68273000  0.68594000  1.0
  H  H43  1  0.31728000  0.94055000  0.93593000  1.0
  H  H44  1  0.94047000  0.31726000  0.31407000  1.0
  H  H45  1  0.68271000  0.94052000  0.56403000  1.0
  H  H46  1  0.05953000  0.68275000  0.81400000  1.0
  H  H47  1  0.31728000  0.05950000  0.06406000  1.0
  H  H48  1  0.84569000  0.29393000  0.21122000  1.0
  H  H49  1  0.70610000  0.84566000  0.46125000  1.0
  H  H50  1  0.15429000  0.70599000  0.71115000  1.0
  H  H51  1  0.29394000  0.15435000  0.96117000  1.0
  H  H52  1  0.15433000  0.29403000  0.28888000  1.0
  H  H53  1  0.70610000  0.15432000  0.53877000  1.0
  H  H54  1  0.84564000  0.70605000  0.78878000  1.0
  H  H55  1  0.29396000  0.84571000  0.03881000  1.0
  H  H56  1  0.73252000  0.28933000  0.94374000  1.0
  H  H57  1  0.71060000  0.73242000  0.19381000  1.0
  H  H58  1  0.26752000  0.71056000  0.44379000  1.0
  H  H59  1  0.28934000  0.26749000  0.69375000  1.0
  H  H60  1  0.26752000  0.28946000  0.55621000  1.0
  H  H61  1  0.71061000  0.26756000  0.80622000  1.0
  H  H62  1  0.73252000  0.71063000  0.05622000  1.0
  H  H63  1  0.28935000  0.73251000  0.30626000  1.0
  H  H64  1  0.59973000  0.24194000  0.91119000  1.0
  H  H65  1  0.75802000  0.59969000  0.16125000  1.0
  H  H66  1  0.40029000  0.75793000  0.41124000  1.0
  H  H67  1  0.24191000  0.40023000  0.66119000  1.0
  H  H68  1  0.40029000  0.24208000  0.58876000  1.0
  H  H69  1  0.75804000  0.40029000  0.83878000  1.0
  H  H70  1  0.59972000  0.75801000  0.08876000  1.0
  H  H71  1  0.24193000  0.59977000  0.33882000  1.0
  H  H72  1  0.59823000  0.08889000  0.97712000  1.0
  H  H73  1  0.91115000  0.59820000  0.22716000  1.0
  H  H74  1  0.40181000  0.91102000  0.47715000  1.0
  H  H75  1  0.08882000  0.40173000  0.72712000  1.0
  H  H76  1  0.40181000  0.08898000  0.52285000  1.0
  H  H77  1  0.91116000  0.40177000  0.77285000  1.0
  H  H78  1  0.59824000  0.91110000  0.02285000  1.0
  H  H79  1  0.08883000  0.59827000  0.27289000  1.0
  H  H80  1  0.69825000  0.16588000  0.02066000  1.0
  H  H81  1  0.83413000  0.69821000  0.27070000  1.0
  H  H82  1  0.30180000  0.83405000  0.52070000  1.0
  H  H83  1  0.16588000  0.30176000  0.77067000  1.0
  H  H84  1  0.30180000  0.16594000  0.47930000  1.0
  H  H85  1  0.83412000  0.30178000  0.72932000  1.0
  H  H86  1  0.69826000  0.83412000  0.97930000  1.0
  H  H87  1  0.16587000  0.69825000  0.22934000  1.0
  C  C88  1  0.78270000  0.35575000  0.13428000  1.0
  C  C89  1  0.64433000  0.78273000  0.38429000  1.0
  C  C90  1  0.21728000  0.64413000  0.63424000  1.0
  C  C91  1  0.35574000  0.21732000  0.88423000  1.0
  C  C92  1  0.21729000  0.35588000  0.36578000  1.0
  C  C93  1  0.64431000  0.21726000  0.61572000  1.0
  C  C94  1  0.78267000  0.64420000  0.86570000  1.0
  C  C95  1  0.35579000  0.78269000  0.11573000  1.0
  C  C96  1  0.81340000  0.39475000  0.08219000  1.0
  C  C97  1  0.60530000  0.81348000  0.33220000  1.0
  C  C98  1  0.18657000  0.60517000  0.58216000  1.0
  C  C99  1  0.39475000  0.18657000  0.83214000  1.0
  C  C100  1  0.18655000  0.39483000  0.41787000  1.0
  C  C101  1  0.60527000  0.18652000  0.66781000  1.0
  C  C102  1  0.81340000  0.60522000  0.91779000  1.0
  C  C103  1  0.39478000  0.81340000  0.16782000  1.0
  C  C104  1  0.93143000  0.40371000  0.06755000  1.0
  C  C105  1  0.59625000  0.93149000  0.31758000  1.0
  C  C106  1  0.06854000  0.59633000  0.56750000  1.0
  C  C107  1  0.40372000  0.06857000  0.81751000  1.0
  C  C108  1  0.06853000  0.40366000  0.43251000  1.0
  C  C109  1  0.59625000  0.06851000  0.68243000  1.0
  C  C110  1  0.93143000  0.59633000  0.93243000  1.0
  C  C111  1  0.40371000  0.93139000  0.18246000  1.0
  C  C112  1  0.02051000  0.37812000  0.10519000  1.0
  C  C113  1  0.62177000  0.02049000  0.35523000  1.0
  C  C114  1  0.97946000  0.62198000  0.60513000  1.0
  C  C115  1  0.37814000  0.97954000  0.85517000  1.0
  C  C116  1  0.97946000  0.37799000  0.39489000  1.0
  C  C117  1  0.62178000  0.97951000  0.64477000  1.0
  C  C118  1  0.02050000  0.62194000  0.89479000  1.0
  C  C119  1  0.37811000  0.02045000  0.14483000  1.0
  C  C120  1  0.98982000  0.33872000  0.15720000  1.0
  C  C121  1  0.66123000  0.98975000  0.40723000  1.0
  C  C122  1  0.01014000  0.66129000  0.65716000  1.0
  C  C123  1  0.33874000  0.01027000  0.90717000  1.0
  C  C124  1  0.01016000  0.33870000  0.34286000  1.0
  C  C125  1  0.66124000  0.01025000  0.59277000  1.0
  C  C126  1  0.98980000  0.66129000  0.84277000  1.0
  C  C127  1  0.33873000  0.98976000  0.09281000  1.0
  C  C128  1  0.87170000  0.32588000  0.17133000  1.0
  C  C129  1  0.67419000  0.87167000  0.42136000  1.0
  C  C130  1  0.12829000  0.67402000  0.67128000  1.0
  C  C131  1  0.32587000  0.12837000  0.92129000  1.0
  C  C132  1  0.12831000  0.32598000  0.32875000  1.0
  C  C133  1  0.67418000  0.12833000  0.57866000  1.0
  C  C134  1  0.87166000  0.67408000  0.82865000  1.0
  C  C135  1  0.32592000  0.87167000  0.07869000  1.0
  C  C136  1  0.65607000  0.34921000  0.15135000  1.0
  C  C137  1  0.65075000  0.65608000  0.40129000  1.0
  C  C138  1  0.34391000  0.65084000  0.65133000  1.0
  C  C139  1  0.34929000  0.34396000  0.90125000  1.0
  C  C140  1  0.34393000  0.34917000  0.34869000  1.0
  C  C141  1  0.65073000  0.34392000  0.59873000  1.0
  C  C142  1  0.65603000  0.65084000  0.84862000  1.0
  C  C143  1  0.34920000  0.65607000  0.09868000  1.0
  C  C144  1  0.14649000  0.39629000  0.08940000  1.0
  C  C145  1  0.60368000  0.14652000  0.33955000  1.0
  C  C146  1  0.85355000  0.60384000  0.58927000  1.0
  C  C147  1  0.39621000  0.85355000  0.83942000  1.0
  C  C148  1  0.85355000  0.39612000  0.41075000  1.0
  C  C149  1  0.60368000  0.85350000  0.66048000  1.0
  C  C150  1  0.14645000  0.60384000  0.91060000  1.0
  C  C151  1  0.39619000  0.14637000  0.16063000  1.0
  C  C152  1  0.50278000  0.33771000  0.01275000  1.0
  C  C153  1  0.66224000  0.50285000  0.26287000  1.0
  C  C154  1  0.49738000  0.66230000  0.51276000  1.0
  C  C155  1  0.33771000  0.49718000  0.76273000  1.0
  C  C156  1  0.49740000  0.33767000  0.48724000  1.0
  C  C157  1  0.66224000  0.49713000  0.73717000  1.0
  C  C158  1  0.50273000  0.66234000  0.98721000  1.0
  C  C159  1  0.33768000  0.50279000  0.23729000  1.0
  C  C160  1  0.63873000  0.26954000  0.95000000  1.0
  C  C161  1  0.73042000  0.63867000  0.20006000  1.0
  C  C162  1  0.36130000  0.73035000  0.45005000  1.0
  C  C163  1  0.26955000  0.36125000  0.70000000  1.0
  C  C164  1  0.36130000  0.26965000  0.54995000  1.0
  C  C165  1  0.73042000  0.36132000  0.79997000  1.0
  C  C166  1  0.63873000  0.73041000  0.04995000  1.0
  C  C167  1  0.26955000  0.63875000  0.30001000  1.0
  C  C168  1  0.61981000  0.17515000  0.99465000  1.0
  C  C169  1  0.82486000  0.61979000  0.24469000  1.0
  C  C170  1  0.38021000  0.82476000  0.49468000  1.0
  C  C171  1  0.17512000  0.38017000  0.74465000  1.0
  C  C172  1  0.38021000  0.17524000  0.50532000  1.0
  C  C173  1  0.82486000  0.38019000  0.75533000  1.0
  C  C174  1  0.61982000  0.82483000  0.00531000  1.0
  C  C175  1  0.17512000  0.61984000  0.25536000  1.0
  N  N176  1  0.57636000  0.37156000  0.97204000  1.0
  N  N177  1  0.62840000  0.57630000  0.22212000  1.0
  N  N178  1  0.42373000  0.62836000  0.47210000  1.0
  N  N179  1  0.37158000  0.42364000  0.72203000  1.0
  N  N180  1  0.42374000  0.37164000  0.52790000  1.0
  N  N181  1  0.62840000  0.42370000  0.77792000  1.0
  N  N182  1  0.57632000  0.62842000  0.02790000  1.0
  N  N183  1  0.37160000  0.57634000  0.27798000  1.0
  N  N184  1  0.52059000  0.22330000  0.02485000  1.0
  N  N185  1  0.77673000  0.52064000  0.27492000  1.0
  N  N186  1  0.47944000  0.77663000  0.52488000  1.0
  N  N187  1  0.22326000  0.47937000  0.77483000  1.0
  N  N188  1  0.47944000  0.22336000  0.47512000  1.0
  N  N189  1  0.77672000  0.47935000  0.72511000  1.0
  N  N190  1  0.52061000  0.77672000  0.97511000  1.0
  N  N191  1  0.22327000  0.52064000  0.22517000  1.0
  O  O192  1  0.63281000  0.28879000  0.19311000  1.0
  O  O193  1  0.71121000  0.63260000  0.44301000  1.0
  O  O194  1  0.36703000  0.71139000  0.69306000  1.0
  O  O195  1  0.28887000  0.36732000  0.94300000  1.0
  O  O196  1  0.36708000  0.28862000  0.30697000  1.0
  O  O197  1  0.71119000  0.36739000  0.55701000  1.0
  O  O198  1  0.63288000  0.71135000  0.80687000  1.0
  O  O199  1  0.28875000  0.63281000  0.05693000  1.0
  O  O200  1  0.58213000  0.40758000  0.12256000  1.0
  O  O201  1  0.59195000  0.58246000  0.37250000  1.0
  O  O202  1  0.41804000  0.59268000  0.62262000  1.0
  O  O203  1  0.40775000  0.41779000  0.87244000  1.0
  O  O204  1  0.41804000  0.40736000  0.37739000  1.0
  O  O205  1  0.59198000  0.41757000  0.62753000  1.0
  O  O206  1  0.58195000  0.59264000  0.87736000  1.0
  O  O207  1  0.40748000  0.58208000  0.12746000  1.0
  O  O208  1  0.22244000  0.40160000  0.12803000  1.0
  O  O209  1  0.59855000  0.22221000  0.37825000  1.0
  O  O210  1  0.77741000  0.59788000  0.62781000  1.0
  O  O211  1  0.40149000  0.77764000  0.87805000  1.0
  O  O212  1  0.77740000  0.40219000  0.37223000  1.0
  O  O213  1  0.59854000  0.77776000  0.62179000  1.0
  O  O214  1  0.22255000  0.59818000  0.87204000  1.0
  O  O215  1  0.40170000  0.22246000  0.12207000  1.0
  O  O216  1  0.16910000  0.40659000  0.03952000  1.0
  O  O217  1  0.59369000  0.16935000  0.28967000  1.0
  O  O218  1  0.83095000  0.59363000  0.53939000  1.0
  O  O219  1  0.40634000  0.83098000  0.78953000  1.0
  O  O220  1  0.83096000  0.40629000  0.46064000  1.0
  O  O221  1  0.59365000  0.83073000  0.71036000  1.0
  O  O222  1  0.16897000  0.59355000  0.96049000  1.0
  O  O223  1  0.40643000  0.16885000  0.21053000  1.0
  O  O224  1  0.42993000  0.40465000  0.03703000  1.0
  O  O225  1  0.59526000  0.43009000  0.28720000  1.0
  O  O226  1  0.57042000  0.59547000  0.53703000  1.0
  O  O227  1  0.40469000  0.56999000  0.78702000  1.0
  O  O228  1  0.57048000  0.40448000  0.46297000  1.0
  O  O229  1  0.59526000  0.56990000  0.71285000  1.0
  O  O230  1  0.42979000  0.59550000  0.96292000  1.0
  O  O231  1  0.40461000  0.42990000  0.21302000  1.0
