# generated using pymatgen
data_Mn3P6H44(C12O11)2
_symmetry_space_group_name_H-M   'P 1'
_cell_length_a   8.26574000
_cell_length_b   10.04030000
_cell_length_c   13.04077068
_cell_angle_alpha   68.34031095
_cell_angle_beta   82.54907790
_cell_angle_gamma   70.73480000
_symmetry_Int_Tables_number   1
_chemical_formula_structural   Mn3P6H44(C12O11)2
_chemical_formula_sum   'Mn3 P6 H44 C24 O22'
_cell_volume   949.48025867
_cell_formula_units_Z   1
loop_
 _symmetry_equiv_pos_site_id
 _symmetry_equiv_pos_as_xyz
  1  'x, y, z'
loop_
 _atom_site_type_symbol
 _atom_site_label
 _atom_site_symmetry_multiplicity
 _atom_site_fract_x
 _atom_site_fract_y
 _atom_site_fract_z
 _atom_site_occupancy
  Mn  Mn0  1  0.97703000  0.45782000  0.39205000  1.0
  Mn  Mn1  1  0.02328000  0.54187000  0.60790000  1.0
  Mn  Mn2  1  0.49996000  0.49993000  0.50014000  1.0
  P  P3  1  0.41048000  0.37353000  0.31080000  1.0
  P  P4  1  0.58964000  0.62642000  0.68926000  1.0
  P  P5  1  0.14302000  0.74917000  0.36526000  1.0
  P  P6  1  0.85695000  0.25080000  0.63477000  1.0
  P  P7  1  0.06328000  0.39487000  0.88828000  1.0
  P  P8  1  0.93674000  0.60508000  0.11170000  1.0
  H  H9  1  0.72319000  0.64100000  0.49104000  1.0
  H  H10  1  0.27674000  0.35956000  0.50876000  1.0
  H  H11  1  0.66085000  0.70669000  0.36508000  1.0
  H  H12  1  0.33869000  0.29377000  0.63489000  1.0
  H  H13  1  0.88981000  0.33475000  0.27041000  1.0
  H  H14  1  0.11014000  0.66520000  0.72951000  1.0
  H  H15  1  0.74416000  0.34059000  0.35951000  1.0
  H  H16  1  0.25588000  0.65940000  0.64047000  1.0
  H  H17  1  0.27523000  0.51593000  0.14651000  1.0
  H  H18  1  0.72469000  0.48401000  0.85355000  1.0
  H  H19  1  0.06537000  0.69984000  0.23305000  1.0
  H  H20  1  0.93448000  0.30015000  0.76703000  1.0
  H  H21  1  0.13392000  0.54675000  0.95063000  1.0
  H  H22  1  0.86610000  0.45328000  0.04928000  1.0
  H  H23  1  0.61458000  0.21138000  0.22975000  1.0
  H  H24  1  0.38544000  0.78860000  0.77023000  1.0
  H  H25  1  0.56292000  0.11001000  0.36468000  1.0
  H  H26  1  0.43713000  0.88994000  0.63529000  1.0
  H  H27  1  0.38682000  0.06138000  0.46171000  1.0
  H  H28  1  0.61323000  0.93858000  0.53828000  1.0
  H  H29  1  0.32959000  0.89918000  0.47537000  1.0
  H  H30  1  0.67048000  0.10079000  0.52459000  1.0
  H  H31  1  0.17168000  0.06854000  0.47658000  1.0
  H  H32  1  0.82839000  0.93141000  0.52342000  1.0
  H  H33  1  0.91257000  0.97908000  0.33223000  1.0
  H  H34  1  0.08745000  0.02089000  0.66778000  1.0
  H  H35  1  0.04807000  0.94621000  0.43869000  1.0
  H  H36  1  0.95190000  0.05387000  0.56131000  1.0
  H  H37  1  0.87399000  0.04941000  0.17827000  1.0
  H  H38  1  0.12600000  0.95059000  0.82173000  1.0
  H  H39  1  0.01874000  0.98465000  0.08346000  1.0
  H  H40  1  0.98126000  0.01533000  0.91655000  1.0
  H  H41  1  0.90481000  0.17988000  0.04838000  1.0
  H  H42  1  0.09519000  0.82011000  0.95162000  1.0
  H  H43  1  0.16123000  0.13137000  0.94877000  1.0
  H  H44  1  0.83879000  0.86863000  0.05124000  1.0
  H  H45  1  0.33210000  0.20814000  0.92191000  1.0
  H  H46  1  0.66790000  0.79183000  0.07811000  1.0
  H  H47  1  0.55123000  0.31795000  0.07987000  1.0
  H  H48  1  0.44877000  0.68207000  0.92011000  1.0
  H  H49  1  0.41088000  0.36598000  0.97364000  1.0
  H  H50  1  0.58913000  0.63404000  0.02634000  1.0
  H  H51  1  0.57232000  0.19107000  0.01059000  1.0
  H  H52  1  0.42768000  0.80894000  0.98939000  1.0
  C  C53  1  0.37850000  0.15430000  0.24156000  1.0
  C  C54  1  0.62149000  0.84572000  0.75842000  1.0
  C  C55  1  0.27367000  0.07480000  0.31550000  1.0
  C  C56  1  0.72634000  0.92519000  0.68449000  1.0
  C  C57  1  0.14542000  0.04357000  0.27489000  1.0
  C  C58  1  0.85459000  0.95641000  0.72512000  1.0
  C  C59  1  0.11528000  0.09876000  0.16078000  1.0
  C  C60  1  0.88474000  0.90123000  0.83922000  1.0
  C  C61  1  0.22630000  0.17167000  0.08743000  1.0
  C  C62  1  0.77370000  0.82831000  0.91257000  1.0
  C  C63  1  0.35890000  0.19939000  0.12639000  1.0
  C  C64  1  0.64110000  0.80062000  0.87359000  1.0
  C  C65  1  0.50709000  0.19567000  0.28683000  1.0
  C  C66  1  0.49294000  0.80433000  0.71316000  1.0
  C  C67  1  0.29319000  0.02268000  0.43850000  1.0
  C  C68  1  0.70686000  0.97729000  0.56149000  1.0
  C  C69  1  0.04720000  0.94484000  0.35521000  1.0
  C  C70  1  0.95281000  0.05516000  0.64481000  1.0
  C  C71  1  0.97044000  0.07790000  0.11527000  1.0
  C  C72  1  0.02957000  0.92210000  0.88473000  1.0
  C  C73  1  0.20807000  0.21222000  0.96497000  1.0
  C  C74  1  0.79194000  0.78777000  0.03504000  1.0
  C  C75  1  0.47876000  0.27217000  0.04445000  1.0
  C  C76  1  0.52123000  0.72785000  0.95553000  1.0
  O  O77  1  0.53998000  0.40184000  0.36740000  1.0
  O  O78  1  0.46016000  0.59814000  0.63260000  1.0
  O  O79  1  0.70471000  0.61388000  0.42703000  1.0
  O  O80  1  0.29505000  0.38661000  0.57290000  1.0
  O  O81  1  0.87326000  0.31139000  0.35055000  1.0
  O  O82  1  0.12677000  0.68852000  0.64938000  1.0
  O  O83  1  0.37571000  0.49696000  0.19188000  1.0
  O  O84  1  0.62415000  0.50305000  0.80823000  1.0
  O  O85  1  0.24606000  0.36865000  0.38133000  1.0
  O  O86  1  0.75419000  0.63116000  0.61891000  1.0
  O  O87  1  0.32434000  0.69583000  0.40686000  1.0
  O  O88  1  0.67565000  0.30404000  0.59316000  1.0
  O  O89  1  0.14279000  0.75356000  0.24280000  1.0
  O  O90  1  0.85703000  0.24651000  0.75723000  1.0
  O  O91  1  0.02805000  0.65276000  0.43595000  1.0
  O  O92  1  0.97190000  0.34720000  0.56407000  1.0
  O  O93  1  0.14546000  0.52169000  0.87868000  1.0
  O  O94  1  0.85454000  0.47827000  0.12128000  1.0
  O  O95  1  0.88531000  0.42497000  0.94222000  1.0
  O  O96  1  0.11472000  0.57503000  0.05776000  1.0
  O  O97  1  0.05886000  0.39265000  0.77167000  1.0
  O  O98  1  0.94123000  0.60718000  0.22835000  1.0
