# generated using pymatgen
data_CaH6C9O7
_symmetry_space_group_name_H-M   'P 1'
_cell_length_a   6.91140000
_cell_length_b   6.97373000
_cell_length_c   10.38480000
_cell_angle_alpha   87.10530000
_cell_angle_beta   83.44200000
_cell_angle_gamma   69.45770000
_symmetry_Int_Tables_number   1
_chemical_formula_structural   CaH6C9O7
_chemical_formula_sum   'Ca2 H12 C18 O14'
_cell_volume   465.60603761
_cell_formula_units_Z   2
loop_
 _symmetry_equiv_pos_site_id
 _symmetry_equiv_pos_as_xyz
  1  'x, y, z'
loop_
 _atom_site_type_symbol
 _atom_site_label
 _atom_site_symmetry_multiplicity
 _atom_site_fract_x
 _atom_site_fract_y
 _atom_site_fract_z
 _atom_site_occupancy
  Ca  Ca0  1  0.24988000  0.26236000  0.04532000  1.0
  Ca  Ca1  1  0.75011000  0.73764000  0.95468000  1.0
  H  H2  1  0.59284000  0.75380000  0.69517000  1.0
  H  H3  1  0.40716000  0.24620000  0.30483000  1.0
  H  H4  1  0.57177000  0.38481000  0.16944000  1.0
  H  H5  1  0.42823000  0.61519000  0.83055000  1.0
  H  H6  1  0.65625000  0.13390000  0.16289000  1.0
  H  H7  1  0.34374000  0.86610000  0.83711000  1.0
  H  H8  1  0.78409000  0.78864000  0.37880000  1.0
  H  H9  1  0.21591000  0.21136000  0.62120000  1.0
  H  H10  1  0.27304000  0.70549000  0.62070000  1.0
  H  H11  1  0.72696000  0.29451000  0.37930000  1.0
  H  H12  1  0.51577000  0.70602000  0.42504000  1.0
  H  H13  1  0.48423000  0.29398000  0.57496000  1.0
  C  C14  1  0.87269000  0.74385000  0.63073000  1.0
  C  C15  1  0.12731000  0.25615000  0.36927000  1.0
  C  C16  1  0.01411000  0.74630000  0.51236000  1.0
  C  C17  1  0.98589000  0.25370000  0.48764000  1.0
  C  C18  1  0.94446000  0.77048000  0.38908000  1.0
  C  C19  1  0.05554000  0.22952000  0.61092000  1.0
  C  C20  1  0.22062000  0.72326000  0.52440000  1.0
  C  C21  1  0.77938000  0.27674000  0.47560000  1.0
  C  C22  1  0.28783000  0.74353000  0.29076000  1.0
  C  C23  1  0.71217000  0.25647000  0.70924000  1.0
  C  C24  1  0.35603000  0.72228000  0.41427000  1.0
  C  C25  1  0.64396000  0.27772000  0.58573000  1.0
  C  C26  1  0.08022000  0.76686000  0.27828000  1.0
  C  C27  1  0.91978000  0.23314000  0.72172000  1.0
  C  C28  1  0.43483000  0.75219000  0.17431000  1.0
  C  C29  1  0.56517000  0.24781000  0.82569000  1.0
  C  C30  1  0.00151000  0.77099000  0.14925000  1.0
  C  C31  1  0.99849000  0.22901000  0.85075000  1.0
  O  O32  1  0.39242000  0.91332000  0.10525000  1.0
  O  O33  1  0.60757000  0.08668000  0.89475000  1.0
  O  O34  1  0.83392000  0.91173000  0.12436000  1.0
  O  O35  1  0.16608000  0.08827000  0.87563000  1.0
  O  O36  1  0.09732000  0.62588000  0.07021000  1.0
  O  O37  1  0.90268000  0.37412000  0.92980000  1.0
  O  O38  1  0.93051000  0.72583000  0.74134000  1.0
  O  O39  1  0.06949000  0.27416000  0.25866000  1.0
  O  O40  1  0.60160000  0.59843000  0.14994000  1.0
  O  O41  1  0.39840000  0.40158000  0.85006000  1.0
  O  O42  1  0.68246000  0.76140000  0.60826000  1.0
  O  O43  1  0.31754000  0.23860000  0.39174000  1.0
  O  O44  1  0.52857000  0.25920000  0.17756000  1.0
  O  O45  1  0.47143000  0.74080000  0.82244000  1.0
