# generated using pymatgen
data_Tb3H19C30O23
_symmetry_space_group_name_H-M   'P 1'
_cell_length_a   10.12060000
_cell_length_b   12.14630000
_cell_length_c   14.69880000
_cell_angle_alpha   69.17700000
_cell_angle_beta   84.77220000
_cell_angle_gamma   75.62160000
_symmetry_Int_Tables_number   1
_chemical_formula_structural   Tb3H19C30O23
_chemical_formula_sum   'Tb6 H38 C60 O46'
_cell_volume   1635.96231033
_cell_formula_units_Z   2
loop_
 _symmetry_equiv_pos_site_id
 _symmetry_equiv_pos_as_xyz
  1  'x, y, z'
loop_
 _atom_site_type_symbol
 _atom_site_label
 _atom_site_symmetry_multiplicity
 _atom_site_fract_x
 _atom_site_fract_y
 _atom_site_fract_z
 _atom_site_occupancy
  Tb  Tb0  1  0.74807000  0.98519000  0.40133000  1.0
  Tb  Tb1  1  0.25193000  0.01482000  0.59867000  1.0
  Tb  Tb2  1  0.85982000  0.48005000  0.28332000  1.0
  Tb  Tb3  1  0.14018000  0.51995000  0.71668000  1.0
  Tb  Tb4  1  0.99420000  0.78842000  0.04848000  1.0
  Tb  Tb5  1  0.00580000  0.21158000  0.95152000  1.0
  H  H6  1  0.21849000  0.29993000  0.34873000  1.0
  H  H7  1  0.78151000  0.70007000  0.65128000  1.0
  H  H8  1  0.38508000  0.54783000  0.10617000  1.0
  H  H9  1  0.61492000  0.45217000  0.89384000  1.0
  H  H10  1  0.59450000  0.39075000  0.11526000  1.0
  H  H11  1  0.40550000  0.60925000  0.88474000  1.0
  H  H12  1  0.78183000  0.27155000  0.17833000  1.0
  H  H13  1  0.21817000  0.72845000  0.82167000  1.0
  H  H14  1  0.70289000  0.23187000  0.09385000  1.0
  H  H15  1  0.29711000  0.76813000  0.90615000  1.0
  H  H16  1  0.50980000  0.80206000  0.45514000  1.0
  H  H17  1  0.49020000  0.19794000  0.54486000  1.0
  H  H18  1  0.46159000  0.48006000  0.68968000  1.0
  H  H19  1  0.53841000  0.51994000  0.31032000  1.0
  H  H20  1  0.66806000  0.36347000  0.63916000  1.0
  H  H21  1  0.33194000  0.63653000  0.36084000  1.0
  H  H22  1  0.80703000  0.27667000  0.57751000  1.0
  H  H23  1  0.19297000  0.72333000  0.42249000  1.0
  H  H24  1  0.92999000  0.34477000  0.60277000  1.0
  H  H25  1  0.07001000  0.65523000  0.39723000  1.0
  H  H26  1  0.43484000  0.75190000  0.12539000  1.0
  H  H27  1  0.56516000  0.24810000  0.87461000  1.0
  H  H28  1  0.38796000  0.03415000  0.84419000  1.0
  H  H29  1  0.61205000  0.96585000  0.15581000  1.0
  H  H30  1  0.63550000  0.96573000  0.80998000  1.0
  H  H31  1  0.36450000  0.03427000  0.19002000  1.0
  H  H32  1  0.84589000  0.79328000  0.79128000  1.0
  H  H33  1  0.15411000  0.20671000  0.20872000  1.0
  H  H34  1  0.78361000  0.66969000  0.87545000  1.0
  H  H35  1  0.21639000  0.33031000  0.12455000  1.0
  H  H36  1  0.03674000  0.02651000  0.39560000  1.0
  H  H37  1  0.96326000  0.97349000  0.60440000  1.0
  H  H38  1  0.95422000  0.15957000  0.38288000  1.0
  H  H39  1  0.04577000  0.84043000  0.61712000  1.0
  H  H40  1  0.90916000  0.74463000  0.24946000  1.0
  H  H41  1  0.09085000  0.25537000  0.75054000  1.0
  H  H42  1  0.94205000  0.87241000  0.22183000  1.0
  H  H43  1  0.05795000  0.12759000  0.77817000  1.0
  C  C44  1  0.52382000  0.25150000  0.23474000  1.0
  C  C45  1  0.47618000  0.74850000  0.76526000  1.0
  C  C46  1  0.41602000  0.22524000  0.30224000  1.0
  C  C47  1  0.58398000  0.77476000  0.69776000  1.0
  C  C48  1  0.30118000  0.31944000  0.29725000  1.0
  C  C49  1  0.69882000  0.68056000  0.70275000  1.0
  C  C50  1  0.28830000  0.43445000  0.22724000  1.0
  C  C51  1  0.71170000  0.56555000  0.77276000  1.0
  C  C52  1  0.39461000  0.45781000  0.16066000  1.0
  C  C53  1  0.60538000  0.54219000  0.83935000  1.0
  C  C54  1  0.51134000  0.36796000  0.16493000  1.0
  C  C55  1  0.48866000  0.63205000  0.83507000  1.0
  C  C56  1  0.74522000  0.19919000  0.16745000  1.0
  C  C57  1  0.25478000  0.80082000  0.83255000  1.0
  C  C58  1  0.86312000  0.09056000  0.17776000  1.0
  C  C59  1  0.13688000  0.90944000  0.82224000  1.0
  C  C60  1  0.41561000  0.10476000  0.38007000  1.0
  C  C61  1  0.58440000  0.89524000  0.61993000  1.0
  C  C62  1  0.15994000  0.52956000  0.21685000  1.0
  C  C63  1  0.84006000  0.47044000  0.78315000  1.0
  C  C64  1  0.70260000  0.51339000  0.51167000  1.0
  C  C65  1  0.29740000  0.48662000  0.48833000  1.0
  C  C66  1  0.65876000  0.63928000  0.46131000  1.0
  C  C67  1  0.34124000  0.36073000  0.53869000  1.0
  C  C68  1  0.54150000  0.70458000  0.49292000  1.0
  C  C69  1  0.45850000  0.29543000  0.50708000  1.0
  C  C70  1  0.46623000  0.64781000  0.57206000  1.0
  C  C71  1  0.53377000  0.35219000  0.42794000  1.0
  C  C72  1  0.51419000  0.52436000  0.62399000  1.0
  C  C73  1  0.48581000  0.47564000  0.37601000  1.0
  C  C74  1  0.63225000  0.45819000  0.59524000  1.0
  C  C75  1  0.36775000  0.54181000  0.40476000  1.0
  C  C76  1  0.88127000  0.33232000  0.54434000  1.0
  C  C77  1  0.11873000  0.66768000  0.45566000  1.0
  C  C78  1  0.98269000  0.26086000  0.49157000  1.0
  C  C79  1  0.01731000  0.73914000  0.50843000  1.0
  C  C80  1  0.73259000  0.70937000  0.37726000  1.0
  C  C81  1  0.26742000  0.29063000  0.62274000  1.0
  C  C82  1  0.34268000  0.71983000  0.60490000  1.0
  C  C83  1  0.65732000  0.28017000  0.39510000  1.0
  C  C84  1  0.67395000  0.82711000  0.95101000  1.0
  C  C85  1  0.32605000  0.17289000  0.04899000  1.0
  C  C86  1  0.61997000  0.76596000  0.04141000  1.0
  C  C87  1  0.38003000  0.23404000  0.95859000  1.0
  C  C88  1  0.47909000  0.80041000  0.05694000  1.0
  C  C89  1  0.52091000  0.19958000  0.94306000  1.0
  C  C90  1  0.39574000  0.89817000  0.98738000  1.0
  C  C91  1  0.60426000  0.10183000  0.01262000  1.0
  C  C92  1  0.45285000  0.95847000  0.89855000  1.0
  C  C93  1  0.54715000  0.04153000  0.10145000  1.0
  C  C94  1  0.59079000  0.92068000  0.87944000  1.0
  C  C95  1  0.40921000  0.07932000  0.12056000  1.0
  C  C96  1  0.85192000  0.73031000  0.86696000  1.0
  C  C97  1  0.14808000  0.26969000  0.13304000  1.0
  C  C98  1  0.99707000  0.65451000  0.88899000  1.0
  C  C99  1  0.00293000  0.34549000  0.11101000  1.0
  C  C100  1  0.70800000  0.66849000  0.12066000  1.0
  C  C101  1  0.29200000  0.33151000  0.87934000  1.0
  C  C102  1  0.24538000  0.93810000  0.00541000  1.0
  C  C103  1  0.75462000  0.06190000  0.99459000  1.0
  O  O104  1  0.64205000  0.16396000  0.23950000  1.0
  O  O105  1  0.35795000  0.83604000  0.76049000  1.0
  O  O106  1  0.95425000  0.10029000  0.11301000  1.0
  O  O107  1  0.04575000  0.89972000  0.88699000  1.0
  O  O108  1  0.86291000  0.99549000  0.25128000  1.0
  O  O109  1  0.13709000  0.00451000  0.74872000  1.0
  O  O110  1  0.51755000  0.01618000  0.38739000  1.0
  O  O111  1  0.48245000  0.98382000  0.61261000  1.0
  O  O112  1  0.31042000  0.09680000  0.43489000  1.0
  O  O113  1  0.68958000  0.90320000  0.56511000  1.0
  O  O114  1  0.06951000  0.51342000  0.28429000  1.0
  O  O115  1  0.93049000  0.48658000  0.71571000  1.0
  O  O116  1  0.14636000  0.61987000  0.13906000  1.0
  O  O117  1  0.85364000  0.38013000  0.86095000  1.0
  O  O118  1  0.81503000  0.44857000  0.47674000  1.0
  O  O119  1  0.18497000  0.55143000  0.52326000  1.0
  O  O120  1  0.05317000  0.16166000  0.54587000  1.0
  O  O121  1  0.94682000  0.83834000  0.45413000  1.0
  O  O122  1  0.98486000  0.29851000  0.39930000  1.0
  O  O123  1  0.01514000  0.70149000  0.60070000  1.0
  O  O124  1  0.80330000  0.65565000  0.32167000  1.0
  O  O125  1  0.19670000  0.34435000  0.67834000  1.0
  O  O126  1  0.72183000  0.81994000  0.36318000  1.0
  O  O127  1  0.27817000  0.18006000  0.63681000  1.0
  O  O128  1  0.31930000  0.83471000  0.56764000  1.0
  O  O129  1  0.68070000  0.16529000  0.43236000  1.0
  O  O130  1  0.26767000  0.66293000  0.67010000  1.0
  O  O131  1  0.73233000  0.33707000  0.32990000  1.0
  O  O132  1  0.81295000  0.79520000  0.93390000  1.0
  O  O133  1  0.18705000  0.20480000  0.06610000  1.0
  O  O134  1  0.05035000  0.60451000  0.82734000  1.0
  O  O135  1  0.94965000  0.39549000  0.17266000  1.0
  O  O136  1  0.05584000  0.64683000  0.96341000  1.0
  O  O137  1  0.94416000  0.35317000  0.03659000  1.0
  O  O138  1  0.83573000  0.66434000  0.12571000  1.0
  O  O139  1  0.16427000  0.33566000  0.87429000  1.0
  O  O140  1  0.65561000  0.58950000  0.18519000  1.0
  O  O141  1  0.34439000  0.41050000  0.81481000  1.0
  O  O142  1  0.18438000  0.85806000  0.05909000  1.0
  O  O143  1  0.81562000  0.14195000  0.94091000  1.0
  O  O144  1  0.18819000  0.04881000  0.96309000  1.0
  O  O145  1  0.81182000  0.95119000  0.03691000  1.0
  O  O146  1  0.94571000  0.07909000  0.38612000  1.0
  O  O147  1  0.05429000  0.92091000  0.61388000  1.0
  O  O148  1  0.97141000  0.79484000  0.20887000  1.0
  O  O149  1  0.02859000  0.20516000  0.79113000  1.0
