# generated using pymatgen
data_Zn2H19C33N2ClO9
_symmetry_space_group_name_H-M   'P 1'
_cell_length_a   9.71462000
_cell_length_b   11.04290000
_cell_length_c   17.70960000
_cell_angle_alpha   90.84980000
_cell_angle_beta   89.53780000
_cell_angle_gamma   89.98900000
_symmetry_Int_Tables_number   1
_chemical_formula_structural   Zn2H19C33N2ClO9
_chemical_formula_sum   'Zn2 H19 C33 N2 Cl1 O9'
_cell_volume   1899.57211751
_cell_formula_units_Z   1
loop_
 _symmetry_equiv_pos_site_id
 _symmetry_equiv_pos_as_xyz
  1  'x, y, z'
loop_
 _atom_site_type_symbol
 _atom_site_label
 _atom_site_symmetry_multiplicity
 _atom_site_fract_x
 _atom_site_fract_y
 _atom_site_fract_z
 _atom_site_occupancy
  Zn  Zn0  1  0.63943000  0.51614000  0.49952000  1.0
  Zn  Zn1  1  0.35553000  0.51486000  0.49927000  1.0
  H  H2  1  0.70542000  0.37631000  0.12279000  1.0
  H  H3  1  0.28463000  0.90187000  0.53101000  1.0
  H  H4  1  0.79709000  0.90702000  0.42655000  1.0
  H  H5  1  0.83776000  0.12118000  0.53681000  1.0
  H  H6  1  0.80724000  0.13475000  0.43774000  1.0
  H  H7  1  0.12944000  0.61712000  0.39978000  1.0
  H  H8  1  0.86917000  0.61923000  0.40032000  1.0
  H  H9  1  0.86556000  0.44582000  0.67093000  1.0
  H  H10  1  0.86244000  0.30734000  0.61726000  1.0
  H  H11  1  0.12780000  0.44058000  0.66989000  1.0
  H  H12  1  0.71001000  0.42175000  0.26151000  1.0
  H  H13  1  0.12436000  0.30343000  0.61559000  1.0
  H  H14  1  0.27466000  0.48671000  0.26114000  1.0
  H  H15  1  0.26799000  0.44295000  0.12233000  1.0
  H  H16  1  0.62740000  0.28009000  0.85297000  1.0
  H  H17  1  0.63215000  0.33507000  0.71745000  1.0
  H  H18  1  0.33985000  0.57013000  0.89804000  1.0
  H  H19  1  0.28406000  0.12714000  0.52998000  1.0
  H  H20  1  0.25429000  0.69118000  0.80561000  1.0
  C  C21  1  0.50062000  0.27958000  0.50686000  1.0
  C  C22  1  0.48674000  0.40874000  0.11303000  1.0
  C  C23  1  0.48513000  0.39724000  0.03323000  1.0
  C  C24  1  0.48494000  0.39996000  0.96432000  1.0
  C  C25  1  0.56604000  0.35592000  0.83338000  1.0
  C  C26  1  0.56925000  0.38742000  0.75745000  1.0
  C  C27  1  0.49224000  0.48483000  0.73098000  1.0
  C  C28  1  0.40883000  0.55096000  0.78264000  1.0
  C  C29  1  0.40385000  0.51790000  0.85841000  1.0
  C  C30  1  0.48406000  0.42184000  0.88563000  1.0
  C  C31  1  0.62308000  0.07766000  0.50470000  1.0
  C  C32  1  0.49364000  0.50876000  0.64755000  1.0
  C  C33  1  0.50233000  0.14506000  0.51230000  1.0
  C  C34  1  0.38058000  0.07777000  0.52276000  1.0
  C  C35  1  0.38053000  0.95134000  0.52276000  1.0
  C  C36  1  0.50191000  0.88383000  0.51039000  1.0
  C  C37  1  0.62242000  0.95130000  0.50271000  1.0
  C  C38  1  0.77414000  0.94459000  0.48289000  1.0
  C  C39  1  0.77632000  0.08720000  0.48923000  1.0
  C  C40  1  0.06822000  0.46547000  0.55133000  1.0
  C  C41  1  0.07020000  0.57315000  0.44415000  1.0
  C  C42  1  0.92652000  0.57424000  0.44448000  1.0
  C  C43  1  0.49848000  0.74926000  0.50306000  1.0
  C  C44  1  0.92476000  0.46687000  0.55172000  1.0
  C  C45  1  0.91328000  0.39559000  0.62362000  1.0
  C  C46  1  0.07721000  0.39322000  0.62286000  1.0
  C  C47  1  0.49671000  0.49057000  0.35193000  1.0
  C  C48  1  0.61119000  0.40039000  0.15327000  1.0
  C  C49  1  0.61393000  0.42608000  0.23029000  1.0
  C  C50  1  0.49310000  0.45936000  0.26928000  1.0
  C  C51  1  0.36831000  0.46302000  0.23005000  1.0
  C  C52  1  0.36461000  0.43824000  0.15301000  1.0
  C  C53  1  0.33208000  0.66150000  0.76206000  1.0
  N  N54  1  0.14425000  0.51713000  0.49827000  1.0
  N  N55  1  0.85057000  0.51939000  0.49891000  1.0
  Cl  Cl56  1  0.88676000  0.86828000  0.54668000  1.0
  O  O57  1  0.61594000  0.33341000  0.51552000  1.0
  O  O58  1  0.38582000  0.32981000  0.49308000  1.0
  O  O59  1  0.60897000  0.53292000  0.61724000  1.0
  O  O60  1  0.37924000  0.49408000  0.61445000  1.0
  O  O61  1  0.61333000  0.69711000  0.48901000  1.0
  O  O62  1  0.38247000  0.69716000  0.51003000  1.0
  O  O63  1  0.61303000  0.48508000  0.38459000  1.0
  O  O64  1  0.38287000  0.51997000  0.38364000  1.0
  O  O65  1  0.35089000  0.72026000  0.70498000  1.0
