# generated using pymatgen
data_K2H16PtC6I2(NO3)2
_symmetry_space_group_name_H-M   'P 1'
_cell_length_a   5.00551000
_cell_length_b   6.97009000
_cell_length_c   24.23450000
_cell_angle_alpha   89.99980000
_cell_angle_beta   90.00000000
_cell_angle_gamma   94.36760000
_symmetry_Int_Tables_number   1
_chemical_formula_structural   K2H16PtC6I2(NO3)2
_chemical_formula_sum   'K4 H32 Pt2 C12 I4 N4 O12'
_cell_volume   843.05856874
_cell_formula_units_Z   2
loop_
 _symmetry_equiv_pos_site_id
 _symmetry_equiv_pos_as_xyz
  1  'x, y, z'
loop_
 _atom_site_type_symbol
 _atom_site_label
 _atom_site_symmetry_multiplicity
 _atom_site_fract_x
 _atom_site_fract_y
 _atom_site_fract_z
 _atom_site_occupancy
  K  K0  1  0.49976000  0.18242000  0.30106000  1.0
  K  K1  1  0.50022000  0.31757000  0.80106000  1.0
  K  K2  1  0.50024000  0.81757000  0.69894000  1.0
  K  K3  1  0.49977000  0.68243000  0.19895000  1.0
  H  H4  1  0.44702000  0.49684000  0.60925000  1.0
  H  H5  1  0.55298000  0.00316000  0.10925000  1.0
  H  H6  1  0.55299000  0.50316000  0.39075000  1.0
  H  H7  1  0.44702000  0.99684000  0.89075000  1.0
  H  H8  1  0.24648000  0.35013000  0.65445000  1.0
  H  H9  1  0.75352000  0.14987000  0.15445000  1.0
  H  H10  1  0.75352000  0.64987000  0.34555000  1.0
  H  H11  1  0.24648000  0.85013000  0.84555000  1.0
  H  H12  1  0.39856000  0.05571000  0.59812000  1.0
  H  H13  1  0.60143000  0.44430000  0.09812000  1.0
  H  H14  1  0.60144000  0.94429000  0.40188000  1.0
  H  H15  1  0.39857000  0.55571000  0.90188000  1.0
  H  H16  1  0.51884000  0.22329000  0.54804000  1.0
  H  H17  1  0.48115000  0.27671000  0.04804000  1.0
  H  H18  1  0.48116000  0.77671000  0.45196000  1.0
  H  H19  1  0.51885000  0.72329000  0.95196000  1.0
  H  H20  1  0.07530000  0.33812000  0.54429000  1.0
  H  H21  1  0.92470000  0.16188000  0.04429000  1.0
  H  H22  1  0.92470000  0.66188000  0.45571000  1.0
  H  H23  1  0.07530000  0.83812000  0.95571000  1.0
  H  H24  1  0.96784000  0.18206000  0.59235000  1.0
  H  H25  1  0.03216000  0.31794000  0.09235000  1.0
  H  H26  1  0.03217000  0.81794000  0.40765000  1.0
  H  H27  1  0.96784000  0.68206000  0.90765000  1.0
  H  H28  1  0.98396000  0.48632000  0.26306000  1.0
  H  H29  1  0.01604000  0.01368000  0.76306000  1.0
  H  H30  1  0.01604000  0.51368000  0.73694000  1.0
  H  H31  1  0.98396000  0.98632000  0.23694000  1.0
  H  H32  1  0.96896000  0.37388000  0.20818000  1.0
  H  H33  1  0.03104000  0.12612000  0.70818000  1.0
  H  H34  1  0.03104000  0.62613000  0.79182000  1.0
  H  H35  1  0.96896000  0.87387000  0.29182000  1.0
  Pt  Pt36  1  0.00000000  0.00000000  0.50000000  1.0
  Pt  Pt37  1  0.00000000  0.50000000  0.00000000  1.0
  C  C38  1  0.66173000  0.32688000  0.66502000  1.0
  C  C39  1  0.33827000  0.17312000  0.16502000  1.0
  C  C40  1  0.33828000  0.67312000  0.33498000  1.0
  C  C41  1  0.66173000  0.82688000  0.83498000  1.0
  C  C42  1  0.42354000  0.35189000  0.62741000  1.0
  C  C43  1  0.57646000  0.14811000  0.12741000  1.0
  C  C44  1  0.57646000  0.64811000  0.37259000  1.0
  C  C45  1  0.42353000  0.85189000  0.87259000  1.0
  C  C46  1  0.37629000  0.20088000  0.58233000  1.0
  C  C47  1  0.62371000  0.29913000  0.08233000  1.0
  C  C48  1  0.62371000  0.79913000  0.41767000  1.0
  C  C49  1  0.37629000  0.70087000  0.91767000  1.0
  I  I50  1  0.04653000  0.26806000  0.42458000  1.0
  I  I51  1  0.95347000  0.23194000  0.92458000  1.0
  I  I52  1  0.95347000  0.73193000  0.57542000  1.0
  I  I53  1  0.04653000  0.76807000  0.07542000  1.0
  N  N54  1  0.10080000  0.20297000  0.55967000  1.0
  N  N55  1  0.89919000  0.29704000  0.05967000  1.0
  N  N56  1  0.89920000  0.79704000  0.44033000  1.0
  N  N57  1  0.10080000  0.70296000  0.94033000  1.0
  O  O58  1  0.71727000  0.45923000  0.70018000  1.0
  O  O59  1  0.28273000  0.04076000  0.20018000  1.0
  O  O60  1  0.28273000  0.54075000  0.29982000  1.0
  O  O61  1  0.71727000  0.95924000  0.79982000  1.0
  O  O62  1  0.78769000  0.17506000  0.66009000  1.0
  O  O63  1  0.21231000  0.32494000  0.16009000  1.0
  O  O64  1  0.21231000  0.82494000  0.33991000  1.0
  O  O65  1  0.78769000  0.67506000  0.83991000  1.0
  O  O66  1  0.85035000  0.42650000  0.23662000  1.0
  O  O67  1  0.14965000  0.07351000  0.73662000  1.0
  O  O68  1  0.14965000  0.57351000  0.76338000  1.0
  O  O69  1  0.85035000  0.92649000  0.26338000  1.0
