# generated using pymatgen
data_MnH22C16I4(NO4)2
_symmetry_space_group_name_H-M   'P 1'
_cell_length_a   8.44184000
_cell_length_b   11.48610000
_cell_length_c   13.80100000
_cell_angle_alpha   90.00000000
_cell_angle_beta   90.00000000
_cell_angle_gamma   101.60900000
_symmetry_Int_Tables_number   1
_chemical_formula_structural   MnH22C16I4(NO4)2
_chemical_formula_sum   'Mn2 H44 C32 I8 N4 O16'
_cell_volume   1310.82302144
_cell_formula_units_Z   2
loop_
 _symmetry_equiv_pos_site_id
 _symmetry_equiv_pos_as_xyz
  1  'x, y, z'
loop_
 _atom_site_type_symbol
 _atom_site_label
 _atom_site_symmetry_multiplicity
 _atom_site_fract_x
 _atom_site_fract_y
 _atom_site_fract_z
 _atom_site_occupancy
  Mn  Mn0  1  0.50001000  0.00001000  0.00000000  1.0
  Mn  Mn1  1  0.99999000  0.50000000  0.50000000  1.0
  H  H2  1  0.46194000  0.86709000  0.80149000  1.0
  H  H3  1  0.03806000  0.63291000  0.30149000  1.0
  H  H4  1  0.53806000  0.13290000  0.19850000  1.0
  H  H5  1  0.96194000  0.36709000  0.69851000  1.0
  H  H6  1  0.62620000  0.13560000  0.62530000  1.0
  H  H7  1  0.87382000  0.36440000  0.12530000  1.0
  H  H8  1  0.37382000  0.86441000  0.37470000  1.0
  H  H9  1  0.12619000  0.63560000  0.87470000  1.0
  H  H10  1  0.77948000  0.05152000  0.60572000  1.0
  H  H11  1  0.72053000  0.44847000  0.10572000  1.0
  H  H12  1  0.22052000  0.94848000  0.39428000  1.0
  H  H13  1  0.27947000  0.55152000  0.89428000  1.0
  H  H14  1  0.76239000  0.11894000  0.72139000  1.0
  H  H15  1  0.73762000  0.38105000  0.22139000  1.0
  H  H16  1  0.23762000  0.88105000  0.27862000  1.0
  H  H17  1  0.26238000  0.61894000  0.77862000  1.0
  H  H18  1  0.43422000  0.80688000  0.65392000  1.0
  H  H19  1  0.06577000  0.69312000  0.15392000  1.0
  H  H20  1  0.56578000  0.19312000  0.34608000  1.0
  H  H21  1  0.93422000  0.30688000  0.84608000  1.0
  H  H22  1  0.61322000  0.84428000  0.58277000  1.0
  H  H23  1  0.88677000  0.65572000  0.08277000  1.0
  H  H24  1  0.38679000  0.15572000  0.41722000  1.0
  H  H25  1  0.11322000  0.34428000  0.91723000  1.0
  H  H26  1  0.44972000  0.92169000  0.56571000  1.0
  H  H27  1  0.05028000  0.57832000  0.06571000  1.0
  H  H28  1  0.55028000  0.07831000  0.43429000  1.0
  H  H29  1  0.94972000  0.42168000  0.93429000  1.0
  H  H30  1  0.16128000  0.80455000  0.99449000  1.0
  H  H31  1  0.33874000  0.69545000  0.49448000  1.0
  H  H32  1  0.83874000  0.19544000  0.00551000  1.0
  H  H33  1  0.66127000  0.30456000  0.50552000  1.0
  H  H34  1  0.01241000  0.87948000  0.94576000  1.0
  H  H35  1  0.48760000  0.62052000  0.44576000  1.0
  H  H36  1  0.98760000  0.12051000  0.05424000  1.0
  H  H37  1  0.51240000  0.37948000  0.55424000  1.0
  H  H38  1  0.10492000  0.92308000  0.06082000  1.0
  H  H39  1  0.39509000  0.57692000  0.56082000  1.0
  H  H40  1  0.89509000  0.07692000  0.93918000  1.0
  H  H41  1  0.60491000  0.42308000  0.43918000  1.0
  H  H42  1  0.23633000  0.05339000  0.93701000  1.0
  H  H43  1  0.26367000  0.44661000  0.43701000  1.0
  H  H44  1  0.76368000  0.94660000  0.06299000  1.0
  H  H45  1  0.73631000  0.55340000  0.56299000  1.0
  C  C46  1  0.39969000  0.24169000  0.97946000  1.0
  C  C47  1  0.10031000  0.25831000  0.47946000  1.0
  C  C48  1  0.60031000  0.75832000  0.02054000  1.0
  C  C49  1  0.89966000  0.74169000  0.52055000  1.0
  C  C50  1  0.44743000  0.37603000  0.98919000  1.0
  C  C51  1  0.05257000  0.12397000  0.48919000  1.0
  C  C52  1  0.55257000  0.62397000  0.01081000  1.0
  C  C53  1  0.94743000  0.87603000  0.51082000  1.0
  C  C54  1  0.53926000  0.44366000  0.91641000  1.0
  C  C55  1  0.96074000  0.05634000  0.41641000  1.0
  C  C56  1  0.46074000  0.55634000  0.08359000  1.0
  C  C57  1  0.03926000  0.94366000  0.58360000  1.0
  C  C58  1  0.59303000  0.56676000  0.92710000  1.0
  C  C59  1  0.90698000  0.93324000  0.42710000  1.0
  C  C60  1  0.40698000  0.43324000  0.07290000  1.0
  C  C61  1  0.09302000  0.06677000  0.57290000  1.0
  C  C62  1  0.54601000  0.95156000  0.78572000  1.0
  C  C63  1  0.95399000  0.54845000  0.28572000  1.0
  C  C64  1  0.45400000  0.04845000  0.21429000  1.0
  C  C65  1  0.04601000  0.45155000  0.71429000  1.0
  C  C66  1  0.69515000  0.07464000  0.65929000  1.0
  C  C67  1  0.80486000  0.42536000  0.15929000  1.0
  C  C68  1  0.30486000  0.92536000  0.34072000  1.0
  C  C69  1  0.19514000  0.57463000  0.84072000  1.0
  C  C70  1  0.51787000  0.88038000  0.61927000  1.0
  C  C71  1  0.98212000  0.61962000  0.11928000  1.0
  C  C72  1  0.48213000  0.11962000  0.38072000  1.0
  C  C73  1  0.01787000  0.38037000  0.88073000  1.0
  C  C74  1  0.12520000  0.89075000  0.98774000  1.0
  C  C75  1  0.37481000  0.60925000  0.48774000  1.0
  C  C76  1  0.87481000  0.10925000  0.01226000  1.0
  C  C77  1  0.62519000  0.39075000  0.51226000  1.0
  I  I78  1  0.58429000  0.35751000  0.78748000  1.0
  I  I79  1  0.91572000  0.14249000  0.28748000  1.0
  I  I80  1  0.41570000  0.64249000  0.21251000  1.0
  I  I81  1  0.08429000  0.85751000  0.71252000  1.0
  I  I82  1  0.73628000  0.66988000  0.81998000  1.0
  I  I83  1  0.76371000  0.83012000  0.31998000  1.0
  I  I84  1  0.26374000  0.33012000  0.18003000  1.0
  I  I85  1  0.23628000  0.16988000  0.68002000  1.0
  N  N86  1  0.58663000  0.96728000  0.69227000  1.0
  N  N87  1  0.91336000  0.53271000  0.19228000  1.0
  N  N88  1  0.41338000  0.03271000  0.30772000  1.0
  N  N89  1  0.08663000  0.46728000  0.80773000  1.0
  O  O90  1  0.50558000  0.18612000  0.01071000  1.0
  O  O91  1  0.99442000  0.31388000  0.51070000  1.0
  O  O92  1  0.49442000  0.81388000  0.98929000  1.0
  O  O93  1  0.00556000  0.68611000  0.48931000  1.0
  O  O94  1  0.26427000  0.19833000  0.94216000  1.0
  O  O95  1  0.23574000  0.30167000  0.44216000  1.0
  O  O96  1  0.73574000  0.80167000  0.05783000  1.0
  O  O97  1  0.76424000  0.69834000  0.55783000  1.0
  O  O98  1  0.25477000  0.96894000  0.93902000  1.0
  O  O99  1  0.24523000  0.53106000  0.43902000  1.0
  O  O100  1  0.74524000  0.03106000  0.06098000  1.0
  O  O101  1  0.75476000  0.46895000  0.56098000  1.0
  O  O102  1  0.59819000  0.02463000  0.85153000  1.0
  O  O103  1  0.90182000  0.47537000  0.35154000  1.0
  O  O104  1  0.40182000  0.97536000  0.14847000  1.0
  O  O105  1  0.09818000  0.52463000  0.64847000  1.0
