# generated using pymatgen
data_DyH21C36(NO4)2
_symmetry_space_group_name_H-M   'P 1'
_cell_length_a   10.77710000
_cell_length_b   12.09750000
_cell_length_c   12.33650000
_cell_angle_alpha   94.38280000
_cell_angle_beta   106.55100000
_cell_angle_gamma   100.75500000
_symmetry_Int_Tables_number   1
_chemical_formula_structural   DyH21C36(NO4)2
_chemical_formula_sum   'Dy2 H42 C72 N4 O16'
_cell_volume   1500.25319621
_cell_formula_units_Z   2
loop_
 _symmetry_equiv_pos_site_id
 _symmetry_equiv_pos_as_xyz
  1  'x, y, z'
loop_
 _atom_site_type_symbol
 _atom_site_label
 _atom_site_symmetry_multiplicity
 _atom_site_fract_x
 _atom_site_fract_y
 _atom_site_fract_z
 _atom_site_occupancy
  Dy  Dy0  1  0.08883000  0.30894000  0.49981000  1.0
  Dy  Dy1  1  0.91117000  0.69106000  0.50019000  1.0
  H  H2  1  0.27498000  0.57319000  0.52024000  1.0
  H  H3  1  0.72502000  0.42681000  0.47976000  1.0
  H  H4  1  0.50996000  0.68627000  0.59031000  1.0
  H  H5  1  0.49005000  0.31373000  0.40969000  1.0
  H  H6  1  0.68778000  0.59782000  0.70027000  1.0
  H  H7  1  0.31223000  0.40218000  0.29973000  1.0
  H  H8  1  0.10716000  0.06412000  0.61126000  1.0
  H  H9  1  0.89284000  0.93588000  0.38874000  1.0
  H  H10  1  0.26740000  0.95927000  0.72422000  1.0
  H  H11  1  0.73260000  0.04073000  0.27578000  1.0
  H  H12  1  0.50656000  0.05443000  0.80232000  1.0
  H  H13  1  0.49344000  0.94557000  0.19768000  1.0
  H  H14  1  0.68638000  0.22883000  0.82329000  1.0
  H  H15  1  0.31362000  0.77117000  0.17671000  1.0
  H  H16  1  0.75116000  0.42761000  0.78916000  1.0
  H  H17  1  0.24884000  0.57239000  0.21084000  1.0
  H  H18  1  0.27462000  0.20781000  0.19179000  1.0
  H  H19  1  0.72538000  0.79219000  0.80822000  1.0
  H  H20  1  0.88340000  0.02765000  0.17227000  1.0
  H  H21  1  0.11660000  0.97235000  0.82773000  1.0
  H  H22  1  0.74788000  0.89211000  0.99865000  1.0
  H  H23  1  0.25212000  0.10789000  0.00135000  1.0
  H  H24  1  0.02683000  0.30487000  0.77577000  1.0
  H  H25  1  0.97317000  0.69513000  0.22423000  1.0
  H  H26  1  0.98430000  0.64875000  0.83696000  1.0
  H  H27  1  0.01569000  0.35125000  0.16304000  1.0
  H  H28  1  0.97560000  0.72529000  0.02702000  1.0
  H  H29  1  0.02439000  0.27471000  0.97298000  1.0
  H  H30  1  0.60066000  0.17560000  0.39494000  1.0
  H  H31  1  0.39934000  0.82440000  0.60506000  1.0
  H  H32  1  0.83928000  0.04691000  0.67866000  1.0
  H  H33  1  0.16072000  0.95309000  0.32134000  1.0
  H  H34  1  0.64011000  0.90620000  0.68303000  1.0
  H  H35  1  0.35989000  0.09380000  0.31698000  1.0
  H  H36  1  0.41966000  0.19750000  0.99996000  1.0
  H  H37  1  0.58034000  0.80250000  0.00004000  1.0
  H  H38  1  0.71547000  0.49111000  0.18626000  1.0
  H  H39  1  0.28453000  0.50889000  0.81374000  1.0
  H  H40  1  0.70256000  0.68106000  0.12793000  1.0
  H  H41  1  0.29745000  0.31894000  0.87207000  1.0
  H  H42  1  0.77775000  0.27691000  0.32391000  1.0
  H  H43  1  0.22225000  0.72308000  0.67609000  1.0
  C  C44  1  0.35510000  0.53589000  0.56778000  1.0
  C  C45  1  0.64490000  0.46411000  0.43222000  1.0
  C  C46  1  0.48635000  0.59971000  0.60885000  1.0
  C  C47  1  0.51365000  0.40029000  0.39115000  1.0
  C  C48  1  0.58498000  0.55042000  0.67032000  1.0
  C  C49  1  0.41502000  0.44958000  0.32968000  1.0
  C  C50  1  0.55185000  0.43728000  0.69150000  1.0
  C  C51  1  0.44815000  0.56272000  0.30850000  1.0
  C  C52  1  0.41698000  0.37860000  0.64557000  1.0
  C  C53  1  0.58302000  0.62140000  0.35443000  1.0
  C  C54  1  0.37916000  0.26316000  0.66587000  1.0
  C  C55  1  0.62084000  0.73684000  0.33413000  1.0
  C  C56  1  0.21238000  0.10388000  0.64541000  1.0
  C  C57  1  0.78762000  0.89612000  0.35460000  1.0
  C  C58  1  0.30237000  0.04568000  0.71005000  1.0
  C  C59  1  0.69763000  0.95433000  0.28996000  1.0
  C  C60  1  0.43495000  0.09861000  0.75278000  1.0
  C  C61  1  0.56505000  0.90139000  0.24722000  1.0
  C  C62  1  0.47724000  0.21022000  0.73131000  1.0
  C  C63  1  0.52276000  0.78978000  0.26869000  1.0
  C  C64  1  0.61244000  0.27140000  0.77441000  1.0
  C  C65  1  0.38756000  0.72860000  0.22559000  1.0
  C  C66  1  0.64833000  0.38090000  0.75563000  1.0
  C  C67  1  0.35167000  0.61910000  0.24437000  1.0
  C  C68  1  0.09449000  0.17757000  0.31020000  1.0
  C  C69  1  0.90550000  0.82244000  0.68981000  1.0
  C  C70  1  0.07967000  0.12162000  0.19362000  1.0
  C  C71  1  0.92033000  0.87838000  0.80638000  1.0
  C  C72  1  0.18437000  0.14580000  0.14452000  1.0
  C  C73  1  0.81564000  0.85421000  0.85548000  1.0
  C  C74  1  0.96302000  0.04490000  0.13370000  1.0
  C  C75  1  0.03698000  0.95511000  0.86630000  1.0
  C  C76  1  0.94656000  0.98851000  0.02424000  1.0
  C  C77  1  0.05343000  0.01150000  0.97576000  1.0
  C  C78  1  0.82847000  0.90897000  0.96129000  1.0
  C  C79  1  0.17153000  0.09103000  0.03872000  1.0
  C  C80  1  0.00820000  0.49636000  0.67769000  1.0
  C  C81  1  0.99179000  0.50364000  0.32231000  1.0
  C  C82  1  0.00634000  0.47957000  0.79601000  1.0
  C  C83  1  0.99366000  0.52044000  0.20399000  1.0
  C  C84  1  0.01851000  0.37315000  0.83454000  1.0
  C  C85  1  0.98149000  0.62686000  0.16546000  1.0
  C  C86  1  0.99375000  0.56766000  0.86773000  1.0
  C  C87  1  0.00624000  0.43235000  0.13227000  1.0
  C  C88  1  0.99449000  0.55399000  0.98071000  1.0
  C  C89  1  0.00551000  0.44602000  0.01929000  1.0
  C  C90  1  0.98359000  0.64342000  0.05678000  1.0
  C  C91  1  0.01640000  0.35658000  0.94321000  1.0
  C  C92  1  0.85222000  0.19573000  0.52931000  1.0
  C  C93  1  0.14778000  0.80427000  0.47069000  1.0
  C  C94  1  0.73036000  0.12035000  0.53699000  1.0
  C  C95  1  0.26964000  0.87965000  0.46301000  1.0
  C  C96  1  0.60820000  0.11915000  0.46005000  1.0
  C  C97  1  0.39180000  0.88084000  0.53995000  1.0
  C  C98  1  0.49388000  0.03963000  0.45942000  1.0
  C  C99  1  0.50612000  0.96037000  0.54058000  1.0
  C  C100  1  0.74181000  0.04355000  0.61899000  1.0
  C  C101  1  0.25819000  0.95645000  0.38101000  1.0
  C  C102  1  0.63201000  0.96569000  0.62070000  1.0
  C  C103  1  0.36799000  0.03431000  0.37930000  1.0
  C  C104  1  0.63160000  0.26423000  0.18321000  1.0
  C  C105  1  0.36840000  0.73576000  0.81679000  1.0
  C  C106  1  0.57303000  0.33803000  0.10084000  1.0
  C  C107  1  0.42697000  0.66196000  0.89916000  1.0
  C  C108  1  0.45518000  0.28914000  0.01092000  1.0
  C  C109  1  0.54482000  0.71086000  0.98908000  1.0
  C  C110  1  0.62540000  0.45382000  0.11656000  1.0
  C  C111  1  0.37459000  0.54618000  0.88344000  1.0
  C  C112  1  0.56059000  0.52475000  0.04467000  1.0
  C  C113  1  0.43941000  0.47525000  0.95534000  1.0
  C  C114  1  0.61081000  0.64402000  0.05962000  1.0
  C  C115  1  0.38919000  0.35598000  0.94039000  1.0
  N  N116  1  0.24884000  0.20954000  0.62369000  1.0
  N  N117  1  0.75116000  0.79046000  0.37631000  1.0
  N  N118  1  0.32106000  0.42814000  0.58426000  1.0
  N  N119  1  0.67894000  0.57186000  0.41574000  1.0
  O  O120  1  0.06963000  0.43623000  0.63232000  1.0
  O  O121  1  0.93037000  0.56377000  0.36769000  1.0
  O  O122  1  0.96520000  0.18576000  0.59200000  1.0
  O  O123  1  0.03480000  0.81424000  0.40800000  1.0
  O  O124  1  0.84578000  0.26915000  0.45877000  1.0
  O  O125  1  0.15422000  0.73085000  0.54123000  1.0
  O  O126  1  0.99837000  0.15302000  0.35243000  1.0
  O  O127  1  0.00162000  0.84698000  0.64757000  1.0
  O  O128  1  0.20051000  0.25012000  0.36554000  1.0
  O  O129  1  0.79949000  0.74988000  0.63446000  1.0
  O  O130  1  0.94825000  0.56902000  0.62948000  1.0
  O  O131  1  0.05175000  0.43098000  0.37052000  1.0
  O  O132  1  0.57324000  0.16741000  0.18763000  1.0
  O  O133  1  0.42675000  0.83259000  0.81237000  1.0
  O  O134  1  0.75096000  0.31580000  0.25410000  1.0
  O  O135  1  0.24905000  0.68419000  0.74590000  1.0
