# generated using pymatgen
data_AgH10C5SIN2
_symmetry_space_group_name_H-M   'P 1'
_cell_length_a   8.57403000
_cell_length_b   13.15170000
_cell_length_c   13.77260000
_cell_angle_alpha   111.37500000
_cell_angle_beta   107.88600000
_cell_angle_gamma   90.04380000
_symmetry_Int_Tables_number   1
_chemical_formula_structural   AgH10C5SIN2
_chemical_formula_sum   'Ag6 H60 C30 S6 I6 N12'
_cell_volume   1365.14334453
_cell_formula_units_Z   6
loop_
 _symmetry_equiv_pos_site_id
 _symmetry_equiv_pos_as_xyz
  1  'x, y, z'
loop_
 _atom_site_type_symbol
 _atom_site_label
 _atom_site_symmetry_multiplicity
 _atom_site_fract_x
 _atom_site_fract_y
 _atom_site_fract_z
 _atom_site_occupancy
  Ag  Ag0  1  0.41852000  0.47007000  0.56945000  1.0
  Ag  Ag1  1  0.58148000  0.52993000  0.43055000  1.0
  Ag  Ag2  1  0.44635000  0.11548000  0.43597000  1.0
  Ag  Ag3  1  0.55365000  0.88452000  0.56403000  1.0
  Ag  Ag4  1  0.66892000  0.69172000  0.77190000  1.0
  Ag  Ag5  1  0.33108000  0.30828000  0.22809000  1.0
  H  H6  1  0.09446000  0.45038000  0.20523000  1.0
  H  H7  1  0.90554000  0.54962000  0.79477000  1.0
  H  H8  1  0.81163000  0.52753000  0.19241000  1.0
  H  H9  1  0.18837000  0.47247000  0.80759000  1.0
  H  H10  1  0.94926000  0.55896000  0.13054000  1.0
  H  H11  1  0.05074000  0.44104000  0.86947000  1.0
  H  H12  1  0.05804000  0.73790000  0.29438000  1.0
  H  H13  1  0.94196000  0.26210000  0.70562000  1.0
  H  H14  1  0.84579000  0.72300000  0.22065000  1.0
  H  H15  1  0.15421000  0.27700000  0.77935000  1.0
  H  H16  1  0.78492000  0.66281000  0.36495000  1.0
  H  H17  1  0.21508000  0.33719000  0.63505000  1.0
  H  H18  1  0.87455000  0.80080000  0.41504000  1.0
  H  H19  1  0.12545000  0.19920000  0.58496000  1.0
  H  H20  1  0.15214000  0.75177000  0.48680000  1.0
  H  H21  1  0.84786000  0.24823000  0.51320000  1.0
  H  H22  1  0.01096000  0.72511000  0.54880000  1.0
  H  H23  1  0.98905000  0.27489000  0.45120000  1.0
  H  H24  1  0.12995000  0.57222000  0.52064000  1.0
  H  H25  1  0.87005000  0.42778000  0.47936000  1.0
  H  H26  1  0.54905000  0.46010000  0.77302000  1.0
  H  H27  1  0.45095000  0.53990000  0.22698000  1.0
  H  H28  1  0.67663000  0.50073000  0.95595000  1.0
  H  H29  1  0.32337000  0.49927000  0.04405000  1.0
  H  H30  1  0.79030000  0.38934000  0.92315000  1.0
  H  H31  1  0.20970000  0.61066000  0.07685000  1.0
  H  H32  1  0.44950000  0.38265000  0.95215000  1.0
  H  H33  1  0.55051000  0.61735000  0.04785000  1.0
  H  H34  1  0.63629000  0.35391000  0.02980000  1.0
  H  H35  1  0.36371000  0.64609000  0.97020000  1.0
  H  H36  1  0.49984000  0.17527000  0.91280000  1.0
  H  H37  1  0.50016000  0.82473000  0.08720000  1.0
  H  H38  1  0.40090000  0.21237000  0.80071000  1.0
  H  H39  1  0.59910000  0.78763000  0.19929000  1.0
  H  H40  1  0.77447000  0.20197000  0.87609000  1.0
  H  H41  1  0.22553000  0.79803000  0.12391000  1.0
  H  H42  1  0.62629000  0.08932000  0.77699000  1.0
  H  H43  1  0.37371000  0.91068000  0.22301000  1.0
  H  H44  1  0.65700000  0.15254000  0.65409000  1.0
  H  H45  1  0.34299000  0.84746000  0.34591000  1.0
  H  H46  1  0.07755000  0.11744000  0.07716000  1.0
  H  H47  1  0.92245000  0.88256000  0.92284000  1.0
  H  H48  1  0.81745000  0.13709000  0.01878000  1.0
  H  H49  1  0.18255000  0.86291000  0.98122000  1.0
  H  H50  1  0.85891000  0.21112000  0.16188000  1.0
  H  H51  1  0.14108000  0.78888000  0.83812000  1.0
  H  H52  1  0.59562000  0.08945000  0.07399000  1.0
  H  H53  1  0.40438000  0.91055000  0.92601000  1.0
  H  H54  1  0.69657000  0.97150000  0.03221000  1.0
  H  H55  1  0.30343000  0.02850000  0.96779000  1.0
  H  H56  1  0.62913000  0.99777000  0.20483000  1.0
  H  H57  1  0.37087000  0.00223000  0.79516000  1.0
  H  H58  1  0.75070000  0.12723000  0.27287000  1.0
  H  H59  1  0.24929000  0.87277000  0.72713000  1.0
  H  H60  1  0.88932000  0.96797000  0.31183000  1.0
  H  H61  1  0.11067000  0.03203000  0.68817000  1.0
  H  H62  1  0.88057000  0.90948000  0.17112000  1.0
  H  H63  1  0.11943000  0.09051000  0.82888000  1.0
  H  H64  1  0.13244000  0.05193000  0.34494000  1.0
  H  H65  1  0.86755000  0.94807000  0.65506000  1.0
  C  C66  1  0.10696000  0.51281000  0.36246000  1.0
  C  C67  1  0.89304000  0.48719000  0.63754000  1.0
  C  C68  1  0.93361000  0.57095000  0.21006000  1.0
  C  C69  1  0.06639000  0.42905000  0.78995000  1.0
  C  C70  1  0.93761000  0.69254000  0.27566000  1.0
  C  C71  1  0.06239000  0.30746000  0.72434000  1.0
  C  C72  1  0.89834000  0.71489000  0.38160000  1.0
  C  C73  1  0.10166000  0.28511000  0.61840000  1.0
  C  C74  1  0.03937000  0.69953000  0.47144000  1.0
  C  C75  1  0.96063000  0.30047000  0.52856000  1.0
  C  C76  1  0.60054000  0.30556000  0.70847000  1.0
  C  C77  1  0.39946000  0.69445000  0.29153000  1.0
  C  C78  1  0.66380000  0.41185000  0.90899000  1.0
  C  C79  1  0.33620000  0.58815000  0.09100000  1.0
  C  C80  1  0.56343000  0.34671000  0.94590000  1.0
  C  C81  1  0.43657000  0.65329000  0.05410000  1.0
  C  C82  1  0.51887000  0.22504000  0.86732000  1.0
  C  C83  1  0.48113000  0.77496000  0.13268000  1.0
  C  C84  1  0.64939000  0.17969000  0.81432000  1.0
  C  C85  1  0.35061000  0.82031000  0.18567000  1.0
  C  C86  1  0.11008000  0.08445000  0.21086000  1.0
  C  C87  1  0.88992000  0.91555000  0.78914000  1.0
  C  C88  1  0.84784000  0.12814000  0.09841000  1.0
  C  C89  1  0.15215000  0.87186000  0.90159000  1.0
  C  C90  1  0.71067000  0.05393000  0.09711000  1.0
  C  C91  1  0.28933000  0.94607000  0.90288000  1.0
  C  C92  1  0.73765000  0.04501000  0.20810000  1.0
  C  C93  1  0.26235000  0.95499000  0.79190000  1.0
  C  C94  1  0.88731000  0.98753000  0.24051000  1.0
  C  C95  1  0.11268000  0.01247000  0.75949000  1.0
  S  S96  1  0.20754000  0.40251000  0.38091000  1.0
  S  S97  1  0.79246000  0.59749000  0.61909000  1.0
  S  S98  1  0.55956000  0.30894000  0.57878000  1.0
  S  S99  1  0.44044000  0.69106000  0.42122000  1.0
  S  S100  1  0.32158000  0.11625000  0.24685000  1.0
  S  S101  1  0.67842000  0.88375000  0.75315000  1.0
  I  I102  1  0.33491000  0.62935000  0.73424000  1.0
  I  I103  1  0.66509000  0.37065000  0.26576000  1.0
  I  I104  1  0.73579000  0.00287000  0.48476000  1.0
  I  I105  1  0.26422000  0.99713000  0.51524000  1.0
  I  I106  1  0.87476000  0.70317000  0.97938000  1.0
  I  I107  1  0.12525000  0.29684000  0.02062000  1.0
  N  N108  1  0.06061000  0.51458000  0.26129000  1.0
  N  N109  1  0.93938000  0.48542000  0.73871000  1.0
  N  N110  1  0.07790000  0.58641000  0.44992000  1.0
  N  N111  1  0.92210000  0.41359000  0.55009000  1.0
  N  N112  1  0.59069000  0.39488000  0.79233000  1.0
  N  N113  1  0.40931000  0.60512000  0.20767000  1.0
  N  N114  1  0.64644000  0.21351000  0.72299000  1.0
  N  N115  1  0.35356000  0.78649000  0.27701000  1.0
  N  N116  1  0.01233000  0.09110000  0.11645000  1.0
  N  N117  1  0.98767000  0.90890000  0.88355000  1.0
  N  N118  1  0.04721000  0.05253000  0.27414000  1.0
  N  N119  1  0.95279000  0.94747000  0.72586000  1.0
