# generated using pymatgen
data_YbH15C11O6
_symmetry_space_group_name_H-M   'P 1'
_cell_length_a   8.05534000
_cell_length_b   10.65040000
_cell_length_c   14.72400000
_cell_angle_alpha   90.00030000
_cell_angle_beta   90.00020000
_cell_angle_gamma   89.99980000
_symmetry_Int_Tables_number   1
_chemical_formula_structural   YbH15C11O6
_chemical_formula_sum   'Yb4 H60 C44 O24'
_cell_volume   1263.21014130
_cell_formula_units_Z   4
loop_
 _symmetry_equiv_pos_site_id
 _symmetry_equiv_pos_as_xyz
  1  'x, y, z'
loop_
 _atom_site_type_symbol
 _atom_site_label
 _atom_site_symmetry_multiplicity
 _atom_site_fract_x
 _atom_site_fract_y
 _atom_site_fract_z
 _atom_site_occupancy
  Yb  Yb0  1  0.92287000  0.29912000  0.00175000  1.0
  Yb  Yb1  1  0.57713000  0.70089000  0.50174000  1.0
  Yb  Yb2  1  0.07713000  0.79912000  0.49825000  1.0
  Yb  Yb3  1  0.42287000  0.20088000  0.99825000  1.0
  H  H4  1  0.23113000  0.17288000  0.69829000  1.0
  H  H5  1  0.26887000  0.82712000  0.19828000  1.0
  H  H6  1  0.76887000  0.67288000  0.80171000  1.0
  H  H7  1  0.73112000  0.32712000  0.30171000  1.0
  H  H8  1  0.31531000  0.46316000  0.82337000  1.0
  H  H9  1  0.18469000  0.53684000  0.32336000  1.0
  H  H10  1  0.68469000  0.96316000  0.67664000  1.0
  H  H11  1  0.81531000  0.03683000  0.17663000  1.0
  H  H12  1  0.14247000  0.51900000  0.76177000  1.0
  H  H13  1  0.35753000  0.48100000  0.26177000  1.0
  H  H14  1  0.85753000  0.01901000  0.73823000  1.0
  H  H15  1  0.64247000  0.98099000  0.23822000  1.0
  H  H16  1  0.34697000  0.56468000  0.72955000  1.0
  H  H17  1  0.15303000  0.43532000  0.22955000  1.0
  H  H18  1  0.65302000  0.06468000  0.77045000  1.0
  H  H19  1  0.84697000  0.93532000  0.27045000  1.0
  H  H20  1  0.56141000  0.48706000  0.89452000  1.0
  H  H21  1  0.93860000  0.51295000  0.39453000  1.0
  H  H22  1  0.43859000  0.98705000  0.60548000  1.0
  H  H23  1  0.06140000  0.01295000  0.10547000  1.0
  H  H24  1  0.90543000  0.29364000  0.73108000  1.0
  H  H25  1  0.59457000  0.70637000  0.23109000  1.0
  H  H26  1  0.09457000  0.79363000  0.76892000  1.0
  H  H27  1  0.40543000  0.20636000  0.26891000  1.0
  H  H28  1  0.96804000  0.19431000  0.64132000  1.0
  H  H29  1  0.53197000  0.80569000  0.14133000  1.0
  H  H30  1  0.03196000  0.69431000  0.85868000  1.0
  H  H31  1  0.46803000  0.30569000  0.35867000  1.0
  H  H32  1  0.94551000  0.38335000  0.55398000  1.0
  H  H33  1  0.55450000  0.61665000  0.05398000  1.0
  H  H34  1  0.05450000  0.88335000  0.94602000  1.0
  H  H35  1  0.44549000  0.11665000  0.44602000  1.0
  H  H36  1  0.97518000  0.47902000  0.64980000  1.0
  H  H37  1  0.52483000  0.52098000  0.14980000  1.0
  H  H38  1  0.02482000  0.97902000  0.85021000  1.0
  H  H39  1  0.47517000  0.02098000  0.35020000  1.0
  H  H40  1  0.18955000  0.32763000  0.45909000  1.0
  H  H41  1  0.31045000  0.67237000  0.95909000  1.0
  H  H42  1  0.81045000  0.82763000  0.04091000  1.0
  H  H43  1  0.68954000  0.17237000  0.54091000  1.0
  H  H44  1  0.22340000  0.21045000  0.54249000  1.0
  H  H45  1  0.27660000  0.78955000  0.04249000  1.0
  H  H46  1  0.77660000  0.71045000  0.95751000  1.0
  H  H47  1  0.72340000  0.28955000  0.45751000  1.0
  H  H48  1  0.38892000  0.31217000  0.50880000  1.0
  H  H49  1  0.11109000  0.68782000  0.00880000  1.0
  H  H50  1  0.61108000  0.81217000  0.99120000  1.0
  H  H51  1  0.88891000  0.18782000  0.49120000  1.0
  H  H52  1  0.51344000  0.30780000  0.75592000  1.0
  H  H53  1  0.98656000  0.69220000  0.25591000  1.0
  H  H54  1  0.48656000  0.80780000  0.74409000  1.0
  H  H55  1  0.01343000  0.19220000  0.24409000  1.0
  H  H56  1  0.54705000  0.40982000  0.66136000  1.0
  H  H57  1  0.95296000  0.59018000  0.16135000  1.0
  H  H58  1  0.45295000  0.90982000  0.83864000  1.0
  H  H59  1  0.04704000  0.09018000  0.33865000  1.0
  H  H60  1  0.48905000  0.25051000  0.64411000  1.0
  H  H61  1  0.01096000  0.74949000  0.14410000  1.0
  H  H62  1  0.51096000  0.75051000  0.85589000  1.0
  H  H63  1  0.98903000  0.24949000  0.35590000  1.0
  C  C64  1  0.17368000  0.25971000  0.72364000  1.0
  C  C65  1  0.32632000  0.74028000  0.22364000  1.0
  C  C66  1  0.82632000  0.75972000  0.77636000  1.0
  C  C67  1  0.67367000  0.24028000  0.27636000  1.0
  C  C68  1  0.17309000  0.24933000  0.82583000  1.0
  C  C69  1  0.32690000  0.75066000  0.32583000  1.0
  C  C70  1  0.82690000  0.74934000  0.67417000  1.0
  C  C71  1  0.67309000  0.25066000  0.17417000  1.0
  C  C72  1  0.27102000  0.48641000  0.75475000  1.0
  C  C73  1  0.22899000  0.51359000  0.25475000  1.0
  C  C74  1  0.72898000  0.98641000  0.74525000  1.0
  C  C75  1  0.77101000  0.01359000  0.24525000  1.0
  C  C76  1  0.66574000  0.43346000  0.92396000  1.0
  C  C77  1  0.83427000  0.56656000  0.42395000  1.0
  C  C78  1  0.33426000  0.93345000  0.57604000  1.0
  C  C79  1  0.16573000  0.06656000  0.07605000  1.0
  C  C80  1  0.28742000  0.37207000  0.69125000  1.0
  C  C81  1  0.21258000  0.62793000  0.19124000  1.0
  C  C82  1  0.71258000  0.87207000  0.80876000  1.0
  C  C83  1  0.78742000  0.12793000  0.30875000  1.0
  C  C84  1  0.00165000  0.27899000  0.67955000  1.0
  C  C85  1  0.49836000  0.72101000  0.17956000  1.0
  C  C86  1  0.99835000  0.77899000  0.82045000  1.0
  C  C87  1  0.50164000  0.22101000  0.32044000  1.0
  C  C88  1  0.01863000  0.39297000  0.61633000  1.0
  C  C89  1  0.48138000  0.60703000  0.11633000  1.0
  C  C90  1  0.98137000  0.89297000  0.88367000  1.0
  C  C91  1  0.51862000  0.10703000  0.38367000  1.0
  C  C92  1  0.20555000  0.40249000  0.59645000  1.0
  C  C93  1  0.29447000  0.59751000  0.09645000  1.0
  C  C94  1  0.79446000  0.90249000  0.90355000  1.0
  C  C95  1  0.70553000  0.09751000  0.40355000  1.0
  C  C96  1  0.25627000  0.52927000  0.55776000  1.0
  C  C97  1  0.24375000  0.47073000  0.05776000  1.0
  C  C98  1  0.74373000  0.02927000  0.94224000  1.0
  C  C99  1  0.75625000  0.97073000  0.44224000  1.0
  C  C100  1  0.25547000  0.30682000  0.52271000  1.0
  C  C101  1  0.24453000  0.69318000  0.02271000  1.0
  C  C102  1  0.74453000  0.80682000  0.97729000  1.0
  C  C103  1  0.75547000  0.19318000  0.47729000  1.0
  C  C104  1  0.47006000  0.33298000  0.68761000  1.0
  C  C105  1  0.02994000  0.66701000  0.18760000  1.0
  C  C106  1  0.52994000  0.83299000  0.81239000  1.0
  C  C107  1  0.97006000  0.16701000  0.31240000  1.0
  O  O108  1  0.04875000  0.28972000  0.87029000  1.0
  O  O109  1  0.45123000  0.71028000  0.37029000  1.0
  O  O110  1  0.95125000  0.78972000  0.62971000  1.0
  O  O111  1  0.54875000  0.21027000  0.12971000  1.0
  O  O112  1  0.80286000  0.48528000  0.93966000  1.0
  O  O113  1  0.69712000  0.51473000  0.43965000  1.0
  O  O114  1  0.19714000  0.98527000  0.56034000  1.0
  O  O115  1  0.30287000  0.01474000  0.06035000  1.0
  O  O116  1  0.64427000  0.31568000  0.94132000  1.0
  O  O117  1  0.85573000  0.68433000  0.44131000  1.0
  O  O118  1  0.35573000  0.81567000  0.55868000  1.0
  O  O119  1  0.14427000  0.18433000  0.05869000  1.0
  O  O120  1  0.30166000  0.20302000  0.86431000  1.0
  O  O121  1  0.19832000  0.79697000  0.36430000  1.0
  O  O122  1  0.69834000  0.70303000  0.63569000  1.0
  O  O123  1  0.80167000  0.29696000  0.13570000  1.0
  O  O124  1  0.14338000  0.60054000  0.52578000  1.0
  O  O125  1  0.35662000  0.39946000  0.02578000  1.0
  O  O126  1  0.85662000  0.10054000  0.97422000  1.0
  O  O127  1  0.64338000  0.89947000  0.47422000  1.0
  O  O128  1  0.41024000  0.55498000  0.55418000  1.0
  O  O129  1  0.08977000  0.44502000  0.05418000  1.0
  O  O130  1  0.58977000  0.05498000  0.94582000  1.0
  O  O131  1  0.91023000  0.94502000  0.44582000  1.0
