# generated using pymatgen
data_KAsH23C10N3
_symmetry_space_group_name_H-M   'P 1'
_cell_length_a   5.84651000
_cell_length_b   10.44400000
_cell_length_c   11.35670000
_cell_angle_alpha   94.41250000
_cell_angle_beta   101.36300000
_cell_angle_gamma   97.24220000
_symmetry_Int_Tables_number   1
_chemical_formula_structural   KAsH23C10N3
_chemical_formula_sum   'K2 As2 H46 C20 N6'
_cell_volume   670.73166262
_cell_formula_units_Z   2
loop_
 _symmetry_equiv_pos_site_id
 _symmetry_equiv_pos_as_xyz
  1  'x, y, z'
loop_
 _atom_site_type_symbol
 _atom_site_label
 _atom_site_symmetry_multiplicity
 _atom_site_fract_x
 _atom_site_fract_y
 _atom_site_fract_z
 _atom_site_occupancy
  K  K0  1  0.74909000  0.05249000  0.91066000  1.0
  K  K1  1  0.25095000  0.94751000  0.08936000  1.0
  As  As2  1  0.19683000  0.13236000  0.76207000  1.0
  As  As3  1  0.80317000  0.86764000  0.23793000  1.0
  H  H4  1  0.30065000  0.80123000  0.78626000  1.0
  H  H5  1  0.69935000  0.19878000  0.21373000  1.0
  H  H6  1  0.96804000  0.78994000  0.90146000  1.0
  H  H7  1  0.03197000  0.21004000  0.09853000  1.0
  H  H8  1  0.78745000  0.83636000  0.77147000  1.0
  H  H9  1  0.21254000  0.16363000  0.22854000  1.0
  H  H10  1  0.03449000  0.59462000  0.77992000  1.0
  H  H11  1  0.96554000  0.40538000  0.22007000  1.0
  H  H12  1  0.73109000  0.59603000  0.77404000  1.0
  H  H13  1  0.26893000  0.40395000  0.22595000  1.0
  H  H14  1  0.81516000  0.53649000  0.56823000  1.0
  H  H15  1  0.18486000  0.46351000  0.43175000  1.0
  H  H16  1  0.67834000  0.67754000  0.57376000  1.0
  H  H17  1  0.32166000  0.32245000  0.42623000  1.0
  H  H18  1  0.00908000  0.71546000  0.46832000  1.0
  H  H19  1  0.99090000  0.28456000  0.53167000  1.0
  H  H20  1  0.20710000  0.66956000  0.59134000  1.0
  H  H21  1  0.79290000  0.33045000  0.40863000  1.0
  H  H22  1  0.24437000  0.90960000  0.59461000  1.0
  H  H23  1  0.75560000  0.09042000  0.40539000  1.0
  H  H24  1  0.94369000  0.90608000  0.59816000  1.0
  H  H25  1  0.05628000  0.09393000  0.40184000  1.0
  H  H26  1  0.99156000  0.35864000  0.80160000  1.0
  H  H27  1  0.00844000  0.64137000  0.19841000  1.0
  H  H28  1  0.27348000  0.44784000  0.86916000  1.0
  H  H29  1  0.72653000  0.55216000  0.13085000  1.0
  H  H30  1  0.06324000  0.40898000  0.95939000  1.0
  H  H31  1  0.93677000  0.59102000  0.04062000  1.0
  H  H32  1  0.47308000  0.17120000  0.02541000  1.0
  H  H33  1  0.52689000  0.82879000  0.97459000  1.0
  H  H34  1  0.40341000  0.32209000  0.07874000  1.0
  H  H35  1  0.59658000  0.67790000  0.92126000  1.0
  H  H36  1  0.58512000  0.31770000  0.97071000  1.0
  H  H37  1  0.41488000  0.68229000  0.02929000  1.0
  H  H38  1  0.55159000  0.39418000  0.79227000  1.0
  H  H39  1  0.44842000  0.60581000  0.20774000  1.0
  H  H40  1  0.37129000  0.34903000  0.64512000  1.0
  H  H41  1  0.62871000  0.65096000  0.35490000  1.0
  H  H42  1  0.68186000  0.35782000  0.66727000  1.0
  H  H43  1  0.31814000  0.64217000  0.33274000  1.0
  H  H44  1  0.56224000  0.01373000  0.64934000  1.0
  H  H45  1  0.43777000  0.98627000  0.35065000  1.0
  H  H46  1  0.72907000  0.15070000  0.60906000  1.0
  H  H47  1  0.27094000  0.84931000  0.39094000  1.0
  H  H48  1  0.41954000  0.11430000  0.54713000  1.0
  H  H49  1  0.58047000  0.88571000  0.45287000  1.0
  C  C50  1  0.15691000  0.86191000  0.76570000  1.0
  C  C51  1  0.84308000  0.13809000  0.23430000  1.0
  C  C52  1  0.94176000  0.78685000  0.80248000  1.0
  C  C53  1  0.05824000  0.21314000  0.19752000  1.0
  C  C54  1  0.88525000  0.64593000  0.74569000  1.0
  C  C55  1  0.11475000  0.35406000  0.25430000  1.0
  C  C56  1  0.84250000  0.63819000  0.60798000  1.0
  C  C57  1  0.15750000  0.36181000  0.39201000  1.0
  C  C58  1  0.04715000  0.71624000  0.56733000  1.0
  C  C59  1  0.95284000  0.28378000  0.43266000  1.0
  C  C60  1  0.09850000  0.85648000  0.62679000  1.0
  C  C61  1  0.90149000  0.14353000  0.37321000  1.0
  C  C62  1  0.13374000  0.37142000  0.88227000  1.0
  C  C63  1  0.86627000  0.62858000  0.11774000  1.0
  C  C64  1  0.42975000  0.26523000  0.99797000  1.0
  C  C65  1  0.57023000  0.73476000  0.00203000  1.0
  C  C66  1  0.53025000  0.32943000  0.70875000  1.0
  C  C67  1  0.46976000  0.67056000  0.29127000  1.0
  C  C68  1  0.55771000  0.11519000  0.63006000  1.0
  C  C69  1  0.44229000  0.88481000  0.36994000  1.0
  N  N70  1  0.23608000  0.98844000  0.83824000  1.0
  N  N71  1  0.76389000  0.01156000  0.16176000  1.0
  N  N72  1  0.21594000  0.24785000  0.90477000  1.0
  N  N73  1  0.78404000  0.75215000  0.09523000  1.0
  N  N74  1  0.52196000  0.19438000  0.73488000  1.0
  N  N75  1  0.47805000  0.80562000  0.26513000  1.0
