# generated using pymatgen
data_AgPH21C22SNO3
_symmetry_space_group_name_H-M   'P 1'
_cell_length_a   8.98261000
_cell_length_b   11.17050000
_cell_length_c   11.17050000
_cell_angle_alpha   102.76500000
_cell_angle_beta   94.88910000
_cell_angle_gamma   94.88910000
_symmetry_Int_Tables_number   1
_chemical_formula_structural   AgPH21C22SNO3
_chemical_formula_sum   'Ag2 P2 H42 C44 S2 N2 O6'
_cell_volume   1082.90803522
_cell_formula_units_Z   2
loop_
 _symmetry_equiv_pos_site_id
 _symmetry_equiv_pos_as_xyz
  1  'x, y, z'
loop_
 _atom_site_type_symbol
 _atom_site_label
 _atom_site_symmetry_multiplicity
 _atom_site_fract_x
 _atom_site_fract_y
 _atom_site_fract_z
 _atom_site_occupancy
  Ag  Ag0  1  0.49383000  0.90066000  0.10146000  1.0
  Ag  Ag1  1  0.99383000  0.10146000  0.90066000  1.0
  P  P2  1  0.45517000  0.95877000  0.31352000  1.0
  P  P3  1  0.95517000  0.31352000  0.95877000  1.0
  H  H4  1  0.60954000  0.56677000  0.14665000  1.0
  H  H5  1  0.10954000  0.14665000  0.56678000  1.0
  H  H6  1  0.41688000  0.55935000  0.08670000  1.0
  H  H7  1  0.91688000  0.08670000  0.55935000  1.0
  H  H8  1  0.46179000  0.50582000  0.22345000  1.0
  H  H9  1  0.96179000  0.22345000  0.50582000  1.0
  H  H10  1  0.66893000  0.57787000  0.35931000  1.0
  H  H11  1  0.16892000  0.35932000  0.57787000  1.0
  H  H12  1  0.95869000  0.77674000  0.71018000  1.0
  H  H13  1  0.45869000  0.71018000  0.77674000  1.0
  H  H14  1  0.94968000  0.61601000  0.71163000  1.0
  H  H15  1  0.44968000  0.71163000  0.61601000  1.0
  H  H16  1  0.79580000  0.70212000  0.75732000  1.0
  H  H17  1  0.29579000  0.75731000  0.70212000  1.0
  H  H18  1  0.75273000  0.87679000  0.68338000  1.0
  H  H19  1  0.25274000  0.68337000  0.87679000  1.0
  H  H20  1  0.58969000  0.00706000  0.77600000  1.0
  H  H21  1  0.08969000  0.77599000  0.00706000  1.0
  H  H22  1  0.57837000  0.15667000  0.74414000  1.0
  H  H23  1  0.07838000  0.74414000  0.15667000  1.0
  H  H24  1  0.75009000  0.08671000  0.72987000  1.0
  H  H25  1  0.25010000  0.72988000  0.08671000  1.0
  H  H26  1  0.20793000  0.05560000  0.19843000  1.0
  H  H27  1  0.70793000  0.19843000  0.05560000  1.0
  H  H28  1  0.93313000  0.03096000  0.20709000  1.0
  H  H29  1  0.43313000  0.20708000  0.03096000  1.0
  H  H30  1  0.82373000  0.90508000  0.34407000  1.0
  H  H31  1  0.32373000  0.34406000  0.90508000  1.0
  H  H32  1  0.99376000  0.81232000  0.47769000  1.0
  H  H33  1  0.49376000  0.47769000  0.81232000  1.0
  H  H34  1  0.26976000  0.83868000  0.47017000  1.0
  H  H35  1  0.76976000  0.47017000  0.83868000  1.0
  H  H36  1  0.70296000  0.10517000  0.25571000  1.0
  H  H37  1  0.20296000  0.25571000  0.10517000  1.0
  H  H38  1  0.81730000  0.32204000  0.33914000  1.0
  H  H39  1  0.31730000  0.33914000  0.32204000  1.0
  H  H40  1  0.70515000  0.45837000  0.50745000  1.0
  H  H41  1  0.20515000  0.50745000  0.45837000  1.0
  H  H42  1  0.47355000  0.38076000  0.58629000  1.0
  H  H43  1  0.97355000  0.58629000  0.38076000  1.0
  H  H44  1  0.36291000  0.16315000  0.50614000  1.0
  H  H45  1  0.86291000  0.50614000  0.16315000  1.0
  C  C46  1  0.79578000  0.86564000  0.96939000  1.0
  C  C47  1  0.29578000  0.96940000  0.86564000  1.0
  C  C48  1  0.54210000  0.86569000  0.40777000  1.0
  C  C49  1  0.04210000  0.40777000  0.86569000  1.0
  C  C50  1  0.55973000  0.74196000  0.34962000  1.0
  C  C51  1  0.05973000  0.34963000  0.74196000  1.0
  C  C52  1  0.49409000  0.57461000  0.17104000  1.0
  C  C53  1  0.99408000  0.17104000  0.57461000  1.0
  C  C54  1  0.65330000  0.67177000  0.40472000  1.0
  C  C55  1  0.15330000  0.40471000  0.67177000  1.0
  C  C56  1  0.72662000  0.72337000  0.52315000  1.0
  C  C57  1  0.22662000  0.52315000  0.72337000  1.0
  C  C58  1  0.88432000  0.68998000  0.69485000  1.0
  C  C59  1  0.38432000  0.69485000  0.68998000  1.0
  C  C60  1  0.70164000  0.84040000  0.58916000  1.0
  C  C61  1  0.20165000  0.58916000  0.84040000  1.0
  C  C62  1  0.60677000  0.90937000  0.53164000  1.0
  C  C63  1  0.10677000  0.53164000  0.90937000  1.0
  C  C64  1  0.62655000  0.06922000  0.71794000  1.0
  C  C65  1  0.12656000  0.71795000  0.06922000  1.0
  C  C66  1  0.25668000  0.94966000  0.33485000  1.0
  C  C67  1  0.75668000  0.33485000  0.94966000  1.0
  C  C68  1  0.16086000  0.00457000  0.26177000  1.0
  C  C69  1  0.66087000  0.26177000  0.00456000  1.0
  C  C70  1  0.00611000  0.99013000  0.26639000  1.0
  C  C71  1  0.50610000  0.26638000  0.99012000  1.0
  C  C72  1  0.94512000  0.91929000  0.34276000  1.0
  C  C73  1  0.44511000  0.34275000  0.91928000  1.0
  C  C74  1  0.04033000  0.86593000  0.41660000  1.0
  C  C75  1  0.54033000  0.41659000  0.86592000  1.0
  C  C76  1  0.19567000  0.88112000  0.41313000  1.0
  C  C77  1  0.69567000  0.41313000  0.88112000  1.0
  C  C78  1  0.52741000  0.11976000  0.37694000  1.0
  C  C79  1  0.02741000  0.37694000  0.11976000  1.0
  C  C80  1  0.65416000  0.16572000  0.32944000  1.0
  C  C81  1  0.15416000  0.32944000  0.16572000  1.0
  C  C82  1  0.71812000  0.28723000  0.37613000  1.0
  C  C83  1  0.21812000  0.37613000  0.28723000  1.0
  C  C84  1  0.65413000  0.36407000  0.46970000  1.0
  C  C85  1  0.15413000  0.46970000  0.36407000  1.0
  C  C86  1  0.52473000  0.31994000  0.51471000  1.0
  C  C87  1  0.02473000  0.51471000  0.31994000  1.0
  C  C88  1  0.46149000  0.19837000  0.46880000  1.0
  C  C89  1  0.96149000  0.46880000  0.19837000  1.0
  S  S90  1  0.69245000  0.75996000  0.01416000  1.0
  S  S91  1  0.19245000  0.01416000  0.75995000  1.0
  N  N92  1  0.87396000  0.93966000  0.93575000  1.0
  N  N93  1  0.37397000  0.93576000  0.93966000  1.0
  O  O94  1  0.47759000  0.69702000  0.23828000  1.0
  O  O95  1  0.97758000  0.23828000  0.69701000  1.0
  O  O96  1  0.81993000  0.65008000  0.56850000  1.0
  O  O97  1  0.31994000  0.56849000  0.65007000  1.0
  O  O98  1  0.57036000  0.02044000  0.59092000  1.0
  O  O99  1  0.07037000  0.59092000  0.02044000  1.0
