# generated using pymatgen
data_Al2H19C28O10F
_symmetry_space_group_name_H-M   'P 1'
_cell_length_a   7.23579000
_cell_length_b   11.17321774
_cell_length_c   15.02590000
_cell_angle_alpha   91.76211082
_cell_angle_beta   102.30450000
_cell_angle_gamma   108.87549990
_symmetry_Int_Tables_number   1
_chemical_formula_structural   Al2H19C28O10F
_chemical_formula_sum   'Al2 H19 C28 O10 F1'
_cell_volume   1116.51884580
_cell_formula_units_Z   1
loop_
 _symmetry_equiv_pos_site_id
 _symmetry_equiv_pos_as_xyz
  1  'x, y, z'
loop_
 _atom_site_type_symbol
 _atom_site_label
 _atom_site_symmetry_multiplicity
 _atom_site_fract_x
 _atom_site_fract_y
 _atom_site_fract_z
 _atom_site_occupancy
  Al  Al0  1  0.98574000  0.49241000  0.49165000  1.0
  Al  Al1  1  0.48735000  0.49275000  0.49322000  1.0
  H  H2  1  0.33669000  0.60414000  0.59391000  1.0
  H  H3  1  0.62874000  0.34722000  0.41984000  1.0
  H  H4  1  0.55876000  0.43945000  0.77118000  1.0
  H  H5  1  0.17967000  0.54988000  0.75860000  1.0
  H  H6  1  0.37629000  0.45776000  0.21167000  1.0
  H  H7  1  0.86976000  0.56792000  0.23585000  1.0
  H  H8  1  0.66784000  0.36434000  0.00105000  1.0
  H  H9  1  0.48926000  0.41723000  0.93177000  1.0
  H  H10  1  0.40088000  0.65036000  0.99230000  1.0
  H  H11  1  0.42585000  0.55191000  0.90445000  1.0
  H  H12  1  0.18138000  0.36279000  0.97362000  1.0
  H  H13  1  0.41879000  0.42406000  0.04868000  1.0
  H  H14  1  0.74840000  0.65123000  0.01074000  1.0
  H  H15  1  0.62397000  0.56244000  0.08906000  1.0
  H  H16  1  0.15446000  0.86300000  0.42215000  1.0
  H  H17  1  0.68169000  0.89885000  0.64317000  1.0
  H  H18  1  0.50547000  0.88107000  0.53649000  1.0
  H  H19  1  0.62735000  0.11995000  0.53434000  1.0
  H  H20  1  0.80203000  0.13625000  0.64120000  1.0
  C  C21  1  0.84834000  0.71444000  0.49168000  1.0
  C  C22  1  0.80747000  0.49292000  0.65352000  1.0
  C  C23  1  0.12263000  0.26947000  0.48887000  1.0
  C  C24  1  0.17669000  0.50673000  0.33391000  1.0
  C  C25  1  0.64591000  0.44726000  0.96790000  1.0
  C  C26  1  0.32998000  0.55741000  0.95042000  1.0
  C  C27  1  0.29129000  0.44989000  0.01517000  1.0
  C  C28  1  0.72341000  0.56254000  0.04379000  1.0
  C  C29  1  0.71723000  0.47182000  0.80682000  1.0
  C  C30  1  0.77681000  0.48124000  0.90199000  1.0
  C  C31  1  0.06887000  0.53522000  0.79993000  1.0
  C  C32  1  0.12647000  0.54507000  0.89494000  1.0
  C  C33  1  0.25087000  0.48767000  0.17926000  1.0
  C  C34  1  0.19898000  0.49044000  0.08482000  1.0
  C  C35  1  0.96498000  0.55123000  0.19295000  1.0
  C  C36  1  0.91612000  0.55505000  0.09868000  1.0
  C  C37  1  0.86454000  0.50125000  0.75552000  1.0
  C  C38  1  0.98035000  0.52322000  0.94562000  1.0
  C  C39  1  0.13383000  0.51887000  0.23362000  1.0
  C  C40  1  0.03716000  0.52834000  0.04552000  1.0
  C  C41  1  0.91431000  0.85480000  0.48951000  1.0
  C  C42  1  0.05145000  0.12845000  0.48702000  1.0
  C  C43  1  0.82202000  0.93109000  0.52463000  1.0
  C  C44  1  0.14061000  0.04875000  0.45056000  1.0
  C  C45  1  0.88940000  0.06293000  0.52353000  1.0
  C  C46  1  0.07748000  0.91750000  0.45172000  1.0
  C  C47  1  0.66091000  0.93155000  0.57462000  1.0
  C  C48  1  0.73708000  0.08107000  0.57344000  1.0
  O  O49  1  0.97837000  0.66162000  0.48678000  1.0
  O  O50  1  0.62662000  0.48436000  0.61639000  1.0
  O  O51  1  0.30657000  0.32354000  0.48804000  1.0
  O  O52  1  0.03151000  0.49704000  0.37213000  1.0
  O  O53  1  0.99026000  0.32146000  0.49233000  1.0
  O  O54  1  0.35108000  0.50433000  0.37163000  1.0
  O  O55  1  0.66819000  0.66187000  0.49923000  1.0
  O  O56  1  0.94794000  0.49675000  0.61314000  1.0
  O  O57  1  0.28446000  0.54990000  0.53630000  1.0
  O  O58  1  0.68740000  0.43381000  0.44955000  1.0
  F  F59  1  0.29543000  0.10019000  0.40946000  1.0
