# generated using pymatgen
data_GdH22C18NO7
_symmetry_space_group_name_H-M   'P 1'
_cell_length_a   8.56520000
_cell_length_b   10.38240000
_cell_length_c   11.89820000
_cell_angle_alpha   66.43250000
_cell_angle_beta   75.04870000
_cell_angle_gamma   86.06980000
_symmetry_Int_Tables_number   1
_chemical_formula_structural   GdH22C18NO7
_chemical_formula_sum   'Gd2 H44 C36 N2 O14'
_cell_volume   936.27191981
_cell_formula_units_Z   2
loop_
 _symmetry_equiv_pos_site_id
 _symmetry_equiv_pos_as_xyz
  1  'x, y, z'
loop_
 _atom_site_type_symbol
 _atom_site_label
 _atom_site_symmetry_multiplicity
 _atom_site_fract_x
 _atom_site_fract_y
 _atom_site_fract_z
 _atom_site_occupancy
  Gd  Gd0  1  0.70528000  0.58286000  0.35821000  1.0
  Gd  Gd1  1  0.29472000  0.41714000  0.64179000  1.0
  H  H2  1  0.05160000  0.89458000  0.42202000  1.0
  H  H3  1  0.94840000  0.10542000  0.57798000  1.0
  H  H4  1  0.86095000  0.07332000  0.23001000  1.0
  H  H5  1  0.13906000  0.92668000  0.76998000  1.0
  H  H6  1  0.09923000  0.15697000  0.35079000  1.0
  H  H7  1  0.90077000  0.84304000  0.64921000  1.0
  H  H8  1  0.92728000  0.25330000  0.30779000  1.0
  H  H9  1  0.07272000  0.74670000  0.69221000  1.0
  H  H10  1  0.09415000  0.24428000  0.18900000  1.0
  H  H11  1  0.90585000  0.75572000  0.81100000  1.0
  H  H12  1  0.50225000  0.84237000  0.98517000  1.0
  H  H13  1  0.49775000  0.15763000  0.01484000  1.0
  H  H14  1  0.23800000  0.84206000  0.21611000  1.0
  H  H15  1  0.76200000  0.15794000  0.78389000  1.0
  H  H16  1  0.18102000  0.05942000  0.02777000  1.0
  H  H17  1  0.81898000  0.94058000  0.97223000  1.0
  H  H18  1  0.07551000  0.90615000  0.05379000  1.0
  H  H19  1  0.92449000  0.09385000  0.94621000  1.0
  H  H20  1  0.25509000  0.96919000  0.92736000  1.0
  H  H21  1  0.74491000  0.03081000  0.07264000  1.0
  H  H22  1  0.36606000  0.15336000  0.48727000  1.0
  H  H23  1  0.63394000  0.84664000  0.51273000  1.0
  H  H24  1  0.59847000  0.20279000  0.22798000  1.0
  H  H25  1  0.40153000  0.79721000  0.77202000  1.0
  H  H26  1  0.33804000  0.96673000  0.41179000  1.0
  H  H27  1  0.66196000  0.03327000  0.58821000  1.0
  H  H28  1  0.52155000  0.94194000  0.31115000  1.0
  H  H29  1  0.47845000  0.05806000  0.68884000  1.0
  H  H30  1  0.37036000  0.04170000  0.24340000  1.0
  H  H31  1  0.62964000  0.95830000  0.75660000  1.0
  H  H32  1  0.08504000  0.48033000  0.36771000  1.0
  H  H33  1  0.91496000  0.51967000  0.63229000  1.0
  H  H34  1  0.34601000  0.44130000  0.24383000  1.0
  H  H35  1  0.65399000  0.55870000  0.75617000  1.0
  H  H36  1  0.16320000  0.62925000  0.90983000  1.0
  H  H37  1  0.83680000  0.37075000  0.09017000  1.0
  H  H38  1  0.90275000  0.66118000  0.05047000  1.0
  H  H39  1  0.09725000  0.33882000  0.94953000  1.0
  H  H40  1  0.42346000  0.53308000  0.88728000  1.0
  H  H41  1  0.57654000  0.46692000  0.11272000  1.0
  H  H42  1  0.70690000  0.33787000  0.59376000  1.0
  H  H43  1  0.29310000  0.66213000  0.40625000  1.0
  H  H44  1  0.90033000  0.35941000  0.53518000  1.0
  H  H45  1  0.09967000  0.64059000  0.46482000  1.0
  C  C46  1  0.88509000  0.80359000  0.35825000  1.0
  C  C47  1  0.11491000  0.19641000  0.64175000  1.0
  C  C48  1  0.96904000  0.92179000  0.36036000  1.0
  C  C49  1  0.03096000  0.07821000  0.63964000  1.0
  C  C50  1  0.94480000  0.05613000  0.28983000  1.0
  C  C51  1  0.05520000  0.94387000  0.71017000  1.0
  C  C52  1  0.02097000  0.18281000  0.28548000  1.0
  C  C53  1  0.97903000  0.81719000  0.71451000  1.0
  C  C54  1  0.52879000  0.73570000  0.17776000  1.0
  C  C55  1  0.47121000  0.26430000  0.82224000  1.0
  C  C56  1  0.44025000  0.82008000  0.08374000  1.0
  C  C57  1  0.55975000  0.17992000  0.91627000  1.0
  C  C58  1  0.29295000  0.86789000  0.11547000  1.0
  C  C59  1  0.70705000  0.13211000  0.88453000  1.0
  C  C60  1  0.19743000  0.95416000  0.02562000  1.0
  C  C61  1  0.80258000  0.04584000  0.97437000  1.0
  C  C62  1  0.53731000  0.33427000  0.38456000  1.0
  C  C63  1  0.46269000  0.66573000  0.61544000  1.0
  C  C64  1  0.46150000  0.20273000  0.40098000  1.0
  C  C65  1  0.53850000  0.79727000  0.59902000  1.0
  C  C66  1  0.50290000  0.14741000  0.31320000  1.0
  C  C67  1  0.49710000  0.85259000  0.68680000  1.0
  C  C68  1  0.42850000  0.01779000  0.32167000  1.0
  C  C69  1  0.57150000  0.98221000  0.67833000  1.0
  C  C70  1  0.10522000  0.51316000  0.26596000  1.0
  C  C71  1  0.89478000  0.48684000  0.73404000  1.0
  C  C72  1  0.25283000  0.49186000  0.19560000  1.0
  C  C73  1  0.74717000  0.50813000  0.80440000  1.0
  C  C74  1  0.27897000  0.53410000  0.06411000  1.0
  C  C75  1  0.72104000  0.46590000  0.93589000  1.0
  C  C76  1  0.14985000  0.59639000  0.01120000  1.0
  C  C77  1  0.85015000  0.40361000  0.98880000  1.0
  C  C78  1  0.00531000  0.61387000  0.08858000  1.0
  C  C79  1  0.99469000  0.38613000  0.91142000  1.0
  C  C80  1  0.42986000  0.51668000  0.98250000  1.0
  C  C81  1  0.57014000  0.48332000  0.01750000  1.0
  N  N82  1  0.98109000  0.57291000  0.21481000  1.0
  N  N83  1  0.01891000  0.42710000  0.78519000  1.0
  O  O84  1  0.91602000  0.67602000  0.42443000  1.0
  O  O85  1  0.08398000  0.32398000  0.57557000  1.0
  O  O86  1  0.78069000  0.82574000  0.29344000  1.0
  O  O87  1  0.21931000  0.17426000  0.70656000  1.0
  O  O88  1  0.67084000  0.69735000  0.14108000  1.0
  O  O89  1  0.32916000  0.30265000  0.85892000  1.0
  O  O90  1  0.46636000  0.69969000  0.29763000  1.0
  O  O91  1  0.53364000  0.30031000  0.70237000  1.0
  O  O92  1  0.66367000  0.39062000  0.29661000  1.0
  O  O93  1  0.33634000  0.60938000  0.70339000  1.0
  O  O94  1  0.47156000  0.39550000  0.46019000  1.0
  O  O95  1  0.52844000  0.60450000  0.53981000  1.0
  O  O96  1  0.79396000  0.37814000  0.51321000  1.0
  O  O97  1  0.20604000  0.62185000  0.48679000  1.0
