# generated using pymatgen
data_MnH20C16(N4O3)2
_symmetry_space_group_name_H-M   'P 1'
_cell_length_a   5.29627000
_cell_length_b   9.57952000
_cell_length_c   10.51160775
_cell_angle_alpha   107.68273108
_cell_angle_beta   104.26042202
_cell_angle_gamma   97.35620000
_symmetry_Int_Tables_number   1
_chemical_formula_structural   MnH20C16(N4O3)2
_chemical_formula_sum   'Mn1 H20 C16 N8 O6'
_cell_volume   480.42881252
_cell_formula_units_Z   1
loop_
 _symmetry_equiv_pos_site_id
 _symmetry_equiv_pos_as_xyz
  1  'x, y, z'
loop_
 _atom_site_type_symbol
 _atom_site_label
 _atom_site_symmetry_multiplicity
 _atom_site_fract_x
 _atom_site_fract_y
 _atom_site_fract_z
 _atom_site_occupancy
  Mn  Mn0  1  0.00000000  0.00000000  0.50000000  1.0
  H  H1  1  0.40034000  0.96467000  0.67540000  1.0
  H  H2  1  0.59965000  0.03533000  0.32460000  1.0
  H  H3  1  0.47343000  0.87425000  0.53284000  1.0
  H  H4  1  0.52658000  0.12576000  0.46716000  1.0
  H  H5  1  0.83974000  0.30660000  0.86386000  1.0
  H  H6  1  0.16025000  0.69340000  0.13614000  1.0
  H  H7  1  0.72112000  0.41581000  0.08505000  1.0
  H  H8  1  0.27890000  0.58419000  0.91496000  1.0
  H  H9  1  0.21684000  0.20088000  0.29391000  1.0
  H  H10  1  0.78316000  0.79912000  0.70609000  1.0
  H  H11  1  0.37211000  0.09026000  0.08351000  1.0
  H  H12  1  0.62788000  0.90973000  0.91648000  1.0
  H  H13  1  0.81954000  0.25945000  0.34502000  1.0
  H  H14  1  0.18045000  0.74056000  0.65498000  1.0
  H  H15  1  0.67670000  0.39184000  0.27803000  1.0
  H  H16  1  0.32330000  0.60816000  0.72197000  1.0
  H  H17  1  0.08860000  0.58827000  0.41178000  1.0
  H  H18  1  0.91140000  0.41173000  0.58822000  1.0
  H  H19  1  0.25134000  0.45600000  0.46623000  1.0
  H  H20  1  0.74866000  0.54400000  0.53377000  1.0
  C  C21  1  0.17376000  0.10635000  0.82360000  1.0
  C  C22  1  0.82624000  0.89365000  0.17640000  1.0
  C  C23  1  0.11690000  0.18979000  0.95656000  1.0
  C  C24  1  0.88309000  0.81021000  0.04344000  1.0
  C  C25  1  0.93556000  0.28388000  0.95741000  1.0
  C  C26  1  0.06443000  0.71611000  0.04259000  1.0
  C  C27  1  0.86434000  0.34373000  0.07741000  1.0
  C  C28  1  0.13565000  0.65627000  0.92259000  1.0
  C  C29  1  0.14772000  0.22216000  0.19630000  1.0
  C  C30  1  0.85227000  0.77784000  0.80370000  1.0
  C  C31  1  0.22955000  0.16278000  0.08006000  1.0
  C  C32  1  0.77043000  0.83722000  0.91993000  1.0
  C  C33  1  0.86294000  0.35748000  0.31410000  1.0
  C  C34  1  0.13706000  0.64252000  0.68590000  1.0
  C  C35  1  0.05653000  0.48589000  0.43801000  1.0
  C  C36  1  0.94347000  0.51411000  0.56199000  1.0
  N  N37  1  0.70833000  0.79658000  0.45984000  1.0
  N  N38  1  0.29169000  0.20342000  0.54017000  1.0
  N  N39  1  0.61166000  0.69696000  0.34849000  1.0
  N  N40  1  0.38835000  0.30303000  0.65151000  1.0
  N  N41  1  0.51749000  0.59861000  0.24030000  1.0
  N  N42  1  0.48250000  0.40139000  0.75970000  1.0
  N  N43  1  0.96434000  0.30875000  0.19268000  1.0
  N  N44  1  0.03565000  0.69125000  0.80732000  1.0
  O  O45  1  0.98949000  0.08424000  0.71031000  1.0
  O  O46  1  0.01051000  0.91577000  0.28969000  1.0
  O  O47  1  0.38789000  0.05951000  0.83503000  1.0
  O  O48  1  0.61211000  0.94049000  0.16497000  1.0
  O  O49  1  0.32659000  0.89912000  0.57400000  1.0
  O  O50  1  0.67342000  0.10089000  0.42600000  1.0
