# generated using pymatgen
data_ZnH6C8(SN2)2
_symmetry_space_group_name_H-M   'P 1'
_cell_length_a   7.73010000
_cell_length_b   7.75777000
_cell_length_c   16.58550000
_cell_angle_alpha   90.00050000
_cell_angle_beta   89.99980000
_cell_angle_gamma   89.99980000
_symmetry_Int_Tables_number   1
_chemical_formula_structural   ZnH6C8(SN2)2
_chemical_formula_sum   'Zn4 H24 C32 S8 N16'
_cell_volume   994.60486781
_cell_formula_units_Z   4
loop_
 _symmetry_equiv_pos_site_id
 _symmetry_equiv_pos_as_xyz
  1  'x, y, z'
loop_
 _atom_site_type_symbol
 _atom_site_label
 _atom_site_symmetry_multiplicity
 _atom_site_fract_x
 _atom_site_fract_y
 _atom_site_fract_z
 _atom_site_occupancy
  Zn  Zn0  1  0.08084000  0.43218000  0.62418000  1.0
  Zn  Zn1  1  0.91916000  0.93218000  0.37582000  1.0
  Zn  Zn2  1  0.58084000  0.43219000  0.87581000  1.0
  Zn  Zn3  1  0.41917000  0.93219000  0.12418000  1.0
  H  H4  1  0.34506000  0.97956000  0.65789000  1.0
  H  H5  1  0.65494000  0.47956000  0.34211000  1.0
  H  H6  1  0.84507000  0.97956000  0.84211000  1.0
  H  H7  1  0.15493000  0.47956000  0.15790000  1.0
  H  H8  1  0.45894000  0.05295000  0.79755000  1.0
  H  H9  1  0.54106000  0.55296000  0.20245000  1.0
  H  H10  1  0.95894000  0.05295000  0.70245000  1.0
  H  H11  1  0.04106000  0.55295000  0.29756000  1.0
  H  H12  1  0.52972000  0.80272000  0.88861000  1.0
  H  H13  1  0.47027000  0.30272000  0.11140000  1.0
  H  H14  1  0.02972000  0.80272000  0.61139000  1.0
  H  H15  1  0.97027000  0.30272000  0.38861000  1.0
  H  H16  1  0.30333000  0.86420000  0.35330000  1.0
  H  H17  1  0.69666000  0.36421000  0.64670000  1.0
  H  H18  1  0.80336000  0.86421000  0.14670000  1.0
  H  H19  1  0.19667000  0.36421000  0.85330000  1.0
  H  H20  1  0.52510000  0.69608000  0.43265000  1.0
  H  H21  1  0.47489000  0.19609000  0.56734000  1.0
  H  H22  1  0.02512000  0.69608000  0.06734000  1.0
  H  H23  1  0.97490000  0.19608000  0.93265000  1.0
  H  H24  1  0.41081000  0.51407000  0.54854000  1.0
  H  H25  1  0.58918000  0.01408000  0.45146000  1.0
  H  H26  1  0.91083000  0.51409000  0.95145000  1.0
  H  H27  1  0.08919000  0.01408000  0.04854000  1.0
  C  C28  1  0.37686000  0.58918000  0.73225000  1.0
  C  C29  1  0.62314000  0.08919000  0.26775000  1.0
  C  C30  1  0.87686000  0.58918000  0.76775000  1.0
  C  C31  1  0.12313000  0.08917000  0.23225000  1.0
  C  C32  1  0.37440000  0.87968000  0.70247000  1.0
  C  C33  1  0.62559000  0.37969000  0.29753000  1.0
  C  C34  1  0.87441000  0.87969000  0.79753000  1.0
  C  C35  1  0.12559000  0.37968000  0.20247000  1.0
  C  C36  1  0.43720000  0.92056000  0.77873000  1.0
  C  C37  1  0.56280000  0.42056000  0.22127000  1.0
  C  C38  1  0.93720000  0.92055000  0.72126000  1.0
  C  C39  1  0.06280000  0.42055000  0.27874000  1.0
  C  C40  1  0.47504000  0.78252000  0.82889000  1.0
  C  C41  1  0.52495000  0.28254000  0.17111000  1.0
  C  C42  1  0.97504000  0.78252000  0.67110000  1.0
  C  C43  1  0.02495000  0.28252000  0.32890000  1.0
  C  C44  1  0.03718000  0.64442000  0.47212000  1.0
  C  C45  1  0.96281000  0.14442000  0.52788000  1.0
  C  C46  1  0.53720000  0.64442000  0.02789000  1.0
  C  C47  1  0.46282000  0.14442000  0.97212000  1.0
  C  C48  1  0.26555000  0.77360000  0.40037000  1.0
  C  C49  1  0.73444000  0.27362000  0.59963000  1.0
  C  C50  1  0.76557000  0.77362000  0.09963000  1.0
  C  C51  1  0.23445000  0.27362000  0.90037000  1.0
  C  C52  1  0.38739000  0.68173000  0.44417000  1.0
  C  C53  1  0.61260000  0.18175000  0.55583000  1.0
  C  C54  1  0.88741000  0.68174000  0.05583000  1.0
  C  C55  1  0.11261000  0.18175000  0.94417000  1.0
  C  C56  1  0.32470000  0.58129000  0.50695000  1.0
  C  C57  1  0.67529000  0.08130000  0.49305000  1.0
  C  C58  1  0.82472000  0.58131000  0.99305000  1.0
  C  C59  1  0.17530000  0.08130000  0.00695000  1.0
  S  S60  1  0.32469000  0.37903000  0.70456000  1.0
  S  S61  1  0.67531000  0.87904000  0.29544000  1.0
  S  S62  1  0.82469000  0.37903000  0.79543000  1.0
  S  S63  1  0.17532000  0.87903000  0.20456000  1.0
  S  S64  1  0.82247000  0.61504000  0.48327000  1.0
  S  S65  1  0.17751000  0.11503000  0.51673000  1.0
  S  S66  1  0.32250000  0.61504000  0.01673000  1.0
  S  S67  1  0.67752000  0.11504000  0.98327000  1.0
  N  N68  1  0.44970000  0.61747000  0.80626000  1.0
  N  N69  1  0.55029000  0.11748000  0.19374000  1.0
  N  N70  1  0.94970000  0.61747000  0.69373000  1.0
  N  N71  1  0.05030000  0.11747000  0.30627000  1.0
  N  N72  1  0.34311000  0.71738000  0.67975000  1.0
  N  N73  1  0.65689000  0.21738000  0.32025000  1.0
  N  N74  1  0.84311000  0.71738000  0.82025000  1.0
  N  N75  1  0.15688000  0.21737000  0.17975000  1.0
  N  N76  1  0.15498000  0.56347000  0.52144000  1.0
  N  N77  1  0.84501000  0.06347000  0.47856000  1.0
  N  N78  1  0.65500000  0.56348000  0.97856000  1.0
  N  N79  1  0.34502000  0.06348000  0.02144000  1.0
  N  N80  1  0.09564000  0.75558000  0.41329000  1.0
  N  N81  1  0.90436000  0.25558000  0.58671000  1.0
  N  N82  1  0.59566000  0.75559000  0.08672000  1.0
  N  N83  1  0.40436000  0.25558000  0.91329000  1.0
