# generated using pymatgen
data_ZnH26C36(N5Cl)2
_symmetry_space_group_name_H-M   'P 1'
_cell_length_a   9.81882000
_cell_length_b   11.64410000
_cell_length_c   16.58180000
_cell_angle_alpha   77.34900000
_cell_angle_beta   89.99930000
_cell_angle_gamma   89.99960000
_symmetry_Int_Tables_number   1
_chemical_formula_structural   ZnH26C36(N5Cl)2
_chemical_formula_sum   'Zn2 H52 C72 N20 Cl4'
_cell_volume   1849.79280112
_cell_formula_units_Z   2
loop_
 _symmetry_equiv_pos_site_id
 _symmetry_equiv_pos_as_xyz
  1  'x, y, z'
loop_
 _atom_site_type_symbol
 _atom_site_label
 _atom_site_symmetry_multiplicity
 _atom_site_fract_x
 _atom_site_fract_y
 _atom_site_fract_z
 _atom_site_occupancy
  Zn  Zn0  1  0.47482000  0.50000000  0.75000000  1.0
  Zn  Zn1  1  0.52518000  0.50000000  0.25000000  1.0
  H  H2  1  0.74457000  0.38747000  0.80729000  1.0
  H  H3  1  0.74455000  0.61254000  0.69270000  1.0
  H  H4  1  0.25544000  0.61254000  0.19271000  1.0
  H  H5  1  0.25543000  0.38747000  0.30728000  1.0
  H  H6  1  0.91359000  0.24838000  0.76947000  1.0
  H  H7  1  0.91359000  0.75162000  0.73051000  1.0
  H  H8  1  0.08641000  0.75161000  0.23053000  1.0
  H  H9  1  0.08641000  0.24838000  0.26947000  1.0
  H  H10  1  0.66810000  0.24464000  0.55318000  1.0
  H  H11  1  0.66809000  0.75535000  0.94681000  1.0
  H  H12  1  0.33190000  0.75533000  0.44682000  1.0
  H  H13  1  0.33190000  0.24465000  0.05318000  1.0
  H  H14  1  0.52163000  0.39675000  0.59439000  1.0
  H  H15  1  0.52163000  0.60324000  0.90562000  1.0
  H  H16  1  0.47835000  0.60322000  0.40562000  1.0
  H  H17  1  0.47836000  0.39677000  0.09437000  1.0
  H  H18  1  0.19218000  0.84358000  0.59210000  1.0
  H  H19  1  0.19217000  0.15642000  0.90790000  1.0
  H  H20  1  0.80783000  0.15643000  0.40790000  1.0
  H  H21  1  0.80782000  0.84361000  0.09211000  1.0
  H  H22  1  0.18357000  0.65205000  0.55614000  1.0
  H  H23  1  0.18356000  0.34795000  0.94386000  1.0
  H  H24  1  0.81645000  0.34796000  0.44387000  1.0
  H  H25  1  0.81641000  0.65207000  0.05614000  1.0
  H  H26  1  0.76113000  0.66076000  0.53748000  1.0
  H  H27  1  0.76112000  0.33925000  0.96253000  1.0
  H  H28  1  0.23889000  0.33922000  0.46253000  1.0
  H  H29  1  0.23885000  0.66076000  0.03747000  1.0
  H  H30  1  0.75169000  0.85883000  0.57080000  1.0
  H  H31  1  0.75168000  0.14120000  0.92921000  1.0
  H  H32  1  0.24832000  0.14117000  0.42920000  1.0
  H  H33  1  0.24831000  0.85881000  0.07080000  1.0
  H  H34  1  0.03366000  0.38636000  0.60717000  1.0
  H  H35  1  0.03365000  0.61364000  0.89283000  1.0
  H  H36  1  0.96634000  0.61363000  0.39284000  1.0
  H  H37  1  0.96635000  0.38636000  0.10717000  1.0
  H  H38  1  0.20329000  0.51698000  0.65367000  1.0
  H  H39  1  0.20329000  0.48303000  0.84634000  1.0
  H  H40  1  0.79672000  0.48301000  0.34634000  1.0
  H  H41  1  0.79672000  0.51698000  0.15367000  1.0
  H  H42  1  0.43182000  0.23728000  0.77855000  1.0
  H  H43  1  0.43182000  0.76272000  0.72146000  1.0
  H  H44  1  0.56819000  0.76271000  0.22147000  1.0
  H  H45  1  0.56819000  0.23728000  0.27855000  1.0
  H  H46  1  0.27619000  0.09137000  0.73612000  1.0
  H  H47  1  0.27619000  0.90863000  0.76387000  1.0
  H  H48  1  0.72382000  0.90862000  0.26390000  1.0
  H  H49  1  0.72381000  0.09137000  0.23611000  1.0
  H  H50  1  0.17808000  0.01474000  0.62171000  1.0
  H  H51  1  0.17807000  0.98527000  0.87828000  1.0
  H  H52  1  0.82192000  0.98527000  0.37828000  1.0
  H  H53  1  0.82192000  0.01474000  0.12171000  1.0
  C  C54  1  0.73485000  0.35640000  0.75017000  1.0
  C  C55  1  0.73484000  0.64360000  0.74982000  1.0
  C  C56  1  0.26515000  0.64360000  0.24982000  1.0
  C  C57  1  0.26515000  0.35640000  0.25017000  1.0
  C  C58  1  0.82716000  0.27766000  0.72933000  1.0
  C  C59  1  0.82716000  0.72234000  0.77066000  1.0
  C  C60  1  0.17284000  0.72233000  0.27067000  1.0
  C  C61  1  0.17283000  0.27767000  0.22933000  1.0
  C  C62  1  0.80489000  0.23295000  0.65848000  1.0
  C  C63  1  0.80489000  0.76704000  0.84152000  1.0
  C  C64  1  0.19511000  0.76704000  0.34153000  1.0
  C  C65  1  0.19511000  0.23296000  0.15847000  1.0
  C  C66  1  0.69099000  0.27441000  0.60958000  1.0
  C  C67  1  0.69099000  0.72559000  0.89042000  1.0
  C  C68  1  0.30901000  0.72558000  0.39043000  1.0
  C  C69  1  0.30901000  0.27442000  0.10957000  1.0
  C  C70  1  0.60723000  0.35803000  0.63281000  1.0
  C  C71  1  0.60723000  0.64196000  0.86718000  1.0
  C  C72  1  0.39277000  0.64195000  0.36719000  1.0
  C  C73  1  0.39277000  0.35804000  0.13281000  1.0
  C  C74  1  0.89880000  0.14518000  0.63878000  1.0
  C  C75  1  0.89879000  0.85482000  0.86122000  1.0
  C  C76  1  0.10121000  0.85481000  0.36122000  1.0
  C  C77  1  0.10120000  0.14519000  0.13877000  1.0
  C  C78  1  0.04106000  0.14349000  0.64718000  1.0
  C  C79  1  0.04105000  0.85651000  0.85281000  1.0
  C  C80  1  0.95895000  0.85649000  0.35282000  1.0
  C  C81  1  0.95894000  0.14350000  0.14717000  1.0
  C  C82  1  0.96654000  0.98254000  0.60847000  1.0
  C  C83  1  0.96653000  0.01746000  0.89153000  1.0
  C  C84  1  0.03347000  0.01746000  0.39153000  1.0
  C  C85  1  0.03346000  0.98255000  0.10846000  1.0
  C  C86  1  0.97059000  0.86953000  0.58478000  1.0
  C  C87  1  0.97057000  0.13048000  0.91522000  1.0
  C  C88  1  0.02943000  0.13048000  0.41521000  1.0
  C  C89  1  0.02941000  0.86953000  0.08478000  1.0
  C  C90  1  0.09282000  0.80845000  0.58059000  1.0
  C  C91  1  0.09280000  0.19154000  0.91941000  1.0
  C  C92  1  0.90720000  0.19155000  0.41941000  1.0
  C  C93  1  0.90718000  0.80847000  0.08059000  1.0
  C  C94  1  0.08803000  0.69837000  0.56068000  1.0
  C  C95  1  0.08802000  0.30163000  0.93932000  1.0
  C  C96  1  0.91199000  0.30163000  0.43933000  1.0
  C  C97  1  0.91196000  0.69839000  0.06067000  1.0
  C  C98  1  0.85546000  0.70447000  0.54910000  1.0
  C  C99  1  0.85546000  0.29553000  0.95090000  1.0
  C  C100  1  0.14455000  0.29552000  0.45091000  1.0
  C  C101  1  0.14452000  0.70448000  0.04909000  1.0
  C  C102  1  0.84926000  0.81559000  0.56729000  1.0
  C  C103  1  0.84924000  0.18442000  0.93272000  1.0
  C  C104  1  0.15076000  0.18440000  0.43271000  1.0
  C  C105  1  0.15074000  0.81559000  0.06729000  1.0
  C  C106  1  0.13769000  0.22560000  0.66982000  1.0
  C  C107  1  0.13768000  0.77440000  0.83018000  1.0
  C  C108  1  0.86231000  0.77439000  0.33020000  1.0
  C  C109  1  0.86231000  0.22560000  0.16981000  1.0
  C  C110  1  0.11811000  0.34808000  0.64658000  1.0
  C  C111  1  0.11811000  0.65191000  0.85342000  1.0
  C  C112  1  0.88189000  0.65191000  0.35343000  1.0
  C  C113  1  0.88190000  0.34809000  0.14658000  1.0
  C  C114  1  0.21286000  0.42171000  0.67162000  1.0
  C  C115  1  0.21286000  0.57829000  0.82838000  1.0
  C  C116  1  0.78714000  0.57828000  0.32839000  1.0
  C  C117  1  0.78714000  0.42171000  0.17162000  1.0
  C  C118  1  0.34299000  0.26517000  0.73967000  1.0
  C  C119  1  0.34299000  0.73482000  0.76033000  1.0
  C  C120  1  0.65702000  0.73482000  0.26035000  1.0
  C  C121  1  0.65701000  0.26518000  0.23967000  1.0
  C  C122  1  0.25490000  0.18518000  0.71631000  1.0
  C  C123  1  0.25491000  0.81482000  0.78369000  1.0
  C  C124  1  0.74509000  0.81481000  0.28372000  1.0
  C  C125  1  0.74509000  0.18518000  0.21630000  1.0
  N  N126  1  0.62672000  0.39646000  0.70284000  1.0
  N  N127  1  0.62671000  0.60354000  0.79716000  1.0
  N  N128  1  0.37328000  0.60353000  0.29716000  1.0
  N  N129  1  0.37328000  0.39647000  0.20283000  1.0
  N  N130  1  0.85518000  0.04582000  0.61477000  1.0
  N  N131  1  0.85518000  0.95417000  0.88523000  1.0
  N  N132  1  0.14482000  0.95417000  0.38522000  1.0
  N  N133  1  0.14482000  0.04584000  0.11476000  1.0
  N  N134  1  0.08029000  0.03848000  0.62899000  1.0
  N  N135  1  0.08027000  0.96153000  0.87101000  1.0
  N  N136  1  0.91972000  0.96152000  0.37101000  1.0
  N  N137  1  0.91972000  0.03848000  0.12898000  1.0
  N  N138  1  0.97224000  0.64491000  0.54612000  1.0
  N  N139  1  0.97224000  0.35510000  0.95388000  1.0
  N  N140  1  0.02778000  0.35508000  0.45388000  1.0
  N  N141  1  0.02774000  0.64491000  0.04612000  1.0
  N  N142  1  0.32237000  0.38190000  0.71782000  1.0
  N  N143  1  0.32237000  0.61809000  0.78219000  1.0
  N  N144  1  0.67764000  0.61809000  0.28219000  1.0
  N  N145  1  0.67763000  0.38190000  0.21782000  1.0
  Cl  Cl146  1  0.47096000  0.63481000  0.60677000  1.0
  Cl  Cl147  1  0.47096000  0.36519000  0.89323000  1.0
  Cl  Cl148  1  0.52905000  0.36519000  0.39322000  1.0
  Cl  Cl149  1  0.52906000  0.63481000  0.10678000  1.0
