# generated using pymatgen
data_KH10C15NO5
_symmetry_space_group_name_H-M   'P 1'
_cell_length_a   6.56990000
_cell_length_b   8.79414000
_cell_length_c   11.14670000
_cell_angle_alpha   100.21300000
_cell_angle_beta   89.99950000
_cell_angle_gamma   89.99980000
_symmetry_Int_Tables_number   1
_chemical_formula_structural   KH10C15NO5
_chemical_formula_sum   'K2 H20 C30 N2 O10'
_cell_volume   633.81443863
_cell_formula_units_Z   2
loop_
 _symmetry_equiv_pos_site_id
 _symmetry_equiv_pos_as_xyz
  1  'x, y, z'
loop_
 _atom_site_type_symbol
 _atom_site_label
 _atom_site_symmetry_multiplicity
 _atom_site_fract_x
 _atom_site_fract_y
 _atom_site_fract_z
 _atom_site_occupancy
  K  K0  1  0.39419000  0.41738000  0.88583000  1.0
  K  K1  1  0.89420000  0.58262000  0.11418000  1.0
  H  H2  1  0.99234000  0.70739000  0.89012000  1.0
  H  H3  1  0.49234000  0.29261000  0.10988000  1.0
  H  H4  1  0.41089000  0.23485000  0.59071000  1.0
  H  H5  1  0.91088000  0.76515000  0.40929000  1.0
  H  H6  1  0.40350000  0.23206000  0.36418000  1.0
  H  H7  1  0.90350000  0.76794000  0.63582000  1.0
  H  H8  1  0.40151000  0.98800000  0.22077000  1.0
  H  H9  1  0.90151000  0.01200000  0.77923000  1.0
  H  H10  1  0.40591000  0.69860000  0.18129000  1.0
  H  H11  1  0.90593000  0.30141000  0.81871000  1.0
  H  H12  1  0.39231000  0.45242000  0.26267000  1.0
  H  H13  1  0.89231000  0.54758000  0.73733000  1.0
  H  H14  1  0.40279000  0.45843000  0.48791000  1.0
  H  H15  1  0.90278000  0.54157000  0.51208000  1.0
  H  H16  1  0.47567000  0.97245000  0.91053000  1.0
  H  H17  1  0.97567000  0.02755000  0.08947000  1.0
  H  H18  1  0.26661000  0.86344000  0.03939000  1.0
  H  H19  1  0.76662000  0.13655000  0.96061000  1.0
  H  H20  1  0.12581000  0.92162000  0.91923000  1.0
  H  H21  1  0.62581000  0.07838000  0.08077000  1.0
  C  C22  1  0.41289000  0.99057000  0.70307000  1.0
  C  C23  1  0.91287000  0.00943000  0.29693000  1.0
  C  C24  1  0.40994000  0.98820000  0.57075000  1.0
  C  C25  1  0.90993000  0.01180000  0.42925000  1.0
  C  C26  1  0.40837000  0.84550000  0.48865000  1.0
  C  C27  1  0.90836000  0.15450000  0.51135000  1.0
  C  C28  1  0.40911000  0.70437000  0.53290000  1.0
  C  C29  1  0.90910000  0.29564000  0.46710000  1.0
  C  C30  1  0.41759000  0.70383000  0.66485000  1.0
  C  C31  1  0.91758000  0.29616000  0.33515000  1.0
  C  C32  1  0.40969000  0.12601000  0.52621000  1.0
  C  C33  1  0.90968000  0.87399000  0.47379000  1.0
  C  C34  1  0.40747000  0.12464000  0.39975000  1.0
  C  C35  1  0.90747000  0.87536000  0.60025000  1.0
  C  C36  1  0.40645000  0.98660000  0.31828000  1.0
  C  C37  1  0.90645000  0.01340000  0.68172000  1.0
  C  C38  1  0.40667000  0.84371000  0.36016000  1.0
  C  C39  1  0.90667000  0.15629000  0.63983000  1.0
  C  C40  1  0.40316000  0.69958000  0.27959000  1.0
  C  C41  1  0.90316000  0.30042000  0.72041000  1.0
  C  C42  1  0.39979000  0.56279000  0.32477000  1.0
  C  C43  1  0.89979000  0.43722000  0.67522000  1.0
  C  C44  1  0.40369000  0.56529000  0.45133000  1.0
  C  C45  1  0.90369000  0.43471000  0.54867000  1.0
  C  C46  1  0.43199000  0.85193000  0.87544000  1.0
  C  C47  1  0.93198000  0.14806000  0.12456000  1.0
  C  C48  1  0.23166000  0.83321000  0.94117000  1.0
  C  C49  1  0.73166000  0.16678000  0.05883000  1.0
  C  C50  1  0.61408000  0.75537000  0.90717000  1.0
  C  C51  1  0.11408000  0.24462000  0.09283000  1.0
  N  N52  1  0.41426000  0.84758000  0.74308000  1.0
  N  N53  1  0.91426000  0.15242000  0.25692000  1.0
  O  O54  1  0.41550000  0.11276000  0.77836000  1.0
  O  O55  1  0.91547000  0.88724000  0.22165000  1.0
  O  O56  1  0.42925000  0.58279000  0.70656000  1.0
  O  O57  1  0.92925000  0.41720000  0.29344000  1.0
  O  O58  1  0.13595000  0.68598000  0.91582000  1.0
  O  O59  1  0.63595000  0.31401000  0.08418000  1.0
  O  O60  1  0.59090000  0.67754000  0.99115000  1.0
  O  O61  1  0.09090000  0.32246000  0.00885000  1.0
  O  O62  1  0.77832000  0.77081000  0.84983000  1.0
  O  O63  1  0.27831000  0.22919000  0.15017000  1.0
