# generated using pymatgen
data_Cd2H22C29(NO4)2
_symmetry_space_group_name_H-M   'P 1'
_cell_length_a   9.69282000
_cell_length_b   10.26510000
_cell_length_c   14.82050000
_cell_angle_alpha   88.93130000
_cell_angle_beta   71.70400000
_cell_angle_gamma   75.78910000
_symmetry_Int_Tables_number   1
_chemical_formula_structural   Cd2H22C29(NO4)2
_chemical_formula_sum   'Cd4 H44 C58 N4 O16'
_cell_volume   1354.48141513
_cell_formula_units_Z   2
loop_
 _symmetry_equiv_pos_site_id
 _symmetry_equiv_pos_as_xyz
  1  'x, y, z'
loop_
 _atom_site_type_symbol
 _atom_site_label
 _atom_site_symmetry_multiplicity
 _atom_site_fract_x
 _atom_site_fract_y
 _atom_site_fract_z
 _atom_site_occupancy
  Cd  Cd0  1  0.03369000  0.90208000  0.19742000  1.0
  Cd  Cd1  1  0.96631000  0.09792000  0.80258000  1.0
  Cd  Cd2  1  0.91100000  0.10835000  0.41407000  1.0
  Cd  Cd3  1  0.08900000  0.89165000  0.58593000  1.0
  H  H4  1  0.37147000  0.74041000  0.12197000  1.0
  H  H5  1  0.62852000  0.25959000  0.87803000  1.0
  H  H6  1  0.14139000  0.05538000  0.00311000  1.0
  H  H7  1  0.85861000  0.94462000  0.99689000  1.0
  H  H8  1  0.59544000  0.69560000  0.97492000  1.0
  H  H9  1  0.40456000  0.30439000  0.02508000  1.0
  H  H10  1  0.35461000  0.02670000  0.85435000  1.0
  H  H11  1  0.64539000  0.97330000  0.14565000  1.0
  H  H12  1  0.42232000  0.04611000  0.39907000  1.0
  H  H13  1  0.57768000  0.95389000  0.60093000  1.0
  H  H14  1  0.38914000  0.66555000  0.30173000  1.0
  H  H15  1  0.61086000  0.33445000  0.69827000  1.0
  H  H16  1  0.01514000  0.43823000  0.21408000  1.0
  H  H17  1  0.98487000  0.56177000  0.78592000  1.0
  H  H18  1  0.75259000  0.26235000  0.08976000  1.0
  H  H19  1  0.24741000  0.73765000  0.91024000  1.0
  H  H20  1  0.65357000  0.56180000  0.29609000  1.0
  H  H21  1  0.34643000  0.43820000  0.70391000  1.0
  H  H22  1  0.68431000  0.47575000  0.01265000  1.0
  H  H23  1  0.31569000  0.52425000  0.98735000  1.0
  H  H24  1  0.61439000  0.91750000  0.76724000  1.0
  H  H25  1  0.38561000  0.08250000  0.23276000  1.0
  H  H26  1  0.73070000  0.81400000  0.82494000  1.0
  H  H27  1  0.26930000  0.18600000  0.17506000  1.0
  H  H28  1  0.80539000  0.70643000  0.33170000  1.0
  H  H29  1  0.19461000  0.29357000  0.66830000  1.0
  H  H30  1  0.78269000  0.67279000  0.03925000  1.0
  H  H31  1  0.21731000  0.32721000  0.96075000  1.0
  H  H32  1  0.64943000  0.61386000  0.79090000  1.0
  H  H33  1  0.35057000  0.38614000  0.20910000  1.0
  H  H34  1  0.52212000  0.71420000  0.73845000  1.0
  H  H35  1  0.47788000  0.28580000  0.26155000  1.0
  H  H36  1  0.86088000  0.69310000  0.66884000  1.0
  H  H37  1  0.13912000  0.30690000  0.33116000  1.0
  H  H38  1  0.73050000  0.77036000  0.61090000  1.0
  H  H39  1  0.26950000  0.22964000  0.38910000  1.0
  H  H40  1  0.63285000  0.62538000  0.52051000  1.0
  H  H41  1  0.36715000  0.37463000  0.47949000  1.0
  H  H42  1  0.94769000  0.44441000  0.66693000  1.0
  H  H43  1  0.05231000  0.55558000  0.33307000  1.0
  H  H44  1  0.69554000  0.40233000  0.43273000  1.0
  H  H45  1  0.30445000  0.59767000  0.56727000  1.0
  H  H46  1  0.00314000  0.23255000  0.57110000  1.0
  H  H47  1  0.99686000  0.76745000  0.42890000  1.0
  C  C48  1  0.23185000  0.92180000  0.35203000  1.0
  C  C49  1  0.76815000  0.07820000  0.64797000  1.0
  C  C50  1  0.92290000  0.21103000  0.20676000  1.0
  C  C51  1  0.07710000  0.78897000  0.79324000  1.0
  C  C52  1  0.37288000  0.80031000  0.06027000  1.0
  C  C53  1  0.62712000  0.19969000  0.93973000  1.0
  C  C54  1  0.24424000  0.97714000  0.99512000  1.0
  C  C55  1  0.75576000  0.02286000  0.00488000  1.0
  C  C56  1  0.38905000  0.86157000  0.35139000  1.0
  C  C57  1  0.61095000  0.13843000  0.64861000  1.0
  C  C58  1  0.88586000  0.33772000  0.15785000  1.0
  C  C59  1  0.11415000  0.66228000  0.84215000  1.0
  C  C60  1  0.49687000  0.77660000  0.97845000  1.0
  C  C61  1  0.50313000  0.22340000  0.02155000  1.0
  C  C62  1  0.36497000  0.96002000  0.91122000  1.0
  C  C63  1  0.63503000  0.03998000  0.08878000  1.0
  C  C64  1  0.47256000  0.94063000  0.37487000  1.0
  C  C65  1  0.52744000  0.05937000  0.62513000  1.0
  C  C66  1  0.45523000  0.72541000  0.32135000  1.0
  C  C67  1  0.54477000  0.27459000  0.67865000  1.0
  C  C68  1  0.94271000  0.44639000  0.16997000  1.0
  C  C69  1  0.05729000  0.55361000  0.83003000  1.0
  C  C70  1  0.79382000  0.34859000  0.10009000  1.0
  C  C71  1  0.20619000  0.65141000  0.89991000  1.0
  C  C72  1  0.49453000  0.85657000  0.90083000  1.0
  C  C73  1  0.50547000  0.14343000  0.09917000  1.0
  C  C74  1  0.62427000  0.88591000  0.36435000  1.0
  C  C75  1  0.37573000  0.11409000  0.63565000  1.0
  C  C76  1  0.60287000  0.66816000  0.31784000  1.0
  C  C77  1  0.39713000  0.33184000  0.68216000  1.0
  C  C78  1  0.90625000  0.56610000  0.12653000  1.0
  C  C79  1  0.09376000  0.43390000  0.87347000  1.0
  C  C80  1  0.75588000  0.46859000  0.05747000  1.0
  C  C81  1  0.24412000  0.53141000  0.94253000  1.0
  C  C82  1  0.62393000  0.82898000  0.80971000  1.0
  C  C83  1  0.37607000  0.17102000  0.19029000  1.0
  C  C84  1  0.71740000  0.97437000  0.37905000  1.0
  C  C85  1  0.28260000  0.02563000  0.62095000  1.0
  C  C86  1  0.68800000  0.74851000  0.33793000  1.0
  C  C87  1  0.31200000  0.25149000  0.66207000  1.0
  C  C88  1  0.81107000  0.57746000  0.07104000  1.0
  C  C89  1  0.18893000  0.42254000  0.92896000  1.0
  C  C90  1  0.96073000  0.68394000  0.14457000  1.0
  C  C91  1  0.03927000  0.31607000  0.85543000  1.0
  C  C92  1  0.63051000  0.70431000  0.75071000  1.0
  C  C93  1  0.36949000  0.29569000  0.24929000  1.0
  C  C94  1  0.75771000  0.68658000  0.65488000  1.0
  C  C95  1  0.24229000  0.31342000  0.34512000  1.0
  C  C96  1  0.78732000  0.55526000  0.60064000  1.0
  C  C97  1  0.21268000  0.44474000  0.39936000  1.0
  C  C98  1  0.71481000  0.54041000  0.53445000  1.0
  C  C99  1  0.28518000  0.45959000  0.46555000  1.0
  C  C100  1  0.89095000  0.44139000  0.61442000  1.0
  C  C101  1  0.10905000  0.55861000  0.38558000  1.0
  C  C102  1  0.74967000  0.41679000  0.48483000  1.0
  C  C103  1  0.25033000  0.58321000  0.51517000  1.0
  C  C104  1  0.92122000  0.32141000  0.56178000  1.0
  C  C105  1  0.07878000  0.67859000  0.43822000  1.0
  N  N106  1  0.24731000  0.89830000  0.06840000  1.0
  N  N107  1  0.75269000  0.10170000  0.93160000  1.0
  N  N108  1  0.85206000  0.30881000  0.49757000  1.0
  N  N109  1  0.14794000  0.69119000  0.50243000  1.0
  O  O110  1  0.05530000  0.66769000  0.19052000  1.0
  O  O111  1  0.94470000  0.33231000  0.80948000  1.0
  O  O112  1  0.90630000  0.79819000  0.11764000  1.0
  O  O113  1  0.09370000  0.20181000  0.88236000  1.0
  O  O114  1  0.19897000  0.88950000  0.28148000  1.0
  O  O115  1  0.80103000  0.11050000  0.71852000  1.0
  O  O116  1  0.86072000  0.92019000  0.36036000  1.0
  O  O117  1  0.13928000  0.07982000  0.63964000  1.0
  O  O118  1  0.90214000  0.10537000  0.17517000  1.0
  O  O119  1  0.09786000  0.89463000  0.82483000  1.0
  O  O120  1  0.14220000  0.00197000  0.42407000  1.0
  O  O121  1  0.85780000  0.99803000  0.57593000  1.0
  O  O122  1  0.97332000  0.21779000  0.27608000  1.0
  O  O123  1  0.02668000  0.78221000  0.72392000  1.0
  O  O124  1  0.65997000  0.09622000  0.40832000  1.0
  O  O125  1  0.34003000  0.90378000  0.59168000  1.0
