# generated using pymatgen
data_CdH25C36N7O5
_symmetry_space_group_name_H-M   'P 1'
_cell_length_a   12.27380000
_cell_length_b   12.45370000
_cell_length_c   15.22150000
_cell_angle_alpha   88.11110000
_cell_angle_beta   77.19100000
_cell_angle_gamma   78.59370000
_symmetry_Int_Tables_number   1
_chemical_formula_structural   CdH25C36N7O5
_chemical_formula_sum   'Cd2 H50 C72 N14 O10'
_cell_volume   2223.81663674
_cell_formula_units_Z   2
loop_
 _symmetry_equiv_pos_site_id
 _symmetry_equiv_pos_as_xyz
  1  'x, y, z'
loop_
 _atom_site_type_symbol
 _atom_site_label
 _atom_site_symmetry_multiplicity
 _atom_site_fract_x
 _atom_site_fract_y
 _atom_site_fract_z
 _atom_site_occupancy
  Cd  Cd0  1  0.83209000  0.53802000  0.53738000  1.0
  Cd  Cd1  1  0.16791000  0.46199000  0.46263000  1.0
  H  H2  1  0.92128000  0.97126000  0.88054000  1.0
  H  H3  1  0.07872000  0.02874000  0.11946000  1.0
  H  H4  1  0.92246000  0.82654000  0.77387000  1.0
  H  H5  1  0.07754000  0.17346000  0.22613000  1.0
  H  H6  1  0.73333000  0.66019000  0.99172000  1.0
  H  H7  1  0.26667000  0.33981000  0.00828000  1.0
  H  H8  1  0.74066000  0.80060000  0.09788000  1.0
  H  H9  1  0.25934000  0.19940000  0.90212000  1.0
  H  H10  1  0.88480000  0.72176000  0.68355000  1.0
  H  H11  1  0.11519000  0.27824000  0.31645000  1.0
  H  H12  1  0.77665000  0.42252000  0.74254000  1.0
  H  H13  1  0.22335000  0.57748000  0.25747000  1.0
  H  H14  1  0.75651000  0.52933000  0.90438000  1.0
  H  H15  1  0.24349000  0.47067000  0.09563000  1.0
  H  H16  1  0.89800000  0.25431000  0.95530000  1.0
  H  H17  1  0.10200000  0.74569000  0.04470000  1.0
  H  H18  1  0.91800000  0.45029000  0.94378000  1.0
  H  H19  1  0.08201000  0.54970000  0.05622000  1.0
  H  H20  1  0.88432000  0.56267000  0.08286000  1.0
  H  H21  1  0.11568000  0.43733000  0.91714000  1.0
  H  H22  1  0.81156000  0.28376000  0.24466000  1.0
  H  H23  1  0.18844000  0.71624000  0.75535000  1.0
  H  H24  1  0.90310000  0.38039000  0.34004000  1.0
  H  H25  1  0.09690000  0.61961000  0.65996000  1.0
  H  H26  1  0.74763000  0.71441000  0.37938000  1.0
  H  H27  1  0.25238000  0.28559000  0.62062000  1.0
  H  H28  1  0.73950000  0.64904000  0.20735000  1.0
  H  H29  1  0.26051000  0.35096000  0.79265000  1.0
  H  H30  1  0.50811000  0.86210000  0.63370000  1.0
  H  H31  1  0.49189000  0.13790000  0.36630000  1.0
  H  H32  1  0.30252000  0.95093000  0.65642000  1.0
  H  H33  1  0.69748000  0.04907000  0.34358000  1.0
  H  H34  1  0.23797000  0.66938000  0.53408000  1.0
  H  H35  1  0.76203000  0.33062000  0.46592000  1.0
  H  H36  1  0.43930000  0.57891000  0.51725000  1.0
  H  H37  1  0.56070000  0.42109000  0.48275000  1.0
  H  H38  1  0.84434000  0.17249000  0.64556000  1.0
  H  H39  1  0.15566000  0.82751000  0.35444000  1.0
  H  H40  1  0.92132000  0.97576000  0.67605000  1.0
  H  H41  1  0.07868000  0.02424000  0.32395000  1.0
  H  H42  1  0.24809000  0.00628000  0.51240000  1.0
  H  H43  1  0.75190000  0.99371000  0.48760000  1.0
  H  H44  1  0.17150000  0.19972000  0.48185000  1.0
  H  H45  1  0.82849000  0.80028000  0.51815000  1.0
  H  H46  1  0.89999000  0.89868000  0.25383000  1.0
  H  H47  1  0.10001000  0.10132000  0.74617000  1.0
  H  H48  1  0.89558000  0.81036000  0.16480000  1.0
  H  H49  1  0.10442000  0.18964000  0.83520000  1.0
  H  H50  1  0.76653000  0.87274000  0.24063000  1.0
  H  H51  1  0.23347000  0.12726000  0.75937000  1.0
  C  C52  1  0.84046000  0.98360000  0.05574000  1.0
  C  C53  1  0.15954000  0.01640000  0.94426000  1.0
  C  C54  1  0.84794000  0.14058000  0.10260000  1.0
  C  C55  1  0.15206000  0.85942000  0.89740000  1.0
  C  C56  1  0.83481000  0.89516000  0.99720000  1.0
  C  C57  1  0.16519000  0.10484000  0.00280000  1.0
  C  C58  1  0.88144000  0.90201000  0.90455000  1.0
  C  C59  1  0.11855000  0.09799000  0.09545000  1.0
  C  C60  1  0.87980000  0.82151000  0.84432000  1.0
  C  C61  1  0.12019000  0.17849000  0.15568000  1.0
  C  C62  1  0.82693000  0.73316000  0.87520000  1.0
  C  C63  1  0.17307000  0.26684000  0.12480000  1.0
  C  C64  1  0.77740000  0.72657000  0.96692000  1.0
  C  C65  1  0.22260000  0.27343000  0.03308000  1.0
  C  C66  1  0.78224000  0.80626000  0.02727000  1.0
  C  C67  1  0.21776000  0.19374000  0.97273000  1.0
  C  C68  1  0.85237000  0.65517000  0.72143000  1.0
  C  C69  1  0.14762000  0.34483000  0.27857000  1.0
  C  C70  1  0.79555000  0.50116000  0.75566000  1.0
  C  C71  1  0.20445000  0.49884000  0.24434000  1.0
  C  C72  1  0.78570000  0.55327000  0.83567000  1.0
  C  C73  1  0.21430000  0.44673000  0.16433000  1.0
  C  C74  1  0.88396000  0.30460000  0.01548000  1.0
  C  C75  1  0.11604000  0.69541000  0.98452000  1.0
  C  C76  1  0.89377000  0.41404000  0.00953000  1.0
  C  C77  1  0.10623000  0.58596000  0.99047000  1.0
  C  C78  1  0.87483000  0.47740000  0.08728000  1.0
  C  C79  1  0.12517000  0.52261000  0.91272000  1.0
  C  C80  1  0.84598000  0.42959000  0.17153000  1.0
  C  C81  1  0.15403000  0.57041000  0.82847000  1.0
  C  C82  1  0.83583000  0.31969000  0.17876000  1.0
  C  C83  1  0.16417000  0.68031000  0.82124000  1.0
  C  C84  1  0.85546000  0.25656000  0.10014000  1.0
  C  C85  1  0.14455000  0.74345000  0.89986000  1.0
  C  C86  1  0.86135000  0.46342000  0.32836000  1.0
  C  C87  1  0.13865000  0.53658000  0.67164000  1.0
  C  C88  1  0.78083000  0.63629000  0.34437000  1.0
  C  C89  1  0.21918000  0.36371000  0.65563000  1.0
  C  C90  1  0.77671000  0.60557000  0.25968000  1.0
  C  C91  1  0.22329000  0.39443000  0.74032000  1.0
  C  C92  1  0.13151000  0.86120000  0.61506000  1.0
  C  C93  1  0.86848000  0.13880000  0.38494000  1.0
  C  C94  1  0.60948000  0.65976000  0.56455000  1.0
  C  C95  1  0.39052000  0.34024000  0.43545000  1.0
  C  C96  1  0.48634000  0.71449000  0.57603000  1.0
  C  C97  1  0.51366000  0.28551000  0.42397000  1.0
  C  C98  1  0.44736000  0.82032000  0.61338000  1.0
  C  C99  1  0.55264000  0.17968000  0.38662000  1.0
  C  C100  1  0.33312000  0.87028000  0.62465000  1.0
  C  C101  1  0.66688000  0.12972000  0.37535000  1.0
  C  C102  1  0.25577000  0.81520000  0.59816000  1.0
  C  C103  1  0.74423000  0.18480000  0.40184000  1.0
  C  C104  1  0.29591000  0.71021000  0.55896000  1.0
  C  C105  1  0.70409000  0.28979000  0.44104000  1.0
  C  C106  1  0.40981000  0.66012000  0.54827000  1.0
  C  C107  1  0.59019000  0.33989000  0.45173000  1.0
  C  C108  1  0.95362000  0.31432000  0.54294000  1.0
  C  C109  1  0.04638000  0.68568000  0.45706000  1.0
  C  C110  1  0.00297000  0.19798000  0.56256000  1.0
  C  C111  1  0.99703000  0.80202000  0.43744000  1.0
  C  C112  1  0.93287000  0.13467000  0.61783000  1.0
  C  C113  1  0.06713000  0.86533000  0.38217000  1.0
  C  C114  1  0.97574000  0.02614000  0.63486000  1.0
  C  C115  1  0.02426000  0.97386000  0.36514000  1.0
  C  C116  1  0.09021000  0.97883000  0.59829000  1.0
  C  C117  1  0.90979000  0.02117000  0.40171000  1.0
  C  C118  1  0.16001000  0.04262000  0.54304000  1.0
  C  C119  1  0.83999000  0.95738000  0.45696000  1.0
  C  C120  1  0.11672000  0.15116000  0.52492000  1.0
  C  C121  1  0.88328000  0.84884000  0.47508000  1.0
  C  C122  1  0.85148000  0.88425000  0.20455000  1.0
  C  C123  1  0.14852000  0.11575000  0.79544000  1.0
  N  N124  1  0.84366000  0.97798000  0.14523000  1.0
  N  N125  1  0.15634000  0.02202000  0.85477000  1.0
  N  N126  1  0.84812000  0.07782000  0.17596000  1.0
  N  N127  1  0.15188000  0.92218000  0.82404000  1.0
  N  N128  1  0.84435000  0.08574000  0.02751000  1.0
  N  N129  1  0.15566000  0.91426000  0.97249000  1.0
  N  N130  1  0.82263000  0.65165000  0.81384000  1.0
  N  N131  1  0.17737000  0.34835000  0.18616000  1.0
  N  N132  1  0.83682000  0.56568000  0.68560000  1.0
  N  N133  1  0.16317000  0.43432000  0.31440000  1.0
  N  N134  1  0.82769000  0.49528000  0.25014000  1.0
  N  N135  1  0.17232000  0.50472000  0.74986000  1.0
  N  N136  1  0.83430000  0.54721000  0.38584000  1.0
  N  N137  1  0.16570000  0.45279000  0.61416000  1.0
  O  O138  1  0.06215000  0.80010000  0.64188000  1.0
  O  O139  1  0.93785000  0.19990000  0.35812000  1.0
  O  O140  1  0.68392000  0.71935000  0.55823000  1.0
  O  O141  1  0.31608000  0.28066000  0.44177000  1.0
  O  O142  1  0.63290000  0.55513000  0.56081000  1.0
  O  O143  1  0.36710000  0.44488000  0.43919000  1.0
  O  O144  1  0.01317000  0.36892000  0.48600000  1.0
  O  O145  1  0.98683000  0.63108000  0.51400000  1.0
  O  O146  1  0.85146000  0.35312000  0.58337000  1.0
  O  O147  1  0.14854000  0.64688000  0.41663000  1.0
