# generated using pymatgen
data_CdH11C15S2N5
_symmetry_space_group_name_H-M   'P 1'
_cell_length_a   8.46219000
_cell_length_b   9.78314000
_cell_length_c   10.97010000
_cell_angle_alpha   85.26220000
_cell_angle_beta   76.18730000
_cell_angle_gamma   70.43980000
_symmetry_Int_Tables_number   1
_chemical_formula_structural   CdH11C15S2N5
_chemical_formula_sum   'Cd2 H22 C30 S4 N10'
_cell_volume   831.01738654
_cell_formula_units_Z   2
loop_
 _symmetry_equiv_pos_site_id
 _symmetry_equiv_pos_as_xyz
  1  'x, y, z'
loop_
 _atom_site_type_symbol
 _atom_site_label
 _atom_site_symmetry_multiplicity
 _atom_site_fract_x
 _atom_site_fract_y
 _atom_site_fract_z
 _atom_site_occupancy
  Cd  Cd0  1  0.55469000  0.90531000  0.74215000  1.0
  Cd  Cd1  1  0.44532000  0.09469000  0.25784000  1.0
  H  H2  1  0.09848000  0.77828000  0.47824000  1.0
  H  H3  1  0.90150000  0.22173000  0.52177000  1.0
  H  H4  1  0.35669000  0.60078000  0.53361000  1.0
  H  H5  1  0.64330000  0.39923000  0.46640000  1.0
  H  H6  1  0.32955000  0.39198000  0.67615000  1.0
  H  H7  1  0.67047000  0.60802000  0.32386000  1.0
  H  H8  1  0.04362000  0.37125000  0.76739000  1.0
  H  H9  1  0.95639000  0.62878000  0.23260000  1.0
  H  H10  1  0.51224000  0.24563000  0.92356000  1.0
  H  H11  1  0.48776000  0.75436000  0.07643000  1.0
  H  H12  1  0.20163000  0.36515000  0.01418000  1.0
  H  H13  1  0.79834000  0.63482000  0.98584000  1.0
  H  H14  1  0.05933000  0.62776000  0.97964000  1.0
  H  H15  1  0.94071000  0.37222000  0.02035000  1.0
  H  H16  1  0.22511000  0.78125000  0.85831000  1.0
  H  H17  1  0.77490000  0.21874000  0.14169000  1.0
  H  H18  1  0.80515000  0.32151000  0.77188000  1.0
  H  H19  1  0.19484000  0.67851000  0.22811000  1.0
  H  H20  1  0.69585000  0.73067000  0.53220000  1.0
  H  H21  1  0.30414000  0.26932000  0.46781000  1.0
  H  H22  1  0.80810000  0.84316000  0.48153000  1.0
  H  H23  1  0.19191000  0.15685000  0.51848000  1.0
  C  C24  1  0.92269000  0.67444000  0.58776000  1.0
  C  C25  1  0.07729000  0.32559000  0.41226000  1.0
  C  C26  1  0.08568000  0.68811000  0.54105000  1.0
  C  C27  1  0.91429000  0.31192000  0.45897000  1.0
  C  C28  1  0.23140000  0.58734000  0.57177000  1.0
  C  C29  1  0.76857000  0.41267000  0.42823000  1.0
  C  C30  1  0.21648000  0.47086000  0.65090000  1.0
  C  C31  1  0.78353000  0.52913000  0.34908000  1.0
  C  C32  1  0.05468000  0.45850000  0.70078000  1.0
  C  C33  1  0.94531000  0.54150000  0.29921000  1.0
  C  C34  1  0.90513000  0.55951000  0.67207000  1.0
  C  C35  1  0.09487000  0.44050000  0.32794000  1.0
  C  C36  1  0.73707000  0.54766000  0.73215000  1.0
  C  C37  1  0.26292000  0.45234000  0.26785000  1.0
  C  C38  1  0.54189000  0.44819000  0.83943000  1.0
  C  C39  1  0.45812000  0.55179000  0.16057000  1.0
  C  C40  1  0.45066000  0.36061000  0.90728000  1.0
  C  C41  1  0.54935000  0.63939000  0.09270000  1.0
  C  C42  1  0.27627000  0.42924000  0.95776000  1.0
  C  C43  1  0.72371000  0.57076000  0.04224000  1.0
  C  C44  1  0.19647000  0.57878000  0.94024000  1.0
  C  C45  1  0.80353000  0.42120000  0.05977000  1.0
  C  C46  1  0.28753000  0.66597000  0.87253000  1.0
  C  C47  1  0.71247000  0.33402000  0.12749000  1.0
  C  C48  1  0.46319000  0.59894000  0.82240000  1.0
  C  C49  1  0.53681000  0.40106000  0.17761000  1.0
  C  C50  1  0.27986000  0.04267000  0.01641000  1.0
  C  C51  1  0.72013000  0.95734000  0.98357000  1.0
  C  C52  1  0.37531000  0.89255000  0.50823000  1.0
  C  C53  1  0.62471000  0.10745000  0.49176000  1.0
  S  S54  1  0.17019000  0.11395000  0.15264000  1.0
  S  S55  1  0.82982000  0.88603000  0.84737000  1.0
  S  S56  1  0.39489000  0.84751000  0.36402000  1.0
  S  S57  1  0.60514000  0.15248000  0.63594000  1.0
  N  N58  1  0.58725000  0.65707000  0.75544000  1.0
  N  N59  1  0.41275000  0.34297000  0.24454000  1.0
  N  N60  1  0.71305000  0.42025000  0.78021000  1.0
  N  N61  1  0.28692000  0.57976000  0.21980000  1.0
  N  N62  1  0.77793000  0.77665000  0.55350000  1.0
  N  N63  1  0.22208000  0.22334000  0.44650000  1.0
  N  N64  1  0.35581000  0.99039000  0.91713000  1.0
  N  N65  1  0.64419000  0.00962000  0.08287000  1.0
  N  N66  1  0.35960000  0.92754000  0.61264000  1.0
  N  N67  1  0.64043000  0.07244000  0.38735000  1.0
