# generated using pymatgen
data_GdH10C16(NO4)2
_symmetry_space_group_name_H-M   'P 1'
_cell_length_a   12.57290000
_cell_length_b   14.58060000
_cell_length_c   16.12053020
_cell_angle_alpha   116.88610881
_cell_angle_beta   97.60544344
_cell_angle_gamma   90.03790000
_symmetry_Int_Tables_number   1
_chemical_formula_structural   GdH10C16(NO4)2
_chemical_formula_sum   'Gd4 H40 C64 N8 O32'
_cell_volume   2606.46961163
_cell_formula_units_Z   4
loop_
 _symmetry_equiv_pos_site_id
 _symmetry_equiv_pos_as_xyz
  1  'x, y, z'
loop_
 _atom_site_type_symbol
 _atom_site_label
 _atom_site_symmetry_multiplicity
 _atom_site_fract_x
 _atom_site_fract_y
 _atom_site_fract_z
 _atom_site_occupancy
  Gd  Gd0  1  0.53747000  0.02873000  0.63243000  1.0
  Gd  Gd1  1  0.96265000  0.39606000  0.36748000  1.0
  Gd  Gd2  1  0.46252000  0.97126000  0.36757000  1.0
  Gd  Gd3  1  0.03736000  0.60395000  0.63253000  1.0
  H  H4  1  0.08274000  0.17604000  0.06967000  1.0
  H  H5  1  0.04193000  0.48950000  0.12304000  1.0
  H  H6  1  0.69079000  0.20571000  0.74845000  1.0
  H  H7  1  0.76504000  0.12545000  0.68286000  1.0
  H  H8  1  0.05501000  0.39310000  0.69152000  1.0
  H  H9  1  0.19193000  0.17600000  0.45071000  1.0
  H  H10  1  0.09830000  0.45073000  0.96690000  1.0
  H  H11  1  0.25948000  0.16625000  0.71537000  1.0
  H  H12  1  0.13974000  0.13686000  0.91269000  1.0
  H  H13  1  0.57898000  0.78375000  0.66474000  1.0
  H  H14  1  0.41746000  0.10630000  0.93013000  1.0
  H  H15  1  0.45762000  0.36660000  0.87691000  1.0
  H  H16  1  0.80883000  0.45698000  0.25164000  1.0
  H  H17  1  0.73507000  0.44156000  0.31722000  1.0
  H  H18  1  0.44584000  0.70134000  0.30896000  1.0
  H  H19  1  0.30838000  0.72518000  0.54957000  1.0
  H  H20  1  0.40123000  0.48374000  0.03312000  1.0
  H  H21  1  0.24125000  0.45042000  0.28501000  1.0
  H  H22  1  0.36049000  0.22373000  0.08710000  1.0
  H  H23  1  0.92137000  0.11858000  0.33502000  1.0
  H  H24  1  0.91722000  0.82393000  0.93032000  1.0
  H  H25  1  0.95807000  0.51048000  0.87697000  1.0
  H  H26  1  0.30921000  0.79430000  0.25155000  1.0
  H  H27  1  0.23496000  0.87455000  0.31713000  1.0
  H  H28  1  0.94501000  0.60690000  0.30849000  1.0
  H  H29  1  0.80808000  0.82400000  0.54930000  1.0
  H  H30  1  0.90168000  0.54926000  0.03311000  1.0
  H  H31  1  0.74052000  0.83373000  0.28464000  1.0
  H  H32  1  0.86021000  0.86313000  0.08730000  1.0
  H  H33  1  0.42100000  0.21626000  0.33527000  1.0
  H  H34  1  0.58249000  0.89369000  0.06984000  1.0
  H  H35  1  0.54242000  0.63340000  0.12310000  1.0
  H  H36  1  0.19118000  0.54304000  0.74837000  1.0
  H  H37  1  0.26492000  0.55846000  0.68278000  1.0
  H  H38  1  0.55417000  0.29865000  0.69104000  1.0
  H  H39  1  0.69163000  0.27483000  0.45044000  1.0
  H  H40  1  0.59881000  0.51627000  0.96689000  1.0
  H  H41  1  0.75877000  0.54957000  0.71499000  1.0
  H  H42  1  0.63946000  0.77626000  0.91287000  1.0
  H  H43  1  0.07867000  0.88144000  0.66491000  1.0
  C  C44  1  0.30952000  0.08015000  0.53844000  1.0
  C  C45  1  0.01885000  0.35586000  0.19405000  1.0
  C  C46  1  0.05758000  0.33421000  0.10385000  1.0
  C  C47  1  0.08631000  0.23498000  0.04599000  1.0
  C  C48  1  0.06327000  0.41256000  0.07602000  1.0
  C  C49  1  0.06259000  0.33267000  0.50443000  1.0
  C  C50  1  0.11819000  0.28940000  0.56463000  1.0
  C  C51  1  0.10526000  0.32891000  0.65938000  1.0
  C  C52  1  0.18189000  0.20643000  0.52438000  1.0
  C  C53  1  0.23465000  0.16372000  0.57933000  1.0
  C  C54  1  0.15321000  0.28188000  0.71257000  1.0
  C  C55  1  0.11925000  0.29052000  0.93052000  1.0
  C  C56  1  0.09408000  0.39134000  0.98995000  1.0
  C  C57  1  0.21972000  0.20052000  0.67305000  1.0
  C  C58  1  0.11751000  0.21335000  0.95980000  1.0
  C  C59  1  0.64413000  0.84364000  0.71463000  1.0
  C  C60  1  0.19074000  0.54136000  0.46175000  1.0
  C  C61  1  0.48128000  0.16210000  0.80586000  1.0
  C  C62  1  0.44246000  0.23046000  0.89606000  1.0
  C  C63  1  0.41388000  0.18893000  0.95388000  1.0
  C  C64  1  0.43650000  0.33660000  0.92396000  1.0
  C  C65  1  0.43753000  0.82828000  0.49592000  1.0
  C  C66  1  0.38229000  0.72457000  0.43571000  1.0
  C  C67  1  0.39553000  0.66924000  0.34105000  1.0
  C  C68  1  0.31852000  0.68183000  0.47594000  1.0
  C  C69  1  0.26593000  0.58401000  0.42102000  1.0
  C  C70  1  0.34757000  0.56896000  0.28783000  1.0
  C  C71  1  0.38078000  0.35980000  0.06949000  1.0
  C  C72  1  0.40567000  0.40131000  0.01006000  1.0
  C  C73  1  0.28096000  0.52709000  0.32732000  1.0
  C  C74  1  0.38264000  0.25331000  0.04009000  1.0
  C  C75  1  0.85604000  0.12878000  0.28543000  1.0
  C  C76  1  0.69049000  0.91986000  0.46158000  1.0
  C  C77  1  0.98115000  0.64414000  0.80596000  1.0
  C  C78  1  0.94240000  0.66577000  0.89614000  1.0
  C  C79  1  0.91366000  0.76500000  0.95401000  1.0
  C  C80  1  0.93672000  0.58744000  0.92399000  1.0
  C  C81  1  0.93741000  0.66732000  0.49557000  1.0
  C  C82  1  0.88181000  0.71061000  0.43538000  1.0
  C  C83  1  0.89474000  0.67108000  0.34063000  1.0
  C  C84  1  0.81812000  0.79358000  0.47564000  1.0
  C  C85  1  0.76536000  0.83629000  0.42069000  1.0
  C  C86  1  0.84679000  0.71812000  0.28744000  1.0
  C  C87  1  0.88072000  0.70945000  0.06947000  1.0
  C  C88  1  0.90589000  0.60865000  0.01005000  1.0
  C  C89  1  0.78029000  0.79947000  0.32696000  1.0
  C  C90  1  0.88245000  0.78663000  0.04019000  1.0
  C  C91  1  0.35587000  0.15634000  0.28536000  1.0
  C  C92  1  0.80927000  0.45865000  0.53826000  1.0
  C  C93  1  0.51873000  0.83791000  0.19414000  1.0
  C  C94  1  0.55754000  0.76953000  0.10393000  1.0
  C  C95  1  0.58608000  0.81106000  0.04610000  1.0
  C  C96  1  0.56351000  0.66340000  0.07604000  1.0
  C  C97  1  0.56246000  0.17173000  0.50408000  1.0
  C  C98  1  0.61771000  0.27543000  0.56429000  1.0
  C  C99  1  0.60448000  0.33076000  0.65895000  1.0
  C  C100  1  0.68148000  0.31818000  0.52406000  1.0
  C  C101  1  0.73408000  0.41600000  0.57899000  1.0
  C  C102  1  0.65244000  0.43103000  0.71217000  1.0
  C  C103  1  0.61921000  0.64019000  0.93050000  1.0
  C  C104  1  0.59434000  0.59869000  0.98994000  1.0
  C  C105  1  0.71905000  0.47291000  0.67269000  1.0
  C  C106  1  0.61733000  0.74669000  0.95990000  1.0
  C  C107  1  0.14405000  0.87123000  0.71446000  1.0
  N  N108  1  0.12888000  0.32026000  0.80539000  1.0
  N  N109  1  0.14498000  0.25723000  0.83917000  1.0
  N  N110  1  0.37193000  0.51455000  0.19500000  1.0
  N  N111  1  0.35514000  0.41774000  0.16090000  1.0
  N  N112  1  0.87111000  0.67974000  0.19462000  1.0
  N  N113  1  0.85499000  0.74275000  0.16083000  1.0
  N  N114  1  0.62808000  0.48545000  0.80501000  1.0
  N  N115  1  0.64485000  0.58226000  0.83910000  1.0
  O  O116  1  0.35909000  0.04849000  0.59349000  1.0
  O  O117  1  0.31981000  0.04760000  0.45208000  1.0
  O  O118  1  0.01475000  0.28451000  0.21924000  1.0
  O  O119  1  0.98944000  0.44613000  0.24550000  1.0
  O  O120  1  0.04033000  0.27553000  0.41634000  1.0
  O  O121  1  0.03723000  0.42670000  0.54195000  1.0
  O  O122  1  0.70723000  0.13343000  0.71967000  1.0
  O  O123  1  0.65787000  0.92607000  0.71773000  1.0
  O  O124  1  0.14115000  0.45463000  0.40660000  1.0
  O  O125  1  0.18018000  0.59525000  0.54803000  1.0
  O  O126  1  0.48539000  0.06554000  0.78060000  1.0
  O  O127  1  0.51078000  0.20104000  0.75450000  1.0
  O  O128  1  0.45961000  0.85938000  0.58404000  1.0
  O  O129  1  0.46279000  0.88482000  0.45838000  1.0
  O  O130  1  0.79278000  0.41313000  0.28018000  1.0
  O  O131  1  0.84223000  0.20827000  0.28267000  1.0
  O  O132  1  0.64091000  0.95151000  0.40652000  1.0
  O  O133  1  0.68020000  0.95241000  0.54793000  1.0
  O  O134  1  0.98527000  0.71550000  0.78078000  1.0
  O  O135  1  0.01057000  0.55386000  0.75450000  1.0
  O  O136  1  0.95968000  0.72448000  0.58367000  1.0
  O  O137  1  0.96279000  0.57331000  0.45806000  1.0
  O  O138  1  0.29277000  0.86657000  0.28033000  1.0
  O  O139  1  0.34212000  0.07391000  0.28227000  1.0
  O  O140  1  0.85886000  0.54538000  0.59340000  1.0
  O  O141  1  0.81982000  0.40476000  0.45198000  1.0
  O  O142  1  0.51462000  0.93447000  0.21941000  1.0
  O  O143  1  0.48923000  0.79897000  0.24550000  1.0
  O  O144  1  0.54039000  0.14062000  0.41596000  1.0
  O  O145  1  0.53721000  0.11518000  0.54162000  1.0
  O  O146  1  0.20723000  0.58690000  0.71984000  1.0
  O  O147  1  0.15782000  0.79177000  0.71729000  1.0
