# generated using pymatgen
data_CdH11C15NO7
_symmetry_space_group_name_H-M   'P 1'
_cell_length_a   7.46186000
_cell_length_b   10.18880000
_cell_length_c   11.91650000
_cell_angle_alpha   106.01800000
_cell_angle_beta   108.23600000
_cell_angle_gamma   101.51200000
_symmetry_Int_Tables_number   1
_chemical_formula_structural   CdH11C15NO7
_chemical_formula_sum   'Cd2 H22 C30 N2 O14'
_cell_volume   785.45709330
_cell_formula_units_Z   2
loop_
 _symmetry_equiv_pos_site_id
 _symmetry_equiv_pos_as_xyz
  1  'x, y, z'
loop_
 _atom_site_type_symbol
 _atom_site_label
 _atom_site_symmetry_multiplicity
 _atom_site_fract_x
 _atom_site_fract_y
 _atom_site_fract_z
 _atom_site_occupancy
  Cd  Cd0  1  0.59999000  0.85008000  0.92992000  1.0
  Cd  Cd1  1  0.40002000  0.14992000  0.07008000  1.0
  H  H2  1  0.39573000  0.62967000  0.07853000  1.0
  H  H3  1  0.60427000  0.37033000  0.92147000  1.0
  H  H4  1  0.02800000  0.85324000  0.21206000  1.0
  H  H5  1  0.97201000  0.14677000  0.78794000  1.0
  H  H6  1  0.94921000  0.41063000  0.17841000  1.0
  H  H7  1  0.05079000  0.58937000  0.82159000  1.0
  H  H8  1  0.73836000  0.72006000  0.21457000  1.0
  H  H9  1  0.26164000  0.27994000  0.78544000  1.0
  H  H10  1  0.67147000  0.53105000  0.17650000  1.0
  H  H11  1  0.32853000  0.46895000  0.82350000  1.0
  H  H12  1  0.12379000  0.66618000  0.42497000  1.0
  H  H13  1  0.87621000  0.33382000  0.57503000  1.0
  H  H14  1  0.88391000  0.72146000  0.71553000  1.0
  H  H15  1  0.11609000  0.27854000  0.28447000  1.0
  H  H16  1  0.55445000  0.67946000  0.54906000  1.0
  H  H17  1  0.44555000  0.32055000  0.45094000  1.0
  H  H18  1  0.52814000  0.63890000  0.32421000  1.0
  H  H19  1  0.47186000  0.36110000  0.67579000  1.0
  H  H20  1  0.83641000  0.08132000  0.15782000  1.0
  H  H21  1  0.16360000  0.91868000  0.84218000  1.0
  H  H22  1  0.99859000  0.01213000  0.12541000  1.0
  H  H23  1  0.00141000  0.98787000  0.87459000  1.0
  C  C24  1  0.24921000  0.37729000  0.10631000  1.0
  C  C25  1  0.75079000  0.62271000  0.89369000  1.0
  C  C26  1  0.18771000  0.51020000  0.13433000  1.0
  C  C27  1  0.81229000  0.48980000  0.86567000  1.0
  C  C28  1  0.28209000  0.63269000  0.11769000  1.0
  C  C29  1  0.71792000  0.36731000  0.88231000  1.0
  C  C30  1  0.22626000  0.75707000  0.14703000  1.0
  C  C31  1  0.77374000  0.24293000  0.85297000  1.0
  C  C32  1  0.31791000  0.88635000  0.12287000  1.0
  C  C33  1  0.68209000  0.11364000  0.87712000  1.0
  C  C34  1  0.07448000  0.75750000  0.19225000  1.0
  C  C35  1  0.92552000  0.24250000  0.80775000  1.0
  C  C36  1  0.97287000  0.63380000  0.20330000  1.0
  C  C37  1  0.02713000  0.36620000  0.79670000  1.0
  C  C38  1  0.03012000  0.51004000  0.17450000  1.0
  C  C39  1  0.96988000  0.48996000  0.82550000  1.0
  C  C40  1  0.79305000  0.63305000  0.23422000  1.0
  C  C41  1  0.20695000  0.36695000  0.76578000  1.0
  C  C42  1  0.00336000  0.67247000  0.45701000  1.0
  C  C43  1  0.99664000  0.32753000  0.54299000  1.0
  C  C44  1  0.03021000  0.69749000  0.58282000  1.0
  C  C45  1  0.96979000  0.30251000  0.41718000  1.0
  C  C46  1  0.86867000  0.70270000  0.61759000  1.0
  C  C47  1  0.13133000  0.29730000  0.38241000  1.0
  C  C48  1  0.68387000  0.67948000  0.52478000  1.0
  C  C49  1  0.31613000  0.32052000  0.47523000  1.0
  C  C50  1  0.66635000  0.65656000  0.40157000  1.0
  C  C51  1  0.33366000  0.34344000  0.59843000  1.0
  C  C52  1  0.23460000  0.71686000  0.67607000  1.0
  C  C53  1  0.76540000  0.28314000  0.32393000  1.0
  N  N54  1  0.82583000  0.65553000  0.36990000  1.0
  N  N55  1  0.17417000  0.34447000  0.63010000  1.0
  O  O56  1  0.15858000  0.26865000  0.12166000  1.0
  O  O57  1  0.84141000  0.73134000  0.87834000  1.0
  O  O58  1  0.39439000  0.37940000  0.07000000  1.0
  O  O59  1  0.60561000  0.62059000  0.93000000  1.0
  O  O60  1  0.45100000  0.88306000  0.07858000  1.0
  O  O61  1  0.54900000  0.11693000  0.92142000  1.0
  O  O62  1  0.25622000  0.99540000  0.14899000  1.0
  O  O63  1  0.74377000  0.00460000  0.85100000  1.0
  O  O64  1  0.27020000  0.78395000  0.79329000  1.0
  O  O65  1  0.72980000  0.21605000  0.20671000  1.0
  O  O66  1  0.34991000  0.66634000  0.63388000  1.0
  O  O67  1  0.65009000  0.33366000  0.36612000  1.0
  O  O68  1  0.86443000  0.98987000  0.12656000  1.0
  O  O69  1  0.13557000  0.01013000  0.87344000  1.0
