# generated using pymatgen
data_ZnH4(CN)8
_symmetry_space_group_name_H-M   'P 1'
_cell_length_a   8.11283000
_cell_length_b   8.75531000
_cell_length_c   13.01130000
_cell_angle_alpha   89.99990000
_cell_angle_beta   89.99990000
_cell_angle_gamma   90.00000000
_symmetry_Int_Tables_number   1
_chemical_formula_structural   ZnH4(CN)8
_chemical_formula_sum   'Zn4 H16 C32 N32'
_cell_volume   924.19708401
_cell_formula_units_Z   4
loop_
 _symmetry_equiv_pos_site_id
 _symmetry_equiv_pos_as_xyz
  1  'x, y, z'
loop_
 _atom_site_type_symbol
 _atom_site_label
 _atom_site_symmetry_multiplicity
 _atom_site_fract_x
 _atom_site_fract_y
 _atom_site_fract_z
 _atom_site_occupancy
  Zn  Zn0  1  0.02295000  0.41007000  0.88170000  1.0
  Zn  Zn1  1  0.47705000  0.58993000  0.38170000  1.0
  Zn  Zn2  1  0.97705000  0.91007000  0.61830000  1.0
  Zn  Zn3  1  0.52295000  0.08993000  0.11830000  1.0
  H  H4  1  0.77034000  0.04043000  0.46749000  1.0
  H  H5  1  0.72966000  0.95957000  0.96749000  1.0
  H  H6  1  0.22966000  0.54043000  0.03251000  1.0
  H  H7  1  0.27034000  0.45957000  0.53251000  1.0
  H  H8  1  0.75438000  0.05446000  0.28156000  1.0
  H  H9  1  0.74562000  0.94554000  0.78156000  1.0
  H  H10  1  0.24562000  0.55446000  0.21844000  1.0
  H  H11  1  0.25438000  0.44554000  0.71844000  1.0
  H  H12  1  0.92727000  0.52120000  0.28870000  1.0
  H  H13  1  0.57273000  0.47880000  0.78870000  1.0
  H  H14  1  0.07273000  0.02120000  0.21130000  1.0
  H  H15  1  0.42728000  0.97880000  0.71130000  1.0
  H  H16  1  0.95195000  0.50420000  0.47953000  1.0
  H  H17  1  0.54805000  0.49580000  0.97953000  1.0
  H  H18  1  0.04805000  0.00420000  0.02047000  1.0
  H  H19  1  0.45195000  0.99579000  0.52047000  1.0
  C  C20  1  0.88794000  0.25939000  0.59758000  1.0
  C  C21  1  0.61206000  0.74061000  0.09758000  1.0
  C  C22  1  0.11206000  0.75939000  0.90242000  1.0
  C  C23  1  0.38794000  0.24061000  0.40242000  1.0
  C  C24  1  0.86479000  0.27109000  0.48667000  1.0
  C  C25  1  0.63521000  0.72891000  0.98667000  1.0
  C  C26  1  0.13521000  0.77109000  0.01333000  1.0
  C  C27  1  0.36479000  0.22891000  0.51333000  1.0
  C  C28  1  0.80640000  0.14642000  0.42990000  1.0
  C  C29  1  0.69360000  0.85358000  0.92991000  1.0
  C  C30  1  0.19360000  0.64642000  0.07009000  1.0
  C  C31  1  0.30640000  0.35358000  0.57009000  1.0
  C  C32  1  0.79488000  0.15526000  0.32355000  1.0
  C  C33  1  0.70512000  0.84474000  0.82355000  1.0
  C  C34  1  0.20512000  0.65526000  0.17645000  1.0
  C  C35  1  0.29488000  0.34474000  0.67645000  1.0
  C  C36  1  0.83930000  0.28951000  0.27191000  1.0
  C  C37  1  0.66070000  0.71049000  0.77191000  1.0
  C  C38  1  0.16070000  0.78951000  0.22809000  1.0
  C  C39  1  0.33930000  0.21049000  0.72809000  1.0
  C  C40  1  0.89471000  0.41628000  0.32893000  1.0
  C  C41  1  0.60529000  0.58373000  0.82893000  1.0
  C  C42  1  0.10529000  0.91628000  0.17107000  1.0
  C  C43  1  0.39471000  0.08373000  0.67107000  1.0
  C  C44  1  0.90766000  0.40696000  0.43514000  1.0
  C  C45  1  0.59233000  0.59305000  0.93514000  1.0
  C  C46  1  0.09234000  0.90696000  0.06486000  1.0
  C  C47  1  0.40766000  0.09304000  0.56486000  1.0
  C  C48  1  0.83403000  0.29688000  0.15991000  1.0
  C  C49  1  0.66598000  0.70313000  0.65991000  1.0
  C  C50  1  0.16597000  0.79687000  0.34009000  1.0
  C  C51  1  0.33403000  0.20313000  0.84009000  1.0
  N  N52  1  0.88665000  0.37731000  0.66299000  1.0
  N  N53  1  0.61335000  0.62269000  0.16299000  1.0
  N  N54  1  0.11335000  0.87731000  0.83701000  1.0
  N  N55  1  0.38665000  0.12269000  0.33701000  1.0
  N  N56  1  0.92089000  0.31454000  0.75478000  1.0
  N  N57  1  0.57911000  0.68546000  0.25478000  1.0
  N  N58  1  0.07911000  0.81454000  0.74522000  1.0
  N  N59  1  0.42089000  0.18546000  0.24522000  1.0
  N  N60  1  0.94192000  0.16569000  0.74854000  1.0
  N  N61  1  0.55808000  0.83431000  0.24854000  1.0
  N  N62  1  0.05808000  0.66569000  0.75146000  1.0
  N  N63  1  0.44192000  0.33431000  0.25146000  1.0
  N  N64  1  0.92246000  0.12789000  0.64978000  1.0
  N  N65  1  0.57754000  0.87211000  0.14978000  1.0
  N  N66  1  0.07754000  0.62789000  0.85022000  1.0
  N  N67  1  0.42246000  0.37211000  0.35022000  1.0
  N  N68  1  0.73324000  0.21416000  0.09731000  1.0
  N  N69  1  0.76676000  0.78584000  0.59731000  1.0
  N  N70  1  0.26676000  0.71416000  0.40269000  1.0
  N  N71  1  0.23324000  0.28584000  0.90269000  1.0
  N  N72  1  0.77285000  0.24967000  0.00048000  1.0
  N  N73  1  0.72716000  0.75033000  0.50048000  1.0
  N  N74  1  0.22715000  0.74967000  0.49952000  1.0
  N  N75  1  0.27285000  0.25033000  0.99952000  1.0
  N  N76  1  0.89329000  0.35068000  0.00595000  1.0
  N  N77  1  0.60671000  0.64932000  0.50595000  1.0
  N  N78  1  0.10671000  0.85068000  0.49405000  1.0
  N  N79  1  0.39329000  0.14932000  0.99405000  1.0
  N  N80  1  0.93499000  0.38320000  0.10306000  1.0
  N  N81  1  0.56501000  0.61680000  0.60306000  1.0
  N  N82  1  0.06501000  0.88320000  0.39694000  1.0
  N  N83  1  0.43499000  0.11680000  0.89694000  1.0
