# generated using pymatgen
data_SmFe2H25C36(NO4)2
_symmetry_space_group_name_H-M   'P 1'
_cell_length_a   11.52940000
_cell_length_b   12.00010000
_cell_length_c   13.76520000
_cell_angle_alpha   94.75680000
_cell_angle_beta   109.33000000
_cell_angle_gamma   117.28900000
_symmetry_Int_Tables_number   1
_chemical_formula_structural   SmFe2H25C36(NO4)2
_chemical_formula_sum   'Sm2 Fe4 H50 C72 N4 O16'
_cell_volume   1533.28592802
_cell_formula_units_Z   2
loop_
 _symmetry_equiv_pos_site_id
 _symmetry_equiv_pos_as_xyz
  1  'x, y, z'
loop_
 _atom_site_type_symbol
 _atom_site_label
 _atom_site_symmetry_multiplicity
 _atom_site_fract_x
 _atom_site_fract_y
 _atom_site_fract_z
 _atom_site_occupancy
  Sm  Sm0  1  0.80055000  0.35941000  0.38357000  1.0
  Sm  Sm1  1  0.19945000  0.64059000  0.61643000  1.0
  Fe  Fe2  1  0.85038000  0.76088000  0.25049000  1.0
  Fe  Fe3  1  0.14962000  0.23912000  0.74951000  1.0
  Fe  Fe4  1  0.77234000  0.65344000  0.74951000  1.0
  Fe  Fe5  1  0.22766000  0.34656000  0.25050000  1.0
  H  H6  1  0.52361000  0.32114000  0.11670000  1.0
  H  H7  1  0.47639000  0.67886000  0.88329000  1.0
  H  H8  1  0.68876000  0.59133000  0.34497000  1.0
  H  H9  1  0.31124000  0.40867000  0.65503000  1.0
  H  H10  1  0.60812000  0.75650000  0.26346000  1.0
  H  H11  1  0.39188000  0.24350000  0.73654000  1.0
  H  H12  1  0.84796000  0.99084000  0.31477000  1.0
  H  H13  1  0.15204000  0.00916000  0.68523000  1.0
  H  H14  1  0.07766000  0.97260000  0.42787000  1.0
  H  H15  1  0.92234000  0.02740000  0.57213000  1.0
  H  H16  1  0.62005000  0.63478000  0.04513000  1.0
  H  H17  1  0.37995000  0.36522000  0.95487000  1.0
  H  H18  1  0.83644000  0.88022000  0.08166000  1.0
  H  H19  1  0.16356000  0.11978000  0.91834000  1.0
  H  H20  1  0.08781000  0.89907000  0.20120000  1.0
  H  H21  1  0.91219000  0.10093000  0.79880000  1.0
  H  H22  1  0.02406000  0.66162000  0.23948000  1.0
  H  H23  1  0.97594000  0.33838000  0.76052000  1.0
  H  H24  1  0.57558000  0.39532000  0.62363000  1.0
  H  H25  1  0.42442000  0.60468000  0.37637000  1.0
  H  H26  1  0.56621000  0.47482000  0.81020000  1.0
  H  H27  1  0.43380000  0.52518000  0.18981000  1.0
  H  H28  1  0.83806000  0.62667000  0.96020000  1.0
  H  H29  1  0.16194000  0.37333000  0.03980000  1.0
  H  H30  1  0.01781000  0.64334000  0.86802000  1.0
  H  H31  1  0.98219000  0.35666000  0.13197000  1.0
  H  H32  1  0.56882000  0.63351000  0.55807000  1.0
  H  H33  1  0.43119000  0.36648000  0.44193000  1.0
  H  H34  1  0.84528000  0.73759000  0.58242000  1.0
  H  H35  1  0.15473000  0.26241000  0.41758000  1.0
  H  H36  1  0.01903000  0.89384000  0.78472000  1.0
  H  H37  1  0.98097000  0.10616000  0.21529000  1.0
  H  H38  1  0.85026000  0.88527000  0.88721000  1.0
  H  H39  1  0.14975000  0.11472000  0.11279000  1.0
  H  H40  1  0.83696000  0.23454000  0.17621000  1.0
  H  H41  1  0.16304000  0.76546000  0.82379000  1.0
  H  H42  1  0.73976000  0.03362000  0.02867000  1.0
  H  H43  1  0.26024000  0.96638000  0.97133000  1.0
  H  H44  1  0.52660000  0.82557000  0.01331000  1.0
  H  H45  1  0.47340000  0.17442000  0.98669000  1.0
  H  H46  1  0.22782000  0.84010000  0.36236000  1.0
  H  H47  1  0.77218000  0.15990000  0.63764000  1.0
  H  H48  1  0.34102000  0.05173000  0.49783000  1.0
  H  H49  1  0.65898000  0.94827000  0.50217000  1.0
  H  H50  1  0.56690000  0.24414000  0.50585000  1.0
  H  H51  1  0.43310000  0.75586000  0.49415000  1.0
  H  H52  1  0.33903000  0.70834000  0.08019000  1.0
  H  H53  1  0.66096000  0.29166000  0.91981000  1.0
  H  H54  1  0.22873000  0.71302000  0.20579000  1.0
  H  H55  1  0.77127000  0.28699000  0.79421000  1.0
  C  C56  1  0.00149000  0.71126000  0.46247000  1.0
  C  C57  1  0.99851000  0.28874000  0.53752000  1.0
  C  C58  1  0.91368000  0.76519000  0.40769000  1.0
  C  C59  1  0.08632000  0.23481000  0.59230000  1.0
  C  C60  1  0.75899000  0.69377000  0.35296000  1.0
  C  C61  1  0.24101000  0.30623000  0.64704000  1.0
  C  C62  1  0.71723000  0.78074000  0.31024000  1.0
  C  C63  1  0.28277000  0.21926000  0.68976000  1.0
  C  C64  1  0.84447000  0.90484000  0.33661000  1.0
  C  C65  1  0.15554000  0.09516000  0.66339000  1.0
  C  C66  1  0.96578000  0.89575000  0.39679000  1.0
  C  C67  1  0.03422000  0.10425000  0.60321000  1.0
  C  C68  1  0.71930000  0.46974000  0.15057000  1.0
  C  C69  1  0.28070000  0.53026000  0.84943000  1.0
  C  C70  1  0.79663000  0.60216000  0.14083000  1.0
  C  C71  1  0.20337000  0.39784000  0.85916000  1.0
  C  C72  1  0.73395000  0.67341000  0.08968000  1.0
  C  C73  1  0.26605000  0.32659000  0.91032000  1.0
  C  C74  1  0.84891000  0.80238000  0.10874000  1.0
  C  C75  1  0.15110000  0.19762000  0.89125000  1.0
  C  C76  1  0.98203000  0.81192000  0.17159000  1.0
  C  C77  1  0.01797000  0.18808000  0.82840000  1.0
  C  C78  1  0.95001000  0.68866000  0.19229000  1.0
  C  C79  1  0.04999000  0.31134000  0.80770000  1.0
  C  C80  1  0.87423000  0.50963000  0.63692000  1.0
  C  C81  1  0.12577000  0.49036000  0.36308000  1.0
  C  C82  1  0.81597000  0.51322000  0.71804000  1.0
  C  C83  1  0.18403000  0.48678000  0.28196000  1.0
  C  C84  1  0.66714000  0.45556000  0.69977000  1.0
  C  C85  1  0.33286000  0.54444000  0.30023000  1.0
  C  C86  1  0.66214000  0.49678000  0.79817000  1.0
  C  C87  1  0.33786000  0.50322000  0.20183000  1.0
  C  C88  1  0.80660000  0.57840000  0.87793000  1.0
  C  C89  1  0.19340000  0.42160000  0.12207000  1.0
  C  C90  1  0.90147000  0.58896000  0.82902000  1.0
  C  C91  1  0.09853000  0.41104000  0.17098000  1.0
  C  C92  1  0.54211000  0.71365000  0.75526000  1.0
  C  C93  1  0.45790000  0.28636000  0.24474000  1.0
  C  C94  1  0.66690000  0.75184000  0.72915000  1.0
  C  C95  1  0.33310000  0.24816000  0.27086000  1.0
  C  C96  1  0.66494000  0.70290000  0.62904000  1.0
  C  C97  1  0.33507000  0.29710000  0.37096000  1.0
  C  C98  1  0.81031000  0.75828000  0.64216000  1.0
  C  C99  1  0.18970000  0.24172000  0.35784000  1.0
  C  C100  1  0.90260000  0.84037000  0.74998000  1.0
  C  C101  1  0.09740000  0.15963000  0.25002000  1.0
  C  C102  1  0.81484000  0.83656000  0.80414000  1.0
  C  C103  1  0.18516000  0.16344000  0.19587000  1.0
  C  C104  1  0.74320000  0.14191000  0.16488000  1.0
  C  C105  1  0.25679000  0.85809000  0.83512000  1.0
  C  C106  1  0.68972000  0.02932000  0.08409000  1.0
  C  C107  1  0.31027000  0.97068000  0.91591000  1.0
  C  C108  1  0.57171000  0.91453000  0.07526000  1.0
  C  C109  1  0.42828000  0.08546000  0.92474000  1.0
  C  C110  1  0.50756000  0.91315000  0.14685000  1.0
  C  C111  1  0.49243000  0.08685000  0.85315000  1.0
  C  C112  1  0.56954000  0.03159000  0.22649000  1.0
  C  C113  1  0.43046000  0.96841000  0.77351000  1.0
  C  C114  1  0.50695000  0.03388000  0.30121000  1.0
  C  C115  1  0.49305000  0.96612000  0.69879000  1.0
  C  C116  1  0.38182000  0.91859000  0.29177000  1.0
  C  C117  1  0.61818000  0.08141000  0.70823000  1.0
  C  C118  1  0.32168000  0.92631000  0.36472000  1.0
  C  C119  1  0.67832000  0.07369000  0.63529000  1.0
  C  C120  1  0.38461000  0.04327000  0.44031000  1.0
  C  C121  1  0.61539000  0.95673000  0.55969000  1.0
  C  C122  1  0.51015000  0.15093000  0.44513000  1.0
  C  C123  1  0.48985000  0.84907000  0.55487000  1.0
  C  C124  1  0.38355000  0.79836000  0.14113000  1.0
  C  C125  1  0.61645000  0.20164000  0.85887000  1.0
  C  C126  1  0.32273000  0.80115000  0.21062000  1.0
  C  C127  1  0.67727000  0.19885000  0.78939000  1.0
  N  N128  1  0.68564000  0.14368000  0.23408000  1.0
  N  N129  1  0.31436000  0.85632000  0.76592000  1.0
  N  N130  1  0.57015000  0.14711000  0.37823000  1.0
  N  N131  1  0.42985000  0.85289000  0.62177000  1.0
  O  O132  1  0.94323000  0.58709000  0.44316000  1.0
  O  O133  1  0.05677000  0.41292000  0.55684000  1.0
  O  O134  1  0.13106000  0.78850000  0.52947000  1.0
  O  O135  1  0.86894000  0.21150000  0.47053000  1.0
  O  O136  1  0.78164000  0.42588000  0.21375000  1.0
  O  O137  1  0.21836000  0.57412000  0.78625000  1.0
  O  O138  1  0.58116000  0.40294000  0.08750000  1.0
  O  O139  1  0.41884000  0.59706000  0.91250000  1.0
  O  O140  1  0.79180000  0.41551000  0.55066000  1.0
  O  O141  1  0.20820000  0.58449000  0.44934000  1.0
  O  O142  1  0.00154000  0.60076000  0.65989000  1.0
  O  O143  1  0.99847000  0.39924000  0.34011000  1.0
  O  O144  1  0.41670000  0.62960000  0.68395000  1.0
  O  O145  1  0.58330000  0.37040000  0.31605000  1.0
  O  O146  1  0.56874000  0.76858000  0.85043000  1.0
  O  O147  1  0.43126000  0.23142000  0.14957000  1.0
