# generated using pymatgen
data_RbH13C18O
_symmetry_space_group_name_H-M   'P 1'
_cell_length_a   5.55259000
_cell_length_b   11.70100000
_cell_length_c   21.11510000
_cell_angle_alpha   89.99920000
_cell_angle_beta   89.99950000
_cell_angle_gamma   92.97870000
_symmetry_Int_Tables_number   1
_chemical_formula_structural   RbH13C18O
_chemical_formula_sum   'Rb4 H52 C72 O4'
_cell_volume   1370.01261442
_cell_formula_units_Z   4
loop_
 _symmetry_equiv_pos_site_id
 _symmetry_equiv_pos_as_xyz
  1  'x, y, z'
loop_
 _atom_site_type_symbol
 _atom_site_label
 _atom_site_symmetry_multiplicity
 _atom_site_fract_x
 _atom_site_fract_y
 _atom_site_fract_z
 _atom_site_occupancy
  Rb  Rb0  1  0.24320000  0.94891000  0.95124000  1.0
  Rb  Rb1  1  0.24323000  0.44890000  0.54876000  1.0
  Rb  Rb2  1  0.75678000  0.05109000  0.04876000  1.0
  Rb  Rb3  1  0.75679000  0.55109000  0.45124000  1.0
  H  H4  1  0.33845000  0.52437000  0.96227000  1.0
  H  H5  1  0.33847000  0.02436000  0.53773000  1.0
  H  H6  1  0.66159000  0.47564000  0.03773000  1.0
  H  H7  1  0.66150000  0.97562000  0.46227000  1.0
  H  H8  1  0.56172000  0.46001000  0.86824000  1.0
  H  H9  1  0.56170000  0.96002000  0.63176000  1.0
  H  H10  1  0.43831000  0.53999000  0.13176000  1.0
  H  H11  1  0.43828000  0.03998000  0.36824000  1.0
  H  H12  1  0.85063000  0.59710000  0.81446000  1.0
  H  H13  1  0.85059000  0.09710000  0.68554000  1.0
  H  H14  1  0.14938000  0.40291000  0.18553000  1.0
  H  H15  1  0.14939000  0.90290000  0.31446000  1.0
  H  H16  1  0.66478000  0.81405000  0.06842000  1.0
  H  H17  1  0.66474000  0.31404000  0.43157000  1.0
  H  H18  1  0.33522000  0.18595000  0.93158000  1.0
  H  H19  1  0.33525000  0.68594000  0.56842000  1.0
  H  H20  1  0.45209000  0.83692000  0.17069000  1.0
  H  H21  1  0.45201000  0.33694000  0.32931000  1.0
  H  H22  1  0.54794000  0.16307000  0.82932000  1.0
  H  H23  1  0.54798000  0.66305000  0.67068000  1.0
  H  H24  1  0.04188000  0.74047000  0.18676000  1.0
  H  H25  1  0.04181000  0.24050000  0.31325000  1.0
  H  H26  1  0.95813000  0.25951000  0.81325000  1.0
  H  H27  1  0.95817000  0.75951000  0.68675000  1.0
  H  H28  1  0.84568000  0.63305000  0.09772000  1.0
  H  H29  1  0.84564000  0.13306000  0.40229000  1.0
  H  H30  1  0.15435000  0.36694000  0.90229000  1.0
  H  H31  1  0.15433000  0.86696000  0.59770000  1.0
  H  H32  1  0.04700000  0.62224000  0.99394000  1.0
  H  H33  1  0.04697000  0.12224000  0.50607000  1.0
  H  H34  1  0.95301000  0.37776000  0.00606000  1.0
  H  H35  1  0.95297000  0.87778000  0.49393000  1.0
  H  H36  1  0.22821000  0.68664000  0.82844000  1.0
  H  H37  1  0.22823000  0.18666000  0.67156000  1.0
  H  H38  1  0.77178000  0.31336000  0.17156000  1.0
  H  H39  1  0.77181000  0.81335000  0.32844000  1.0
  H  H40  1  0.49354000  0.80744000  0.75867000  1.0
  H  H41  1  0.49354000  0.30745000  0.74133000  1.0
  H  H42  1  0.50645000  0.19257000  0.24133000  1.0
  H  H43  1  0.50646000  0.69255000  0.25868000  1.0
  H  H44  1  0.38749000  0.00635000  0.73198000  1.0
  H  H45  1  0.38747000  0.50635000  0.76802000  1.0
  H  H46  1  0.61250000  0.99365000  0.26801000  1.0
  H  H47  1  0.61253000  0.49365000  0.23200000  1.0
  H  H48  1  0.01347000  0.08295000  0.77745000  1.0
  H  H49  1  0.01348000  0.58296000  0.72255000  1.0
  H  H50  1  0.98652000  0.91705000  0.22253000  1.0
  H  H51  1  0.98655000  0.41704000  0.27745000  1.0
  H  H52  1  0.74333000  0.96077000  0.84515000  1.0
  H  H53  1  0.74333000  0.46080000  0.65484000  1.0
  H  H54  1  0.25666000  0.03923000  0.15484000  1.0
  H  H55  1  0.25670000  0.53922000  0.34516000  1.0
  C  C56  1  0.67811000  0.77475000  0.93501000  1.0
  C  C57  1  0.67812000  0.27475000  0.56500000  1.0
  C  C58  1  0.32192000  0.22526000  0.06499000  1.0
  C  C59  1  0.32186000  0.72524000  0.43500000  1.0
  C  C60  1  0.50630000  0.69370000  0.96433000  1.0
  C  C61  1  0.50628000  0.19370000  0.53568000  1.0
  C  C62  1  0.49372000  0.30629000  0.03567000  1.0
  C  C63  1  0.49370000  0.80630000  0.46432000  1.0
  C  C64  1  0.46444000  0.58411000  0.93813000  1.0
  C  C65  1  0.46442000  0.08410000  0.56186000  1.0
  C  C66  1  0.53557000  0.41589000  0.06187000  1.0
  C  C67  1  0.53557000  0.91589000  0.43814000  1.0
  C  C68  1  0.58802000  0.54757000  0.88531000  1.0
  C  C69  1  0.58801000  0.04757000  0.61468000  1.0
  C  C70  1  0.41198000  0.45243000  0.11468000  1.0
  C  C71  1  0.41199000  0.95243000  0.38532000  1.0
  C  C72  1  0.75252000  0.62446000  0.85608000  1.0
  C  C73  1  0.75249000  0.12447000  0.64392000  1.0
  C  C74  1  0.24748000  0.37555000  0.14392000  1.0
  C  C75  1  0.24750000  0.87554000  0.35609000  1.0
  C  C76  1  0.79461000  0.73665000  0.87802000  1.0
  C  C77  1  0.79462000  0.23666000  0.62198000  1.0
  C  C78  1  0.20538000  0.26337000  0.12198000  1.0
  C  C79  1  0.20537000  0.76334000  0.37803000  1.0
  C  C80  1  0.37387000  0.71715000  0.02340000  1.0
  C  C81  1  0.37383000  0.21716000  0.47659000  1.0
  C  C82  1  0.62613000  0.28284000  0.97661000  1.0
  C  C83  1  0.62615000  0.78284000  0.52340000  1.0
  C  C84  1  0.48041000  0.77979000  0.07413000  1.0
  C  C85  1  0.48037000  0.27981000  0.42587000  1.0
  C  C86  1  0.51960000  0.22019000  0.92588000  1.0
  C  C87  1  0.51961000  0.72020000  0.57413000  1.0
  C  C88  1  0.36179000  0.78976000  0.13205000  1.0
  C  C89  1  0.36175000  0.28978000  0.36795000  1.0
  C  C90  1  0.63825000  0.21023000  0.86796000  1.0
  C  C91  1  0.63824000  0.71022000  0.63205000  1.0
  C  C92  1  0.13311000  0.73649000  0.14114000  1.0
  C  C93  1  0.13309000  0.23650000  0.35887000  1.0
  C  C94  1  0.86691000  0.26350000  0.85887000  1.0
  C  C95  1  0.86692000  0.76349000  0.64112000  1.0
  C  C96  1  0.02310000  0.67554000  0.09108000  1.0
  C  C97  1  0.02308000  0.17554000  0.40893000  1.0
  C  C98  1  0.97692000  0.32445000  0.90892000  1.0
  C  C99  1  0.97693000  0.82445000  0.59106000  1.0
  C  C100  1  0.13884000  0.66788000  0.03282000  1.0
  C  C101  1  0.13881000  0.16787000  0.46719000  1.0
  C  C102  1  0.86117000  0.33212000  0.96719000  1.0
  C  C103  1  0.86117000  0.83212000  0.53280000  1.0
  C  C104  1  0.96074000  0.81308000  0.84049000  1.0
  C  C105  1  0.96069000  0.31309000  0.65951000  1.0
  C  C106  1  0.03925000  0.18692000  0.15951000  1.0
  C  C107  1  0.03932000  0.68691000  0.34049000  1.0
  C  C108  1  0.17595000  0.77221000  0.81552000  1.0
  C  C109  1  0.17592000  0.27222000  0.68448000  1.0
  C  C110  1  0.82403000  0.22780000  0.18448000  1.0
  C  C111  1  0.82409000  0.72779000  0.31551000  1.0
  C  C112  1  0.32722000  0.84082000  0.77671000  1.0
  C  C113  1  0.32721000  0.34083000  0.72330000  1.0
  C  C114  1  0.67276000  0.15919000  0.22328000  1.0
  C  C115  1  0.67280000  0.65918000  0.27670000  1.0
  C  C116  1  0.26963000  0.95283000  0.76237000  1.0
  C  C117  1  0.26962000  0.45284000  0.73764000  1.0
  C  C118  1  0.73038000  0.04717000  0.23763000  1.0
  C  C119  1  0.73037000  0.54717000  0.26237000  1.0
  C  C120  1  0.05905000  0.99529000  0.78756000  1.0
  C  C121  1  0.05907000  0.49530000  0.71244000  1.0
  C  C122  1  0.94096000  0.00471000  0.21243000  1.0
  C  C123  1  0.94095000  0.50471000  0.28756000  1.0
  C  C124  1  0.90679000  0.92665000  0.82606000  1.0
  C  C125  1  0.90677000  0.42667000  0.67394000  1.0
  C  C126  1  0.09321000  0.07335000  0.17393000  1.0
  C  C127  1  0.09323000  0.57334000  0.32607000  1.0
  O  O128  1  0.72497000  0.87759000  0.95831000  1.0
  O  O129  1  0.72499000  0.37758000  0.54168000  1.0
  O  O130  1  0.27502000  0.12242000  0.04169000  1.0
  O  O131  1  0.27501000  0.62241000  0.45832000  1.0
