# generated using pymatgen
data_Zr3H10C26Cl5O19
_symmetry_space_group_name_H-M   'P 1'
_cell_length_a   14.77480000
_cell_length_b   14.78690000
_cell_length_c   14.78826476
_cell_angle_alpha   60.02155493
_cell_angle_beta   89.98564066
_cell_angle_gamma   60.10790000
_symmetry_Int_Tables_number   1
_chemical_formula_structural   Zr3H10C26Cl5O19
_chemical_formula_sum   'Zr6 H20 C52 Cl10 O38'
_cell_volume   2289.29763660
_cell_formula_units_Z   2
loop_
 _symmetry_equiv_pos_site_id
 _symmetry_equiv_pos_as_xyz
  1  'x, y, z'
loop_
 _atom_site_type_symbol
 _atom_site_label
 _atom_site_symmetry_multiplicity
 _atom_site_fract_x
 _atom_site_fract_y
 _atom_site_fract_z
 _atom_site_occupancy
  Zr  Zr0  1  0.88637000  0.49398000  0.37511000  1.0
  Zr  Zr1  1  0.12179000  0.50036000  0.61046000  1.0
  Zr  Zr2  1  0.88260000  0.73528000  0.37220000  1.0
  Zr  Zr3  1  0.12525000  0.25865000  0.61387000  1.0
  Zr  Zr4  1  0.88481000  0.49736000  0.61237000  1.0
  Zr  Zr5  1  0.12412000  0.49827000  0.37280000  1.0
  H  H6  1  0.71964000  0.68218000  0.39720000  1.0
  H  H7  1  0.09390000  0.31285000  0.77614000  1.0
  H  H8  1  0.09583000  0.68867000  0.39473000  1.0
  H  H9  1  0.10254000  0.30697000  0.40104000  1.0
  H  H10  1  0.57333000  0.54745000  0.59966000  1.0
  H  H11  1  0.46802000  0.38097000  0.43281000  1.0
  H  H12  1  0.14617000  0.49112000  0.08932000  1.0
  H  H13  1  0.85803000  0.51563000  0.89041000  1.0
  H  H14  1  0.07702000  0.96617000  0.84733000  1.0
  H  H15  1  0.88471000  0.03965000  0.10153000  1.0
  H  H16  1  0.41501000  0.95247000  0.63641000  1.0
  H  H17  1  0.61177000  0.04077000  0.36986000  1.0
  H  H18  1  0.87685000  0.22761000  0.34977000  1.0
  H  H19  1  0.12288000  0.76639000  0.64460000  1.0
  H  H20  1  0.39832000  0.28155000  0.79501000  1.0
  H  H21  1  0.71002000  0.97144000  0.09563000  1.0
  H  H22  1  0.20635000  0.10100000  0.86848000  1.0
  H  H23  1  0.15121000  0.96930000  0.05102000  1.0
  H  H24  1  0.32147000  0.73513000  0.28652000  1.0
  H  H25  1  0.62253000  0.64842000  0.32078000  1.0
  C  C26  1  0.71435000  0.46878000  0.50707000  1.0
  C  C27  1  0.00481000  0.50622000  0.79158000  1.0
  C  C28  1  0.31241000  0.48910000  0.50295000  1.0
  C  C29  1  0.99922000  0.50088000  0.18814000  1.0
  C  C30  1  0.69495000  0.79992000  0.19268000  1.0
  C  C31  1  0.01012000  0.18654000  0.50200000  1.0
  C  C32  1  0.30469000  0.19060000  0.80780000  1.0
  C  C33  1  0.99286000  0.80734000  0.48937000  1.0
  C  C34  1  0.70351000  0.79571000  0.50034000  1.0
  C  C35  1  0.99467000  0.79905000  0.17775000  1.0
  C  C36  1  0.31697000  0.19834000  0.49927000  1.0
  C  C37  1  0.99020000  0.19997000  0.78804000  1.0
  C  C38  1  0.41970000  0.47573000  0.51416000  1.0
  C  C39  1  0.62023000  0.45560000  0.51611000  1.0
  C  C40  1  0.45158000  0.51972000  0.56464000  1.0
  C  C41  1  0.59142000  0.40512000  0.47137000  1.0
  C  C42  1  0.55059000  0.50903000  0.56478000  1.0
  C  C43  1  0.49188000  0.41688000  0.47002000  1.0
  C  C44  1  0.00725000  0.50602000  0.89285000  1.0
  C  C45  1  0.99602000  0.50281000  0.08595000  1.0
  C  C46  1  0.08968000  0.49938000  0.94976000  1.0
  C  C47  1  0.91370000  0.50921000  0.02914000  1.0
  C  C48  1  0.08253000  0.49738000  0.04451000  1.0
  C  C49  1  0.92105000  0.51076000  0.93457000  1.0
  C  C50  1  0.98584000  0.90110000  0.06920000  1.0
  C  C51  1  0.97958000  0.10338000  0.88235000  1.0
  C  C52  1  0.03757000  0.88177000  0.99423000  1.0
  C  C53  1  0.92168000  0.12500000  0.95342000  1.0
  C  C54  1  0.03434000  0.98197000  0.90344000  1.0
  C  C55  1  0.92635000  0.02402000  0.04487000  1.0
  C  C56  1  0.60594000  0.89465000  0.50623000  1.0
  C  C57  1  0.41968000  0.09878000  0.49892000  1.0
  C  C58  1  0.54983000  0.86978000  0.58309000  1.0
  C  C59  1  0.47699000  0.12341000  0.42326000  1.0
  C  C60  1  0.45889000  0.97135000  0.57793000  1.0
  C  C61  1  0.56791000  0.02192000  0.42839000  1.0
  C  C62  1  0.58450000  0.90705000  0.10647000  1.0
  C  C63  1  0.49014000  0.90171000  0.10886000  1.0
  C  C64  1  0.57411000  0.01745000  0.02235000  1.0
  C  C65  1  0.48711000  0.81225000  0.20773000  1.0
  C  C66  1  0.39435000  0.80978000  0.21021000  1.0
  C  C67  1  0.39069000  0.10034000  0.91766000  1.0
  C  C68  1  0.47547000  0.11632000  0.92775000  1.0
  C  C69  1  0.39258000  0.99826000  0.01209000  1.0
  C  C70  1  0.29796000  0.99642000  0.01992000  1.0
  C  C71  1  0.29995000  0.90258000  0.11540000  1.0
  C  C72  1  0.99115000  0.90949000  0.48950000  1.0
  C  C73  1  0.00865000  0.08460000  0.50469000  1.0
  C  C74  1  0.92009000  0.04182000  0.40569000  1.0
  C  C75  1  0.07890000  0.95239000  0.58906000  1.0
  C  C76  1  0.93056000  0.12572000  0.41473000  1.0
  C  C77  1  0.06879000  0.86836000  0.57988000  1.0
  Cl  Cl78  1  0.37047000  0.59667000  0.62030000  1.0
  Cl  Cl79  1  0.67559000  0.32557000  0.41905000  1.0
  Cl  Cl80  1  0.20187000  0.49296000  0.91101000  1.0
  Cl  Cl81  1  0.80183000  0.51521000  0.06819000  1.0
  Cl  Cl82  1  0.10511000  0.73924000  0.00745000  1.0
  Cl  Cl83  1  0.84803000  0.26827000  0.93927000  1.0
  Cl  Cl84  1  0.58458000  0.71970000  0.68504000  1.0
  Cl  Cl85  1  0.44292000  0.27346000  0.32205000  1.0
  Cl  Cl86  1  0.81886000  0.11020000  0.28910000  1.0
  Cl  Cl87  1  0.17918000  0.88440000  0.70623000  1.0
  O  O88  1  0.74697000  0.47995000  0.42369000  1.0
  O  O89  1  0.08140000  0.50433000  0.75084000  1.0
  O  O90  1  0.26770000  0.49378000  0.57580000  1.0
  O  O91  1  0.92460000  0.49900000  0.23072000  1.0
  O  O92  1  0.74495000  0.83435000  0.22654000  1.0
  O  O93  1  0.08865000  0.15216000  0.57470000  1.0
  O  O94  1  0.26528000  0.15071000  0.76972000  1.0
  O  O95  1  0.91871000  0.84138000  0.41245000  1.0
  O  O96  1  0.74356000  0.67881000  0.57452000  1.0
  O  O97  1  0.07707000  0.68400000  0.22271000  1.0
  O  O98  1  0.27224000  0.31470000  0.41973000  1.0
  O  O99  1  0.92272000  0.31579000  0.75379000  1.0
  O  O100  1  0.92051000  0.83682000  0.21965000  1.0
  O  O101  1  0.27939000  0.15952000  0.57765000  1.0
  O  O102  1  0.06712000  0.15957000  0.74957000  1.0
  O  O103  1  0.73975000  0.83536000  0.42121000  1.0
  O  O104  1  0.73813000  0.68533000  0.22521000  1.0
  O  O105  1  0.07053000  0.69222000  0.56642000  1.0
  O  O106  1  0.27536000  0.30683000  0.75131000  1.0
  O  O107  1  0.93268000  0.30177000  0.42499000  1.0
  O  O108  1  0.07754000  0.49962000  0.22660000  1.0
  O  O109  1  0.75042000  0.47720000  0.57838000  1.0
  O  O110  1  0.92707000  0.50662000  0.75354000  1.0
  O  O111  1  0.27307000  0.49503000  0.42185000  1.0
  O  O112  1  0.07517000  0.36068000  0.42758000  1.0
  O  O113  1  0.06977000  0.63438000  0.42263000  1.0
  O  O114  1  0.07140000  0.36330000  0.69577000  1.0
  O  O115  1  0.80052000  0.62943000  0.42543000  1.0
  O  O116  1  0.95342000  0.59745000  0.54078000  1.0
  O  O117  1  0.95667000  0.39664000  0.54318000  1.0
  O  O118  1  0.15232000  0.39986000  0.54224000  1.0
  O  O119  1  0.95533000  0.59397000  0.34485000  1.0
  O  O120  1  0.47428000  0.21740000  0.85011000  1.0
  O  O121  1  0.65435000  0.03720000  0.02046000  1.0
  O  O122  1  0.19548000  0.08944000  0.93866000  1.0
  O  O123  1  0.20910000  0.89950000  0.12369000  1.0
  O  O124  1  0.39289000  0.72128000  0.30446000  1.0
  O  O125  1  0.57183000  0.73235000  0.30737000  1.0
