# generated using pymatgen
data_ZnH18C16(NO2)2
_symmetry_space_group_name_H-M   'P 1'
_cell_length_a   8.34922000
_cell_length_b   10.61840000
_cell_length_c   10.82990000
_cell_angle_alpha   113.49600000
_cell_angle_beta   93.10160000
_cell_angle_gamma   96.36760000
_symmetry_Int_Tables_number   1
_chemical_formula_structural   ZnH18C16(NO2)2
_chemical_formula_sum   'Zn2 H36 C32 N4 O8'
_cell_volume   869.98331748
_cell_formula_units_Z   2
loop_
 _symmetry_equiv_pos_site_id
 _symmetry_equiv_pos_as_xyz
  1  'x, y, z'
loop_
 _atom_site_type_symbol
 _atom_site_label
 _atom_site_symmetry_multiplicity
 _atom_site_fract_x
 _atom_site_fract_y
 _atom_site_fract_z
 _atom_site_occupancy
  Zn  Zn0  1  0.30154000  0.84911000  0.61700000  1.0
  Zn  Zn1  1  0.69846000  0.15088000  0.38300000  1.0
  H  H2  1  0.17969000  0.77555000  0.33701000  1.0
  H  H3  1  0.82032000  0.22445000  0.66299000  1.0
  H  H4  1  0.23323000  0.62446000  0.10328000  1.0
  H  H5  1  0.76678000  0.37554000  0.89672000  1.0
  H  H6  1  0.60687000  0.48030000  0.28518000  1.0
  H  H7  1  0.39314000  0.51970000  0.71482000  1.0
  H  H8  1  0.53222000  0.63348000  0.51043000  1.0
  H  H9  1  0.46779000  0.36652000  0.48957000  1.0
  H  H10  1  0.41527000  0.77942000  0.84668000  1.0
  H  H11  1  0.58472000  0.22059000  0.15333000  1.0
  H  H12  1  0.66106000  0.86343000  0.02311000  1.0
  H  H13  1  0.33893000  0.13657000  0.97689000  1.0
  H  H14  1  0.86828000  0.09355000  0.80576000  1.0
  H  H15  1  0.13172000  0.90646000  0.19425000  1.0
  H  H16  1  0.61678000  0.00384000  0.64171000  1.0
  H  H17  1  0.38322000  0.99617000  0.35830000  1.0
  H  H18  1  0.36066000  0.38109000  0.97205000  1.0
  H  H19  1  0.63934000  0.61891000  0.02794000  1.0
  H  H20  1  0.55981000  0.38975000  0.04299000  1.0
  H  H21  1  0.44019000  0.61024000  0.95700000  1.0
  H  H22  1  0.90371000  0.02999000  0.12376000  1.0
  H  H23  1  0.09628000  0.97000000  0.87624000  1.0
  H  H24  1  0.96793000  0.15103000  0.05435000  1.0
  H  H25  1  0.03206000  0.84897000  0.94565000  1.0
  H  H26  1  0.88875000  0.54781000  0.72395000  1.0
  H  H27  1  0.11125000  0.45220000  0.27606000  1.0
  H  H28  1  0.81961000  0.69465000  0.70570000  1.0
  H  H29  1  0.18039000  0.30536000  0.29431000  1.0
  H  H30  1  0.85193000  0.54870000  0.56053000  1.0
  H  H31  1  0.14806000  0.45131000  0.43948000  1.0
  H  H32  1  0.14550000  0.30513000  0.67656000  1.0
  H  H33  1  0.85451000  0.69487000  0.32344000  1.0
  H  H34  1  0.02738000  0.15261000  0.54978000  1.0
  H  H35  1  0.97263000  0.84739000  0.45021000  1.0
  H  H36  1  0.21625000  0.21176000  0.51581000  1.0
  H  H37  1  0.78376000  0.78824000  0.48418000  1.0
  C  C38  1  0.27210000  0.70740000  0.31990000  1.0
  C  C39  1  0.72791000  0.29260000  0.68010000  1.0
  C  C40  1  0.30335000  0.62331000  0.19067000  1.0
  C  C41  1  0.69666000  0.37670000  0.80933000  1.0
  C  C42  1  0.42530000  0.53893000  0.17403000  1.0
  C  C43  1  0.57471000  0.46107000  0.82597000  1.0
  C  C44  1  0.50890000  0.54190000  0.29101000  1.0
  C  C45  1  0.49111000  0.45810000  0.70898000  1.0
  C  C46  1  0.46910000  0.62802000  0.41712000  1.0
  C  C47  1  0.53091000  0.37198000  0.58287000  1.0
  C  C48  1  0.51925000  0.84983000  0.84383000  1.0
  C  C49  1  0.48074000  0.15017000  0.15618000  1.0
  C  C50  1  0.65463000  0.89552000  0.93910000  1.0
  C  C51  1  0.34537000  0.10447000  0.06090000  1.0
  C  C52  1  0.78195000  0.98772000  0.92931000  1.0
  C  C53  1  0.21804000  0.01227000  0.07069000  1.0
  C  C54  1  0.76912000  0.02604000  0.81979000  1.0
  C  C55  1  0.23088000  0.97396000  0.18021000  1.0
  C  C56  1  0.63040000  0.97678000  0.72857000  1.0
  C  C57  1  0.36960000  0.02323000  0.27143000  1.0
  C  C58  1  0.46757000  0.45323000  0.03529000  1.0
  C  C59  1  0.53243000  0.54676000  0.96470000  1.0
  C  C60  1  0.92984000  0.04037000  0.02976000  1.0
  C  C61  1  0.07015000  0.95962000  0.97024000  1.0
  C  C62  1  0.07051000  0.67618000  0.67376000  1.0
  C  C63  1  0.92949000  0.32382000  0.32623000  1.0
  C  C64  1  0.89688000  0.61314000  0.66731000  1.0
  C  C65  1  0.10312000  0.38687000  0.33270000  1.0
  C  C66  1  0.22325000  0.10860000  0.65262000  1.0
  C  C67  1  0.77675000  0.89139000  0.34738000  1.0
  C  C68  1  0.15072000  0.20224000  0.59733000  1.0
  C  C69  1  0.84929000  0.79775000  0.40267000  1.0
  N  N70  1  0.35397000  0.71047000  0.43198000  1.0
  N  N71  1  0.64604000  0.28952000  0.56802000  1.0
  N  N72  1  0.50628000  0.89111000  0.74139000  1.0
  N  N73  1  0.49372000  0.10889000  0.25861000  1.0
  O  O74  1  0.08502000  0.78273000  0.64266000  1.0
  O  O75  1  0.91497000  0.21727000  0.35733000  1.0
  O  O76  1  0.18767000  0.62609000  0.70456000  1.0
  O  O77  1  0.81232000  0.37391000  0.29543000  1.0
  O  O78  1  0.27270000  0.00107000  0.56059000  1.0
  O  O79  1  0.72730000  0.99892000  0.43940000  1.0
  O  O80  1  0.22836000  0.13158000  0.77555000  1.0
  O  O81  1  0.77164000  0.86841000  0.22444000  1.0
