# generated using pymatgen
data_Zn2H25C36N3O7
_symmetry_space_group_name_H-M   'P 1'
_cell_length_a   6.93617000
_cell_length_b   21.86220000
_cell_length_c   24.07740000
_cell_angle_alpha   107.06400000
_cell_angle_beta   89.99990000
_cell_angle_gamma   89.99960000
_symmetry_Int_Tables_number   1
_chemical_formula_structural   Zn2H25C36N3O7
_chemical_formula_sum   'Zn8 H100 C144 N12 O28'
_cell_volume   3490.36532422
_cell_formula_units_Z   4
loop_
 _symmetry_equiv_pos_site_id
 _symmetry_equiv_pos_as_xyz
  1  'x, y, z'
loop_
 _atom_site_type_symbol
 _atom_site_label
 _atom_site_symmetry_multiplicity
 _atom_site_fract_x
 _atom_site_fract_y
 _atom_site_fract_z
 _atom_site_occupancy
  Zn  Zn0  1  0.53332000  0.75688000  0.56545000  1.0
  Zn  Zn1  1  0.96669000  0.75689000  0.06546000  1.0
  Zn  Zn2  1  0.46668000  0.24312000  0.43455000  1.0
  Zn  Zn3  1  0.03332000  0.24311000  0.93455000  1.0
  Zn  Zn4  1  0.52061000  0.73606000  0.41808000  1.0
  Zn  Zn5  1  0.97940000  0.73606000  0.91808000  1.0
  Zn  Zn6  1  0.47939000  0.26394000  0.58192000  1.0
  Zn  Zn7  1  0.02060000  0.26394000  0.08192000  1.0
  H  H8  1  0.32653000  0.59518000  0.61028000  1.0
  H  H9  1  0.17348000  0.59519000  0.11028000  1.0
  H  H10  1  0.67347000  0.40481000  0.38972000  1.0
  H  H11  1  0.82654000  0.40482000  0.88972000  1.0
  H  H12  1  0.85509000  0.63917000  0.51390000  1.0
  H  H13  1  0.64495000  0.63918000  0.01390000  1.0
  H  H14  1  0.14493000  0.36082000  0.48610000  1.0
  H  H15  1  0.35508000  0.36082000  0.98609000  1.0
  H  H16  1  0.09235000  0.89793000  0.60568000  1.0
  H  H17  1  0.40764000  0.89793000  0.10568000  1.0
  H  H18  1  0.90765000  0.10207000  0.39432000  1.0
  H  H19  1  0.59235000  0.10208000  0.89432000  1.0
  H  H20  1  0.54917000  0.99824000  0.55040000  1.0
  H  H21  1  0.95081000  0.99824000  0.05040000  1.0
  H  H22  1  0.45082000  0.00176000  0.44960000  1.0
  H  H23  1  0.04917000  0.00176000  0.94959000  1.0
  H  H24  1  0.60985000  0.81205000  0.80602000  1.0
  H  H25  1  0.89015000  0.81205000  0.30602000  1.0
  H  H26  1  0.39015000  0.18795000  0.19399000  1.0
  H  H27  1  0.10984000  0.18795000  0.69398000  1.0
  H  H28  1  0.60184000  0.68802000  0.65415000  1.0
  H  H29  1  0.89817000  0.68802000  0.15415000  1.0
  H  H30  1  0.39817000  0.31198000  0.34585000  1.0
  H  H31  1  0.10183000  0.31198000  0.84585000  1.0
  H  H32  1  0.87095000  0.67384000  0.71771000  1.0
  H  H33  1  0.62906000  0.67384000  0.21770000  1.0
  H  H34  1  0.12906000  0.32616000  0.28229000  1.0
  H  H35  1  0.37094000  0.32616000  0.78230000  1.0
  H  H36  1  0.33441000  0.82913000  0.74600000  1.0
  H  H37  1  0.16559000  0.82913000  0.24600000  1.0
  H  H38  1  0.66558000  0.17087000  0.25400000  1.0
  H  H39  1  0.83441000  0.17087000  0.75400000  1.0
  H  H40  1  0.15795000  0.63339000  0.71877000  1.0
  H  H41  1  0.34205000  0.63339000  0.21877000  1.0
  H  H42  1  0.84205000  0.36660000  0.28123000  1.0
  H  H43  1  0.65795000  0.36660000  0.78123000  1.0
  H  H44  1  0.91129000  0.82028000  0.59805000  1.0
  H  H45  1  0.58871000  0.82028000  0.09805000  1.0
  H  H46  1  0.08871000  0.17972000  0.40196000  1.0
  H  H47  1  0.41128000  0.17972000  0.90195000  1.0
  H  H48  1  0.43786000  0.61701000  0.77763000  1.0
  H  H49  1  0.06215000  0.61702000  0.27763000  1.0
  H  H50  1  0.56215000  0.38298000  0.22237000  1.0
  H  H51  1  0.93786000  0.38298000  0.72237000  1.0
  H  H52  1  0.19466000  0.81217000  0.65809000  1.0
  H  H53  1  0.30533000  0.81217000  0.15809000  1.0
  H  H54  1  0.80533000  0.18783000  0.34191000  1.0
  H  H55  1  0.69466000  0.18783000  0.84191000  1.0
  H  H56  1  0.09489000  0.12870000  0.51450000  1.0
  H  H57  1  0.40512000  0.12870000  0.01450000  1.0
  H  H58  1  0.90511000  0.87130000  0.48550000  1.0
  H  H59  1  0.59488000  0.87131000  0.98550000  1.0
  H  H60  1  0.74620000  0.07787000  0.64313000  1.0
  H  H61  1  0.75378000  0.07787000  0.14313000  1.0
  H  H62  1  0.25379000  0.92213000  0.35687000  1.0
  H  H63  1  0.24620000  0.92213000  0.85687000  1.0
  H  H64  1  0.52744000  0.16739000  0.64186000  1.0
  H  H65  1  0.97255000  0.16739000  0.14186000  1.0
  H  H66  1  0.47255000  0.83261000  0.35814000  1.0
  H  H67  1  0.02744000  0.83261000  0.85814000  1.0
  H  H68  1  0.86324000  0.98330000  0.60372000  1.0
  H  H69  1  0.63674000  0.98331000  0.10372000  1.0
  H  H70  1  0.13675000  0.01670000  0.39628000  1.0
  H  H71  1  0.36324000  0.01670000  0.89628000  1.0
  H  H72  1  0.86402000  0.21725000  0.51950000  1.0
  H  H73  1  0.63599000  0.21725000  0.01950000  1.0
  H  H74  1  0.13598000  0.78275000  0.48050000  1.0
  H  H75  1  0.36401000  0.78275000  0.98050000  1.0
  H  H76  1  0.32565000  0.08666000  0.55059000  1.0
  H  H77  1  0.17434000  0.08667000  0.05059000  1.0
  H  H78  1  0.67435000  0.91333000  0.44941000  1.0
  H  H79  1  0.82564000  0.91333000  0.94941000  1.0
  H  H80  1  0.04068000  0.41664000  0.60935000  1.0
  H  H81  1  0.45931000  0.41665000  0.10935000  1.0
  H  H82  1  0.95931000  0.58336000  0.39065000  1.0
  H  H83  1  0.54069000  0.58336000  0.89065000  1.0
  H  H84  1  0.87221000  0.31984000  0.60976000  1.0
  H  H85  1  0.62776000  0.31984000  0.10976000  1.0
  H  H86  1  0.12777000  0.68016000  0.39024000  1.0
  H  H87  1  0.37222000  0.68017000  0.89024000  1.0
  H  H88  1  0.66552000  0.54921000  0.52977000  1.0
  H  H89  1  0.83450000  0.54921000  0.02977000  1.0
  H  H90  1  0.33449000  0.45079000  0.47023000  1.0
  H  H91  1  0.16551000  0.45078000  0.97023000  1.0
  H  H92  1  0.13967000  0.50662000  0.62892000  1.0
  H  H93  1  0.36034000  0.50663000  0.12891000  1.0
  H  H94  1  0.86034000  0.49337000  0.37109000  1.0
  H  H95  1  0.63968000  0.49338000  0.87109000  1.0
  H  H96  1  0.34828000  0.38825000  0.57072000  1.0
  H  H97  1  0.15172000  0.38824000  0.07073000  1.0
  H  H98  1  0.65172000  0.61175000  0.42927000  1.0
  H  H99  1  0.84828000  0.61175000  0.92927000  1.0
  H  H100  1  0.49694000  0.48974000  0.56568000  1.0
  H  H101  1  0.00307000  0.48974000  0.06568000  1.0
  H  H102  1  0.50307000  0.51026000  0.43432000  1.0
  H  H103  1  0.99693000  0.51026000  0.93432000  1.0
  H  H104  1  0.68581000  0.80329000  0.50389000  1.0
  H  H105  1  0.81420000  0.80330000  0.00390000  1.0
  H  H106  1  0.31420000  0.19671000  0.49611000  1.0
  H  H107  1  0.18581000  0.19671000  0.99611000  1.0
  C  C108  1  0.46888000  0.88709000  0.57360000  1.0
  C  C109  1  0.03111000  0.88709000  0.07359000  1.0
  C  C110  1  0.53112000  0.11291000  0.42641000  1.0
  C  C111  1  0.96887000  0.11291000  0.92641000  1.0
  C  C112  1  0.10364000  0.62128000  0.55970000  1.0
  C  C113  1  0.39638000  0.62129000  0.05970000  1.0
  C  C114  1  0.89637000  0.37871000  0.44030000  1.0
  C  C115  1  0.60364000  0.37871000  0.94029000  1.0
  C  C116  1  0.21793000  0.67509000  0.54912000  1.0
  C  C117  1  0.28209000  0.67510000  0.04912000  1.0
  C  C118  1  0.78208000  0.32491000  0.45088000  1.0
  C  C119  1  0.71794000  0.32491000  0.95088000  1.0
  C  C120  1  0.18204000  0.58397000  0.59247000  1.0
  C  C121  1  0.31799000  0.58398000  0.09247000  1.0
  C  C122  1  0.81797000  0.41603000  0.40753000  1.0
  C  C123  1  0.68203000  0.41603000  0.90753000  1.0
  C  C124  1  0.91574000  0.60873000  0.53817000  1.0
  C  C125  1  0.58429000  0.60873000  0.03818000  1.0
  C  C126  1  0.08428000  0.39127000  0.46183000  1.0
  C  C127  1  0.41573000  0.39127000  0.96182000  1.0
  C  C128  1  0.33565000  0.94273000  0.57859000  1.0
  C  C129  1  0.16433000  0.94273000  0.07858000  1.0
  C  C130  1  0.66434000  0.05727000  0.42141000  1.0
  C  C131  1  0.83565000  0.05727000  0.92142000  1.0
  C  C132  1  0.69702000  0.70338000  0.83517000  1.0
  C  C133  1  0.80299000  0.70338000  0.33518000  1.0
  C  C134  1  0.30298000  0.29662000  0.16483000  1.0
  C  C135  1  0.19701000  0.29661000  0.66482000  1.0
  C  C136  1  0.14236000  0.94001000  0.59461000  1.0
  C  C137  1  0.35763000  0.94001000  0.09460000  1.0
  C  C138  1  0.85764000  0.05999000  0.40539000  1.0
  C  C139  1  0.64235000  0.06000000  0.90539000  1.0
  C  C140  1  0.39929000  0.99636000  0.56326000  1.0
  C  C141  1  0.10069000  0.99637000  0.06326000  1.0
  C  C142  1  0.60070000  0.00363000  0.43674000  1.0
  C  C143  1  0.89929000  0.00363000  0.93674000  1.0
  C  C144  1  0.53878000  0.71379000  0.79616000  1.0
  C  C145  1  0.96122000  0.71380000  0.29616000  1.0
  C  C146  1  0.46122000  0.28620000  0.20384000  1.0
  C  C147  1  0.03878000  0.28620000  0.70384000  1.0
  C  C148  1  0.51040000  0.77319000  0.78632000  1.0
  C  C149  1  0.98961000  0.77320000  0.28632000  1.0
  C  C150  1  0.48960000  0.22680000  0.21368000  1.0
  C  C151  1  0.01040000  0.22680000  0.71368000  1.0
  C  C152  1  0.05803000  0.74218000  0.69419000  1.0
  C  C153  1  0.44197000  0.74218000  0.19419000  1.0
  C  C154  1  0.94197000  0.25782000  0.30581000  1.0
  C  C155  1  0.55803000  0.25782000  0.80581000  1.0
  C  C156  1  0.73594000  0.71472000  0.65715000  1.0
  C  C157  1  0.76407000  0.71473000  0.15715000  1.0
  C  C158  1  0.26407000  0.28527000  0.34285000  1.0
  C  C159  1  0.23594000  0.28527000  0.84285000  1.0
  C  C160  1  0.88714000  0.70709000  0.69211000  1.0
  C  C161  1  0.61286000  0.70709000  0.19211000  1.0
  C  C162  1  0.11286000  0.29291000  0.30789000  1.0
  C  C163  1  0.38714000  0.29291000  0.80789000  1.0
  C  C164  1  0.22478000  0.73269000  0.72867000  1.0
  C  C165  1  0.27523000  0.73269000  0.22867000  1.0
  C  C166  1  0.77523000  0.26731000  0.27133000  1.0
  C  C167  1  0.72476000  0.26730000  0.77133000  1.0
  C  C168  1  0.35626000  0.78236000  0.75261000  1.0
  C  C169  1  0.14375000  0.78236000  0.25261000  1.0
  C  C170  1  0.64374000  0.21764000  0.24740000  1.0
  C  C171  1  0.85626000  0.21763000  0.74740000  1.0
  C  C172  1  0.25585000  0.67289000  0.73805000  1.0
  C  C173  1  0.24416000  0.67289000  0.23806000  1.0
  C  C174  1  0.74416000  0.32711000  0.26194000  1.0
  C  C175  1  0.75584000  0.32711000  0.76194000  1.0
  C  C176  1  0.90821000  0.78949000  0.62635000  1.0
  C  C177  1  0.59180000  0.78949000  0.12635000  1.0
  C  C178  1  0.09181000  0.21051000  0.37365000  1.0
  C  C179  1  0.40820000  0.21051000  0.87365000  1.0
  C  C180  1  0.41192000  0.66340000  0.77070000  1.0
  C  C181  1  0.08807000  0.66340000  0.27071000  1.0
  C  C182  1  0.58807000  0.33660000  0.22929000  1.0
  C  C183  1  0.91193000  0.33660000  0.72929000  1.0
  C  C184  1  0.06493000  0.78506000  0.66074000  1.0
  C  C185  1  0.43507000  0.78506000  0.16074000  1.0
  C  C186  1  0.93508000  0.21494000  0.33926000  1.0
  C  C187  1  0.56492000  0.21494000  0.83926000  1.0
  C  C188  1  0.94283000  0.09504000  0.57884000  1.0
  C  C189  1  0.55717000  0.09505000  0.07884000  1.0
  C  C190  1  0.05717000  0.90496000  0.42116000  1.0
  C  C191  1  0.44282000  0.90496000  0.92116000  1.0
  C  C192  1  0.97316000  0.13603000  0.54430000  1.0
  C  C193  1  0.52685000  0.13603000  0.04430000  1.0
  C  C194  1  0.02684000  0.86398000  0.45570000  1.0
  C  C195  1  0.47315000  0.86398000  0.95570000  1.0
  C  C196  1  0.77781000  0.10674000  0.61431000  1.0
  C  C197  1  0.72218000  0.10674000  0.11431000  1.0
  C  C198  1  0.22219000  0.89326000  0.38569000  1.0
  C  C199  1  0.27781000  0.89326000  0.88569000  1.0
  C  C200  1  0.65524000  0.15680000  0.61438000  1.0
  C  C201  1  0.84476000  0.15680000  0.11438000  1.0
  C  C202  1  0.34476000  0.84320000  0.38562000  1.0
  C  C203  1  0.15524000  0.84320000  0.88562000  1.0
  C  C204  1  0.07790000  0.04287000  0.57877000  1.0
  C  C205  1  0.42209000  0.04288000  0.07877000  1.0
  C  C206  1  0.92210000  0.95713000  0.42123000  1.0
  C  C207  1  0.57788000  0.95713000  0.92123000  1.0
  C  C208  1  0.01482000  0.98892000  0.59433000  1.0
  C  C209  1  0.48516000  0.98893000  0.09433000  1.0
  C  C210  1  0.98517000  0.01108000  0.40567000  1.0
  C  C211  1  0.51482000  0.01108000  0.90567000  1.0
  C  C212  1  0.84422000  0.18525000  0.54638000  1.0
  C  C213  1  0.65577000  0.18526000  0.04639000  1.0
  C  C214  1  0.15577000  0.81475000  0.45361000  1.0
  C  C215  1  0.34422000  0.81475000  0.95361000  1.0
  C  C216  1  0.27270000  0.04576000  0.56326000  1.0
  C  C217  1  0.22729000  0.04577000  0.06325000  1.0
  C  C218  1  0.72730000  0.95424000  0.43675000  1.0
  C  C219  1  0.77270000  0.95424000  0.93674000  1.0
  C  C220  1  0.88699000  0.41435000  0.60034000  1.0
  C  C221  1  0.61301000  0.41435000  0.10034000  1.0
  C  C222  1  0.11301000  0.58565000  0.39966000  1.0
  C  C223  1  0.38699000  0.58565000  0.89966000  1.0
  C  C224  1  0.78644000  0.46337000  0.58608000  1.0
  C  C225  1  0.71356000  0.46337000  0.08608000  1.0
  C  C226  1  0.21356000  0.53663000  0.41392000  1.0
  C  C227  1  0.28644000  0.53663000  0.91392000  1.0
  C  C228  1  0.79250000  0.35882000  0.60107000  1.0
  C  C229  1  0.70749000  0.35882000  0.10107000  1.0
  C  C230  1  0.20748000  0.64118000  0.39893000  1.0
  C  C231  1  0.29251000  0.64118000  0.89893000  1.0
  C  C232  1  0.88944000  0.51996000  0.57962000  1.0
  C  C233  1  0.61057000  0.51996000  0.07962000  1.0
  C  C234  1  0.11056000  0.48004000  0.42038000  1.0
  C  C235  1  0.38944000  0.48004000  0.92037000  1.0
  C  C236  1  0.81020000  0.55871000  0.54792000  1.0
  C  C237  1  0.68982000  0.55872000  0.04792000  1.0
  C  C238  1  0.18981000  0.44129000  0.45208000  1.0
  C  C239  1  0.31019000  0.44129000  0.95208000  1.0
  C  C240  1  0.07635000  0.53442000  0.60262000  1.0
  C  C241  1  0.42367000  0.53442000  0.10262000  1.0
  C  C242  1  0.92366000  0.46558000  0.39738000  1.0
  C  C243  1  0.57634000  0.46558000  0.89738000  1.0
  C  C244  1  0.50192000  0.39713000  0.57825000  1.0
  C  C245  1  0.99807000  0.39713000  0.07826000  1.0
  C  C246  1  0.49807000  0.60287000  0.42174000  1.0
  C  C247  1  0.00193000  0.60287000  0.92174000  1.0
  C  C248  1  0.58721000  0.45357000  0.57566000  1.0
  C  C249  1  0.91279000  0.45357000  0.07566000  1.0
  C  C250  1  0.41279000  0.54643000  0.42434000  1.0
  C  C251  1  0.08721000  0.54643000  0.92434000  1.0
  N  N252  1  0.74606000  0.75505000  0.62431000  1.0
  N  N253  1  0.75395000  0.75505000  0.12431000  1.0
  N  N254  1  0.25395000  0.24495000  0.37569000  1.0
  N  N255  1  0.24605000  0.24495000  0.87569000  1.0
  N  N256  1  0.68669000  0.19582000  0.58106000  1.0
  N  N257  1  0.81330000  0.19582000  0.08106000  1.0
  N  N258  1  0.31330000  0.80418000  0.41894000  1.0
  N  N259  1  0.18669000  0.80418000  0.91894000  1.0
  N  N260  1  0.60293000  0.34975000  0.59017000  1.0
  N  N261  1  0.89707000  0.34975000  0.09017000  1.0
  N  N262  1  0.39706000  0.65025000  0.40983000  1.0
  N  N263  1  0.10293000  0.65025000  0.90983000  1.0
  O  O264  1  0.38904000  0.68282000  0.57249000  1.0
  O  O265  1  0.11098000  0.68282000  0.07249000  1.0
  O  O266  1  0.61097000  0.31718000  0.42750000  1.0
  O  O267  1  0.88904000  0.31718000  0.92750000  1.0
  O  O268  1  0.39958000  0.84143000  0.59177000  1.0
  O  O269  1  0.10041000  0.84144000  0.09177000  1.0
  O  O270  1  0.60042000  0.15856000  0.40823000  1.0
  O  O271  1  0.89958000  0.15856000  0.90823000  1.0
  O  O272  1  0.65672000  0.75712000  0.49221000  1.0
  O  O273  1  0.84329000  0.75713000  0.99222000  1.0
  O  O274  1  0.34327000  0.24288000  0.50779000  1.0
  O  O275  1  0.15673000  0.24288000  0.00779000  1.0
  O  O276  1  0.80983000  0.75197000  0.85715000  1.0
  O  O277  1  0.69016000  0.75197000  0.35715000  1.0
  O  O278  1  0.19016000  0.24804000  0.14285000  1.0
  O  O279  1  0.30984000  0.24803000  0.64285000  1.0
  O  O280  1  0.14770000  0.70866000  0.52038000  1.0
  O  O281  1  0.35231000  0.70866000  0.02037000  1.0
  O  O282  1  0.85229000  0.29134000  0.47962000  1.0
  O  O283  1  0.64772000  0.29134000  0.97963000  1.0
  O  O284  1  0.71013000  0.65068000  0.84557000  1.0
  O  O285  1  0.78987000  0.65069000  0.34557000  1.0
  O  O286  1  0.28988000  0.34932000  0.15444000  1.0
  O  O287  1  0.21012000  0.34931000  0.65443000  1.0
  O  O288  1  0.63322000  0.88692000  0.55109000  1.0
  O  O289  1  0.86677000  0.88692000  0.05109000  1.0
  O  O290  1  0.36677000  0.11308000  0.44891000  1.0
  O  O291  1  0.13322000  0.11308000  0.94891000  1.0
