# generated using pymatgen
data_AgH4(CN)3
_symmetry_space_group_name_H-M   'P 1'
_cell_length_a   3.70403000
_cell_length_b   11.02740000
_cell_length_c   11.06340000
_cell_angle_alpha   90.00010000
_cell_angle_beta   90.00010000
_cell_angle_gamma   89.99940000
_symmetry_Int_Tables_number   1
_chemical_formula_structural   AgH4(CN)3
_chemical_formula_sum   'Ag4 H16 C12 N12'
_cell_volume   451.89364963
_cell_formula_units_Z   4
loop_
 _symmetry_equiv_pos_site_id
 _symmetry_equiv_pos_as_xyz
  1  'x, y, z'
loop_
 _atom_site_type_symbol
 _atom_site_label
 _atom_site_symmetry_multiplicity
 _atom_site_fract_x
 _atom_site_fract_y
 _atom_site_fract_z
 _atom_site_occupancy
  Ag  Ag0  1  0.48826000  0.59582000  0.11864000  1.0
  Ag  Ag1  1  0.98825000  0.40417000  0.88136000  1.0
  Ag  Ag2  1  0.48824000  0.90417000  0.61864000  1.0
  Ag  Ag3  1  0.98822000  0.09583000  0.38137000  1.0
  H  H4  1  0.84513000  0.61284000  0.65321000  1.0
  H  H5  1  0.34508000  0.38716000  0.34678000  1.0
  H  H6  1  0.84510000  0.88716000  0.15321000  1.0
  H  H7  1  0.34511000  0.11283000  0.84679000  1.0
  H  H8  1  0.25492000  0.83547000  0.02755000  1.0
  H  H9  1  0.75495000  0.16453000  0.97246000  1.0
  H  H10  1  0.25493000  0.66453000  0.52755000  1.0
  H  H11  1  0.75493000  0.33547000  0.47246000  1.0
  H  H12  1  0.10049000  0.89428000  0.88539000  1.0
  H  H13  1  0.60048000  0.10571000  0.11461000  1.0
  H  H14  1  0.10047000  0.60572000  0.38539000  1.0
  H  H15  1  0.60047000  0.39428000  0.61461000  1.0
  H  H16  1  0.52561000  0.93902000  0.94353000  1.0
  H  H17  1  0.02561000  0.06099000  0.05646000  1.0
  H  H18  1  0.52560000  0.56098000  0.44353000  1.0
  H  H19  1  0.02559000  0.43902000  0.55647000  1.0
  C  C20  1  0.50696000  0.75841000  0.87358000  1.0
  C  C21  1  0.00695000  0.24160000  0.12641000  1.0
  C  C22  1  0.50695000  0.74160000  0.37358000  1.0
  C  C23  1  0.00696000  0.25840000  0.62642000  1.0
  C  C24  1  0.74217000  0.64629000  0.73851000  1.0
  C  C25  1  0.24217000  0.35372000  0.26151000  1.0
  C  C26  1  0.74216000  0.85371000  0.23851000  1.0
  C  C27  1  0.24216000  0.14629000  0.76149000  1.0
  C  C28  1  0.33660000  0.86255000  0.93616000  1.0
  C  C29  1  0.83659000  0.13745000  0.06384000  1.0
  C  C30  1  0.33659000  0.63745000  0.43617000  1.0
  C  C31  1  0.83659000  0.36256000  0.56384000  1.0
  N  N32  1  0.59724000  0.65446000  0.92794000  1.0
  N  N33  1  0.09723000  0.34554000  0.07206000  1.0
  N  N34  1  0.59721000  0.84554000  0.42794000  1.0
  N  N35  1  0.09723000  0.15446000  0.57206000  1.0
  N  N36  1  0.74812000  0.58156000  0.84033000  1.0
  N  N37  1  0.24811000  0.41844000  0.15966000  1.0
  N  N38  1  0.74810000  0.91844000  0.34033000  1.0
  N  N39  1  0.24812000  0.08156000  0.65967000  1.0
  N  N40  1  0.59490000  0.75737000  0.75414000  1.0
  N  N41  1  0.09488000  0.24262000  0.24585000  1.0
  N  N42  1  0.59490000  0.74262000  0.25415000  1.0
  N  N43  1  0.09489000  0.25738000  0.74585000  1.0
