# generated using pymatgen
data_LaZnH16C12(NO4)3
_symmetry_space_group_name_H-M   'P 1'
_cell_length_a   8.56756000
_cell_length_b   9.69506000
_cell_length_c   12.91445284
_cell_angle_alpha   67.97050099
_cell_angle_beta   81.17306822
_cell_angle_gamma   65.83200000
_symmetry_Int_Tables_number   1
_chemical_formula_structural   LaZnH16C12(NO4)3
_chemical_formula_sum   'La2 Zn2 H32 C24 N6 O24'
_cell_volume   907.23558765
_cell_formula_units_Z   2
loop_
 _symmetry_equiv_pos_site_id
 _symmetry_equiv_pos_as_xyz
  1  'x, y, z'
loop_
 _atom_site_type_symbol
 _atom_site_label
 _atom_site_symmetry_multiplicity
 _atom_site_fract_x
 _atom_site_fract_y
 _atom_site_fract_z
 _atom_site_occupancy
  La  La0  1  0.74997000  0.99312000  0.01385000  1.0
  La  La1  1  0.25003000  0.00688000  0.98615000  1.0
  Zn  Zn2  1  0.74999000  0.83176000  0.33646000  1.0
  Zn  Zn3  1  0.25001000  0.16824000  0.66354000  1.0
  H  H4  1  0.30242000  0.59705000  0.19300000  1.0
  H  H5  1  0.80253000  0.78986000  0.80697000  1.0
  H  H6  1  0.69758000  0.40295000  0.80700000  1.0
  H  H7  1  0.19747000  0.21014000  0.19303000  1.0
  H  H8  1  0.35567000  0.54441000  0.07205000  1.0
  H  H9  1  0.85581000  0.61632000  0.92793000  1.0
  H  H10  1  0.64432000  0.45559000  0.92795000  1.0
  H  H11  1  0.14419000  0.38368000  0.07207000  1.0
  H  H12  1  0.92100000  0.81651000  0.49858000  1.0
  H  H13  1  0.42094000  0.31514000  0.50146000  1.0
  H  H14  1  0.07900000  0.18349000  0.50142000  1.0
  H  H15  1  0.57906000  0.68486000  0.49854000  1.0
  H  H16  1  0.79238000  0.14361000  0.43473000  1.0
  H  H17  1  0.29228000  0.57833000  0.56545000  1.0
  H  H18  1  0.20763000  0.85639000  0.56527000  1.0
  H  H19  1  0.70772000  0.42167000  0.43455000  1.0
  H  H20  1  0.14534000  0.40864000  0.25914000  1.0
  H  H21  1  0.64525000  0.66759000  0.74093000  1.0
  H  H22  1  0.85466000  0.59136000  0.74086000  1.0
  H  H23  1  0.35475000  0.33241000  0.25907000  1.0
  H  H24  1  0.12665000  0.83142000  0.37366000  1.0
  H  H25  1  0.62658000  0.20509000  0.62645000  1.0
  H  H26  1  0.87335000  0.16858000  0.62634000  1.0
  H  H27  1  0.37342000  0.79491000  0.37355000  1.0
  H  H28  1  0.70434000  0.01072000  0.53732000  1.0
  H  H29  1  0.20428000  0.54808000  0.46277000  1.0
  H  H30  1  0.29566000  0.98928000  0.46268000  1.0
  H  H31  1  0.79572000  0.45193000  0.53723000  1.0
  H  H32  1  0.04125000  0.03608000  0.36516000  1.0
  H  H33  1  0.54127000  0.40126000  0.63491000  1.0
  H  H34  1  0.95875000  0.96392000  0.63484000  1.0
  H  H35  1  0.45873000  0.59875000  0.36508000  1.0
  C  C36  1  0.98477000  0.99181000  0.22742000  1.0
  C  C37  1  0.48468000  0.21934000  0.77267000  1.0
  C  C38  1  0.01523000  0.00818000  0.77259000  1.0
  C  C39  1  0.51532000  0.78066000  0.22733000  1.0
  C  C40  1  0.01156000  0.94313000  0.35260000  1.0
  C  C41  1  0.51153000  0.29576000  0.64750000  1.0
  C  C42  1  0.98844000  0.05687000  0.64740000  1.0
  C  C43  1  0.48847000  0.70424000  0.35250000  1.0
  C  C44  1  0.57627000  0.12643000  0.38254000  1.0
  C  C45  1  0.07619000  0.50896000  0.61746000  1.0
  C  C46  1  0.42373000  0.87357000  0.61746000  1.0
  C  C47  1  0.92381000  0.49104000  0.38254000  1.0
  C  C48  1  0.74224000  0.05001000  0.44895000  1.0
  C  C49  1  0.24218000  0.49897000  0.55114000  1.0
  C  C50  1  0.25776000  0.94999000  0.55105000  1.0
  C  C51  1  0.75782000  0.50103000  0.44886000  1.0
  C  C52  1  0.08978000  0.68855000  0.08671000  1.0
  C  C53  1  0.58985000  0.77521000  0.91325000  1.0
  C  C54  1  0.91022000  0.31144000  0.91329000  1.0
  C  C55  1  0.41015000  0.22479000  0.08675000  1.0
  C  C56  1  0.25851000  0.55731000  0.13781000  1.0
  C  C57  1  0.75860000  0.69499000  0.86219000  1.0
  C  C58  1  0.74149000  0.44269000  0.86219000  1.0
  C  C59  1  0.24140000  0.30500000  0.13781000  1.0
  N  N60  1  0.87199000  0.90999000  0.42474000  1.0
  N  N61  1  0.37195000  0.33478000  0.57531000  1.0
  N  N62  1  0.12801000  0.09000000  0.57526000  1.0
  N  N63  1  0.62805000  0.66523000  0.42468000  1.0
  N  N64  1  0.24999000  0.39846000  0.20323000  1.0
  N  N65  1  0.75001000  0.60153000  0.79677000  1.0
  O  O66  1  0.86481000  0.96707000  0.19863000  1.0
  O  O67  1  0.36478000  0.16576000  0.80139000  1.0
  O  O68  1  0.13519000  0.03292000  0.80137000  1.0
  O  O69  1  0.63522000  0.83424000  0.19861000  1.0
  O  O70  1  0.08806000  0.04643000  0.16339000  1.0
  O  O71  1  0.58787000  0.21008000  0.83674000  1.0
  O  O72  1  0.91194000  0.95357000  0.83661000  1.0
  O  O73  1  0.41213000  0.78992000  0.16326000  1.0
  O  O74  1  0.53761000  0.04021000  0.34527000  1.0
  O  O75  1  0.03757000  0.38548000  0.65470000  1.0
  O  O76  1  0.46239000  0.95979000  0.65473000  1.0
  O  O77  1  0.96242000  0.61452000  0.34530000  1.0
  O  O78  1  0.48272000  0.27162000  0.37250000  1.0
  O  O79  1  0.98261000  0.64409000  0.62752000  1.0
  O  O80  1  0.51728000  0.72838000  0.62750000  1.0
  O  O81  1  0.01739000  0.35591000  0.37248000  1.0
  O  O82  1  0.95784000  0.66272000  0.08644000  1.0
  O  O83  1  0.45799000  0.74895000  0.91360000  1.0
  O  O84  1  0.04216000  0.33728000  0.91356000  1.0
  O  O85  1  0.54201000  0.25104000  0.08640000  1.0
  O  O86  1  0.09163000  0.83107000  0.04490000  1.0
  O  O87  1  0.59168000  0.87606000  0.95495000  1.0
  O  O88  1  0.90838000  0.16893000  0.95510000  1.0
  O  O89  1  0.40832000  0.12394000  0.04505000  1.0
