# generated using pymatgen
data_ZnH34C44N2O9
_symmetry_space_group_name_H-M   'P 1'
_cell_length_a   13.75880000
_cell_length_b   15.22410000
_cell_length_c   28.04610000
_cell_angle_alpha   90.16560000
_cell_angle_beta   90.14850000
_cell_angle_gamma   89.95680000
_symmetry_Int_Tables_number   1
_chemical_formula_structural   ZnH34C44N2O9
_chemical_formula_sum   'Zn2 H68 C88 N4 O18'
_cell_volume   5874.64016492
_cell_formula_units_Z   2
loop_
 _symmetry_equiv_pos_site_id
 _symmetry_equiv_pos_as_xyz
  1  'x, y, z'
loop_
 _atom_site_type_symbol
 _atom_site_label
 _atom_site_symmetry_multiplicity
 _atom_site_fract_x
 _atom_site_fract_y
 _atom_site_fract_z
 _atom_site_occupancy
  Zn  Zn0  1  0.59766000  0.50187000  0.50109000  1.0
  Zn  Zn1  1  0.39726000  0.49963000  0.49956000  1.0
  H  H2  1  0.65201000  0.52293000  0.34932000  1.0
  H  H3  1  0.64828000  0.46809000  0.65288000  1.0
  H  H4  1  0.65399000  0.52039000  0.25958000  1.0
  H  H5  1  0.64650000  0.46759000  0.74266000  1.0
  H  H6  1  0.56139000  0.71483000  0.12326000  1.0
  H  H7  1  0.53534000  0.27700000  0.87680000  1.0
  H  H8  1  0.34310000  0.52444000  0.65102000  1.0
  H  H9  1  0.34384000  0.48288000  0.34776000  1.0
  H  H10  1  0.34048000  0.52418000  0.74074000  1.0
  H  H11  1  0.34463000  0.48141000  0.25808000  1.0
  H  H12  1  0.48182000  0.71557000  0.87907000  1.0
  H  H13  1  0.46596000  0.28226000  0.12153000  1.0
  H  H14  1  0.50623000  0.71831000  0.96689000  1.0
  H  H15  1  0.48660000  0.27770000  0.03358000  1.0
  H  H16  1  0.36536000  0.22261000  0.45668000  1.0
  H  H17  1  0.63179000  0.77870000  0.53875000  1.0
  H  H18  1  0.63935000  0.22387000  0.53015000  1.0
  H  H19  1  0.36059000  0.77666000  0.46308000  1.0
  H  H20  1  0.71612000  0.08294000  0.55552000  1.0
  H  H21  1  0.28749000  0.91779000  0.43417000  1.0
  H  H22  1  0.71273000  0.92021000  0.55906000  1.0
  H  H23  1  0.29073000  0.08034000  0.43086000  1.0
  H  H24  1  0.74784000  0.39772000  0.45368000  1.0
  H  H25  1  0.24769000  0.60353000  0.54893000  1.0
  H  H26  1  0.74949000  0.60798000  0.54790000  1.0
  H  H27  1  0.24558000  0.39560000  0.45320000  1.0
  H  H28  1  0.87024000  0.73065000  0.65233000  1.0
  H  H29  1  0.97878000  0.66666667  0.64798000  1.0
  H  H30  1  0.76919000  0.59604000  0.64217000  1.0
  H  H31  1  0.87489000  0.53134000  0.63460000  1.0
  H  H32  1  0.92865000  0.56771000  0.71857000  1.0
  H  H33  1  0.81223000  0.51768000  0.71800000  1.0
  H  H34  1  0.82245000  0.63267000  0.72664000  1.0
  H  H35  1  0.13173000  0.18364000  0.41282000  1.0
  H  H36  1  0.01436000  0.20374000  0.43773000  1.0
  H  H37  1  0.21071000  0.23229000  0.48862000  1.0
  H  H38  1  0.09671000  0.26174000  0.51252000  1.0
  H  H39  1  0.04261000  0.10393000  0.51059000  1.0
  H  H40  1  0.15123000  0.11649000  0.54437000  1.0
  H  H41  1  0.15653000  0.07222000  0.48614000  1.0
  H  H42  1  0.86934000  0.26419000  0.35274000  1.0
  H  H43  1  0.97933000  0.32608000  0.35702000  1.0
  H  H44  1  0.77137000  0.40104000  0.35726000  1.0
  H  H45  1  0.87768000  0.46455000  0.36581000  1.0
  H  H46  1  0.93725000  0.42148000  0.28384000  1.0
  H  H47  1  0.82205000  0.47361000  0.28089000  1.0
  H  H48  1  0.83039000  0.35791000  0.27476000  1.0
  H  H49  1  0.04117000  0.80458000  0.57106000  1.0
  H  H50  1  0.12599000  0.76509000  0.52773000  1.0
  H  H51  1  0.17838000  0.81803000  0.63031000  1.0
  H  H52  1  0.26075000  0.77870000  0.58687000  1.0
  H  H53  1  0.22460000  0.91028000  0.53476000  1.0
  H  H54  1  0.26723000  0.94350000  0.59152000  1.0
  H  H55  1  0.14128000  0.95020000  0.57806000  1.0
  H  H56  1  0.67191000  0.79831000  0.98890000  1.0
  H  H57  1  0.68786000  0.68221000  0.98988000  1.0
  H  H58  1  0.74275000  0.81192000  0.06980000  1.0
  H  H59  1  0.74770000  0.69654000  0.07580000  1.0
  H  H60  1  0.86871000  0.68599000  0.00897000  1.0
  H  H61  1  0.91231000  0.75713000  0.05445000  1.0
  H  H62  1  0.86409000  0.80156000  0.00096000  1.0
  H  H63  1  0.64341000  0.18566000  0.01076000  1.0
  H  H64  1  0.66983000  0.30014000  0.00941000  1.0
  H  H65  1  0.70998000  0.16648000  0.92939000  1.0
  H  H66  1  0.72641000  0.28099000  0.92349000  1.0
  H  H67  1  0.84968000  0.28082000  0.98993000  1.0
  H  H68  1  0.88469000  0.20662000  0.94419000  1.0
  H  H69  1  0.83339000  0.16611000  0.99777000  1.0
  C  C70  1  0.49482000  0.67139000  0.50268000  1.0
  C  C71  1  0.49984000  0.32962000  0.49579000  1.0
  C  C72  1  0.49657000  0.50323000  0.40696000  1.0
  C  C73  1  0.49770000  0.49702000  0.59357000  1.0
  C  C74  1  0.52082000  0.58061000  0.18010000  1.0
  C  C75  1  0.50564000  0.41408000  0.82024000  1.0
  C  C76  1  0.48658000  0.41904000  0.17941000  1.0
  C  C77  1  0.48751000  0.57779000  0.82110000  1.0
  C  C78  1  0.41166000  0.49027000  0.27830000  1.0
  C  C79  1  0.40752000  0.51191000  0.72122000  1.0
  C  C80  1  0.41117000  0.49103000  0.32793000  1.0
  C  C81  1  0.40901000  0.51222000  0.67157000  1.0
  C  C82  1  0.58546000  0.51330000  0.32885000  1.0
  C  C83  1  0.58161000  0.48062000  0.67263000  1.0
  C  C84  1  0.58647000  0.51193000  0.27927000  1.0
  C  C85  1  0.58057000  0.48040000  0.72220000  1.0
  C  C86  1  0.49952000  0.50056000  0.25430000  1.0
  C  C87  1  0.49352000  0.49612000  0.74616000  1.0
  C  C88  1  0.51619000  0.49810000  0.10188000  1.0
  C  C89  1  0.51156000  0.49648000  0.89845000  1.0
  C  C90  1  0.52779000  0.57772000  0.12748000  1.0
  C  C91  1  0.51448000  0.41625000  0.87282000  1.0
  C  C92  1  0.54941000  0.65426000  0.10330000  1.0
  C  C93  1  0.52990000  0.33825000  0.89683000  1.0
  C  C94  1  0.49574000  0.41965000  0.12688000  1.0
  C  C95  1  0.49783000  0.57631000  0.87359000  1.0
  C  C96  1  0.49787000  0.50258000  0.35347000  1.0
  C  C97  1  0.49590000  0.49671000  0.64704000  1.0
  C  C98  1  0.52337000  0.57850000  0.97418000  1.0
  C  C99  1  0.51688000  0.41561000  0.02609000  1.0
  C  C100  1  0.52778000  0.41406000  0.97424000  1.0
  C  C101  1  0.53670000  0.57907000  0.02593000  1.0
  C  C102  1  0.52130000  0.49604000  0.94928000  1.0
  C  C103  1  0.52376000  0.49786000  0.05098000  1.0
  C  C104  1  0.50810000  0.65592000  0.94802000  1.0
  C  C105  1  0.49531000  0.33966000  0.05239000  1.0
  C  C106  1  0.49428000  0.65491000  0.89874000  1.0
  C  C107  1  0.48359000  0.34169000  0.10177000  1.0
  C  C108  1  0.55604000  0.65533000  0.05345000  1.0
  C  C109  1  0.53876000  0.33661000  0.94661000  1.0
  C  C110  1  0.42469000  0.18569000  0.47294000  1.0
  C  C111  1  0.57320000  0.81555000  0.52183000  1.0
  C  C112  1  0.50164000  0.23148000  0.49405000  1.0
  C  C113  1  0.49557000  0.76957000  0.50148000  1.0
  C  C114  1  0.57953000  0.18639000  0.51465000  1.0
  C  C115  1  0.41974000  0.81454000  0.47890000  1.0
  C  C116  1  0.57982000  0.09439000  0.51658000  1.0
  C  C117  1  0.42065000  0.90640000  0.47575000  1.0
  C  C118  1  0.50097000  0.04707000  0.49531000  1.0
  C  C119  1  0.49922000  0.95391000  0.49718000  1.0
  C  C120  1  0.42378000  0.09365000  0.47223000  1.0
  C  C121  1  0.57616000  0.90749000  0.52052000  1.0
  C  C122  1  0.65630000  0.04610000  0.53946000  1.0
  C  C123  1  0.34589000  0.95465000  0.45147000  1.0
  C  C124  1  0.65443000  0.95654000  0.54145000  1.0
  C  C125  1  0.34760000  0.04426000  0.44970000  1.0
  C  C126  1  0.79266000  0.44363000  0.47387000  1.0
  C  C127  1  0.20277000  0.55897000  0.52791000  1.0
  C  C128  1  0.79360000  0.56174000  0.52767000  1.0
  C  C129  1  0.20159000  0.44110000  0.47400000  1.0
  C  C130  1  0.89528000  0.56373000  0.52945000  1.0
  C  C131  1  0.09992000  0.43846000  0.47279000  1.0
  C  C132  1  0.89429000  0.43992000  0.47259000  1.0
  C  C133  1  0.10109000  0.56250000  0.52935000  1.0
  C  C134  1  0.94643000  0.50167000  0.50096000  1.0
  C  C135  1  0.04889000  0.50111000  0.50086000  1.0
  C  C136  1  0.94853000  0.62484000  0.55895000  1.0
  C  C137  1  0.04695000  0.37432000  0.44537000  1.0
  C  C138  1  0.94634000  0.37662000  0.44413000  1.0
  C  C139  1  0.04906000  0.62496000  0.55827000  1.0
  C  C140  1  0.90186000  0.67045000  0.63722000  1.0
  C  C141  1  0.84573000  0.58955000  0.65312000  1.0
  C  C142  1  0.85278000  0.57633000  0.70705000  1.0
  C  C143  1  0.09132000  0.22356000  0.43878000  1.0
  C  C144  1  0.13323000  0.21438000  0.48881000  1.0
  C  C145  1  0.11998000  0.12161000  0.50843000  1.0
  C  C146  1  0.90177000  0.32503000  0.36663000  1.0
  C  C147  1  0.84878000  0.40562000  0.34781000  1.0
  C  C148  1  0.86034000  0.41500000  0.29386000  1.0
  C  C149  1  0.11110000  0.77021000  0.56629000  1.0
  C  C150  1  0.19355000  0.81693000  0.59179000  1.0
  C  C151  1  0.20716000  0.91030000  0.57300000  1.0
  C  C152  1  0.67493000  0.74061000  0.01236000  1.0
  C  C153  1  0.75433000  0.75040000  0.04988000  1.0
  C  C154  1  0.85536000  0.74879000  0.02732000  1.0
  C  C155  1  0.65101000  0.24276000  0.98715000  1.0
  C  C156  1  0.72818000  0.22666000  0.94933000  1.0
  C  C157  1  0.82950000  0.21958000  0.97153000  1.0
  N  N158  1  0.50169000  0.50007000  0.20289000  1.0
  N  N159  1  0.49424000  0.49593000  0.79758000  1.0
  N  N160  1  0.74553000  0.50316000  0.50062000  1.0
  N  N161  1  0.24970000  0.50000000  0.50074000  1.0
  O  O162  1  0.57473000  0.63325000  0.51285000  1.0
  O  O163  1  0.41736000  0.36558000  0.50228000  1.0
  O  O164  1  0.58094000  0.36891000  0.49126000  1.0
  O  O165  1  0.41472000  0.63335000  0.49308000  1.0
  O  O166  1  0.57655000  0.51882000  0.42837000  1.0
  O  O167  1  0.41751000  0.51175000  0.57219000  1.0
  O  O168  1  0.57921000  0.48260000  0.57365000  1.0
  O  O169  1  0.41527000  0.48788000  0.42681000  1.0
  O  O170  1  0.53148000  0.64869000  0.20326000  1.0
  O  O171  1  0.50887000  0.34551000  0.79697000  1.0
  O  O172  1  0.47494000  0.64593000  0.79840000  1.0
  O  O173  1  0.46772000  0.35222000  0.20215000  1.0
  O  O174  1  0.89605000  0.68337000  0.58575000  1.0
  O  O175  1  0.10016000  0.31314000  0.42067000  1.0
  O  O176  1  0.89251000  0.31757000  0.41828000  1.0
  O  O177  1  0.10300000  0.68170000  0.58567000  1.0
  O  O178  1  0.57892000  0.73541000  0.03363000  1.0
  O  O179  1  0.55520000  0.25505000  0.96625000  1.0
