# generated using pymatgen
data_CuBH12C13(N4O)2
_symmetry_space_group_name_H-M   'P 1'
_cell_length_a   8.45561000
_cell_length_b   10.29560000
_cell_length_c   10.32960000
_cell_angle_alpha   99.53040000
_cell_angle_beta   98.12020000
_cell_angle_gamma   104.47500000
_symmetry_Int_Tables_number   1
_chemical_formula_structural   CuBH12C13(N4O)2
_chemical_formula_sum   'Cu2 B2 H24 C26 N16 O4'
_cell_volume   842.83427804
_cell_formula_units_Z   2
loop_
 _symmetry_equiv_pos_site_id
 _symmetry_equiv_pos_as_xyz
  1  'x, y, z'
loop_
 _atom_site_type_symbol
 _atom_site_label
 _atom_site_symmetry_multiplicity
 _atom_site_fract_x
 _atom_site_fract_y
 _atom_site_fract_z
 _atom_site_occupancy
  Cu  Cu0  1  0.73766000  0.72689000  0.16370000  1.0
  Cu  Cu1  1  0.26234000  0.27310000  0.83629000  1.0
  B  B2  1  0.34557000  0.11634000  0.31728000  1.0
  B  B3  1  0.65443000  0.88366000  0.68272000  1.0
  H  H4  1  0.59548000  0.37006000  0.46144000  1.0
  H  H5  1  0.40453000  0.62994000  0.53857000  1.0
  H  H6  1  0.15246000  0.31763000  0.32526000  1.0
  H  H7  1  0.84753000  0.68237000  0.67473000  1.0
  H  H8  1  0.02029000  0.98264000  0.15357000  1.0
  H  H9  1  0.97971000  0.01736000  0.84642000  1.0
  H  H10  1  0.07782000  0.38594000  0.07800000  1.0
  H  H11  1  0.92219000  0.61406000  0.92199000  1.0
  H  H12  1  0.03374000  0.68969000  0.39139000  1.0
  H  H13  1  0.96625000  0.31032000  0.60862000  1.0
  H  H14  1  0.36360000  0.10542000  0.04029000  1.0
  H  H15  1  0.63642000  0.89458000  0.95972000  1.0
  H  H16  1  0.17104000  0.09825000  0.53893000  1.0
  H  H17  1  0.82895000  0.90176000  0.46107000  1.0
  H  H18  1  0.32962000  0.89826000  0.46960000  1.0
  H  H19  1  0.67037000  0.10176000  0.53040000  1.0
  H  H20  1  0.44895000  0.86771000  0.24608000  1.0
  H  H21  1  0.55103000  0.13229000  0.75393000  1.0
  H  H22  1  0.54501000  0.46545000  0.71430000  1.0
  H  H23  1  0.45500000  0.53454000  0.28571000  1.0
  H  H24  1  0.86500000  0.15547000  0.18324000  1.0
  H  H25  1  0.13501000  0.84454000  0.81677000  1.0
  H  H26  1  0.64659000  0.29344000  0.26687000  1.0
  H  H27  1  0.35340000  0.70656000  0.73314000  1.0
  C  C28  1  0.50024000  0.32780000  0.51466000  1.0
  C  C29  1  0.49976000  0.67220000  0.48535000  1.0
  C  C30  1  0.18410000  0.28395000  0.22967000  1.0
  C  C31  1  0.81590000  0.71605000  0.77032000  1.0
  C  C32  1  0.55778000  0.45101000  0.00505000  1.0
  C  C33  1  0.44224000  0.54898000  0.99494000  1.0
  C  C34  1  0.06414000  0.93041000  0.22771000  1.0
  C  C35  1  0.93585000  0.06959000  0.77229000  1.0
  C  C36  1  0.14696000  0.31638000  0.10704000  1.0
  C  C37  1  0.85304000  0.68362000  0.89296000  1.0
  C  C38  1  0.07552000  0.78171000  0.35314000  1.0
  C  C39  1  0.92447000  0.21830000  0.64686000  1.0
  C  C40  1  0.29391000  0.17065000  0.08368000  1.0
  C  C41  1  0.70609000  0.82935000  0.91632000  1.0
  C  C42  1  0.27744000  0.18649000  0.55181000  1.0
  C  C43  1  0.72256000  0.81351000  0.44819000  1.0
  C  C44  1  0.22254000  0.88450000  0.39216000  1.0
  C  C45  1  0.77744000  0.11551000  0.60784000  1.0
  C  C46  1  0.53633000  0.96443000  0.24482000  1.0
  C  C47  1  0.46368000  0.03558000  0.75518000  1.0
  C  C48  1  0.47297000  0.37573000  0.63926000  1.0
  C  C49  1  0.52703000  0.62426000  0.36074000  1.0
  C  C50  1  0.74731000  0.11474000  0.21266000  1.0
  C  C51  1  0.25269000  0.88526000  0.78734000  1.0
  C  C52  1  0.64119000  0.18589000  0.25766000  1.0
  C  C53  1  0.35880000  0.81412000  0.74234000  1.0
  N  N54  1  0.97734000  0.81212000  0.25024000  1.0
  N  N55  1  0.02266000  0.18788000  0.74975000  1.0
  N  N56  1  0.21442000  0.97918000  0.31174000  1.0
  N  N57  1  0.78558000  0.02082000  0.68826000  1.0
  N  N58  1  0.50572000  0.08910000  0.27965000  1.0
  N  N59  1  0.49428000  0.91090000  0.72035000  1.0
  N  N60  1  0.37599000  0.20651000  0.45951000  1.0
  N  N61  1  0.62400000  0.79349000  0.54050000  1.0
  N  N62  1  0.27781000  0.19143000  0.21387000  1.0
  N  N63  1  0.72219000  0.80857000  0.78614000  1.0
  N  N64  1  0.33281000  0.28609000  0.66112000  1.0
  N  N65  1  0.66718000  0.71391000  0.33887000  1.0
  N  N66  1  0.21672000  0.24430000  0.01690000  1.0
  N  N67  1  0.78329000  0.75569000  0.98310000  1.0
  N  N68  1  0.68091000  0.97619000  0.20515000  1.0
  N  N69  1  0.31909000  0.02381000  0.79485000  1.0
  O  O70  1  0.69162000  0.49207000  0.08918000  1.0
  O  O71  1  0.30840000  0.50791000  0.91082000  1.0
  O  O72  1  0.50655000  0.33374000  0.92475000  1.0
  O  O73  1  0.49347000  0.66624000  0.07524000  1.0
