# generated using pymatgen
data_CdH22C30S2(NO)4
_symmetry_space_group_name_H-M   'P 1'
_cell_length_a   8.64222000
_cell_length_b   10.47300000
_cell_length_c   15.62630000
_cell_angle_alpha   90.49050000
_cell_angle_beta   102.38850000
_cell_angle_gamma   102.32090000
_symmetry_Int_Tables_number   1
_chemical_formula_structural   CdH22C30S2(NO)4
_chemical_formula_sum   'Cd2 H44 C60 S4 N8 O8'
_cell_volume   1347.39671939
_cell_formula_units_Z   2
loop_
 _symmetry_equiv_pos_site_id
 _symmetry_equiv_pos_as_xyz
  1  'x, y, z'
loop_
 _atom_site_type_symbol
 _atom_site_label
 _atom_site_symmetry_multiplicity
 _atom_site_fract_x
 _atom_site_fract_y
 _atom_site_fract_z
 _atom_site_occupancy
  Cd  Cd0  1  0.64223000  0.30837000  0.75166000  1.0
  Cd  Cd1  1  0.35778000  0.69163000  0.24834000  1.0
  H  H2  1  0.90928000  0.67731000  0.14292000  1.0
  H  H3  1  0.09071000  0.32269000  0.85708000  1.0
  H  H4  1  0.29597000  0.87661000  0.55975000  1.0
  H  H5  1  0.70403000  0.12340000  0.44025000  1.0
  H  H6  1  0.07685000  0.25251000  0.02899000  1.0
  H  H7  1  0.92314000  0.74749000  0.97101000  1.0
  H  H8  1  0.14783000  0.13312000  0.16391000  1.0
  H  H9  1  0.85216000  0.86688000  0.83609000  1.0
  H  H10  1  0.60364000  0.99789000  0.96479000  1.0
  H  H11  1  0.39636000  0.00211000  0.03520000  1.0
  H  H12  1  0.66830000  0.88313000  0.10212000  1.0
  H  H13  1  0.33169000  0.11687000  0.89788000  1.0
  H  H14  1  0.04822000  0.99522000  0.27401000  1.0
  H  H15  1  0.95177000  0.00477000  0.72599000  1.0
  H  H16  1  0.03532000  0.85452000  0.20985000  1.0
  H  H17  1  0.96468000  0.14548000  0.79015000  1.0
  H  H18  1  0.80575000  0.44071000  0.03145000  1.0
  H  H19  1  0.19425000  0.55928000  0.96855000  1.0
  H  H20  1  0.57281000  0.24752000  0.99378000  1.0
  H  H21  1  0.42719000  0.75247000  0.00622000  1.0
  H  H22  1  0.33687000  0.22550000  0.06107000  1.0
  H  H23  1  0.66313000  0.77450000  0.93893000  1.0
  H  H24  1  0.31822000  0.39940000  0.16754000  1.0
  H  H25  1  0.68178000  0.60059000  0.83246000  1.0
  H  H26  1  0.07230000  0.43202000  0.58306000  1.0
  H  H27  1  0.92770000  0.56798000  0.41694000  1.0
  H  H28  1  0.33285000  0.57627000  0.56559000  1.0
  H  H29  1  0.66714000  0.42373000  0.43442000  1.0
  H  H30  1  0.05361000  0.69576000  0.79092000  1.0
  H  H31  1  0.94639000  0.30425000  0.20908000  1.0
  H  H32  1  0.31959000  0.83377000  0.77891000  1.0
  H  H33  1  0.68041000  0.16623000  0.22108000  1.0
  H  H34  1  0.53323000  0.78094000  0.60065000  1.0
  H  H35  1  0.46677000  0.21907000  0.39935000  1.0
  H  H36  1  0.60309000  0.73105000  0.70626000  1.0
  H  H37  1  0.39691000  0.26895000  0.29373000  1.0
  H  H38  1  0.08374000  0.98397000  0.42067000  1.0
  H  H39  1  0.91628000  0.01605000  0.57933000  1.0
  H  H40  1  0.04262000  0.20374000  0.36924000  1.0
  H  H41  1  0.95741000  0.79628000  0.63075000  1.0
  H  H42  1  0.22264000  0.40715000  0.44124000  1.0
  H  H43  1  0.77739000  0.59286000  0.55876000  1.0
  H  H44  1  0.45158000  0.40292000  0.57034000  1.0
  H  H45  1  0.54843000  0.59709000  0.42967000  1.0
  C  C46  1  0.79401000  0.20223000  0.90679000  1.0
  C  C47  1  0.20599000  0.79777000  0.09322000  1.0
  C  C48  1  0.83638000  0.13159000  0.98816000  1.0
  C  C49  1  0.16362000  0.86841000  0.01184000  1.0
  C  C50  1  0.98939000  0.16980000  0.04483000  1.0
  C  C51  1  0.01061000  0.83020000  0.95517000  1.0
  C  C52  1  0.02776000  0.10326000  0.12042000  1.0
  C  C53  1  0.97223000  0.89674000  0.87958000  1.0
  C  C54  1  0.72232000  0.02729000  0.00937000  1.0
  C  C55  1  0.27768000  0.97271000  0.99063000  1.0
  C  C56  1  0.76011000  0.96189000  0.08563000  1.0
  C  C57  1  0.23989000  0.03810000  0.91437000  1.0
  C  C58  1  0.91419000  0.99799000  0.14154000  1.0
  C  C59  1  0.08580000  0.00200000  0.85846000  1.0
  C  C60  1  0.96547000  0.92621000  0.22237000  1.0
  C  C61  1  0.03452000  0.07378000  0.77763000  1.0
  C  C62  1  0.72380000  0.69981000  0.21172000  1.0
  C  C63  1  0.27620000  0.30018000  0.78828000  1.0
  C  C64  1  0.69138000  0.52581000  0.12216000  1.0
  C  C65  1  0.30861000  0.47419000  0.87784000  1.0
  C  C66  1  0.70151000  0.43108000  0.06156000  1.0
  C  C67  1  0.29848000  0.56891000  0.93844000  1.0
  C  C68  1  0.57089000  0.32343000  0.04124000  1.0
  C  C69  1  0.42910000  0.67656000  0.95876000  1.0
  C  C70  1  0.43580000  0.31142000  0.07967000  1.0
  C  C71  1  0.56419000  0.68857000  0.92033000  1.0
  C  C72  1  0.42448000  0.40687000  0.13926000  1.0
  C  C73  1  0.57551000  0.59312000  0.86073000  1.0
  C  C74  1  0.55505000  0.51515000  0.16046000  1.0
  C  C75  1  0.44495000  0.48484000  0.83953000  1.0
  C  C76  1  0.89499000  0.46599000  0.70083000  1.0
  C  C77  1  0.10501000  0.53401000  0.29917000  1.0
  C  C78  1  0.04714000  0.55508000  0.68806000  1.0
  C  C79  1  0.95285000  0.44492000  0.31193000  1.0
  C  C80  1  0.12576000  0.52161000  0.62435000  1.0
  C  C81  1  0.87424000  0.47839000  0.37565000  1.0
  C  C82  1  0.27173000  0.60138000  0.61554000  1.0
  C  C83  1  0.72826000  0.39862000  0.38446000  1.0
  C  C84  1  0.11575000  0.66973000  0.74184000  1.0
  C  C85  1  0.88424000  0.33027000  0.25816000  1.0
  C  C86  1  0.26446000  0.74718000  0.73475000  1.0
  C  C87  1  0.73554000  0.25283000  0.26525000  1.0
  C  C88  1  0.34510000  0.71225000  0.67248000  1.0
  C  C89  1  0.65490000  0.28776000  0.32752000  1.0
  C  C90  1  0.51464000  0.78219000  0.66795000  1.0
  C  C91  1  0.48536000  0.21781000  0.33205000  1.0
  C  C92  1  0.47507000  0.02968000  0.63689000  1.0
  C  C93  1  0.52493000  0.97033000  0.36311000  1.0
  C  C94  1  0.29269000  0.07393000  0.52296000  1.0
  C  C95  1  0.70731000  0.92608000  0.47704000  1.0
  C  C96  1  0.16393000  0.07469000  0.45201000  1.0
  C  C97  1  0.83608000  0.92533000  0.54799000  1.0
  C  C98  1  0.14143000  0.19732000  0.42448000  1.0
  C  C99  1  0.85859000  0.80269000  0.57551000  1.0
  C  C100  1  0.24433000  0.31416000  0.46597000  1.0
  C  C101  1  0.75569000  0.68585000  0.53404000  1.0
  C  C102  1  0.37260000  0.31296000  0.53710000  1.0
  C  C103  1  0.62741000  0.68705000  0.46291000  1.0
  C  C104  1  0.39533000  0.19097000  0.56593000  1.0
  C  C105  1  0.60468000  0.80904000  0.43407000  1.0
  S  S106  1  0.80660000  0.84551000  0.27478000  1.0
  S  S107  1  0.19340000  0.15448000  0.72522000  1.0
  S  S108  1  0.58214000  0.94769000  0.71568000  1.0
  S  S109  1  0.41786000  0.05231000  0.28432000  1.0
  N  N110  1  0.57794000  0.62633000  0.21545000  1.0
  N  N111  1  0.42205000  0.37366000  0.78455000  1.0
  N  N112  1  0.79585000  0.64310000  0.15658000  1.0
  N  N113  1  0.20415000  0.35689000  0.84342000  1.0
  N  N114  1  0.50676000  0.15999000  0.63625000  1.0
  N  N115  1  0.49324000  0.84001000  0.36375000  1.0
  N  N116  1  0.34803000  0.97370000  0.56917000  1.0
  N  N117  1  0.65197000  0.02631000  0.43083000  1.0
  O  O118  1  0.90074000  0.29028000  0.88374000  1.0
  O  O119  1  0.09926000  0.70972000  0.11627000  1.0
  O  O120  1  0.64640000  0.17066000  0.86269000  1.0
  O  O121  1  0.35360000  0.82935000  0.13731000  1.0
  O  O122  1  0.86439000  0.34649000  0.67413000  1.0
  O  O123  1  0.13562000  0.65352000  0.32588000  1.0
  O  O124  1  0.80176000  0.51317000  0.74047000  1.0
  O  O125  1  0.19824000  0.48683000  0.25953000  1.0
