# generated using pymatgen
data_Dy2CuH4C10N4O9
_symmetry_space_group_name_H-M   'P 1'
_cell_length_a   6.75670000
_cell_length_b   16.16334912
_cell_length_c   16.18990000
_cell_angle_alpha   118.15416766
_cell_angle_beta   97.86150000
_cell_angle_gamma   97.88039888
_symmetry_Int_Tables_number   1
_chemical_formula_structural   Dy2CuH4C10N4O9
_chemical_formula_sum   'Dy6 Cu3 H12 C30 N12 O27'
_cell_volume   1502.54083423
_cell_formula_units_Z   3
loop_
 _symmetry_equiv_pos_site_id
 _symmetry_equiv_pos_as_xyz
  1  'x, y, z'
loop_
 _atom_site_type_symbol
 _atom_site_label
 _atom_site_symmetry_multiplicity
 _atom_site_fract_x
 _atom_site_fract_y
 _atom_site_fract_z
 _atom_site_occupancy
  Dy  Dy0  1  0.79260000  0.91147000  0.06460000  1.0
  Dy  Dy1  1  0.72478000  0.93536000  0.84613000  1.0
  Dy  Dy2  1  0.87923000  0.15271000  0.08944000  1.0
  Dy  Dy3  1  0.20742000  0.08853000  0.93541000  1.0
  Dy  Dy4  1  0.27522000  0.06463000  0.15386000  1.0
  Dy  Dy5  1  0.12077000  0.84728000  0.91056000  1.0
  Cu  Cu6  1  0.50000000  0.50000000  0.00001000  1.0
  Cu  Cu7  1  0.49999000  0.00001000  0.50001000  1.0
  Cu  Cu8  1  0.00001000  0.50000000  0.50000000  1.0
  H  H9  1  0.05814000  0.47560000  0.90095000  1.0
  H  H10  1  0.89270000  0.58941000  0.85910000  1.0
  H  H11  1  0.15391000  0.09945000  0.57390000  1.0
  H  H12  1  0.02494000  0.13947000  0.72783000  1.0
  H  H13  1  0.58126000  0.42732000  0.52584000  1.0
  H  H14  1  0.29950000  0.27347000  0.41245000  1.0
  H  H15  1  0.94187000  0.52440000  0.09905000  1.0
  H  H16  1  0.10731000  0.41058000  0.14088000  1.0
  H  H17  1  0.84603000  0.90055000  0.42611000  1.0
  H  H18  1  0.97502000  0.86053000  0.27219000  1.0
  H  H19  1  0.41877000  0.57268000  0.47417000  1.0
  H  H20  1  0.70053000  0.72653000  0.58755000  1.0
  C  C21  1  0.35917000  0.72902000  0.97352000  1.0
  C  C22  1  0.45200000  0.66293000  0.99202000  1.0
  C  C23  1  0.14015000  0.54730000  0.92018000  1.0
  C  C24  1  0.05197000  0.61065000  0.89907000  1.0
  C  C25  1  0.67265000  0.68171000  0.03741000  1.0
  C  C26  1  0.38035000  0.02627000  0.75441000  1.0
  C  C27  1  0.45600000  0.00782000  0.67021000  1.0
  C  C28  1  0.21574000  0.07972000  0.62605000  1.0
  C  C29  1  0.14609000  0.10010000  0.70981000  1.0
  C  C30  1  0.63189000  0.96221000  0.64397000  1.0
  C  C31  1  0.62762000  0.24566000  0.27219000  1.0
  C  C32  1  0.78705000  0.32969000  0.33769000  1.0
  C  C33  1  0.59108000  0.37476000  0.45399000  1.0
  C  C34  1  0.43829000  0.29109000  0.39089000  1.0
  C  C35  1  0.98886000  0.35546000  0.31811000  1.0
  C  C36  1  0.64084000  0.27098000  0.02648000  1.0
  C  C37  1  0.54800000  0.33707000  0.00799000  1.0
  C  C38  1  0.85986000  0.45269000  0.07981000  1.0
  C  C39  1  0.94805000  0.38934000  0.10092000  1.0
  C  C40  1  0.32735000  0.31829000  0.96260000  1.0
  C  C41  1  0.61965000  0.97374000  0.24560000  1.0
  C  C42  1  0.54398000  0.99219000  0.32979000  1.0
  C  C43  1  0.78422000  0.92028000  0.37395000  1.0
  C  C44  1  0.85389000  0.89990000  0.29020000  1.0
  C  C45  1  0.36809000  0.03780000  0.35603000  1.0
  C  C46  1  0.37239000  0.75435000  0.72782000  1.0
  C  C47  1  0.21297000  0.67031000  0.66230000  1.0
  C  C48  1  0.40894000  0.62524000  0.54602000  1.0
  C  C49  1  0.56172000  0.70891000  0.60912000  1.0
  C  C50  1  0.01115000  0.64454000  0.68188000  1.0
  N  N51  1  0.15685000  0.69780000  0.92473000  1.0
  N  N52  1  0.33878000  0.57562000  0.96559000  1.0
  N  N53  1  0.22470000  0.07437000  0.77130000  1.0
  N  N54  1  0.37003000  0.03445000  0.60938000  1.0
  N  N55  1  0.45562000  0.22921000  0.30367000  1.0
  N  N56  1  0.76175000  0.39090000  0.42519000  1.0
  N  N57  1  0.84316000  0.30219000  0.07526000  1.0
  N  N58  1  0.66121000  0.42437000  0.03440000  1.0
  N  N59  1  0.77530000  0.92563000  0.22871000  1.0
  N  N60  1  0.62994000  0.96556000  0.39063000  1.0
  N  N61  1  0.54437000  0.77079000  0.69633000  1.0
  N  N62  1  0.23827000  0.60910000  0.57481000  1.0
  O  O63  1  0.44923000  0.81396000  0.99718000  1.0
  O  O64  1  0.79751000  0.75794000  0.06098000  1.0
  O  O65  1  0.72557000  0.61286000  0.04960000  1.0
  O  O66  1  0.78881000  0.83918000  0.90732000  1.0
  O  O67  1  0.44755000  0.00321000  0.81607000  1.0
  O  O68  1  0.73232000  0.93827000  0.69646000  1.0
  O  O69  1  0.67425000  0.95012000  0.56329000  1.0
  O  O70  1  0.87921000  0.09253000  0.93181000  1.0
  O  O71  1  0.63288000  0.18367000  0.18735000  1.0
  O  O72  1  0.03689000  0.30259000  0.24158000  1.0
  O  O73  1  0.11136000  0.43611000  0.38658000  1.0
  O  O74  1  0.95103000  0.06864000  0.16217000  1.0
  O  O75  1  0.55077000  0.18603000  0.00282000  1.0
  O  O76  1  0.20248000  0.24207000  0.93905000  1.0
  O  O77  1  0.27442000  0.38714000  0.95042000  1.0
  O  O78  1  0.21119000  0.16081000  0.09268000  1.0
  O  O79  1  0.55245000  0.99680000  0.18394000  1.0
  O  O80  1  0.26768000  0.06174000  0.30354000  1.0
  O  O81  1  0.32572000  0.04989000  0.43670000  1.0
  O  O82  1  0.12080000  0.90746000  0.06818000  1.0
  O  O83  1  0.36712000  0.81633000  0.81264000  1.0
  O  O84  1  0.96311000  0.69741000  0.75840000  1.0
  O  O85  1  0.88865000  0.56389000  0.61341000  1.0
  O  O86  1  0.04898000  0.93135000  0.83782000  1.0
  O  O87  1  0.60160000  0.99962000  0.99898000  1.0
  O  O88  1  0.39841000  0.00037000  0.00101000  1.0
  O  O89  1  0.00001000  0.00000000  0.00000000  1.0
