# generated using pymatgen
data_CdBH48C45Br2N3
_symmetry_space_group_name_H-M   'P 1'
_cell_length_a   18.21850000
_cell_length_b   18.21850000
_cell_length_c   19.01128139
_cell_angle_alpha   61.36552575
_cell_angle_beta   89.98715930
_cell_angle_gamma   59.98970000
_symmetry_Int_Tables_number   1
_chemical_formula_structural   CdBH48C45Br2N3
_chemical_formula_sum   'Cd4 B4 H192 C180 Br8 N12'
_cell_volume   4551.59347772
_cell_formula_units_Z   4
loop_
 _symmetry_equiv_pos_site_id
 _symmetry_equiv_pos_as_xyz
  1  'x, y, z'
loop_
 _atom_site_type_symbol
 _atom_site_label
 _atom_site_symmetry_multiplicity
 _atom_site_fract_x
 _atom_site_fract_y
 _atom_site_fract_z
 _atom_site_occupancy
  Cd  Cd0  1  0.89832000  0.60168000  0.50000000  1.0
  Cd  Cd1  1  0.10160000  0.00040000  0.49985000  1.0
  Cd  Cd2  1  0.49975000  0.39825000  0.50014000  1.0
  Cd  Cd3  1  0.99998000  0.00002000  0.00000000  1.0
  B  B4  1  0.59987000  0.40013000  0.00000000  1.0
  B  B5  1  0.40013000  0.00012000  0.99997000  1.0
  B  B6  1  0.99991000  0.59984000  0.00003000  1.0
  B  B7  1  0.50007000  0.99993000  0.50000000  1.0
  H  H8  1  0.93592000  0.72870000  0.32749000  1.0
  H  H9  1  0.05611000  0.00770000  0.32762000  1.0
  H  H10  1  0.33565000  0.60824000  0.32727000  1.0
  H  H11  1  0.66466000  0.27150000  0.67240000  1.0
  H  H12  1  0.06449000  0.99162000  0.67273000  1.0
  H  H13  1  0.94382000  0.39158000  0.67251000  1.0
  H  H14  1  0.87153000  0.90932000  0.21296000  1.0
  H  H15  1  0.12219000  0.00600000  0.21306000  1.0
  H  H16  1  0.21946000  0.65846000  0.21274000  1.0
  H  H17  1  0.78093000  0.09088000  0.78694000  1.0
  H  H18  1  0.12880000  0.99328000  0.78726000  1.0
  H  H19  1  0.87772000  0.34145000  0.78703000  1.0
  H  H20  1  0.70096000  0.99776000  0.35498000  1.0
  H  H21  1  0.35247000  0.94666000  0.35481000  1.0
  H  H22  1  0.30120000  0.34600000  0.35486000  1.0
  H  H23  1  0.69853000  0.00234000  0.64519000  1.0
  H  H24  1  0.29914000  0.05366000  0.64513000  1.0
  H  H25  1  0.64726000  0.65403000  0.64501000  1.0
  H  H26  1  0.77997000  0.81366000  0.46824000  1.0
  H  H27  1  0.28167000  0.93834000  0.46814000  1.0
  H  H28  1  0.40610000  0.31179000  0.46821000  1.0
  H  H29  1  0.59353000  0.18647000  0.53186000  1.0
  H  H30  1  0.22001000  0.06211000  0.53178000  1.0
  H  H31  1  0.71812000  0.68828000  0.53176000  1.0
  H  H32  1  0.63287000  0.00575000  0.21906000  1.0
  H  H33  1  0.22434000  0.14252000  0.21890000  1.0
  H  H34  1  0.36137000  0.41388000  0.21886000  1.0
  H  H35  1  0.63858000  0.99456000  0.78110000  1.0
  H  H36  1  0.36726000  0.85749000  0.78114000  1.0
  H  H37  1  0.77519000  0.58618000  0.78094000  1.0
  H  H38  1  0.55920000  0.10328000  0.11469000  1.0
  H  H39  1  0.21761000  0.22294000  0.11456000  1.0
  H  H40  1  0.33761000  0.44446000  0.11454000  1.0
  H  H41  1  0.66250000  0.89695000  0.88544000  1.0
  H  H42  1  0.44100000  0.77693000  0.88546000  1.0
  H  H43  1  0.78202000  0.55550000  0.88530000  1.0
  H  H44  1  0.53572000  0.11980000  0.19800000  1.0
  H  H45  1  0.31735000  0.14674000  0.19793000  1.0
  H  H46  1  0.34451000  0.33772000  0.19786000  1.0
  H  H47  1  0.65533000  0.88058000  0.80207000  1.0
  H  H48  1  0.46442000  0.85335000  0.80214000  1.0
  H  H49  1  0.68220000  0.66228000  0.80200000  1.0
  H  H50  1  0.47222000  0.37989000  0.00312000  1.0
  H  H51  1  0.38285000  0.14487000  0.00311000  1.0
  H  H52  1  0.14788000  0.46902000  0.00304000  1.0
  H  H53  1  0.85202000  0.62026000  0.99689000  1.0
  H  H54  1  0.52793000  0.85516000  0.99696000  1.0
  H  H55  1  0.61700000  0.53091000  0.99688000  1.0
  H  H56  1  0.46167000  0.29196000  0.09065000  1.0
  H  H57  1  0.38249000  0.15581000  0.09063000  1.0
  H  H58  1  0.24635000  0.37095000  0.09059000  1.0
  H  H59  1  0.75356000  0.70815000  0.90936000  1.0
  H  H60  1  0.53845000  0.84424000  0.90941000  1.0
  H  H61  1  0.61739000  0.62898000  0.90935000  1.0
  H  H62  1  0.49233000  0.26956000  0.01145000  1.0
  H  H63  1  0.28086000  0.22673000  0.01148000  1.0
  H  H64  1  0.23810000  0.48082000  0.01133000  1.0
  H  H65  1  0.76179000  0.73061000  0.98852000  1.0
  H  H66  1  0.50785000  0.77323000  0.98867000  1.0
  H  H67  1  0.71899000  0.51913000  0.98854000  1.0
  H  H68  1  0.75756000  0.34535000  0.05106000  1.0
  H  H69  1  0.39643000  0.84592000  0.05111000  1.0
  H  H70  1  0.89702000  0.70643000  0.05114000  1.0
  H  H71  1  0.10297000  0.65467000  0.94889000  1.0
  H  H72  1  0.24242000  0.15413000  0.94886000  1.0
  H  H73  1  0.60359000  0.29351000  0.94893000  1.0
  H  H74  1  0.85701000  0.22127000  0.10502000  1.0
  H  H75  1  0.32635000  0.81656000  0.10515000  1.0
  H  H76  1  0.92166000  0.75191000  0.10512000  1.0
  H  H77  1  0.07829000  0.77880000  0.89485000  1.0
  H  H78  1  0.14296000  0.18346000  0.89488000  1.0
  H  H79  1  0.67371000  0.24801000  0.89498000  1.0
  H  H80  1  0.80515000  0.27464000  0.16208000  1.0
  H  H81  1  0.43677000  0.75809000  0.16215000  1.0
  H  H82  1  0.92030000  0.64288000  0.16220000  1.0
  H  H83  1  0.07975000  0.72538000  0.83785000  1.0
  H  H84  1  0.19492000  0.24190000  0.83780000  1.0
  H  H85  1  0.56327000  0.35693000  0.83792000  1.0
  H  H86  1  0.89474000  0.99100000  0.30070000  1.0
  H  H87  1  0.29216000  0.81328000  0.30100000  1.0
  H  H88  1  0.11438000  0.59418000  0.30050000  1.0
  H  H89  1  0.88573000  0.00883000  0.69900000  1.0
  H  H90  1  0.10532000  0.18612000  0.69950000  1.0
  H  H91  1  0.70830000  0.40596000  0.69930000  1.0
  H  H92  1  0.88532000  0.10663000  0.26048000  1.0
  H  H93  1  0.36752000  0.74737000  0.26074000  1.0
  H  H94  1  0.00812000  0.62507000  0.26040000  1.0
  H  H95  1  0.99190000  0.89321000  0.73927000  1.0
  H  H96  1  0.11453000  0.25228000  0.73960000  1.0
  H  H97  1  0.63289000  0.37516000  0.73952000  1.0
  H  H98  1  0.92383000  0.04125000  0.20898000  1.0
  H  H99  1  0.25063000  0.82540000  0.20946000  1.0
  H  H100  1  0.03506000  0.71497000  0.20879000  1.0
  H  H101  1  0.96514000  0.95882000  0.79054000  1.0
  H  H102  1  0.07623000  0.17373000  0.79121000  1.0
  H  H103  1  0.74976000  0.28514000  0.79102000  1.0
  H  H104  1  0.16759000  0.96879000  0.93703000  1.0
  H  H105  1  0.90594000  0.92652000  0.93711000  1.0
  H  H106  1  0.86368000  0.23073000  0.93669000  1.0
  H  H107  1  0.13637000  0.03116000  0.06290000  1.0
  H  H108  1  0.83257000  0.07302000  0.06331000  1.0
  H  H109  1  0.09418000  0.76945000  0.06296000  1.0
  H  H110  1  0.30760000  0.83506000  0.93793000  1.0
  H  H111  1  0.77311000  0.91943000  0.93791000  1.0
  H  H112  1  0.85738000  0.36966000  0.93790000  1.0
  H  H113  1  0.14266000  0.16480000  0.06209000  1.0
  H  H114  1  0.69243000  0.08053000  0.06209000  1.0
  H  H115  1  0.22701000  0.63034000  0.06207000  1.0
  H  H116  1  0.37399000  0.61084000  0.79997000  1.0
  H  H117  1  0.41087000  0.21549000  0.79981000  1.0
  H  H118  1  0.01517000  0.57390000  0.80011000  1.0
  H  H119  1  0.98470000  0.38894000  0.20018000  1.0
  H  H120  1  0.62598000  0.78494000  0.19988000  1.0
  H  H121  1  0.58919000  0.42598000  0.20003000  1.0
  H  H122  1  0.45780000  0.47962000  0.86646000  1.0
  H  H123  1  0.34604000  0.19659000  0.86624000  1.0
  H  H124  1  0.06243000  0.59134000  0.86659000  1.0
  H  H125  1  0.93717000  0.52021000  0.13374000  1.0
  H  H126  1  0.54207000  0.80418000  0.13339000  1.0
  H  H127  1  0.65392000  0.40866000  0.13354000  1.0
  H  H128  1  0.48743000  0.56674000  0.82215000  1.0
  H  H129  1  0.38888000  0.12400000  0.82207000  1.0
  H  H130  1  0.94569000  0.66520000  0.82226000  1.0
  H  H131  1  0.05394000  0.43319000  0.17792000  1.0
  H  H132  1  0.51253000  0.87658000  0.17773000  1.0
  H  H133  1  0.61110000  0.33472000  0.17785000  1.0
  H  H134  1  0.27821000  0.71677000  0.79624000  1.0
  H  H135  1  0.51316000  0.20890000  0.79618000  1.0
  H  H136  1  0.00496000  0.48198000  0.79630000  1.0
  H  H137  1  0.99492000  0.28302000  0.20382000  1.0
  H  H138  1  0.72172000  0.79135000  0.20369000  1.0
  H  H139  1  0.48699000  0.51803000  0.20376000  1.0
  H  H140  1  0.25393000  0.79559000  0.83337000  1.0
  H  H141  1  0.62914000  0.11711000  0.83350000  1.0
  H  H142  1  0.95038000  0.42058000  0.83346000  1.0
  H  H143  1  0.04940000  0.20436000  0.16650000  1.0
  H  H144  1  0.74596000  0.88308000  0.16653000  1.0
  H  H145  1  0.37103000  0.57944000  0.16663000  1.0
  H  H146  1  0.21869000  0.71378000  0.86989000  1.0
  H  H147  1  0.58369000  0.19785000  0.86985000  1.0
  H  H148  1  0.06745000  0.34882000  0.86988000  1.0
  H  H149  1  0.93230000  0.28616000  0.13015000  1.0
  H  H150  1  0.78129000  0.80244000  0.13011000  1.0
  H  H151  1  0.41634000  0.65119000  0.13012000  1.0
  H  H152  1  0.95504000  0.42370000  0.47616000  1.0
  H  H153  1  0.89989000  0.14522000  0.47615000  1.0
  H  H154  1  0.62125000  0.47877000  0.47623000  1.0
  H  H155  1  0.37862000  0.57627000  0.52384000  1.0
  H  H156  1  0.04500000  0.85498000  0.52376000  1.0
  H  H157  1  0.10017000  0.52112000  0.52384000  1.0
  H  H158  1  0.08995000  0.28093000  0.47963000  1.0
  H  H159  1  0.76067000  0.14962000  0.47974000  1.0
  H  H160  1  0.62909000  0.61011000  0.47981000  1.0
  H  H161  1  0.37063000  0.71907000  0.52026000  1.0
  H  H162  1  0.91009000  0.85072000  0.52019000  1.0
  H  H163  1  0.23946000  0.38968000  0.52037000  1.0
  H  H164  1  0.50729000  0.08934000  0.65159000  1.0
  H  H165  1  0.74099000  0.75178000  0.65156000  1.0
  H  H166  1  0.40326000  0.85567000  0.65158000  1.0
  H  H167  1  0.59666000  0.91058000  0.34843000  1.0
  H  H168  1  0.49275000  0.24831000  0.34842000  1.0
  H  H169  1  0.25907000  0.14431000  0.34841000  1.0
  H  H170  1  0.55983000  0.00263000  0.62058000  1.0
  H  H171  1  0.62326000  0.81708000  0.62060000  1.0
  H  H172  1  0.43750000  0.93914000  0.62060000  1.0
  H  H173  1  0.56232000  0.99734000  0.37940000  1.0
  H  H174  1  0.44026000  0.18310000  0.37940000  1.0
  H  H175  1  0.37679000  0.06075000  0.37943000  1.0
  H  H176  1  0.50053000  0.98378000  0.69402000  1.0
  H  H177  1  0.67801000  0.82161000  0.69407000  1.0
  H  H178  1  0.51561000  0.80638000  0.69406000  1.0
  H  H179  1  0.48431000  0.01606000  0.30593000  1.0
  H  H180  1  0.49955000  0.17846000  0.30593000  1.0
  H  H181  1  0.32220000  0.19349000  0.30597000  1.0
  H  H182  1  0.27418000  0.21922000  0.65124000  1.0
  H  H183  1  0.87083000  0.85489000  0.65109000  1.0
  H  H184  1  0.50605000  0.62317000  0.65115000  1.0
  H  H185  1  0.49402000  0.78025000  0.34892000  1.0
  H  H186  1  0.72569000  0.14509000  0.34884000  1.0
  H  H187  1  0.12955000  0.37707000  0.34876000  1.0
  H  H188  1  0.36791000  0.22588000  0.64233000  1.0
  H  H189  1  0.86825000  0.76371000  0.64196000  1.0
  H  H190  1  0.40563000  0.72607000  0.64201000  1.0
  H  H191  1  0.59434000  0.77370000  0.35804000  1.0
  H  H192  1  0.63192000  0.23637000  0.35798000  1.0
  H  H193  1  0.13179000  0.27442000  0.35767000  1.0
  H  H194  1  0.38338000  0.10613000  0.70212000  1.0
  H  H195  1  0.80859000  0.80799000  0.70200000  1.0
  H  H196  1  0.50990000  0.68155000  0.70198000  1.0
  H  H197  1  0.49001000  0.89340000  0.29800000  1.0
  H  H198  1  0.61647000  0.19208000  0.29800000  1.0
  H  H199  1  0.19175000  0.31874000  0.29788000  1.0
  C  C200  1  0.88436000  0.79089000  0.33159000  1.0
  C  C201  1  0.12234000  0.99312000  0.33161000  1.0
  C  C202  1  0.32489000  0.55267000  0.33142000  1.0
  C  C203  1  0.67526000  0.20926000  0.66840000  1.0
  C  C204  1  0.11591000  0.00653000  0.66858000  1.0
  C  C205  1  0.87753000  0.44723000  0.66842000  1.0
  C  C206  1  0.84697000  0.89178000  0.26711000  1.0
  C  C207  1  0.15875000  0.99408000  0.26713000  1.0
  C  C208  1  0.26145000  0.57977000  0.26690000  1.0
  C  C209  1  0.73878000  0.10838000  0.73288000  1.0
  C  C210  1  0.15333000  0.00544000  0.73310000  1.0
  C  C211  1  0.84111000  0.42015000  0.73288000  1.0
  C  C212  1  0.77794000  0.96913000  0.27320000  1.0
  C  C213  1  0.24217000  0.97974000  0.27320000  1.0
  C  C214  1  0.25299000  0.50471000  0.27305000  1.0
  C  C215  1  0.74707000  0.03103000  0.72681000  1.0
  C  C216  1  0.22225000  0.02005000  0.72695000  1.0
  C  C217  1  0.75766000  0.49526000  0.72680000  1.0
  C  C218  1  0.75291000  0.94059000  0.34644000  1.0
  C  C219  1  0.28684000  0.96021000  0.34637000  1.0
  C  C220  1  0.30644000  0.40646000  0.34634000  1.0
  C  C221  1  0.69342000  0.05953000  0.65364000  1.0
  C  C222  1  0.24720000  0.03990000  0.65365000  1.0
  C  C223  1  0.71298000  0.59354000  0.65355000  1.0
  C  C224  1  0.79594000  0.83827000  0.40920000  1.0
  C  C225  1  0.24729000  0.95671000  0.40914000  1.0
  C  C226  1  0.36562000  0.38677000  0.40915000  1.0
  C  C227  1  0.63415000  0.16185000  0.59087000  1.0
  C  C228  1  0.20407000  0.04353000  0.59085000  1.0
  C  C229  1  0.75254000  0.61327000  0.59080000  1.0
  C  C230  1  0.73244000  0.07804000  0.20528000  1.0
  C  C231  1  0.28323000  0.98421000  0.20532000  1.0
  C  C232  1  0.18956000  0.52718000  0.20511000  1.0
  C  C233  1  0.81047000  0.92208000  0.79469000  1.0
  C  C234  1  0.26771000  0.01556000  0.79488000  1.0
  C  C235  1  0.71667000  0.47285000  0.79471000  1.0
  C  C236  1  0.78070000  0.12208000  0.18883000  1.0
  C  C237  1  0.31099000  0.90831000  0.18889000  1.0
  C  C238  1  0.09725000  0.59189000  0.18871000  1.0
  C  C239  1  0.90280000  0.87790000  0.81112000  1.0
  C  C240  1  0.21939000  0.09146000  0.81129000  1.0
  C  C241  1  0.68908000  0.40813000  0.81117000  1.0
  C  C242  1  0.73823000  0.22473000  0.12223000  1.0
  C  C243  1  0.34694000  0.91482000  0.12223000  1.0
  C  C244  1  0.03704000  0.61599000  0.12219000  1.0
  C  C245  1  0.96295000  0.77528000  0.87777000  1.0
  C  C246  1  0.26182000  0.08515000  0.87781000  1.0
  C  C247  1  0.65305000  0.38400000  0.87777000  1.0
  C  C248  1  0.64705000  0.28470000  0.07463000  1.0
  C  C249  1  0.35931000  0.99365000  0.07464000  1.0
  C  C250  1  0.06823000  0.57237000  0.07460000  1.0
  C  C251  1  0.93171000  0.71533000  0.92536000  1.0
  C  C252  1  0.35302000  0.00637000  0.92540000  1.0
  C  C253  1  0.64067000  0.42758000  0.92537000  1.0
  C  C254  1  0.59859000  0.23989000  0.09528000  1.0
  C  C255  1  0.33507000  0.06626000  0.09532000  1.0
  C  C256  1  0.16150000  0.50330000  0.09518000  1.0
  C  C257  1  0.83842000  0.76025000  0.90468000  1.0
  C  C258  1  0.40152000  0.93369000  0.90482000  1.0
  C  C259  1  0.66484000  0.49669000  0.90471000  1.0
  C  C260  1  0.64163000  0.13596000  0.15909000  1.0
  C  C261  1  0.29490000  0.06336000  0.15911000  1.0
  C  C262  1  0.22245000  0.48253000  0.15892000  1.0
  C  C263  1  0.77753000  0.86422000  0.84089000  1.0
  C  C264  1  0.35855000  0.93648000  0.84108000  1.0
  C  C265  1  0.70495000  0.51747000  0.84090000  1.0
  C  C266  1  0.59042000  0.08831000  0.17383000  1.0
  C  C267  1  0.26178000  0.14760000  0.17375000  1.0
  C  C268  1  0.32132000  0.41658000  0.17366000  1.0
  C  C269  1  0.67865000  0.91197000  0.82625000  1.0
  C  C270  1  0.40975000  0.85235000  0.82634000  1.0
  C  C271  1  0.73785000  0.58341000  0.82617000  1.0
  C  C272  1  0.50147000  0.29886000  0.04733000  1.0
  C  C273  1  0.34607000  0.15239000  0.04736000  1.0
  C  C274  1  0.19966000  0.45408000  0.04724000  1.0
  C  C275  1  0.80025000  0.70129000  0.95264000  1.0
  C  C276  1  0.49868000  0.84758000  0.95276000  1.0
  C  C277  1  0.65381000  0.54586000  0.95267000  1.0
  C  C278  1  0.79163000  0.26932000  0.10877000  1.0
  C  C279  1  0.37809000  0.83024000  0.10881000  1.0
  C  C280  1  0.93902000  0.68281000  0.10881000  1.0
  C  C281  1  0.06095000  0.73071000  0.89119000  1.0
  C  C282  1  0.20838000  0.16979000  0.89119000  1.0
  C  C283  1  0.62191000  0.31714000  0.89123000  1.0
  C  C284  1  0.87583000  0.06208000  0.24258000  1.0
  C  C285  1  0.30499000  0.81927000  0.24282000  1.0
  C  C286  1  0.06219000  0.63339000  0.24241000  1.0
  C  C287  1  0.93792000  0.93783000  0.75718000  1.0
  C  C288  1  0.12420000  0.18023000  0.75758000  1.0
  C  C289  1  0.69534000  0.36675000  0.75742000  1.0
  C  C290  1  0.18411000  0.89204000  0.96552000  1.0
  C  C291  1  0.85768000  0.95824000  0.96560000  1.0
  C  C292  1  0.92388000  0.21868000  0.96530000  1.0
  C  C293  1  0.07616000  0.10792000  0.03440000  1.0
  C  C294  1  0.81602000  0.04143000  0.03470000  1.0
  C  C295  1  0.14244000  0.78141000  0.03448000  1.0
  C  C296  1  0.26167000  0.81738000  0.96539000  1.0
  C  C297  1  0.78286000  0.95556000  0.96539000  1.0
  C  C298  1  0.92098000  0.29628000  0.96530000  1.0
  C  C299  1  0.07906000  0.18253000  0.03461000  1.0
  C  C300  1  0.73841000  0.04434000  0.03468000  1.0
  C  C301  1  0.21723000  0.70372000  0.03462000  1.0
  C  C302  1  0.27919000  0.72081000  0.00000000  1.0
  C  C303  1  0.72087000  0.00000000  0.99999000  1.0
  C  C304  1  0.00002000  0.27911000  0.00001000  1.0
  C  C305  1  0.36066000  0.63934000  0.00000000  1.0
  C  C306  1  0.63935000  0.00013000  0.99993000  1.0
  C  C307  1  0.99995000  0.36059000  0.00006000  1.0
  C  C308  1  0.35930000  0.63805000  0.92653000  1.0
  C  C309  1  0.56459000  0.07634000  0.92649000  1.0
  C  C310  1  0.00262000  0.43270000  0.92661000  1.0
  C  C311  1  0.99717000  0.36190000  0.07350000  1.0
  C  C312  1  0.64068000  0.92401000  0.07338000  1.0
  C  C313  1  0.43542000  0.56722000  0.07347000  1.0
  C  C314  1  0.43699000  0.56123000  0.92638000  1.0
  C  C315  1  0.48758000  0.07572000  0.92630000  1.0
  C  C316  1  0.00171000  0.51054000  0.92649000  1.0
  C  C317  1  0.99799000  0.43872000  0.07369000  1.0
  C  C318  1  0.56297000  0.92479000  0.07350000  1.0
  C  C319  1  0.51239000  0.48938000  0.07363000  1.0
  C  C320  1  0.51327000  0.48673000  0.00000000  1.0
  C  C321  1  0.48667000  0.00027000  0.99989000  1.0
  C  C322  1  0.99984000  0.51322000  0.00010000  1.0
  C  C323  1  0.43846000  0.55494000  0.84988000  1.0
  C  C324  1  0.40484000  0.15705000  0.84975000  1.0
  C  C325  1  0.00649000  0.58852000  0.84999000  1.0
  C  C326  1  0.99320000  0.44492000  0.15024000  1.0
  C  C327  1  0.56148000  0.84351000  0.15000000  1.0
  C  C328  1  0.59518000  0.41141000  0.15013000  1.0
  C  C329  1  0.27425000  0.71913000  0.85256000  1.0
  C  C330  1  0.57179000  0.15422000  0.85255000  1.0
  C  C331  1  0.00655000  0.42170000  0.85260000  1.0
  C  C332  1  0.99324000  0.28076000  0.14745000  1.0
  C  C333  1  0.72569000  0.84606000  0.14739000  1.0
  C  C334  1  0.42831000  0.57831000  0.14744000  1.0
  C  C335  1  0.02028000  0.41121000  0.48775000  1.0
  C  C336  1  0.89903000  0.08086000  0.48777000  1.0
  C  C337  1  0.56847000  0.53239000  0.48783000  1.0
  C  C338  1  0.43136000  0.58875000  0.51222000  1.0
  C  C339  1  0.97978000  0.91936000  0.51217000  1.0
  C  C340  1  0.10107000  0.46747000  0.51226000  1.0
  C  C341  1  0.09537000  0.33308000  0.48861000  1.0
  C  C342  1  0.82175000  0.08307000  0.48866000  1.0
  C  C343  1  0.57148000  0.60663000  0.48869000  1.0
  C  C344  1  0.42826000  0.66691000  0.51134000  1.0
  C  C345  1  0.90468000  0.91721000  0.51130000  1.0
  C  C346  1  0.17834000  0.39325000  0.51138000  1.0
  C  C347  1  0.17669000  0.32332000  0.50000000  1.0
  C  C348  1  0.82336000  0.00014000  0.49999000  1.0
  C  C349  1  0.49986000  0.67664000  0.50000000  1.0
  C  C350  1  0.25782000  0.24218000  0.50000000  1.0
  C  C351  1  0.74225000  0.00010000  0.50001000  1.0
  C  C352  1  0.49988000  0.75776000  0.49999000  1.0
  C  C353  1  0.33774000  0.17819000  0.56746000  1.0
  C  C354  1  0.74578000  0.91660000  0.56740000  1.0
  C  C355  1  0.48385000  0.77032000  0.56740000  1.0
  C  C356  1  0.51600000  0.82161000  0.43260000  1.0
  C  C357  1  0.66228000  0.08354000  0.43259000  1.0
  C  C358  1  0.25436000  0.22972000  0.43254000  1.0
  C  C359  1  0.41602000  0.10496000  0.56450000  1.0
  C  C360  1  0.66958000  0.91455000  0.56449000  1.0
  C  C361  1  0.47897000  0.85143000  0.56451000  1.0
  C  C362  1  0.52097000  0.89490000  0.43551000  1.0
  C  C363  1  0.58406000  0.08554000  0.43548000  1.0
  C  C364  1  0.33054000  0.14848000  0.43550000  1.0
  C  C365  1  0.41302000  0.08698000  0.50000000  1.0
  C  C366  1  0.58712000  0.00000000  0.49996000  1.0
  C  C367  1  0.50004000  0.91284000  0.50004000  1.0
  C  C368  1  0.50048000  0.04188000  0.63593000  1.0
  C  C369  1  0.67791000  0.82177000  0.63592000  1.0
  C  C370  1  0.45759000  0.86445000  0.63594000  1.0
  C  C371  1  0.54230000  0.95802000  0.36407000  1.0
  C  C372  1  0.49962000  0.17835000  0.36405000  1.0
  C  C373  1  0.32219000  0.13546000  0.36407000  1.0
  C  C374  1  0.34063000  0.18297000  0.64442000  1.0
  C  C375  1  0.82761000  0.83171000  0.64424000  1.0
  C  C376  1  0.47590000  0.69646000  0.64427000  1.0
  C  C377  1  0.52405000  0.81663000  0.35576000  1.0
  C  C378  1  0.65927000  0.16835000  0.35572000  1.0
  C  C379  1  0.17261000  0.30380000  0.35557000  1.0
  Br  Br380  1  0.97704000  0.61086000  0.61344000  1.0
  Br  Br381  1  0.22483000  0.79921000  0.61330000  1.0
  Br  Br382  1  0.41209000  0.36310000  0.61361000  1.0
  Br  Br383  1  0.58745000  0.38849000  0.38665000  1.0
  Br  Br384  1  0.02327000  0.20152000  0.38637000  1.0
  Br  Br385  1  0.77568000  0.63642000  0.38656000  1.0
  Br  Br386  1  0.94244000  0.11426000  0.82837000  1.0
  Br  Br387  1  0.05737000  0.88592000  0.17163000  1.0
  N  N388  1  0.85926000  0.76461000  0.40115000  1.0
  N  N389  1  0.16563000  0.97499000  0.40113000  1.0
  N  N390  1  0.37602000  0.45809000  0.40109000  1.0
  N  N391  1  0.62388000  0.23550000  0.59887000  1.0
  N  N392  1  0.14082000  0.02507000  0.59891000  1.0
  N  N393  1  0.83425000  0.54189000  0.59886000  1.0
  N  N394  1  0.02329000  0.47673000  0.50000000  1.0
  N  N395  1  0.97680000  0.00011000  0.49994000  1.0
  N  N396  1  0.49994000  0.52315000  0.50005000  1.0
  N  N397  1  0.12577000  0.87423000  0.00000000  1.0
  N  N398  1  0.87436000  0.99980000  0.00019000  1.0
  N  N399  1  0.00002000  0.12584000  0.99980000  1.0
