# generated using pymatgen
data_ZnH16C22NO4
_symmetry_space_group_name_H-M   'P 1'
_cell_length_a   20.17100000
_cell_length_b   20.17100000
_cell_length_c   20.56330000
_cell_angle_alpha   61.25870000
_cell_angle_beta   61.25870000
_cell_angle_gamma   65.88230000
_symmetry_Int_Tables_number   1
_chemical_formula_structural   ZnH16C22NO4
_chemical_formula_sum   'Zn8 H128 C176 N8 O32'
_cell_volume   6258.46641047
_cell_formula_units_Z   8
loop_
 _symmetry_equiv_pos_site_id
 _symmetry_equiv_pos_as_xyz
  1  'x, y, z'
loop_
 _atom_site_type_symbol
 _atom_site_label
 _atom_site_symmetry_multiplicity
 _atom_site_fract_x
 _atom_site_fract_y
 _atom_site_fract_z
 _atom_site_occupancy
  Zn  Zn0  1  0.64506000  0.17348000  0.98512000  1.0
  Zn  Zn1  1  0.57390000  0.04644000  0.07935000  1.0
  Zn  Zn2  1  0.17348000  0.64506000  0.48512000  1.0
  Zn  Zn3  1  0.04644000  0.57390000  0.57935000  1.0
  Zn  Zn4  1  0.82652000  0.35494000  0.51488000  1.0
  Zn  Zn5  1  0.95356000  0.42610000  0.42065000  1.0
  Zn  Zn6  1  0.35494000  0.82652000  0.01488000  1.0
  Zn  Zn7  1  0.42610000  0.95356000  0.92065000  1.0
  H  H8  1  0.51195000  0.32129000  0.13296000  1.0
  H  H9  1  0.37992000  0.15214000  0.23138000  1.0
  H  H10  1  0.27369000  0.21758000  0.32648000  1.0
  H  H11  1  0.18096000  0.30731000  0.40804000  1.0
  H  H12  1  0.11706000  0.40535000  0.47327000  1.0
  H  H13  1  0.31268000  0.51151000  0.33060000  1.0
  H  H14  1  0.46020000  0.44370000  0.27479000  1.0
  H  H15  1  0.52173000  0.38552000  0.21471000  1.0
  H  H16  1  0.46753000  0.34155000  0.31660000  1.0
  H  H17  1  0.39019000  0.53141000  0.17500000  1.0
  H  H18  1  0.34970000  0.48973000  0.14718000  1.0
  H  H19  1  0.45242000  0.47299000  0.11524000  1.0
  H  H20  1  0.90848000  0.69829000  0.74978000  1.0
  H  H21  1  0.08768000  0.82196000  0.57512000  1.0
  H  H22  1  0.02664000  0.92363000  0.63718000  1.0
  H  H23  1  0.93969000  0.01367000  0.71755000  1.0
  H  H24  1  0.83744000  0.08118000  0.81236000  1.0
  H  H25  1  0.71760000  0.89645000  0.93950000  1.0
  H  H26  1  0.75889000  0.76261000  0.81378000  1.0
  H  H27  1  0.70061000  0.82205000  0.87267000  1.0
  H  H28  1  0.74603000  0.86541000  0.76818000  1.0
  H  H29  1  0.84133000  0.68505000  0.90340000  1.0
  H  H30  1  0.88427000  0.73469000  0.91962000  1.0
  H  H31  1  0.78145000  0.74559000  0.96122000  1.0
  H  H32  1  0.02197000  0.43593000  0.58637000  1.0
  H  H33  1  0.93343000  0.34465000  0.67722000  1.0
  H  H34  1  0.80744000  0.49138000  0.81910000  1.0
  H  H35  1  0.90459000  0.57383000  0.72376000  1.0
  H  H36  1  0.81461000  0.32939000  0.71809000  1.0
  H  H37  1  0.72795000  0.23626000  0.81516000  1.0
  H  H38  1  0.69894000  0.27939000  0.00502000  1.0
  H  H39  1  0.78789000  0.37115000  0.91818000  1.0
  H  H40  1  0.32129000  0.51195000  0.63296000  1.0
  H  H41  1  0.15214000  0.37992000  0.73138000  1.0
  H  H42  1  0.21758000  0.27369000  0.82648000  1.0
  H  H43  1  0.30731000  0.18096000  0.90804000  1.0
  H  H44  1  0.40535000  0.11706000  0.97327000  1.0
  H  H45  1  0.51151000  0.31268000  0.83060000  1.0
  H  H46  1  0.44370000  0.46020000  0.77479000  1.0
  H  H47  1  0.38552000  0.52173000  0.71471000  1.0
  H  H48  1  0.34155000  0.46753000  0.81660000  1.0
  H  H49  1  0.53141000  0.39019000  0.67500000  1.0
  H  H50  1  0.48974000  0.34971000  0.64718000  1.0
  H  H51  1  0.47299000  0.45242000  0.61524000  1.0
  H  H52  1  0.69829000  0.90849000  0.24978000  1.0
  H  H53  1  0.82196000  0.08768000  0.07512000  1.0
  H  H54  1  0.92363000  0.02664000  0.13718000  1.0
  H  H55  1  0.01367000  0.93969000  0.21755000  1.0
  H  H56  1  0.08118000  0.83744000  0.31236000  1.0
  H  H57  1  0.89645000  0.71760000  0.43950000  1.0
  H  H58  1  0.76261000  0.75889000  0.31378000  1.0
  H  H59  1  0.82204000  0.70061000  0.37267000  1.0
  H  H60  1  0.86541000  0.74603000  0.26818000  1.0
  H  H61  1  0.68505000  0.84133000  0.40340000  1.0
  H  H62  1  0.73469000  0.88427000  0.41962000  1.0
  H  H63  1  0.74559000  0.78144000  0.46121000  1.0
  H  H64  1  0.43593000  0.02197000  0.08637000  1.0
  H  H65  1  0.34465000  0.93343000  0.17723000  1.0
  H  H66  1  0.49138000  0.80744000  0.31910000  1.0
  H  H67  1  0.57383000  0.90459000  0.22376000  1.0
  H  H68  1  0.32939000  0.81461000  0.21809000  1.0
  H  H69  1  0.23626000  0.72795000  0.31516000  1.0
  H  H70  1  0.27939000  0.69894000  0.50502000  1.0
  H  H71  1  0.37115000  0.78789000  0.41818000  1.0
  H  H72  1  0.67871000  0.48804000  0.36704000  1.0
  H  H73  1  0.84786000  0.62008000  0.26862000  1.0
  H  H74  1  0.78241000  0.72631000  0.17352000  1.0
  H  H75  1  0.69269000  0.81904000  0.09196000  1.0
  H  H76  1  0.59465000  0.88294000  0.02673000  1.0
  H  H77  1  0.48849000  0.68732000  0.16941000  1.0
  H  H78  1  0.55630000  0.53980000  0.22521000  1.0
  H  H79  1  0.61448000  0.47826000  0.28529000  1.0
  H  H80  1  0.65845000  0.53247000  0.18340000  1.0
  H  H81  1  0.46859000  0.60981000  0.32500000  1.0
  H  H82  1  0.51026000  0.65030000  0.35282000  1.0
  H  H83  1  0.52701000  0.54758000  0.38476000  1.0
  H  H84  1  0.30171000  0.09152000  0.75022000  1.0
  H  H85  1  0.17804000  0.91232000  0.92488000  1.0
  H  H86  1  0.07637000  0.97336000  0.86282000  1.0
  H  H87  1  0.98633000  0.06031000  0.78245000  1.0
  H  H88  1  0.91882000  0.16256000  0.68764000  1.0
  H  H89  1  0.10355000  0.28240000  0.56050000  1.0
  H  H90  1  0.23739000  0.24111000  0.68622000  1.0
  H  H91  1  0.17796000  0.29939000  0.62733000  1.0
  H  H92  1  0.13459000  0.25397000  0.73182000  1.0
  H  H93  1  0.31495000  0.15867000  0.59660000  1.0
  H  H94  1  0.26531000  0.11573000  0.58038000  1.0
  H  H95  1  0.25441000  0.21856000  0.53878000  1.0
  H  H96  1  0.56407000  0.97803000  0.91363000  1.0
  H  H97  1  0.65535000  0.06657000  0.82278000  1.0
  H  H98  1  0.50861000  0.19256000  0.68090000  1.0
  H  H99  1  0.42617000  0.09541000  0.77625000  1.0
  H  H100  1  0.67061000  0.18539000  0.78191000  1.0
  H  H101  1  0.76374000  0.27205000  0.68484000  1.0
  H  H102  1  0.72061000  0.30106000  0.49498000  1.0
  H  H103  1  0.62885000  0.21211000  0.58182000  1.0
  H  H104  1  0.48804000  0.67871000  0.86704000  1.0
  H  H105  1  0.62008000  0.84786000  0.76862000  1.0
  H  H106  1  0.72631000  0.78241000  0.67352000  1.0
  H  H107  1  0.81904000  0.69270000  0.59196000  1.0
  H  H108  1  0.88294000  0.59465000  0.52673000  1.0
  H  H109  1  0.68732000  0.48849000  0.66941000  1.0
  H  H110  1  0.53980000  0.55630000  0.72521000  1.0
  H  H111  1  0.47827000  0.61448000  0.78529000  1.0
  H  H112  1  0.53247000  0.65845000  0.68340000  1.0
  H  H113  1  0.60981000  0.46859000  0.82500000  1.0
  H  H114  1  0.65030000  0.51026000  0.85282000  1.0
  H  H115  1  0.54758000  0.52701000  0.88476000  1.0
  H  H116  1  0.09152000  0.30171000  0.25022000  1.0
  H  H117  1  0.91232000  0.17804000  0.42488000  1.0
  H  H118  1  0.97336000  0.07637000  0.36282000  1.0
  H  H119  1  0.06031000  0.98633000  0.28245000  1.0
  H  H120  1  0.16256000  0.91882000  0.18764000  1.0
  H  H121  1  0.28240000  0.10355000  0.06050000  1.0
  H  H122  1  0.24111000  0.23739000  0.18622000  1.0
  H  H123  1  0.29939000  0.17796000  0.12733000  1.0
  H  H124  1  0.25397000  0.13459000  0.23182000  1.0
  H  H125  1  0.15867000  0.31495000  0.09660000  1.0
  H  H126  1  0.11573000  0.26531000  0.08038000  1.0
  H  H127  1  0.21855000  0.25441000  0.03878000  1.0
  H  H128  1  0.97803000  0.56407000  0.41363000  1.0
  H  H129  1  0.06657000  0.65535000  0.32278000  1.0
  H  H130  1  0.19256000  0.50862000  0.18090000  1.0
  H  H131  1  0.09541000  0.42617000  0.27624000  1.0
  H  H132  1  0.18539000  0.67061000  0.28191000  1.0
  H  H133  1  0.27205000  0.76374000  0.18484000  1.0
  H  H134  1  0.30106000  0.72061000  0.99498000  1.0
  H  H135  1  0.21211000  0.62885000  0.08182000  1.0
  C  C136  1  0.45962000  0.29981000  0.17583000  1.0
  C  C137  1  0.45086000  0.23337000  0.17731000  1.0
  C  C138  1  0.38424000  0.20402000  0.23178000  1.0
  C  C139  1  0.32546000  0.24039000  0.28451000  1.0
  C  C140  1  0.21049000  0.35120000  0.39085000  1.0
  C  C141  1  0.17485000  0.40583000  0.42775000  1.0
  C  C142  1  0.21188000  0.46282000  0.40653000  1.0
  C  C143  1  0.28525000  0.46668000  0.34588000  1.0
  C  C144  1  0.39814000  0.40676000  0.24009000  1.0
  C  C145  1  0.40174000  0.33568000  0.22900000  1.0
  C  C146  1  0.33447000  0.30637000  0.28291000  1.0
  C  C147  1  0.28375000  0.35500000  0.33100000  1.0
  C  C148  1  0.32044000  0.41341000  0.30786000  1.0
  C  C149  1  0.46604000  0.39343000  0.26309000  1.0
  C  C150  1  0.39749000  0.47971000  0.16478000  1.0
  C  C151  1  0.51232000  0.19314000  0.12090000  1.0
  C  C152  1  0.17357000  0.51917000  0.44897000  1.0
  C  C153  1  0.93318000  0.74778000  0.72645000  1.0
  C  C154  1  0.00138000  0.75531000  0.65877000  1.0
  C  C155  1  0.03479000  0.81828000  0.62749000  1.0
  C  C156  1  0.00075000  0.87463000  0.66194000  1.0
  C  C157  1  0.89110000  0.98827000  0.76549000  1.0
  C  C158  1  0.83446000  0.02579000  0.81804000  1.0
  C  C159  1  0.77223000  0.99277000  0.88047000  1.0
  C  C160  1  0.76605000  0.92122000  0.89046000  1.0
  C  C161  1  0.82549000  0.80908000  0.83366000  1.0
  C  C162  1  0.89898000  0.80373000  0.76122000  1.0
  C  C163  1  0.93245000  0.86734000  0.72861000  1.0
  C  C164  1  0.88398000  0.91766000  0.77510000  1.0
  C  C165  1  0.82129000  0.88448000  0.83721000  1.0
  C  C166  1  0.75340000  0.81525000  0.82122000  1.0
  C  C167  1  0.83374000  0.73936000  0.90920000  1.0
  C  C168  1  0.03848000  0.69769000  0.61789000  1.0
  C  C169  1  0.71192000  0.03480000  0.93557000  1.0
  C  C170  1  0.97410000  0.44478000  0.63935000  1.0
  C  C171  1  0.92388000  0.39518000  0.68967000  1.0
  C  C172  1  0.86261000  0.41033000  0.75630000  1.0
  C  C173  1  0.85495000  0.47571000  0.76931000  1.0
  C  C174  1  0.90777000  0.52244000  0.71640000  1.0
  C  C175  1  0.80867000  0.35830000  0.81036000  1.0
  C  C176  1  0.79086000  0.31989000  0.78123000  1.0
  C  C177  1  0.74214000  0.26907000  0.83415000  1.0
  C  C178  1  0.72613000  0.29268000  0.94107000  1.0
  C  C179  1  0.77484000  0.34410000  0.89217000  1.0
  C  C180  1  0.29981000  0.45962000  0.67583000  1.0
  C  C181  1  0.23337000  0.45087000  0.67731000  1.0
  C  C182  1  0.20402000  0.38424000  0.73178000  1.0
  C  C183  1  0.24039000  0.32546000  0.78451000  1.0
  C  C184  1  0.35120000  0.21049000  0.89085000  1.0
  C  C185  1  0.40583000  0.17485000  0.92775000  1.0
  C  C186  1  0.46282000  0.21188000  0.90653000  1.0
  C  C187  1  0.46668000  0.28525000  0.84588000  1.0
  C  C188  1  0.40676000  0.39814000  0.74009000  1.0
  C  C189  1  0.33568000  0.40174000  0.72900000  1.0
  C  C190  1  0.30637000  0.33447000  0.78291000  1.0
  C  C191  1  0.35500000  0.28375000  0.83100000  1.0
  C  C192  1  0.41341000  0.32044000  0.80786000  1.0
  C  C193  1  0.39343000  0.46605000  0.76309000  1.0
  C  C194  1  0.47971000  0.39749000  0.66478000  1.0
  C  C195  1  0.19314000  0.51232000  0.62091000  1.0
  C  C196  1  0.51917000  0.17358000  0.94896000  1.0
  C  C197  1  0.74778000  0.93318000  0.22645000  1.0
  C  C198  1  0.75531000  0.00138000  0.15877000  1.0
  C  C199  1  0.81828000  0.03479000  0.12749000  1.0
  C  C200  1  0.87463000  0.00075000  0.16194000  1.0
  C  C201  1  0.98827000  0.89110000  0.26549000  1.0
  C  C202  1  0.02579000  0.83446000  0.31804000  1.0
  C  C203  1  0.99277000  0.77223000  0.38047000  1.0
  C  C204  1  0.92122000  0.76605000  0.39046000  1.0
  C  C205  1  0.80908000  0.82549000  0.33366000  1.0
  C  C206  1  0.80373000  0.89898000  0.26122000  1.0
  C  C207  1  0.86734000  0.93245000  0.22861000  1.0
  C  C208  1  0.91766000  0.88398000  0.27510000  1.0
  C  C209  1  0.88447000  0.82129000  0.33721000  1.0
  C  C210  1  0.81525000  0.75340000  0.32122000  1.0
  C  C211  1  0.73936000  0.83374000  0.40920000  1.0
  C  C212  1  0.69769000  0.03848000  0.11790000  1.0
  C  C213  1  0.03480000  0.71192000  0.43557000  1.0
  C  C214  1  0.44478000  0.97410000  0.13935000  1.0
  C  C215  1  0.39518000  0.92388000  0.18967000  1.0
  C  C216  1  0.41034000  0.86261000  0.25630000  1.0
  C  C217  1  0.47571000  0.85494000  0.26931000  1.0
  C  C218  1  0.52244000  0.90777000  0.21640000  1.0
  C  C219  1  0.35830000  0.80867000  0.31036000  1.0
  C  C220  1  0.31989000  0.79087000  0.28123000  1.0
  C  C221  1  0.26907000  0.74215000  0.33415000  1.0
  C  C222  1  0.29268000  0.72613000  0.44108000  1.0
  C  C223  1  0.34410000  0.77484000  0.39217000  1.0
  C  C224  1  0.70019000  0.54038000  0.32417000  1.0
  C  C225  1  0.76663000  0.54913000  0.32269000  1.0
  C  C226  1  0.79598000  0.61576000  0.26822000  1.0
  C  C227  1  0.75961000  0.67454000  0.21549000  1.0
  C  C228  1  0.64880000  0.78951000  0.10915000  1.0
  C  C229  1  0.59417000  0.82515000  0.07225000  1.0
  C  C230  1  0.53718000  0.78812000  0.09347000  1.0
  C  C231  1  0.53332000  0.71475000  0.15412000  1.0
  C  C232  1  0.59324000  0.60186000  0.25991000  1.0
  C  C233  1  0.66432000  0.59826000  0.27100000  1.0
  C  C234  1  0.69363000  0.66553000  0.21709000  1.0
  C  C235  1  0.64500000  0.71625000  0.16900000  1.0
  C  C236  1  0.58659000  0.67955000  0.19214000  1.0
  C  C237  1  0.60657000  0.53395000  0.23691000  1.0
  C  C238  1  0.52029000  0.60251000  0.33522000  1.0
  C  C239  1  0.80686000  0.48768000  0.37909000  1.0
  C  C240  1  0.48083000  0.82643000  0.05103000  1.0
  C  C241  1  0.25222000  0.06681000  0.77355000  1.0
  C  C242  1  0.24469000  0.99862000  0.84123000  1.0
  C  C243  1  0.18173000  0.96521000  0.87251000  1.0
  C  C244  1  0.12537000  0.99925000  0.83806000  1.0
  C  C245  1  0.01173000  0.10890000  0.73451000  1.0
  C  C246  1  0.97421000  0.16554000  0.68196000  1.0
  C  C247  1  0.00723000  0.22777000  0.61953000  1.0
  C  C248  1  0.07878000  0.23395000  0.60954000  1.0
  C  C249  1  0.19092000  0.17451000  0.66634000  1.0
  C  C250  1  0.19627000  0.10102000  0.73878000  1.0
  C  C251  1  0.13266000  0.06755000  0.77139000  1.0
  C  C252  1  0.08234000  0.11602000  0.72490000  1.0
  C  C253  1  0.11553000  0.17871000  0.66279000  1.0
  C  C254  1  0.18475000  0.24660000  0.67878000  1.0
  C  C255  1  0.26064000  0.16626000  0.59080000  1.0
  C  C256  1  0.30231000  0.96152000  0.88211000  1.0
  C  C257  1  0.96520000  0.28808000  0.56443000  1.0
  C  C258  1  0.55522000  0.02590000  0.86065000  1.0
  C  C259  1  0.60482000  0.07612000  0.81033000  1.0
  C  C260  1  0.58966000  0.13740000  0.74370000  1.0
  C  C261  1  0.52429000  0.14506000  0.73069000  1.0
  C  C262  1  0.47756000  0.09223000  0.78360000  1.0
  C  C263  1  0.64170000  0.19133000  0.68964000  1.0
  C  C264  1  0.68011000  0.20914000  0.71877000  1.0
  C  C265  1  0.73093000  0.25786000  0.66585000  1.0
  C  C266  1  0.70732000  0.27387000  0.55893000  1.0
  C  C267  1  0.65590000  0.22516000  0.60783000  1.0
  C  C268  1  0.54038000  0.70019000  0.82417000  1.0
  C  C269  1  0.54913000  0.76663000  0.82269000  1.0
  C  C270  1  0.61576000  0.79598000  0.76822000  1.0
  C  C271  1  0.67454000  0.75961000  0.71549000  1.0
  C  C272  1  0.78951000  0.64880000  0.60915000  1.0
  C  C273  1  0.82515000  0.59417000  0.57225000  1.0
  C  C274  1  0.78812000  0.53718000  0.59347000  1.0
  C  C275  1  0.71475000  0.53332000  0.65411000  1.0
  C  C276  1  0.60186000  0.59324000  0.75991000  1.0
  C  C277  1  0.59826000  0.66432000  0.77100000  1.0
  C  C278  1  0.66553000  0.69363000  0.71709000  1.0
  C  C279  1  0.71626000  0.64500000  0.66900000  1.0
  C  C280  1  0.67956000  0.58659000  0.69214000  1.0
  C  C281  1  0.53396000  0.60657000  0.73691000  1.0
  C  C282  1  0.60251000  0.52029000  0.83522000  1.0
  C  C283  1  0.48768000  0.80686000  0.87909000  1.0
  C  C284  1  0.82643000  0.48083000  0.55103000  1.0
  C  C285  1  0.06682000  0.25222000  0.27355000  1.0
  C  C286  1  0.99862000  0.24469000  0.34123000  1.0
  C  C287  1  0.96521000  0.18172000  0.37251000  1.0
  C  C288  1  0.99925000  0.12537000  0.33806000  1.0
  C  C289  1  0.10890000  0.01173000  0.23451000  1.0
  C  C290  1  0.16554000  0.97421000  0.18196000  1.0
  C  C291  1  0.22777000  0.00723000  0.11953000  1.0
  C  C292  1  0.23395000  0.07878000  0.10954000  1.0
  C  C293  1  0.17451000  0.19092000  0.16634000  1.0
  C  C294  1  0.10102000  0.19627000  0.23878000  1.0
  C  C295  1  0.06755000  0.13266000  0.27139000  1.0
  C  C296  1  0.11602000  0.08234000  0.22489000  1.0
  C  C297  1  0.17871000  0.11553000  0.16279000  1.0
  C  C298  1  0.24660000  0.18475000  0.17878000  1.0
  C  C299  1  0.16626000  0.26064000  0.09080000  1.0
  C  C300  1  0.96152000  0.30231000  0.38210000  1.0
  C  C301  1  0.28808000  0.96520000  0.06443000  1.0
  C  C302  1  0.02590000  0.55522000  0.36065000  1.0
  C  C303  1  0.07612000  0.60482000  0.31033000  1.0
  C  C304  1  0.13740000  0.58966000  0.24370000  1.0
  C  C305  1  0.14506000  0.52429000  0.23069000  1.0
  C  C306  1  0.09223000  0.47756000  0.28360000  1.0
  C  C307  1  0.19133000  0.64170000  0.18964000  1.0
  C  C308  1  0.20914000  0.68011000  0.21877000  1.0
  C  C309  1  0.25786000  0.73093000  0.16585000  1.0
  C  C310  1  0.27387000  0.70732000  0.05893000  1.0
  C  C311  1  0.22516000  0.65590000  0.10783000  1.0
  N  N312  1  0.96633000  0.50710000  0.65268000  1.0
  N  N313  1  0.71038000  0.25554000  0.91247000  1.0
  N  N314  1  0.50711000  0.96633000  0.15267000  1.0
  N  N315  1  0.25554000  0.71038000  0.41247000  1.0
  N  N316  1  0.49290000  0.03367000  0.84732000  1.0
  N  N317  1  0.74446000  0.28962000  0.58753000  1.0
  N  N318  1  0.03367000  0.49290000  0.34732000  1.0
  N  N319  1  0.28962000  0.74446000  0.08753000  1.0
  O  O320  1  0.57015000  0.22351000  0.06937000  1.0
  O  O321  1  0.50200000  0.13130000  0.12820000  1.0
  O  O322  1  0.10329000  0.51983000  0.49608000  1.0
  O  O323  1  0.21424000  0.56237000  0.43487000  1.0
  O  O324  1  0.00676000  0.64147000  0.64668000  1.0
  O  O325  1  0.09921000  0.70976000  0.55604000  1.0
  O  O326  1  0.66730000  0.99617000  0.00088000  1.0
  O  O327  1  0.70912000  0.10674000  0.91228000  1.0
  O  O328  1  0.22351000  0.57015000  0.56937000  1.0
  O  O329  1  0.13130000  0.50200000  0.62820000  1.0
  O  O330  1  0.51983000  0.10329000  0.99608000  1.0
  O  O331  1  0.56237000  0.21424000  0.93487000  1.0
  O  O332  1  0.64147000  0.00676000  0.14668000  1.0
  O  O333  1  0.70976000  0.09921000  0.05604000  1.0
  O  O334  1  0.99617000  0.66730000  0.50088000  1.0
  O  O335  1  0.10674000  0.70912000  0.41228000  1.0
  O  O336  1  0.77648000  0.42985000  0.43064000  1.0
  O  O337  1  0.86870000  0.49799000  0.37180000  1.0
  O  O338  1  0.48017000  0.89671000  0.00392000  1.0
  O  O339  1  0.43763000  0.78576000  0.06513000  1.0
  O  O340  1  0.35853000  0.99324000  0.85332000  1.0
  O  O341  1  0.29024000  0.90079000  0.94396000  1.0
  O  O342  1  0.00383000  0.33270000  0.49912000  1.0
  O  O343  1  0.89326000  0.29088000  0.58772000  1.0
  O  O344  1  0.42985000  0.77649000  0.93063000  1.0
  O  O345  1  0.49800000  0.86870000  0.87179000  1.0
  O  O346  1  0.89671000  0.48017000  0.50393000  1.0
  O  O347  1  0.78576000  0.43763000  0.56513000  1.0
  O  O348  1  0.99324000  0.35853000  0.35332000  1.0
  O  O349  1  0.90079000  0.29024000  0.44396000  1.0
  O  O350  1  0.33270000  0.00383000  0.99913000  1.0
  O  O351  1  0.29088000  0.89326000  0.08772000  1.0
