# generated using pymatgen
data_ZnH14C20(NO)4
_symmetry_space_group_name_H-M   'P 1'
_cell_length_a   9.71856000
_cell_length_b   12.94500000
_cell_length_c   22.63400000
_cell_angle_alpha   90.00010000
_cell_angle_beta   90.00020000
_cell_angle_gamma   89.99980000
_symmetry_Int_Tables_number   1
_chemical_formula_structural   ZnH14C20(NO)4
_chemical_formula_sum   'Zn4 H56 C80 N16 O16'
_cell_volume   2847.51018769
_cell_formula_units_Z   4
loop_
 _symmetry_equiv_pos_site_id
 _symmetry_equiv_pos_as_xyz
  1  'x, y, z'
loop_
 _atom_site_type_symbol
 _atom_site_label
 _atom_site_symmetry_multiplicity
 _atom_site_fract_x
 _atom_site_fract_y
 _atom_site_fract_z
 _atom_site_occupancy
  Zn  Zn0  1  0.81190000  0.28202000  0.65216000  1.0
  Zn  Zn1  1  0.18810000  0.71798000  0.15216000  1.0
  Zn  Zn2  1  0.31190000  0.21797000  0.15216000  1.0
  Zn  Zn3  1  0.68810000  0.78202000  0.65216000  1.0
  H  H4  1  0.68082000  0.07802000  0.71113000  1.0
  H  H5  1  0.31918000  0.92198000  0.21113000  1.0
  H  H6  1  0.18082000  0.42198000  0.21113000  1.0
  H  H7  1  0.81918000  0.57802000  0.71113000  1.0
  H  H8  1  0.98658000  0.28211000  0.77602000  1.0
  H  H9  1  0.01342000  0.71789000  0.27601000  1.0
  H  H10  1  0.48658000  0.21789000  0.27602000  1.0
  H  H11  1  0.51342000  0.78211000  0.77601000  1.0
  H  H12  1  0.97804000  0.10558000  0.84676000  1.0
  H  H13  1  0.02196000  0.89442000  0.34676000  1.0
  H  H14  1  0.47804000  0.39442000  0.34676000  1.0
  H  H15  1  0.52195000  0.60558000  0.84676000  1.0
  H  H16  1  0.86649000  0.91863000  0.81998000  1.0
  H  H17  1  0.13351000  0.08137000  0.31999000  1.0
  H  H18  1  0.36649000  0.58137000  0.31999000  1.0
  H  H19  1  0.63351000  0.41863000  0.81998000  1.0
  H  H20  1  0.72660000  0.92184000  0.76910000  1.0
  H  H21  1  0.27340000  0.07817000  0.26910000  1.0
  H  H22  1  0.22661000  0.57816000  0.26910000  1.0
  H  H23  1  0.77340000  0.42184000  0.76910000  1.0
  H  H24  1  0.37557000  0.08946000  0.05935000  1.0
  H  H25  1  0.62443000  0.91054000  0.55935000  1.0
  H  H26  1  0.87557000  0.41053000  0.55935000  1.0
  H  H27  1  0.12443000  0.58946000  0.05935000  1.0
  H  H28  1  0.24410000  0.12057000  0.00848000  1.0
  H  H29  1  0.75590000  0.87943000  0.50848000  1.0
  H  H30  1  0.74410000  0.37943000  0.50848000  1.0
  H  H31  1  0.25590000  0.62057000  0.00848000  1.0
  H  H32  1  0.38222000  0.90198000  0.10275000  1.0
  H  H33  1  0.61779000  0.09802000  0.60275000  1.0
  H  H34  1  0.88222000  0.59802000  0.60275000  1.0
  H  H35  1  0.11778000  0.40198000  0.10275000  1.0
  H  H36  1  0.05826000  0.98168000  0.98559000  1.0
  H  H37  1  0.94174000  0.01832000  0.48558000  1.0
  H  H38  1  0.55826000  0.51832000  0.48559000  1.0
  H  H39  1  0.44174000  0.48167000  0.98559000  1.0
  H  H40  1  0.99210000  0.79984000  0.04585000  1.0
  H  H41  1  0.00790000  0.20016000  0.54585000  1.0
  H  H42  1  0.49210000  0.70016000  0.54585000  1.0
  H  H43  1  0.50790000  0.29984000  0.04585000  1.0
  H  H44  1  0.12131000  0.60582000  0.68261000  1.0
  H  H45  1  0.87868000  0.39418000  0.18261000  1.0
  H  H46  1  0.62132000  0.89418000  0.18261000  1.0
  H  H47  1  0.37868000  0.10582000  0.68261000  1.0
  H  H48  1  0.36321000  0.67075000  0.67676000  1.0
  H  H49  1  0.63679000  0.32926000  0.17676000  1.0
  H  H50  1  0.86322000  0.82925000  0.17676000  1.0
  H  H51  1  0.13679000  0.17074000  0.67676000  1.0
  H  H52  1  0.55551000  0.54654000  0.66206000  1.0
  H  H53  1  0.44449000  0.45347000  0.16206000  1.0
  H  H54  1  0.05552000  0.95346000  0.16206000  1.0
  H  H55  1  0.94449000  0.04653000  0.66206000  1.0
  H  H56  1  0.26907000  0.29606000  0.65019000  1.0
  H  H57  1  0.73093000  0.70394000  0.15018000  1.0
  H  H58  1  0.76907000  0.20394000  0.15019000  1.0
  H  H59  1  0.23093000  0.79606000  0.65018000  1.0
  C  C60  1  0.76355000  0.11194000  0.73696000  1.0
  C  C61  1  0.23645000  0.88807000  0.23696000  1.0
  C  C62  1  0.26355000  0.38806000  0.23696000  1.0
  C  C63  1  0.73645000  0.61194000  0.73696000  1.0
  C  C64  1  0.92221000  0.21388000  0.77306000  1.0
  C  C65  1  0.07779000  0.78612000  0.27306000  1.0
  C  C66  1  0.42221000  0.28611000  0.27306000  1.0
  C  C67  1  0.57779000  0.71388000  0.77306000  1.0
  C  C68  1  0.91917000  0.12746000  0.80813000  1.0
  C  C69  1  0.08083000  0.87254000  0.30813000  1.0
  C  C70  1  0.41917000  0.37254000  0.30813000  1.0
  C  C71  1  0.58083000  0.62746000  0.80813000  1.0
  C  C72  1  0.77486000  0.96265000  0.80645000  1.0
  C  C73  1  0.22514000  0.03735000  0.30645000  1.0
  C  C74  1  0.27486000  0.53735000  0.30645000  1.0
  C  C75  1  0.72514000  0.46265000  0.80645000  1.0
  C  C76  1  0.67725000  0.97450000  0.85454000  1.0
  C  C77  1  0.32275000  0.02551000  0.35454000  1.0
  C  C78  1  0.17725000  0.52550000  0.35454000  1.0
  C  C79  1  0.82275000  0.47450000  0.85454000  1.0
  C  C80  1  0.59227000  0.99360000  0.89270000  1.0
  C  C81  1  0.40773000  0.00642000  0.39270000  1.0
  C  C82  1  0.09227000  0.50641000  0.39269000  1.0
  C  C83  1  0.90773000  0.49359000  0.89270000  1.0
  C  C84  1  0.49831000  0.01616000  0.93500000  1.0
  C  C85  1  0.50170000  0.98386000  0.43500000  1.0
  C  C86  1  0.99830000  0.48384000  0.43500000  1.0
  C  C87  1  0.00169000  0.51615000  0.93500000  1.0
  C  C88  1  0.41397000  0.03826000  0.97288000  1.0
  C  C89  1  0.58603000  0.96175000  0.47288000  1.0
  C  C90  1  0.91397000  0.46174000  0.47287000  1.0
  C  C91  1  0.08602000  0.53826000  0.97288000  1.0
  C  C92  1  0.31870000  0.06029000  0.02064000  1.0
  C  C93  1  0.68130000  0.93971000  0.52064000  1.0
  C  C94  1  0.81870000  0.43971000  0.52064000  1.0
  C  C95  1  0.18130000  0.56029000  0.02064000  1.0
  C  C96  1  0.28501000  0.89848000  0.07924000  1.0
  C  C97  1  0.71499000  0.10152000  0.57924000  1.0
  C  C98  1  0.78502000  0.60152000  0.57924000  1.0
  C  C99  1  0.21499000  0.39848000  0.07924000  1.0
  C  C100  1  0.11476000  0.93704000  0.01797000  1.0
  C  C101  1  0.88524000  0.06296000  0.51797000  1.0
  C  C102  1  0.61476000  0.56296000  0.51797000  1.0
  C  C103  1  0.38524000  0.43704000  0.01797000  1.0
  C  C104  1  0.08374000  0.84745000  0.04755000  1.0
  C  C105  1  0.91626000  0.15254000  0.54755000  1.0
  C  C106  1  0.58374000  0.65254000  0.54755000  1.0
  C  C107  1  0.41626000  0.34746000  0.04755000  1.0
  C  C108  1  0.03467000  0.40859000  0.66999000  1.0
  C  C109  1  0.96533000  0.59141000  0.16998000  1.0
  C  C110  1  0.53467000  0.09141000  0.16999000  1.0
  C  C111  1  0.46533000  0.90859000  0.66998000  1.0
  C  C112  1  0.17978000  0.44684000  0.66658000  1.0
  C  C113  1  0.82022000  0.55317000  0.16658000  1.0
  C  C114  1  0.67978000  0.05316000  0.16659000  1.0
  C  C115  1  0.32022000  0.94683000  0.66658000  1.0
  C  C116  1  0.20638000  0.55239000  0.67510000  1.0
  C  C117  1  0.79362000  0.44761000  0.17510000  1.0
  C  C118  1  0.70638000  0.94761000  0.17510000  1.0
  C  C119  1  0.29362000  0.05239000  0.67510000  1.0
  C  C120  1  0.34137000  0.58856000  0.67223000  1.0
  C  C121  1  0.65863000  0.41144000  0.17223000  1.0
  C  C122  1  0.84138000  0.91144000  0.17223000  1.0
  C  C123  1  0.15863000  0.08856000  0.67223000  1.0
  C  C124  1  0.44967000  0.51964000  0.66366000  1.0
  C  C125  1  0.55034000  0.48037000  0.16366000  1.0
  C  C126  1  0.94967000  0.98037000  0.16366000  1.0
  C  C127  1  0.05033000  0.01963000  0.66366000  1.0
  C  C128  1  0.42456000  0.41366000  0.65705000  1.0
  C  C129  1  0.57544000  0.58634000  0.15705000  1.0
  C  C130  1  0.92457000  0.08634000  0.15706000  1.0
  C  C131  1  0.07543000  0.91366000  0.65705000  1.0
  C  C132  1  0.28864000  0.37801000  0.65696000  1.0
  C  C133  1  0.71136000  0.62200000  0.15695000  1.0
  C  C134  1  0.78864000  0.12199000  0.15696000  1.0
  C  C135  1  0.21136000  0.87800000  0.65696000  1.0
  C  C136  1  0.54289000  0.33961000  0.65189000  1.0
  C  C137  1  0.45711000  0.66039000  0.15188000  1.0
  C  C138  1  0.04289000  0.16039000  0.15189000  1.0
  C  C139  1  0.95711000  0.83961000  0.65188000  1.0
  N  N140  1  0.82481000  0.20302000  0.72884000  1.0
  N  N141  1  0.17519000  0.79698000  0.22884000  1.0
  N  N142  1  0.32481000  0.29698000  0.22884000  1.0
  N  N143  1  0.67519000  0.70302000  0.72884000  1.0
  N  N144  1  0.81946000  0.06374000  0.78424000  1.0
  N  N145  1  0.18054000  0.93627000  0.28424000  1.0
  N  N146  1  0.31946000  0.43626000  0.28424000  1.0
  N  N147  1  0.68054000  0.56374000  0.78424000  1.0
  N  N148  1  0.24173000  0.96831000  0.03887000  1.0
  N  N149  1  0.75828000  0.03169000  0.53887000  1.0
  N  N150  1  0.74173000  0.53169000  0.53886000  1.0
  N  N151  1  0.25827000  0.46831000  0.03887000  1.0
  N  N152  1  0.19102000  0.82436000  0.08553000  1.0
  N  N153  1  0.80898000  0.17564000  0.58553000  1.0
  N  N154  1  0.69102000  0.67564000  0.58553000  1.0
  N  N155  1  0.30898000  0.32436000  0.08553000  1.0
  O  O156  1  0.00169000  0.33367000  0.63427000  1.0
  O  O157  1  0.99831000  0.66634000  0.13427000  1.0
  O  O158  1  0.50169000  0.16633000  0.13427000  1.0
  O  O159  1  0.49831000  0.83366000  0.63427000  1.0
  O  O160  1  0.95224000  0.44780000  0.70633000  1.0
  O  O161  1  0.04776000  0.55220000  0.20633000  1.0
  O  O162  1  0.45224000  0.05220000  0.20633000  1.0
  O  O163  1  0.54776000  0.94780000  0.70633000  1.0
  O  O164  1  0.52487000  0.24391000  0.65397000  1.0
  O  O165  1  0.47513000  0.75609000  0.15397000  1.0
  O  O166  1  0.02487000  0.25609000  0.15397000  1.0
  O  O167  1  0.97513000  0.74391000  0.65397000  1.0
  O  O168  1  0.66359000  0.38334000  0.64671000  1.0
  O  O169  1  0.33642000  0.61666000  0.14671000  1.0
  O  O170  1  0.16359000  0.11666000  0.14671000  1.0
  O  O171  1  0.83642000  0.88334000  0.64671000  1.0
