# generated using pymatgen
data_CdH20C20N4(ClO5)2
_symmetry_space_group_name_H-M   'P 1'
_cell_length_a   7.62160000
_cell_length_b   8.64489000
_cell_length_c   10.10930000
_cell_angle_alpha   107.72100000
_cell_angle_beta   92.77810000
_cell_angle_gamma   106.51600000
_symmetry_Int_Tables_number   1
_chemical_formula_structural   CdH20C20N4(ClO5)2
_chemical_formula_sum   'Cd1 H20 C20 N4 Cl2 O10'
_cell_volume   601.61394766
_cell_formula_units_Z   1
loop_
 _symmetry_equiv_pos_site_id
 _symmetry_equiv_pos_as_xyz
  1  'x, y, z'
loop_
 _atom_site_type_symbol
 _atom_site_label
 _atom_site_symmetry_multiplicity
 _atom_site_fract_x
 _atom_site_fract_y
 _atom_site_fract_z
 _atom_site_occupancy
  Cd  Cd0  1  0.00000000  0.00000000  0.00000000  1.0
  H  H1  1  0.90010000  0.94983000  0.68470000  1.0
  H  H2  1  0.09990000  0.05017000  0.31530000  1.0
  H  H3  1  0.68803000  0.75527000  0.46887000  1.0
  H  H4  1  0.31196000  0.24472000  0.53113000  1.0
  H  H5  1  0.48278000  0.40995000  0.70138000  1.0
  H  H6  1  0.51721000  0.59005000  0.29862000  1.0
  H  H7  1  0.69843000  0.62160000  0.90710000  1.0
  H  H8  1  0.30156000  0.37840000  0.09290000  1.0
  H  H9  1  0.28862000  0.86444000  0.02917000  1.0
  H  H10  1  0.71138000  0.13556000  0.97083000  1.0
  H  H11  1  0.13636000  0.77793000  0.11262000  1.0
  H  H12  1  0.86365000  0.22208000  0.88738000  1.0
  H  H13  1  0.87606000  0.49658000  0.10739000  1.0
  H  H14  1  0.12395000  0.50342000  0.89261000  1.0
  H  H15  1  0.80528000  0.34682000  0.27809000  1.0
  H  H16  1  0.19473000  0.65318000  0.72191000  1.0
  H  H17  1  0.24512000  0.76568000  0.57570000  1.0
  H  H18  1  0.75488000  0.23432000  0.42430000  1.0
  H  H19  1  0.30129000  0.89259000  0.38959000  1.0
  H  H20  1  0.69871000  0.10741000  0.61041000  1.0
  C  C21  1  0.80298000  0.82918000  0.68352000  1.0
  C  C22  1  0.19701000  0.17081000  0.31648000  1.0
  C  C23  1  0.68409000  0.71792000  0.56246000  1.0
  C  C24  1  0.31590000  0.28208000  0.43754000  1.0
  C  C25  1  0.56317000  0.56198000  0.56374000  1.0
  C  C26  1  0.43682000  0.43802000  0.43626000  1.0
  C  C27  1  0.56957000  0.52820000  0.69102000  1.0
  C  C28  1  0.43043000  0.47180000  0.30898000  1.0
  C  C29  1  0.69253000  0.64626000  0.80777000  1.0
  C  C30  1  0.30747000  0.35373000  0.19223000  1.0
  C  C31  1  0.95492000  0.55303000  0.21282000  1.0
  C  C32  1  0.04509000  0.44697000  0.78718000  1.0
  C  C33  1  0.91505000  0.46919000  0.31064000  1.0
  C  C34  1  0.08496000  0.53081000  0.68936000  1.0
  C  C35  1  0.01805000  0.54219000  0.44604000  1.0
  C  C36  1  0.98196000  0.45782000  0.55396000  1.0
  C  C37  1  0.15822000  0.69905000  0.47403000  1.0
  C  C38  1  0.84178000  0.30095000  0.52597000  1.0
  C  C39  1  0.18991000  0.77301000  0.36961000  1.0
  C  C40  1  0.81009000  0.22700000  0.63039000  1.0
  N  N41  1  0.80802000  0.79484000  0.80460000  1.0
  N  N42  1  0.19197000  0.20516000  0.19540000  1.0
  N  N43  1  0.09069000  0.70208000  0.24048000  1.0
  N  N44  1  0.90932000  0.29793000  0.75952000  1.0
  Cl  Cl45  1  0.37589000  0.11941000  0.81392000  1.0
  Cl  Cl46  1  0.62411000  0.88058000  0.18608000  1.0
  O  O47  1  0.15537000  0.81656000  0.02582000  1.0
  O  O48  1  0.84463000  0.18344000  0.97418000  1.0
  O  O49  1  0.18734000  0.11759000  0.84492000  1.0
  O  O50  1  0.81266000  0.88241000  0.15508000  1.0
  O  O51  1  0.41924000  0.97799000  0.84373000  1.0
  O  O52  1  0.58076000  0.02201000  0.15627000  1.0
  O  O53  1  0.50753000  0.28190000  0.90078000  1.0
  O  O54  1  0.49247000  0.71810000  0.09922000  1.0
  O  O55  1  0.37803000  0.09885000  0.66552000  1.0
  O  O56  1  0.62197000  0.90114000  0.33449000  1.0
