# generated using pymatgen
data_CdH16C20(N4O)2
_symmetry_space_group_name_H-M   'P 1'
_cell_length_a   9.27570000
_cell_length_b   9.27566000
_cell_length_c   11.82990000
_cell_angle_alpha   78.63820000
_cell_angle_beta   78.63860000
_cell_angle_gamma   84.09100000
_symmetry_Int_Tables_number   1
_chemical_formula_structural   CdH16C20(N4O)2
_chemical_formula_sum   'Cd2 H32 C40 N16 O4'
_cell_volume   976.14234874
_cell_formula_units_Z   2
loop_
 _symmetry_equiv_pos_site_id
 _symmetry_equiv_pos_as_xyz
  1  'x, y, z'
loop_
 _atom_site_type_symbol
 _atom_site_label
 _atom_site_symmetry_multiplicity
 _atom_site_fract_x
 _atom_site_fract_y
 _atom_site_fract_z
 _atom_site_occupancy
  Cd  Cd0  1  0.30459000  0.69541000  0.75000000  1.0
  Cd  Cd1  1  0.69541000  0.30459000  0.25000000  1.0
  H  H2  1  0.86318000  0.75112000  0.12988000  1.0
  H  H3  1  0.24888000  0.13682000  0.37012000  1.0
  H  H4  1  0.13682000  0.24887000  0.87012000  1.0
  H  H5  1  0.75113000  0.86318000  0.62988000  1.0
  H  H6  1  0.73323000  0.97328000  0.02984000  1.0
  H  H7  1  0.02672000  0.26677000  0.47016000  1.0
  H  H8  1  0.26677000  0.02672000  0.97016000  1.0
  H  H9  1  0.97328000  0.73323000  0.52984000  1.0
  H  H10  1  0.72201000  0.16729000  0.85134000  1.0
  H  H11  1  0.83271000  0.27799000  0.64866000  1.0
  H  H12  1  0.27799000  0.83271000  0.14866000  1.0
  H  H13  1  0.16729000  0.72202000  0.35134000  1.0
  H  H14  1  0.95902000  0.50437000  0.14251000  1.0
  H  H15  1  0.49562000  0.04099000  0.35749000  1.0
  H  H16  1  0.04098000  0.49563000  0.85749000  1.0
  H  H17  1  0.50437000  0.95901000  0.64251000  1.0
  H  H18  1  0.04636000  0.62614000  0.20247000  1.0
  H  H19  1  0.37386000  0.95364000  0.29753000  1.0
  H  H20  1  0.95364000  0.37385000  0.79752000  1.0
  H  H21  1  0.62614000  0.04636000  0.70247000  1.0
  H  H22  1  0.19724000  0.34618000  0.11592000  1.0
  H  H23  1  0.65382000  0.80276000  0.38409000  1.0
  H  H24  1  0.80275000  0.65382000  0.88409000  1.0
  H  H25  1  0.34618000  0.19725000  0.61591000  1.0
  H  H26  1  0.14111000  0.37090000  0.26423000  1.0
  H  H27  1  0.62910000  0.85889000  0.23578000  1.0
  H  H28  1  0.85888000  0.62910000  0.73577000  1.0
  H  H29  1  0.37091000  0.14112000  0.76422000  1.0
  H  H30  1  0.28560000  0.47211000  0.17119000  1.0
  H  H31  1  0.52789000  0.71440000  0.32882000  1.0
  H  H32  1  0.71439000  0.52789000  0.82881000  1.0
  H  H33  1  0.47211000  0.28560000  0.67118000  1.0
  C  C34  1  0.03688000  0.74061000  0.97709000  1.0
  C  C35  1  0.25938000  0.96311000  0.52292000  1.0
  C  C36  1  0.96312000  0.25939000  0.02291000  1.0
  C  C37  1  0.74062000  0.03688000  0.47709000  1.0
  C  C38  1  0.90544000  0.80086000  0.03981000  1.0
  C  C39  1  0.19914000  0.09456000  0.46019000  1.0
  C  C40  1  0.09456000  0.19913000  0.96019000  1.0
  C  C41  1  0.80087000  0.90544000  0.53981000  1.0
  C  C42  1  0.83336000  0.92285000  0.98366000  1.0
  C  C43  1  0.07715000  0.16664000  0.51635000  1.0
  C  C44  1  0.16663000  0.07715000  0.01634000  1.0
  C  C45  1  0.92286000  0.83336000  0.48365000  1.0
  C  C46  1  0.88987000  0.98645000  0.86624000  1.0
  C  C47  1  0.01354000  0.11013000  0.63376000  1.0
  C  C48  1  0.11013000  0.01354000  0.13376000  1.0
  C  C49  1  0.98646000  0.88987000  0.36624000  1.0
  C  C50  1  0.02082000  0.91719000  0.80987000  1.0
  C  C51  1  0.08281000  0.97918000  0.69013000  1.0
  C  C52  1  0.97918000  0.08281000  0.19012000  1.0
  C  C53  1  0.91719000  0.02082000  0.30988000  1.0
  C  C54  1  0.82251000  0.11653000  0.80602000  1.0
  C  C55  1  0.88347000  0.17749000  0.69398000  1.0
  C  C56  1  0.17749000  0.88347000  0.19398000  1.0
  C  C57  1  0.11653000  0.82251000  0.30602000  1.0
  C  C58  1  0.06481000  0.54773000  0.14177000  1.0
  C  C59  1  0.45226000  0.93520000  0.35823000  1.0
  C  C60  1  0.93519000  0.45227000  0.85823000  1.0
  C  C61  1  0.54773000  0.06480000  0.64177000  1.0
  C  C62  1  0.17966000  0.42725000  0.17423000  1.0
  C  C63  1  0.57275000  0.82035000  0.32578000  1.0
  C  C64  1  0.82034000  0.57275000  0.82577000  1.0
  C  C65  1  0.42725000  0.17966000  0.67422000  1.0
  C  C66  1  0.47172000  0.77781000  0.94635000  1.0
  C  C67  1  0.22218000  0.52827000  0.55365000  1.0
  C  C68  1  0.52827000  0.22218000  0.05365000  1.0
  C  C69  1  0.77782000  0.47173000  0.44636000  1.0
  C  C70  1  0.58264000  0.63085000  0.09115000  1.0
  C  C71  1  0.36915000  0.41737000  0.40886000  1.0
  C  C72  1  0.41737000  0.36915000  0.90885000  1.0
  C  C73  1  0.63085000  0.58264000  0.59115000  1.0
  N  N74  1  0.08979000  0.79546000  0.86543000  1.0
  N  N75  1  0.20453000  0.91021000  0.63457000  1.0
  N  N76  1  0.91021000  0.20453000  0.13457000  1.0
  N  N77  1  0.79547000  0.08979000  0.36543000  1.0
  N  N78  1  0.43159000  0.82033000  0.85593000  1.0
  N  N79  1  0.17966000  0.56841000  0.64407000  1.0
  N  N80  1  0.56841000  0.17966000  0.14407000  1.0
  N  N81  1  0.82034000  0.43159000  0.35593000  1.0
  N  N82  1  0.50698000  0.74719000  0.04926000  1.0
  N  N83  1  0.25281000  0.49302000  0.45074000  1.0
  N  N84  1  0.49302000  0.25280000  0.95074000  1.0
  N  N85  1  0.74719000  0.50698000  0.54926000  1.0
  N  N86  1  0.65169000  0.53187000  0.13865000  1.0
  N  N87  1  0.46814000  0.34833000  0.36135000  1.0
  N  N88  1  0.34832000  0.46813000  0.86135000  1.0
  N  N89  1  0.53186000  0.65168000  0.63865000  1.0
  O  O90  1  0.11926000  0.62522000  0.02378000  1.0
  O  O91  1  0.37477000  0.88074000  0.47622000  1.0
  O  O92  1  0.88073000  0.37477000  0.97622000  1.0
  O  O93  1  0.62523000  0.11927000  0.52378000  1.0
