# generated using pymatgen
data_LiH4C5N3O5
_symmetry_space_group_name_H-M   'P 1'
_cell_length_a   9.37292000
_cell_length_b   12.42740000
_cell_length_c   12.81000000
_cell_angle_alpha   90.00000000
_cell_angle_beta   90.00000000
_cell_angle_gamma   90.00000000
_symmetry_Int_Tables_number   1
_chemical_formula_structural   LiH4C5N3O5
_chemical_formula_sum   'Li8 H32 C40 N24 O40'
_cell_volume   1492.12194316
_cell_formula_units_Z   8
loop_
 _symmetry_equiv_pos_site_id
 _symmetry_equiv_pos_as_xyz
  1  'x, y, z'
loop_
 _atom_site_type_symbol
 _atom_site_label
 _atom_site_symmetry_multiplicity
 _atom_site_fract_x
 _atom_site_fract_y
 _atom_site_fract_z
 _atom_site_occupancy
  Li  Li0  1  0.47693000  0.39288000  0.61074000  1.0
  Li  Li1  1  0.52306000  0.10712000  0.11074000  1.0
  Li  Li2  1  0.97694000  0.60712000  0.88926000  1.0
  Li  Li3  1  0.02306000  0.89288000  0.38926000  1.0
  Li  Li4  1  0.52306000  0.60712000  0.38926000  1.0
  Li  Li5  1  0.47694000  0.89288000  0.88926000  1.0
  Li  Li6  1  0.02307000  0.39288000  0.11074000  1.0
  Li  Li7  1  0.97694000  0.10712000  0.61074000  1.0
  H  H8  1  0.13832000  0.48356000  0.64758000  1.0
  H  H9  1  0.86168000  0.01644000  0.14757000  1.0
  H  H10  1  0.63832000  0.51644000  0.85242000  1.0
  H  H11  1  0.36167000  0.98356000  0.35243000  1.0
  H  H12  1  0.86168000  0.51644000  0.35243000  1.0
  H  H13  1  0.13833000  0.98356000  0.85242000  1.0
  H  H14  1  0.36168000  0.48356000  0.14758000  1.0
  H  H15  1  0.63832000  0.01644000  0.64757000  1.0
  H  H16  1  0.99515000  0.65531000  0.61663000  1.0
  H  H17  1  0.00486000  0.84469000  0.11663000  1.0
  H  H18  1  0.49515000  0.34468000  0.88337000  1.0
  H  H19  1  0.50485000  0.15531000  0.38337000  1.0
  H  H20  1  0.00486000  0.34469000  0.38337000  1.0
  H  H21  1  0.99514000  0.15531000  0.88337000  1.0
  H  H22  1  0.50485000  0.65532000  0.11663000  1.0
  H  H23  1  0.49515000  0.84469000  0.61663000  1.0
  H  H24  1  0.72610000  0.63557000  0.60113000  1.0
  H  H25  1  0.27391000  0.86444000  0.10113000  1.0
  H  H26  1  0.22610000  0.36443000  0.89887000  1.0
  H  H27  1  0.77391000  0.13556000  0.39887000  1.0
  H  H28  1  0.27391000  0.36444000  0.39887000  1.0
  H  H29  1  0.72609000  0.13556000  0.89887000  1.0
  H  H30  1  0.77391000  0.63557000  0.10113000  1.0
  H  H31  1  0.22609000  0.86444000  0.60113000  1.0
  H  H32  1  0.01711000  0.31637000  0.66257000  1.0
  H  H33  1  0.98288000  0.18363000  0.16258000  1.0
  H  H34  1  0.51711000  0.68363000  0.83742000  1.0
  H  H35  1  0.48288000  0.81636000  0.33742000  1.0
  H  H36  1  0.98288000  0.68363000  0.33742000  1.0
  H  H37  1  0.01712000  0.81636000  0.83742000  1.0
  H  H38  1  0.48289000  0.31637000  0.16258000  1.0
  H  H39  1  0.51712000  0.18364000  0.66258000  1.0
  C  C40  1  0.80996000  0.38501000  0.64467000  1.0
  C  C41  1  0.19004000  0.11499000  0.14467000  1.0
  C  C42  1  0.30996000  0.61499000  0.85533000  1.0
  C  C43  1  0.69003000  0.88501000  0.35533000  1.0
  C  C44  1  0.19004000  0.61499000  0.35533000  1.0
  C  C45  1  0.80997000  0.88501000  0.85533000  1.0
  C  C46  1  0.69004000  0.38501000  0.14467000  1.0
  C  C47  1  0.30997000  0.11499000  0.64467000  1.0
  C  C48  1  0.02189000  0.48501000  0.64138000  1.0
  C  C49  1  0.97810000  0.01499000  0.14138000  1.0
  C  C50  1  0.52189000  0.51499000  0.85862000  1.0
  C  C51  1  0.47810000  0.98501000  0.35862000  1.0
  C  C52  1  0.97810000  0.51499000  0.35862000  1.0
  C  C53  1  0.02190000  0.98501000  0.85862000  1.0
  C  C54  1  0.47811000  0.48501000  0.14138000  1.0
  C  C55  1  0.52190000  0.01499000  0.64138000  1.0
  C  C56  1  0.73702000  0.27620000  0.65825000  1.0
  C  C57  1  0.26298000  0.22380000  0.15825000  1.0
  C  C58  1  0.23702000  0.72380000  0.84175000  1.0
  C  C59  1  0.76298000  0.77620000  0.34175000  1.0
  C  C60  1  0.26298000  0.72380000  0.34175000  1.0
  C  C61  1  0.73702000  0.77620000  0.84175000  1.0
  C  C62  1  0.76298000  0.27620000  0.15825000  1.0
  C  C63  1  0.23702000  0.22380000  0.65825000  1.0
  C  C64  1  0.94267000  0.57759000  0.62431000  1.0
  C  C65  1  0.05733000  0.92241000  0.12431000  1.0
  C  C66  1  0.44267000  0.42241000  0.87569000  1.0
  C  C67  1  0.55733000  0.07759000  0.37569000  1.0
  C  C68  1  0.05734000  0.42241000  0.37569000  1.0
  C  C69  1  0.94267000  0.07759000  0.87569000  1.0
  C  C70  1  0.55733000  0.57759000  0.12431000  1.0
  C  C71  1  0.44267000  0.92241000  0.62431000  1.0
  C  C72  1  0.79458000  0.56651000  0.61669000  1.0
  C  C73  1  0.20542000  0.93349000  0.11668000  1.0
  C  C74  1  0.29459000  0.43348000  0.88332000  1.0
  C  C75  1  0.70542000  0.06651000  0.38332000  1.0
  C  C76  1  0.20542000  0.43349000  0.38331000  1.0
  C  C77  1  0.79458000  0.06651000  0.88331000  1.0
  C  C78  1  0.70542000  0.56652000  0.11668000  1.0
  C  C79  1  0.29458000  0.93349000  0.61668000  1.0
  N  N80  1  0.95348000  0.39004000  0.65006000  1.0
  N  N81  1  0.04652000  0.10997000  0.15007000  1.0
  N  N82  1  0.45348000  0.60996000  0.84993000  1.0
  N  N83  1  0.54651000  0.89003000  0.34993000  1.0
  N  N84  1  0.04651000  0.60997000  0.34993000  1.0
  N  N85  1  0.95349000  0.89003000  0.84993000  1.0
  N  N86  1  0.54652000  0.39004000  0.15007000  1.0
  N  N87  1  0.45349000  0.10997000  0.65007000  1.0
  N  N88  1  0.72896000  0.47090000  0.62759000  1.0
  N  N89  1  0.27104000  0.02911000  0.12759000  1.0
  N  N90  1  0.22896000  0.52910000  0.87241000  1.0
  N  N91  1  0.77104000  0.97089000  0.37241000  1.0
  N  N92  1  0.27104000  0.52911000  0.37241000  1.0
  N  N93  1  0.72896000  0.97089000  0.87241000  1.0
  N  N94  1  0.77104000  0.47090000  0.12759000  1.0
  N  N95  1  0.22896000  0.02911000  0.62759000  1.0
  N  N96  1  0.37578000  0.61707000  0.58775000  1.0
  N  N97  1  0.62422000  0.88293000  0.08775000  1.0
  N  N98  1  0.87578000  0.38293000  0.91225000  1.0
  N  N99  1  0.12422000  0.11707000  0.41225000  1.0
  N  N100  1  0.62422000  0.38293000  0.41225000  1.0
  N  N101  1  0.37578000  0.11707000  0.91225000  1.0
  N  N102  1  0.12422000  0.61707000  0.08775000  1.0
  N  N103  1  0.87578000  0.88293000  0.58775000  1.0
  O  O104  1  0.60310000  0.28329000  0.67483000  1.0
  O  O105  1  0.39690000  0.21671000  0.17483000  1.0
  O  O106  1  0.10310000  0.71670000  0.82517000  1.0
  O  O107  1  0.89690000  0.78329000  0.32517000  1.0
  O  O108  1  0.39690000  0.71671000  0.32517000  1.0
  O  O109  1  0.60310000  0.78329000  0.82517000  1.0
  O  O110  1  0.89690000  0.28330000  0.17483000  1.0
  O  O111  1  0.10310000  0.21671000  0.67483000  1.0
  O  O112  1  0.36719000  0.52584000  0.63298000  1.0
  O  O113  1  0.63281000  0.97416000  0.13298000  1.0
  O  O114  1  0.86719000  0.47416000  0.86702000  1.0
  O  O115  1  0.13281000  0.02584000  0.36702000  1.0
  O  O116  1  0.63281000  0.47416000  0.36702000  1.0
  O  O117  1  0.36719000  0.02584000  0.86702000  1.0
  O  O118  1  0.13281000  0.52584000  0.13298000  1.0
  O  O119  1  0.86719000  0.97416000  0.63298000  1.0
  O  O120  1  0.80901000  0.19221000  0.65207000  1.0
  O  O121  1  0.19098000  0.30779000  0.15207000  1.0
  O  O122  1  0.30902000  0.80779000  0.84793000  1.0
  O  O123  1  0.69099000  0.69221000  0.34793000  1.0
  O  O124  1  0.19098000  0.80779000  0.34793000  1.0
  O  O125  1  0.80902000  0.69221000  0.84793000  1.0
  O  O126  1  0.69099000  0.19221000  0.15207000  1.0
  O  O127  1  0.30902000  0.30779000  0.65207000  1.0
  O  O128  1  0.48967000  0.64281000  0.53988000  1.0
  O  O129  1  0.51033000  0.85719000  0.03988000  1.0
  O  O130  1  0.98967000  0.35719000  0.96012000  1.0
  O  O131  1  0.01033000  0.14281000  0.46012000  1.0
  O  O132  1  0.51033000  0.35719000  0.46012000  1.0
  O  O133  1  0.48967000  0.14281000  0.96012000  1.0
  O  O134  1  0.01033000  0.64281000  0.03988000  1.0
  O  O135  1  0.98967000  0.85719000  0.53988000  1.0
  O  O136  1  0.27176000  0.68053000  0.59148000  1.0
  O  O137  1  0.72824000  0.81947000  0.09148000  1.0
  O  O138  1  0.77176000  0.31946000  0.90852000  1.0
  O  O139  1  0.22824000  0.18053000  0.40852000  1.0
  O  O140  1  0.72824000  0.31946000  0.40852000  1.0
  O  O141  1  0.27176000  0.18053000  0.90852000  1.0
  O  O142  1  0.22824000  0.68053000  0.09148000  1.0
  O  O143  1  0.77176000  0.81947000  0.59148000  1.0
