# generated using pymatgen
data_ZnH30C36(N4O5)2
_symmetry_space_group_name_H-M   'P 1'
_cell_length_a   8.11349000
_cell_length_b   9.41859000
_cell_length_c   12.57840000
_cell_angle_alpha   74.09080000
_cell_angle_beta   78.59030000
_cell_angle_gamma   73.61800000
_symmetry_Int_Tables_number   1
_chemical_formula_structural   ZnH30C36(N4O5)2
_chemical_formula_sum   'Zn1 H30 C36 N8 O10'
_cell_volume   879.26900556
_cell_formula_units_Z   1
loop_
 _symmetry_equiv_pos_site_id
 _symmetry_equiv_pos_as_xyz
  1  'x, y, z'
loop_
 _atom_site_type_symbol
 _atom_site_label
 _atom_site_symmetry_multiplicity
 _atom_site_fract_x
 _atom_site_fract_y
 _atom_site_fract_z
 _atom_site_occupancy
  Zn  Zn0  1  0.99999000  0.00000000  0.00000000  1.0
  H  H1  1  0.02555000  0.47227000  0.70974000  1.0
  H  H2  1  0.97446000  0.52773000  0.29026000  1.0
  H  H3  1  0.69752000  0.07550000  0.94728000  1.0
  H  H4  1  0.30246000  0.92451000  0.05271000  1.0
  H  H5  1  0.73527000  0.88757000  0.99260000  1.0
  H  H6  1  0.26471000  0.11244000  0.00739000  1.0
  H  H7  1  0.99307000  0.68239000  0.99230000  1.0
  H  H8  1  0.00691000  0.31761000  0.00770000  1.0
  H  H9  1  0.06305000  0.51617000  0.85808000  1.0
  H  H10  1  0.93695000  0.48383000  0.14192000  1.0
  H  H11  1  0.22331000  0.88304000  0.60582000  1.0
  H  H12  1  0.77671000  0.11695000  0.39418000  1.0
  H  H13  1  0.13590000  0.03946000  0.74911000  1.0
  H  H14  1  0.86410000  0.96054000  0.25089000  1.0
  H  H15  1  0.91445000  0.31618000  0.64127000  1.0
  H  H16  1  0.08555000  0.68383000  0.35872000  1.0
  H  H17  1  0.96844000  0.12554000  0.53055000  1.0
  H  H18  1  0.03158000  0.87445000  0.46945000  1.0
  H  H19  1  0.45910000  0.23191000  0.38058000  1.0
  H  H20  1  0.54092000  0.76808000  0.61943000  1.0
  H  H21  1  0.40739000  0.41772000  0.49238000  1.0
  H  H22  1  0.59262000  0.58228000  0.50763000  1.0
  H  H23  1  0.30768000  0.28443000  0.21682000  1.0
  H  H24  1  0.69232000  0.71556000  0.78319000  1.0
  H  H25  1  0.52304000  0.24832000  0.05136000  1.0
  H  H26  1  0.47693000  0.75169000  0.94864000  1.0
  H  H27  1  0.65638000  0.76462000  0.19100000  1.0
  H  H28  1  0.34362000  0.23538000  0.80899000  1.0
  H  H29  1  0.43836000  0.80113000  0.35755000  1.0
  H  H30  1  0.56166000  0.19886000  0.64245000  1.0
  C  C31  1  0.04244000  0.72323000  0.90526000  1.0
  C  C32  1  0.95755000  0.27678000  0.09474000  1.0
  C  C33  1  0.08366000  0.63058000  0.83018000  1.0
  C  C34  1  0.91634000  0.36943000  0.16982000  1.0
  C  C35  1  0.14890000  0.68753000  0.71972000  1.0
  C  C36  1  0.85109000  0.31247000  0.28028000  1.0
  C  C37  1  0.17072000  0.83607000  0.69071000  1.0
  C  C38  1  0.82929000  0.16393000  0.30930000  1.0
  C  C39  1  0.12397000  0.92240000  0.77029000  1.0
  C  C40  1  0.87603000  0.07760000  0.22971000  1.0
  C  C41  1  0.20327000  0.59810000  0.63094000  1.0
  C  C42  1  0.79676000  0.40190000  0.36905000  1.0
  C  C43  1  0.15895000  0.37901000  0.57716000  1.0
  C  C44  1  0.84105000  0.62100000  0.42284000  1.0
  C  C45  1  0.03613000  0.29541000  0.58645000  1.0
  C  C46  1  0.96388000  0.70459000  0.41355000  1.0
  C  C47  1  0.06475000  0.18946000  0.52259000  1.0
  C  C48  1  0.93526000  0.81054000  0.47741000  1.0
  C  C49  1  0.21660000  0.16612000  0.44759000  1.0
  C  C50  1  0.78341000  0.83388000  0.55242000  1.0
  C  C51  1  0.33918000  0.24901000  0.43741000  1.0
  C  C52  1  0.66083000  0.75098000  0.56259000  1.0
  C  C53  1  0.30995000  0.35541000  0.50125000  1.0
  C  C54  1  0.69005000  0.64459000  0.49874000  1.0
  C  C55  1  0.36135000  0.04379000  0.29766000  1.0
  C  C56  1  0.63866000  0.95621000  0.70234000  1.0
  C  C57  1  0.38304000  0.17029000  0.21162000  1.0
  C  C58  1  0.61695000  0.82970000  0.78839000  1.0
  C  C59  1  0.50497000  0.15002000  0.11851000  1.0
  C  C60  1  0.49501000  0.84998000  0.88149000  1.0
  C  C61  1  0.60430000  0.00423000  0.11012000  1.0
  C  C62  1  0.39568000  0.99577000  0.88987000  1.0
  C  C63  1  0.58013000  0.87869000  0.19641000  1.0
  C  C64  1  0.41986000  0.12131000  0.80358000  1.0
  C  C65  1  0.45879000  0.89808000  0.28997000  1.0
  C  C66  1  0.54122000  0.10191000  0.71003000  1.0
  N  N67  1  0.06112000  0.86714000  0.87670000  1.0
  N  N68  1  0.93888000  0.13286000  0.12330000  1.0
  N  N69  1  0.12778000  0.48029000  0.64707000  1.0
  N  N70  1  0.87222000  0.51971000  0.35293000  1.0
  N  N71  1  0.73021000  0.98565000  0.01439000  1.0
  N  N72  1  0.26977000  0.01436000  0.98559000  1.0
  N  N73  1  0.81714000  0.31792000  0.84705000  1.0
  N  N74  1  0.18284000  0.68209000  0.15295000  1.0
  O  O75  1  0.31034000  0.63526000  0.55004000  1.0
  O  O76  1  0.68967000  0.36473000  0.44998000  1.0
  O  O77  1  0.23717000  0.05414000  0.39053000  1.0
  O  O78  1  0.76286000  0.94584000  0.60949000  1.0
  O  O79  1  0.96195000  0.21986000  0.86724000  1.0
  O  O80  1  0.03803000  0.78014000  0.13277000  1.0
  O  O81  1  0.82020000  0.45576000  0.80814000  1.0
  O  O82  1  0.17980000  0.54425000  0.19186000  1.0
  O  O83  1  0.67827000  0.27646000  0.86432000  1.0
  O  O84  1  0.32170000  0.72356000  0.13569000  1.0
