# generated using pymatgen
data_AgH4C6N5
_symmetry_space_group_name_H-M   'P 1'
_cell_length_a   7.24267000
_cell_length_b   8.43024000
_cell_length_c   11.12220000
_cell_angle_alpha   90.00020000
_cell_angle_beta   90.00010000
_cell_angle_gamma   98.65660000
_symmetry_Int_Tables_number   1
_chemical_formula_structural   AgH4C6N5
_chemical_formula_sum   'Ag4 H16 C24 N20'
_cell_volume   671.35702244
_cell_formula_units_Z   4
loop_
 _symmetry_equiv_pos_site_id
 _symmetry_equiv_pos_as_xyz
  1  'x, y, z'
loop_
 _atom_site_type_symbol
 _atom_site_label
 _atom_site_symmetry_multiplicity
 _atom_site_fract_x
 _atom_site_fract_y
 _atom_site_fract_z
 _atom_site_occupancy
  Ag  Ag0  1  0.20648000  0.85633000  0.47993000  1.0
  Ag  Ag1  1  0.79352000  0.64367000  0.97993000  1.0
  Ag  Ag2  1  0.79352000  0.14367000  0.52007000  1.0
  Ag  Ag3  1  0.20648000  0.35633000  0.02007000  1.0
  H  H4  1  0.50472000  0.97232000  0.31604000  1.0
  H  H5  1  0.49527000  0.52768000  0.81603000  1.0
  H  H6  1  0.49528000  0.02768000  0.68396000  1.0
  H  H7  1  0.50472000  0.47232000  0.18397000  1.0
  H  H8  1  0.72751000  0.81166000  0.21884000  1.0
  H  H9  1  0.27250000  0.68834000  0.71884000  1.0
  H  H10  1  0.27250000  0.18834000  0.78116000  1.0
  H  H11  1  0.72751000  0.31167000  0.28116000  1.0
  H  H12  1  0.39691000  0.73919000  0.91344000  1.0
  H  H13  1  0.60309000  0.76081000  0.41344000  1.0
  H  H14  1  0.60309000  0.26081000  0.08656000  1.0
  H  H15  1  0.39691000  0.23919000  0.58656000  1.0
  H  H16  1  0.16078000  0.89223000  0.99791000  1.0
  H  H17  1  0.83922000  0.60777000  0.49791000  1.0
  H  H18  1  0.83922000  0.10777000  0.00209000  1.0
  H  H19  1  0.16078000  0.39223000  0.50209000  1.0
  C  C20  1  0.17041000  0.02498000  0.22087000  1.0
  C  C21  1  0.82958000  0.47502000  0.72087000  1.0
  C  C22  1  0.82959000  0.97502000  0.77913000  1.0
  C  C23  1  0.17041000  0.52498000  0.27913000  1.0
  C  C24  1  0.31158000  0.94192000  0.16582000  1.0
  C  C25  1  0.68842000  0.55807000  0.66582000  1.0
  C  C26  1  0.68842000  0.05807000  0.83418000  1.0
  C  C27  1  0.31158000  0.44192000  0.33418000  1.0
  C  C28  1  0.47448000  0.91970000  0.22735000  1.0
  C  C29  1  0.52552000  0.58030000  0.72734000  1.0
  C  C30  1  0.52552000  0.08030000  0.77265000  1.0
  C  C31  1  0.47448000  0.41970000  0.27265000  1.0
  C  C32  1  0.60001000  0.83252000  0.17319000  1.0
  C  C33  1  0.39999000  0.66748000  0.67319000  1.0
  C  C34  1  0.39999000  0.16748000  0.82681000  1.0
  C  C35  1  0.60001000  0.33252000  0.32681000  1.0
  C  C36  1  0.41644000  0.79136000  0.00278000  1.0
  C  C37  1  0.58356000  0.70864000  0.50278000  1.0
  C  C38  1  0.58355000  0.20864000  0.99722000  1.0
  C  C39  1  0.41645000  0.29136000  0.49722000  1.0
  C  C40  1  0.28484000  0.87808000  0.04979000  1.0
  C  C41  1  0.71517000  0.62192000  0.54979000  1.0
  C  C42  1  0.71516000  0.12192000  0.95021000  1.0
  C  C43  1  0.28483000  0.37808000  0.45021000  1.0
  N  N44  1  0.12255000  0.01547000  0.33818000  1.0
  N  N45  1  0.87745000  0.48453000  0.83818000  1.0
  N  N46  1  0.87745000  0.98453000  0.66182000  1.0
  N  N47  1  0.12255000  0.51547000  0.16182000  1.0
  N  N48  1  0.98023000  0.10047000  0.34866000  1.0
  N  N49  1  0.01977000  0.39953000  0.84866000  1.0
  N  N50  1  0.01977000  0.89953000  0.65134000  1.0
  N  N51  1  0.98023000  0.60047000  0.15134000  1.0
  N  N52  1  0.94526000  0.16064000  0.24270000  1.0
  N  N53  1  0.05474000  0.33936000  0.74269000  1.0
  N  N54  1  0.05474000  0.83936000  0.75731000  1.0
  N  N55  1  0.94526000  0.66064000  0.25731000  1.0
  N  N56  1  0.06196000  0.11477000  0.16043000  1.0
  N  N57  1  0.93804000  0.38523000  0.66043000  1.0
  N  N58  1  0.93804000  0.88523000  0.83957000  1.0
  N  N59  1  0.06196000  0.61477000  0.33957000  1.0
  N  N60  1  0.57147000  0.76659000  0.06280000  1.0
  N  N61  1  0.42852000  0.73341000  0.56280000  1.0
  N  N62  1  0.42853000  0.23341000  0.93720000  1.0
  N  N63  1  0.57147000  0.26659000  0.43720000  1.0
