# generated using pymatgen
data_Zn4H47C55(N7O)3
_symmetry_space_group_name_H-M   'P 1'
_cell_length_a   14.69450000
_cell_length_b   14.89290000
_cell_length_c   15.03718927
_cell_angle_alpha   105.98189561
_cell_angle_beta   111.03860534
_cell_angle_gamma   110.44900000
_symmetry_Int_Tables_number   1
_chemical_formula_structural   Zn4H47C55(N7O)3
_chemical_formula_sum   'Zn4 H47 C55 N21 O3'
_cell_volume   2557.91040889
_cell_formula_units_Z   1
loop_
 _symmetry_equiv_pos_site_id
 _symmetry_equiv_pos_as_xyz
  1  'x, y, z'
loop_
 _atom_site_type_symbol
 _atom_site_label
 _atom_site_symmetry_multiplicity
 _atom_site_fract_x
 _atom_site_fract_y
 _atom_site_fract_z
 _atom_site_occupancy
  Zn  Zn0  1  0.63135000  0.49117000  0.62810000  1.0
  Zn  Zn1  1  0.36239000  0.50219000  0.36663000  1.0
  Zn  Zn2  1  0.64269000  0.65118000  0.51035000  1.0
  Zn  Zn3  1  0.35602000  0.36535000  0.49979000  1.0
  H  H4  1  0.70015000  0.66662000  0.85563000  1.0
  H  H5  1  0.36918000  0.23382000  0.00201000  1.0
  H  H6  1  0.58655000  0.55937000  0.98603000  1.0
  H  H7  1  0.43959000  0.50349000  0.92423000  1.0
  H  H8  1  0.45187000  0.52426000  0.08866000  1.0
  H  H9  1  0.59810000  0.57552000  0.14896000  1.0
  H  H10  1  0.67057000  0.44407000  0.00139000  1.0
  H  H11  1  0.67521000  0.44899000  0.15295000  1.0
  H  H12  1  0.10639000  0.61908000  0.78609000  1.0
  H  H13  1  0.66776000  0.86201000  0.44964000  1.0
  H  H14  1  0.08535000  0.70583000  0.62071000  1.0
  H  H15  1  0.32618000  0.32904000  0.16046000  1.0
  H  H16  1  0.25005000  0.59312000  0.76258000  1.0
  H  H17  1  0.24025000  0.71995000  0.63218000  1.0
  H  H18  1  0.55642000  0.93609000  0.32251000  1.0
  H  H19  1  0.30724000  0.97680000  0.23256000  1.0
  H  H20  1  0.55854000  0.08590000  0.39755000  1.0
  H  H21  1  0.90045000  0.17139000  0.00272000  1.0
  H  H22  1  0.91546000  0.05348000  0.14166000  1.0
  H  H23  1  0.74399000  0.00295000  0.85743000  1.0
  H  H24  1  0.30877000  0.29332000  0.67698000  1.0
  H  H25  1  0.67307000  0.46950000  0.85241000  1.0
  H  H26  1  0.08834000  0.16404000  0.33796000  1.0
  H  H27  1  0.35197000  0.51588000  0.69459000  1.0
  H  H28  1  0.66619000  0.85398000  0.68312000  1.0
  H  H29  1  0.66351000  0.30603000  0.49758000  1.0
  H  H30  1  0.08821000  0.86383000  0.64133000  1.0
  H  H31  1  0.05370000  0.88678000  0.74472000  1.0
  H  H32  1  0.96620000  0.98965000  0.67766000  1.0
  H  H33  1  0.10799000  0.04629000  0.70540000  1.0
  H  H34  1  0.99473000  0.96169000  0.57036000  1.0
  H  H35  1  0.97366000  0.45852000  0.62105000  1.0
  H  H36  1  0.82506000  0.38236000  0.53598000  1.0
  H  H37  1  0.10383000  0.34001000  0.15193000  1.0
  H  H38  1  0.81100000  0.28964000  0.65280000  1.0
  H  H39  1  0.89927000  0.27113000  0.60215000  1.0
  H  H40  1  0.96007000  0.36697000  0.73741000  1.0
  H  H41  1  0.14843000  0.81902000  0.17303000  1.0
  H  H42  1  0.23330000  0.88684000  0.31602000  1.0
  H  H43  1  0.16592000  0.70949000  0.32029000  1.0
  H  H44  1  0.04973000  0.72496000  0.25138000  1.0
  H  H45  1  0.08510000  0.63998000  0.17798000  1.0
  H  H46  1  0.29933000  0.14682000  0.31497000  1.0
  H  H47  1  0.37038000  0.21635000  0.84330000  1.0
  H  H48  1  0.31088000  0.30042000  0.83578000  1.0
  H  H49  1  0.31763000  0.32440000  0.99703000  1.0
  H  H50  1  0.33183000  0.68976000  0.50584000  1.0
  C  C51  1  0.68271000  0.69652000  0.79686000  1.0
  C  C52  1  0.87248000  0.57038000  0.65956000  1.0
  C  C53  1  0.38943000  0.20192000  0.36637000  1.0
  C  C54  1  0.34331000  0.63841000  0.54289000  1.0
  C  C55  1  0.59779000  0.49779000  0.30039000  1.0
  C  C56  1  0.47999000  0.18225000  0.38283000  1.0
  C  C57  1  0.50391000  0.42150000  0.19689000  1.0
  C  C58  1  0.95241000  0.65480000  0.65599000  1.0
  C  C59  1  0.04618000  0.21422000  0.20727000  1.0
  C  C60  1  0.38216000  0.29559000  0.88776000  1.0
  C  C61  1  0.38452000  0.30844000  0.99468000  1.0
  C  C62  1  0.32487000  0.62857000  0.62641000  1.0
  C  C63  1  0.59197000  0.37434000  0.97868000  1.0
  C  C64  1  0.50980000  0.49572000  0.97355000  1.0
  C  C65  1  0.49169000  0.38446000  0.90815000  1.0
  C  C66  1  0.58202000  0.79485000  0.40443000  1.0
  C  C67  1  0.49852000  0.40264000  0.09115000  1.0
  C  C68  1  0.59339000  0.38069000  0.08575000  1.0
  C  C69  1  0.51664000  0.50755000  0.08102000  1.0
  C  C70  1  0.12990000  0.64822000  0.73408000  1.0
  C  C71  1  0.06215000  0.67558000  0.67225000  1.0
  C  C72  1  0.22206000  0.63961000  0.72594000  1.0
  C  C73  1  0.48413000  0.78469000  0.32677000  1.0
  C  C74  1  0.26483000  0.67040000  0.66616000  1.0
  C  C75  1  0.38500000  0.88165000  0.26985000  1.0
  C  C76  1  0.47769000  0.86934000  0.30136000  1.0
  C  C77  1  0.38737000  0.98234000  0.27906000  1.0
  C  C78  1  0.39817000  0.33778000  0.70547000  1.0
  C  C79  1  0.47884000  0.08117000  0.35047000  1.0
  C  C80  1  0.88020000  0.10272000  0.02032000  1.0
  C  C81  1  0.94185000  0.11984000  0.12203000  1.0
  C  C82  1  0.79455000  0.00001000  0.92928000  1.0
  C  C83  1  0.77610000  0.89895000  0.91660000  1.0
  C  C84  1  0.49073000  0.37972000  0.80686000  1.0
  C  C85  1  0.39974000  0.68008000  0.29598000  1.0
  C  C86  1  0.58354000  0.42777000  0.79485000  1.0
  C  C87  1  0.35312000  0.54990000  0.63948000  1.0
  C  C88  1  0.66515000  0.79285000  0.70947000  1.0
  C  C89  1  0.70628000  0.80186000  0.81355000  1.0
  C  C90  1  0.02847000  0.87748000  0.66291000  1.0
  C  C91  1  0.02368000  0.97447000  0.65337000  1.0
  C  C92  1  0.89394000  0.41660000  0.61861000  1.0
  C  C93  1  0.89066000  0.33115000  0.65513000  1.0
  C  C94  1  0.71056000  0.56104000  0.32851000  1.0
  C  C95  1  0.57543000  0.28378000  0.46026000  1.0
  C  C96  1  0.59036000  0.27822000  0.91766000  1.0
  C  C97  1  0.58365000  0.28550000  0.10016000  1.0
  C  C98  1  0.19565000  0.81140000  0.24365000  1.0
  C  C99  1  0.11960000  0.71550000  0.24839000  1.0
  C  C100  1  0.83789000  0.88247000  0.00233000  1.0
  C  C101  1  0.28738000  0.60837000  0.21137000  1.0
  C  C102  1  0.41479000  0.38743000  0.21631000  1.0
  C  C103  1  0.88949000  0.70134000  0.61374000  1.0
  C  C104  1  0.11041000  0.22155000  0.30734000  1.0
  C  C105  1  0.11720000  0.30966000  0.21074000  1.0
  N  N106  1  0.63340000  0.63143000  0.69169000  1.0
  N  N107  1  0.55717000  0.70698000  0.42105000  1.0
  N  N108  1  0.43331000  0.35927000  0.63839000  1.0
  N  N109  1  0.44567000  0.63638000  0.35520000  1.0
  N  N110  1  0.54867000  0.41520000  0.69409000  1.0
  N  N111  1  0.38222000  0.51465000  0.56735000  1.0
  N  N112  1  0.62278000  0.69067000  0.63796000  1.0
  N  N113  1  0.54377000  0.35645000  0.48800000  1.0
  N  N114  1  0.80159000  0.61209000  0.34541000  1.0
  N  N115  1  0.58839000  0.20183000  0.86699000  1.0
  N  N116  1  0.57500000  0.21038000  0.11399000  1.0
  N  N117  1  0.45214000  0.44137000  0.32210000  1.0
  N  N118  1  0.88672000  0.86328000  0.06846000  1.0
  N  N119  1  0.19762000  0.53689000  0.14291000  1.0
  N  N120  1  0.78428000  0.65026000  0.59504000  1.0
  N  N121  1  0.21061000  0.31230000  0.36496000  1.0
  N  N122  1  0.21483000  0.36701000  0.30456000  1.0
  N  N123  1  0.77318000  0.56739000  0.62292000  1.0
  N  N124  1  0.42928000  0.30571000  0.43087000  1.0
  N  N125  1  0.56404000  0.50848000  0.37437000  1.0
  N  N126  1  0.37617000  0.56897000  0.50801000  1.0
  O  O127  1  0.91656000  0.78432000  0.58940000  1.0
  O  O128  1  0.88172000  0.49446000  0.69016000  1.0
  O  O129  1  0.28459000  0.79469000  0.23582000  1.0
