# generated using pymatgen
data_H48Pb4C66O13
_symmetry_space_group_name_H-M   'P 1'
_cell_length_a   6.97029000
_cell_length_b   20.56453885
_cell_length_c   23.85620000
_cell_angle_alpha   108.12316512
_cell_angle_beta   98.37220000
_cell_angle_gamma   99.73918456
_symmetry_Int_Tables_number   1
_chemical_formula_structural   H48Pb4C66O13
_chemical_formula_sum   'H96 Pb8 C132 O26'
_cell_volume   3130.54088839
_cell_formula_units_Z   2
loop_
 _symmetry_equiv_pos_site_id
 _symmetry_equiv_pos_as_xyz
  1  'x, y, z'
loop_
 _atom_site_type_symbol
 _atom_site_label
 _atom_site_symmetry_multiplicity
 _atom_site_fract_x
 _atom_site_fract_y
 _atom_site_fract_z
 _atom_site_occupancy
  H  H0  1  0.90626000  0.37603000  0.18919000  1.0
  H  H1  1  0.84156000  0.12380000  0.31072000  1.0
  H  H2  1  0.09370000  0.62397000  0.81081000  1.0
  H  H3  1  0.15841000  0.87618000  0.68928000  1.0
  H  H4  1  0.02150000  0.46372000  0.14205000  1.0
  H  H5  1  0.91620000  0.03616000  0.35792000  1.0
  H  H6  1  0.97849000  0.53629000  0.85795000  1.0
  H  H7  1  0.08379000  0.96384000  0.64208000  1.0
  H  H8  1  0.59518000  0.33940000  0.97785000  1.0
  H  H9  1  0.77828000  0.16074000  0.52213000  1.0
  H  H10  1  0.40487000  0.66059000  0.02215000  1.0
  H  H11  1  0.22170000  0.83927000  0.47787000  1.0
  H  H12  1  0.46934000  0.25497000  0.02730000  1.0
  H  H13  1  0.68706000  0.24504000  0.47259000  1.0
  H  H14  1  0.53069000  0.74502000  0.97269000  1.0
  H  H15  1  0.31292000  0.75497000  0.52740000  1.0
  H  H16  1  0.79291000  0.53985000  0.07378000  1.0
  H  H17  1  0.67981000  0.96020000  0.42613000  1.0
  H  H18  1  0.20714000  0.46015000  0.92623000  1.0
  H  H19  1  0.32020000  0.03981000  0.57388000  1.0
  H  H20  1  0.13597000  0.98833000  0.10783000  1.0
  H  H21  1  0.53937000  0.51153000  0.39194000  1.0
  H  H22  1  0.86402000  0.01164000  0.89214000  1.0
  H  H23  1  0.46061000  0.48847000  0.60806000  1.0
  H  H24  1  0.02611000  0.86260000  0.09814000  1.0
  H  H25  1  0.56394000  0.63724000  0.40165000  1.0
  H  H26  1  0.97386000  0.13737000  0.90184000  1.0
  H  H27  1  0.43604000  0.36276000  0.59835000  1.0
  H  H28  1  0.65756000  0.92229000  0.22682000  1.0
  H  H29  1  0.00662000  0.57738000  0.27335000  1.0
  H  H30  1  0.34247000  0.07771000  0.77318000  1.0
  H  H31  1  0.99338000  0.42263000  0.72665000  1.0
  H  H32  1  0.76401000  0.04612000  0.23494000  1.0
  H  H33  1  0.98207000  0.45356000  0.26522000  1.0
  H  H34  1  0.23604000  0.95388000  0.76504000  1.0
  H  H35  1  0.01792000  0.54644000  0.73479000  1.0
  H  H36  1  0.06514000  0.80509000  0.19190000  1.0
  H  H37  1  0.56669000  0.69455000  0.30820000  1.0
  H  H38  1  0.93485000  0.19490000  0.80810000  1.0
  H  H39  1  0.43331000  0.30546000  0.69181000  1.0
  H  H40  1  0.36286000  0.67598000  0.12666000  1.0
  H  H41  1  0.05926000  0.82409000  0.37359000  1.0
  H  H42  1  0.63714000  0.32402000  0.87334000  1.0
  H  H43  1  0.94071000  0.17591000  0.62642000  1.0
  H  H44  1  0.00179000  0.62010000  0.17101000  1.0
  H  H45  1  0.71015000  0.87956000  0.32924000  1.0
  H  H46  1  0.99822000  0.37990000  0.82900000  1.0
  H  H47  1  0.28985000  0.12045000  0.67076000  1.0
  H  H48  1  0.04520000  0.67981000  0.24570000  1.0
  H  H49  1  0.61944000  0.81984000  0.25457000  1.0
  H  H50  1  0.95480000  0.32019000  0.75431000  1.0
  H  H51  1  0.38053000  0.18016000  0.74544000  1.0
  H  H52  1  0.17105000  0.70335000  0.19387000  1.0
  H  H53  1  0.77304000  0.79622000  0.30642000  1.0
  H  H54  1  0.82895000  0.29665000  0.80613000  1.0
  H  H55  1  0.22694000  0.20378000  0.69358000  1.0
  H  H56  1  0.44963000  0.85972000  0.12476000  1.0
  H  H57  1  0.96383000  0.64024000  0.37540000  1.0
  H  H58  1  0.55039000  0.14029000  0.87524000  1.0
  H  H59  1  0.03617000  0.35977000  0.62460000  1.0
  H  H60  1  0.26959000  0.79174000  0.13146000  1.0
  H  H61  1  0.84477000  0.70815000  0.36862000  1.0
  H  H62  1  0.73041000  0.20826000  0.86853000  1.0
  H  H63  1  0.15521000  0.29185000  0.63138000  1.0
  H  H64  1  0.35911000  0.77887000  0.06434000  1.0
  H  H65  1  0.01414000  0.72113000  0.43577000  1.0
  H  H66  1  0.64092000  0.22114000  0.93566000  1.0
  H  H67  1  0.98584000  0.27887000  0.56423000  1.0
  H  H68  1  0.61713000  0.50580000  0.25883000  1.0
  H  H69  1  0.35344000  0.99399000  0.24129000  1.0
  H  H70  1  0.38287000  0.49420000  0.74118000  1.0
  H  H71  1  0.64652000  0.00600000  0.75871000  1.0
  H  H72  1  0.74034000  0.62545000  0.25657000  1.0
  H  H73  1  0.35877000  0.87440000  0.24372000  1.0
  H  H74  1  0.25964000  0.37455000  0.74343000  1.0
  H  H75  1  0.64122000  0.12560000  0.75629000  1.0
  H  H76  1  0.42388000  0.55895000  0.07168000  1.0
  H  H77  1  0.29191000  0.94121000  0.42851000  1.0
  H  H78  1  0.57613000  0.44104000  0.92832000  1.0
  H  H79  1  0.70808000  0.05880000  0.57150000  1.0
  H  H80  1  0.31202000  0.43889000  0.07392000  1.0
  H  H81  1  0.29865000  0.06126000  0.42614000  1.0
  H  H82  1  0.68802000  0.56111000  0.92608000  1.0
  H  H83  1  0.70132000  0.93874000  0.57387000  1.0
  H  H84  1  0.80965000  0.64674000  0.05497000  1.0
  H  H85  1  0.60794000  0.85350000  0.44514000  1.0
  H  H86  1  0.19042000  0.35327000  0.94503000  1.0
  H  H87  1  0.39208000  0.14652000  0.55487000  1.0
  H  H88  1  0.89862000  0.65695000  0.99111000  1.0
  H  H89  1  0.75070000  0.84305000  0.50882000  1.0
  H  H90  1  0.10144000  0.34305000  0.00889000  1.0
  H  H91  1  0.24929000  0.15696000  0.49118000  1.0
  H  H92  1  0.06391000  0.68318000  0.06170000  1.0
  H  H93  1  0.81865000  0.81684000  0.43812000  1.0
  H  H94  1  0.93615000  0.31684000  0.93831000  1.0
  H  H95  1  0.18136000  0.18318000  0.56189000  1.0
  Pb  Pb96  1  0.52679000  0.15619000  0.20628000  1.0
  Pb  Pb97  1  0.66433000  0.34342000  0.29338000  1.0
  Pb  Pb98  1  0.47324000  0.84382000  0.79372000  1.0
  Pb  Pb99  1  0.33564000  0.65659000  0.70662000  1.0
  Pb  Pb100  1  0.22389000  0.24305000  0.32686000  1.0
  Pb  Pb101  1  0.15351000  0.25680000  0.17300000  1.0
  Pb  Pb102  1  0.77602000  0.75693000  0.67310000  1.0
  Pb  Pb103  1  0.84646000  0.74319000  0.82698000  1.0
  C  C104  1  0.61926000  0.25839000  0.14060000  1.0
  C  C105  1  0.72022000  0.24138000  0.35915000  1.0
  C  C106  1  0.38074000  0.74160000  0.85939000  1.0
  C  C107  1  0.27978000  0.75862000  0.64084000  1.0
  C  C108  1  0.68447000  0.30932000  0.11078000  1.0
  C  C109  1  0.76456000  0.19057000  0.38910000  1.0
  C  C110  1  0.31553000  0.69068000  0.88921000  1.0
  C  C111  1  0.23543000  0.80943000  0.61090000  1.0
  C  C112  1  0.83691000  0.36903000  0.14310000  1.0
  C  C113  1  0.82519000  0.13084000  0.35682000  1.0
  C  C114  1  0.16309000  0.63098000  0.85690000  1.0
  C  C115  1  0.17480000  0.86915000  0.64318000  1.0
  C  C116  1  0.90138000  0.41782000  0.11668000  1.0
  C  C117  1  0.86727000  0.08209000  0.38329000  1.0
  C  C118  1  0.09862000  0.58218000  0.88333000  1.0
  C  C119  1  0.13273000  0.91792000  0.61672000  1.0
  C  C120  1  0.82051000  0.40628000  0.05618000  1.0
  C  C121  1  0.85834000  0.09372000  0.44380000  1.0
  C  C122  1  0.17951000  0.59372000  0.94382000  1.0
  C  C123  1  0.14166000  0.90629000  0.55621000  1.0
  C  C124  1  0.66341000  0.34747000  0.02436000  1.0
  C  C125  1  0.79192000  0.15260000  0.47560000  1.0
  C  C126  1  0.33663000  0.65253000  0.97564000  1.0
  C  C127  1  0.20807000  0.84741000  0.52440000  1.0
  C  C128  1  0.59365000  0.29987000  0.05145000  1.0
  C  C129  1  0.74239000  0.20011000  0.44845000  1.0
  C  C130  1  0.40638000  0.70013000  0.94854000  1.0
  C  C131  1  0.25759000  0.79989000  0.55155000  1.0
  C  C132  1  0.90960000  0.45362000  0.02616000  1.0
  C  C133  1  0.93003000  0.04639000  0.47384000  1.0
  C  C134  1  0.09045000  0.54638000  0.97385000  1.0
  C  C135  1  0.06999000  0.95363000  0.52617000  1.0
  C  C136  1  0.88613000  0.52286000  0.04157000  1.0
  C  C137  1  0.82204000  0.97716000  0.45837000  1.0
  C  C138  1  0.11394000  0.47715000  0.95844000  1.0
  C  C139  1  0.17797000  0.02286000  0.54165000  1.0
  C  C140  1  0.97337000  0.57019000  0.01615000  1.0
  C  C141  1  0.88714000  0.92982000  0.48381000  1.0
  C  C142  1  0.02669000  0.42981000  0.98386000  1.0
  C  C143  1  0.11288000  0.07020000  0.51620000  1.0
  C  C144  1  0.02876000  0.10133000  0.17986000  1.0
  C  C145  1  0.24736000  0.39843000  0.31995000  1.0
  C  C146  1  0.97128000  0.89866000  0.82012000  1.0
  C  C147  1  0.75261000  0.60157000  0.68005000  1.0
  C  C148  1  0.95763000  0.02555000  0.17210000  1.0
  C  C149  1  0.25934000  0.47423000  0.32786000  1.0
  C  C150  1  0.04240000  0.97444000  0.82788000  1.0
  C  C151  1  0.74064000  0.52578000  0.67213000  1.0
  C  C152  1  0.03097000  0.97320000  0.13372000  1.0
  C  C153  1  0.42328000  0.52662000  0.36616000  1.0
  C  C154  1  0.96904000  0.02678000  0.86626000  1.0
  C  C155  1  0.57670000  0.47338000  0.63384000  1.0
  C  C156  1  0.96948000  0.90303000  0.12849000  1.0
  C  C157  1  0.43666000  0.59678000  0.37140000  1.0
  C  C158  1  0.03053000  0.09695000  0.87150000  1.0
  C  C159  1  0.56333000  0.40323000  0.62860000  1.0
  C  C160  1  0.83248000  0.88341000  0.16132000  1.0
  C  C161  1  0.28612000  0.61636000  0.33868000  1.0
  C  C162  1  0.16753000  0.11658000  0.83867000  1.0
  C  C163  1  0.71387000  0.38364000  0.66132000  1.0
  C  C164  1  0.75994000  0.93613000  0.19975000  1.0
  C  C165  1  0.12252000  0.56362000  0.30037000  1.0
  C  C166  1  0.24010000  0.06387000  0.80025000  1.0
  C  C167  1  0.87748000  0.43639000  0.69963000  1.0
  C  C168  1  0.82087000  0.00592000  0.20477000  1.0
  C  C169  1  0.10913000  0.49383000  0.29534000  1.0
  C  C170  1  0.17916000  0.99407000  0.79522000  1.0
  C  C171  1  0.89085000  0.50618000  0.70466000  1.0
  C  C172  1  0.76752000  0.80941000  0.15769000  1.0
  C  C173  1  0.29877000  0.69037000  0.34235000  1.0
  C  C174  1  0.23249000  0.19059000  0.84231000  1.0
  C  C175  1  0.70121000  0.30963000  0.65766000  1.0
  C  C176  1  0.91014000  0.77601000  0.17688000  1.0
  C  C177  1  0.45595000  0.72375000  0.32328000  1.0
  C  C178  1  0.08986000  0.22398000  0.82313000  1.0
  C  C179  1  0.54405000  0.27626000  0.67673000  1.0
  C  C180  1  0.86298000  0.70838000  0.17948000  1.0
  C  C181  1  0.47431000  0.79144000  0.32079000  1.0
  C  C182  1  0.13701000  0.29162000  0.82052000  1.0
  C  C183  1  0.52569000  0.20857000  0.67922000  1.0
  C  C184  1  0.66032000  0.67247000  0.16208000  1.0
  C  C185  1  0.32503000  0.82746000  0.33818000  1.0
  C  C186  1  0.33966000  0.32752000  0.83792000  1.0
  C  C187  1  0.67496000  0.17254000  0.66183000  1.0
  C  C188  1  0.51833000  0.70488000  0.14080000  1.0
  C  C189  1  0.17155000  0.79509000  0.35939000  1.0
  C  C190  1  0.48166000  0.29511000  0.85920000  1.0
  C  C191  1  0.82844000  0.20492000  0.64062000  1.0
  C  C192  1  0.56589000  0.77268000  0.13818000  1.0
  C  C193  1  0.15350000  0.72722000  0.36190000  1.0
  C  C194  1  0.43410000  0.22732000  0.86182000  1.0
  C  C195  1  0.84648000  0.27279000  0.63811000  1.0
  C  C196  1  0.02775000  0.67597000  0.19824000  1.0
  C  C197  1  0.65299000  0.82369000  0.30203000  1.0
  C  C198  1  0.97225000  0.32403000  0.80177000  1.0
  C  C199  1  0.34700000  0.17631000  0.69797000  1.0
  C  C200  1  0.40369000  0.80282000  0.11380000  1.0
  C  C201  1  0.98549000  0.69713000  0.38631000  1.0
  C  C202  1  0.59632000  0.19719000  0.88620000  1.0
  C  C203  1  0.01449000  0.30287000  0.61369000  1.0
  C  C204  1  0.37963000  0.39206000  0.16567000  1.0
  C  C205  1  0.32245000  0.10793000  0.33434000  1.0
  C  C206  1  0.62036000  0.60794000  0.83433000  1.0
  C  C207  1  0.67754000  0.89207000  0.66565000  1.0
  C  C208  1  0.45819000  0.46452000  0.16610000  1.0
  C  C209  1  0.32769000  0.03546000  0.33398000  1.0
  C  C210  1  0.54182000  0.53548000  0.83390000  1.0
  C  C211  1  0.67229000  0.96454000  0.66603000  1.0
  C  C212  1  0.57910000  0.51747000  0.21759000  1.0
  C  C213  1  0.34457000  0.98243000  0.28256000  1.0
  C  C214  1  0.42090000  0.48253000  0.78241000  1.0
  C  C215  1  0.65540000  0.01757000  0.71745000  1.0
  C  C216  1  0.64693000  0.58452000  0.21617000  1.0
  C  C217  1  0.34643000  0.91539000  0.28406000  1.0
  C  C218  1  0.35306000  0.41548000  0.78383000  1.0
  C  C219  1  0.65356000  0.08461000  0.71594000  1.0
  C  C220  1  0.59273000  0.60103000  0.16395000  1.0
  C  C221  1  0.32730000  0.89896000  0.33631000  1.0
  C  C222  1  0.40726000  0.39897000  0.83605000  1.0
  C  C223  1  0.67269000  0.10104000  0.66370000  1.0
  C  C224  1  0.46832000  0.54776000  0.11287000  1.0
  C  C225  1  0.30678000  0.95230000  0.38730000  1.0
  C  C226  1  0.53169000  0.45223000  0.88713000  1.0
  C  C227  1  0.69320000  0.04770000  0.61271000  1.0
  C  C228  1  0.40457000  0.48040000  0.11380000  1.0
  C  C229  1  0.30991000  0.01967000  0.38629000  1.0
  C  C230  1  0.59545000  0.51960000  0.88620000  1.0
  C  C231  1  0.69007000  0.98033000  0.61371000  1.0
  C  C232  1  0.93395000  0.64286000  0.03168000  1.0
  C  C233  1  0.75941000  0.85721000  0.46828000  1.0
  C  C234  1  0.06612000  0.35714000  0.96833000  1.0
  C  C235  1  0.24059000  0.14280000  0.53173000  1.0
  O  O236  1  0.45569000  0.21245000  0.11857000  1.0
  O  O237  1  0.62449000  0.28736000  0.38112000  1.0
  O  O238  1  0.54431000  0.78755000  0.88143000  1.0
  O  O239  1  0.37552000  0.71264000  0.61887000  1.0
  O  O240  1  0.73512000  0.26210000  0.18978000  1.0
  O  O241  1  0.78316000  0.23753000  0.30992000  1.0
  O  O242  1  0.26490000  0.73789000  0.81020000  1.0
  O  O243  1  0.21682000  0.76246000  0.69007000  1.0
  O  O244  1  0.15977000  0.11680000  0.15055000  1.0
  O  O245  1  0.39223000  0.38292000  0.34919000  1.0
  O  O246  1  0.84027000  0.88319000  0.84944000  1.0
  O  O247  1  0.60776000  0.61708000  0.65081000  1.0
  O  O248  1  0.95774000  0.14756000  0.21488000  1.0
  O  O249  1  0.09525000  0.35222000  0.28490000  1.0
  O  O250  1  0.04228000  0.85243000  0.78510000  1.0
  O  O251  1  0.90471000  0.64779000  0.71511000  1.0
  O  O252  1  0.26139000  0.34809000  0.11882000  1.0
  O  O253  1  0.29569000  0.15208000  0.38124000  1.0
  O  O254  1  0.73862000  0.65191000  0.88119000  1.0
  O  O255  1  0.70429000  0.84792000  0.61875000  1.0
  O  O256  1  0.42987000  0.37699000  0.21379000  1.0
  O  O257  1  0.33928000  0.12285000  0.28612000  1.0
  O  O258  1  0.57009000  0.62301000  0.78622000  1.0
  O  O259  1  0.66070000  0.87714000  0.71387000  1.0
  O  O260  1  0.39560000  0.24986000  0.24986000  1.0
  O  O261  1  0.60439000  0.75014000  0.75013000  1.0
