# generated using pymatgen
data_CdH9C14NO5
_symmetry_space_group_name_H-M   'P 1'
_cell_length_a   6.78884000
_cell_length_b   7.62636000
_cell_length_c   11.94810000
_cell_angle_alpha   102.29300000
_cell_angle_beta   93.85100000
_cell_angle_gamma   104.68000000
_symmetry_Int_Tables_number   1
_chemical_formula_structural   CdH9C14NO5
_chemical_formula_sum   'Cd2 H18 C28 N2 O10'
_cell_volume   579.86814676
_cell_formula_units_Z   2
loop_
 _symmetry_equiv_pos_site_id
 _symmetry_equiv_pos_as_xyz
  1  'x, y, z'
loop_
 _atom_site_type_symbol
 _atom_site_label
 _atom_site_symmetry_multiplicity
 _atom_site_fract_x
 _atom_site_fract_y
 _atom_site_fract_z
 _atom_site_occupancy
  Cd  Cd0  1  0.20795000  0.07708000  0.12785000  1.0
  Cd  Cd1  1  0.79205000  0.92292000  0.87215000  1.0
  H  H2  1  0.17720000  0.29748000  0.97198000  1.0
  H  H3  1  0.82280000  0.70252000  0.02802000  1.0
  H  H4  1  0.21673000  0.57744000  0.08093000  1.0
  H  H5  1  0.78327000  0.42256000  0.91907000  1.0
  H  H6  1  0.48184000  0.59920000  0.08745000  1.0
  H  H7  1  0.51817000  0.40080000  0.91255000  1.0
  H  H8  1  0.47363000  0.81474000  0.28019000  1.0
  H  H9  1  0.52639000  0.18526000  0.71981000  1.0
  H  H10  1  0.42592000  0.83430000  0.48643000  1.0
  H  H11  1  0.57409000  0.16571000  0.51357000  1.0
  H  H12  1  0.18220000  0.23326000  0.39557000  1.0
  H  H13  1  0.81778000  0.76673000  0.60443000  1.0
  H  H14  1  0.38155000  0.83847000  0.64584000  1.0
  H  H15  1  0.61845000  0.16153000  0.35416000  1.0
  H  H16  1  0.11872000  0.56020000  0.89704000  1.0
  H  H17  1  0.88129000  0.43980000  0.10296000  1.0
  H  H18  1  0.09506000  0.24166000  0.55231000  1.0
  H  H19  1  0.90494000  0.75834000  0.44769000  1.0
  C  C20  1  0.33579000  0.51125000  0.10348000  1.0
  C  C21  1  0.66421000  0.48876000  0.89652000  1.0
  C  C22  1  0.34010000  0.51788000  0.23022000  1.0
  C  C23  1  0.65990000  0.48212000  0.76978000  1.0
  C  C24  1  0.40746000  0.69009000  0.31054000  1.0
  C  C25  1  0.59254000  0.30991000  0.68947000  1.0
  C  C26  1  0.37937000  0.69901000  0.42501000  1.0
  C  C27  1  0.62064000  0.30099000  0.57499000  1.0
  C  C28  1  0.28829000  0.53616000  0.46074000  1.0
  C  C29  1  0.71171000  0.46384000  0.53926000  1.0
  C  C30  1  0.24248000  0.36835000  0.37611000  1.0
  C  C31  1  0.75752000  0.63165000  0.62388000  1.0
  C  C32  1  0.24468000  0.53985000  0.58089000  1.0
  C  C33  1  0.75532000  0.46014000  0.41910000  1.0
  C  C34  1  0.30056000  0.70845000  0.66583000  1.0
  C  C35  1  0.69944000  0.29155000  0.33417000  1.0
  C  C36  1  0.25278000  0.71608000  0.77815000  1.0
  C  C37  1  0.74722000  0.28391000  0.22185000  1.0
  C  C38  1  0.15573000  0.55265000  0.80932000  1.0
  C  C39  1  0.84427000  0.44735000  0.19068000  1.0
  C  C40  1  0.10394000  0.38200000  0.72767000  1.0
  C  C41  1  0.89607000  0.61800000  0.27233000  1.0
  C  C42  1  0.14493000  0.37687000  0.61397000  1.0
  C  C43  1  0.85507000  0.62313000  0.38603000  1.0
  C  C44  1  0.30606000  0.89912000  0.86612000  1.0
  C  C45  1  0.69394000  0.10089000  0.13387000  1.0
  C  C46  1  0.99547000  0.20662000  0.76032000  1.0
  C  C47  1  0.00452000  0.79338000  0.23968000  1.0
  N  N48  1  0.26705000  0.35987000  0.26458000  1.0
  N  N49  1  0.73295000  0.64012000  0.73542000  1.0
  O  O50  1  0.29539000  0.32626000  0.03445000  1.0
  O  O51  1  0.70461000  0.67375000  0.96555000  1.0
  O  O52  1  0.48191000  0.01190000  0.87239000  1.0
  O  O53  1  0.51809000  0.98810000  0.12762000  1.0
  O  O54  1  0.16624000  0.92750000  0.92892000  1.0
  O  O55  1  0.83376000  0.07250000  0.07108000  1.0
  O  O56  1  0.92022000  0.05752000  0.68486000  1.0
  O  O57  1  0.07978000  0.94248000  0.31514000  1.0
  O  O58  1  0.97876000  0.21922000  0.86945000  1.0
  O  O59  1  0.02125000  0.78078000  0.13056000  1.0
