# generated using pymatgen
data_NaH6C9SNO4
_symmetry_space_group_name_H-M   'P 1'
_cell_length_a   8.25802000
_cell_length_b   10.44170000
_cell_length_c   10.76110000
_cell_angle_alpha   90.00000000
_cell_angle_beta   102.58800000
_cell_angle_gamma   89.99990000
_symmetry_Int_Tables_number   1
_chemical_formula_structural   NaH6C9SNO4
_chemical_formula_sum   'Na4 H24 C36 S4 N4 O16'
_cell_volume   905.60103011
_cell_formula_units_Z   4
loop_
 _symmetry_equiv_pos_site_id
 _symmetry_equiv_pos_as_xyz
  1  'x, y, z'
loop_
 _atom_site_type_symbol
 _atom_site_label
 _atom_site_symmetry_multiplicity
 _atom_site_fract_x
 _atom_site_fract_y
 _atom_site_fract_z
 _atom_site_occupancy
  Na  Na0  1  0.58952000  0.96800000  0.23898000  1.0
  Na  Na1  1  0.58952000  0.53200000  0.73898000  1.0
  Na  Na2  1  0.41048000  0.03200000  0.76102000  1.0
  Na  Na3  1  0.41048000  0.46800000  0.26102000  1.0
  H  H4  1  0.58074000  0.27530000  0.89818000  1.0
  H  H5  1  0.58074000  0.22470000  0.39818000  1.0
  H  H6  1  0.41926000  0.72470000  0.10182000  1.0
  H  H7  1  0.41926000  0.77530000  0.60182000  1.0
  H  H8  1  0.94594000  0.65748000  0.72524000  1.0
  H  H9  1  0.94594000  0.84252000  0.22524000  1.0
  H  H10  1  0.05406000  0.34252000  0.27476000  1.0
  H  H11  1  0.05405000  0.15748000  0.77476000  1.0
  H  H12  1  0.25332000  0.62862000  0.79933000  1.0
  H  H13  1  0.25332000  0.87138000  0.29933000  1.0
  H  H14  1  0.74668000  0.37138000  0.20067000  1.0
  H  H15  1  0.74668000  0.12862000  0.70067000  1.0
  H  H16  1  0.36048000  0.43517000  0.92394000  1.0
  H  H17  1  0.36049000  0.06483000  0.42393000  1.0
  H  H18  1  0.63951000  0.56483000  0.07606000  1.0
  H  H19  1  0.63951000  0.93517000  0.57606000  1.0
  H  H20  1  0.08163000  0.08307000  0.08575000  1.0
  H  H21  1  0.08163000  0.41693000  0.58575000  1.0
  H  H22  1  0.91837000  0.91693000  0.91425000  1.0
  H  H23  1  0.91837000  0.58307000  0.41425000  1.0
  H  H24  1  0.77998000  0.13048000  0.01155000  1.0
  H  H25  1  0.77998000  0.36952000  0.51155000  1.0
  H  H26  1  0.22002000  0.86952000  0.98845000  1.0
  H  H27  1  0.22002000  0.63048000  0.48845000  1.0
  C  C28  1  0.99579000  0.57330000  0.78044000  1.0
  C  C29  1  0.99579000  0.92670000  0.28043000  1.0
  C  C30  1  0.00421000  0.42670000  0.21957000  1.0
  C  C31  1  0.00421000  0.07330000  0.71957000  1.0
  C  C32  1  0.16845000  0.55649000  0.82088000  1.0
  C  C33  1  0.16846000  0.94351000  0.32088000  1.0
  C  C34  1  0.83154000  0.44351000  0.17912000  1.0
  C  C35  1  0.83154000  0.05649000  0.67912000  1.0
  C  C36  1  0.22775000  0.44929000  0.89036000  1.0
  C  C37  1  0.22775000  0.05071000  0.39036000  1.0
  C  C38  1  0.77225000  0.55071000  0.10964000  1.0
  C  C39  1  0.77225000  0.94929000  0.60964000  1.0
  C  C40  1  0.16203000  0.24693000  0.99719000  1.0
  C  C41  1  0.16203000  0.25306000  0.49719000  1.0
  C  C42  1  0.83797000  0.75307000  0.00281000  1.0
  C  C43  1  0.83797000  0.74693000  0.50281000  1.0
  C  C44  1  0.04220000  0.16799000  0.02826000  1.0
  C  C45  1  0.04220000  0.33201000  0.52826000  1.0
  C  C46  1  0.95780000  0.83201000  0.97174000  1.0
  C  C47  1  0.95780000  0.66799000  0.47174000  1.0
  C  C48  1  0.87192000  0.19485000  0.98667000  1.0
  C  C49  1  0.87192000  0.30515000  0.48667000  1.0
  C  C50  1  0.12808000  0.80515000  0.01333000  1.0
  C  C51  1  0.12808000  0.69485000  0.51333000  1.0
  C  C52  1  0.82045000  0.30260000  0.91283000  1.0
  C  C53  1  0.82045000  0.19739000  0.41283000  1.0
  C  C54  1  0.17955000  0.69740000  0.08717000  1.0
  C  C55  1  0.17955000  0.80260000  0.58717000  1.0
  C  C56  1  0.94183000  0.38630000  0.87865000  1.0
  C  C57  1  0.94183000  0.11370000  0.37865000  1.0
  C  C58  1  0.05817000  0.61370000  0.12135000  1.0
  C  C59  1  0.05817000  0.88630000  0.62135000  1.0
  C  C60  1  0.11487000  0.35935000  0.92259000  1.0
  C  C61  1  0.11487000  0.14065000  0.42259000  1.0
  C  C62  1  0.88513000  0.64065000  0.07741000  1.0
  C  C63  1  0.88513000  0.85935000  0.57741000  1.0
  S  S64  1  0.37440000  0.20475000  0.04709000  1.0
  S  S65  1  0.37440000  0.29524000  0.54709000  1.0
  S  S66  1  0.62560000  0.79525000  0.95291000  1.0
  S  S67  1  0.62560000  0.70475000  0.45291000  1.0
  N  N68  1  0.88538000  0.49141000  0.80694000  1.0
  N  N69  1  0.88538000  0.00859000  0.30694000  1.0
  N  N70  1  0.11462000  0.50859000  0.19307000  1.0
  N  N71  1  0.11462000  0.99141000  0.69307000  1.0
  O  O72  1  0.66083000  0.33667000  0.87053000  1.0
  O  O73  1  0.66083000  0.16333000  0.37053000  1.0
  O  O74  1  0.33917000  0.66333000  0.12946000  1.0
  O  O75  1  0.33917000  0.83667000  0.62947000  1.0
  O  O76  1  0.37877000  0.08585000  0.11918000  1.0
  O  O77  1  0.37877000  0.41415000  0.61918000  1.0
  O  O78  1  0.62123000  0.91415000  0.88082000  1.0
  O  O79  1  0.62123000  0.58585000  0.38082000  1.0
  O  O80  1  0.43463000  0.18600000  0.92720000  1.0
  O  O81  1  0.43463000  0.31400000  0.42720000  1.0
  O  O82  1  0.56538000  0.81400000  0.07280000  1.0
  O  O83  1  0.56537000  0.68600000  0.57280000  1.0
  O  O84  1  0.46040000  0.31308000  0.11996000  1.0
  O  O85  1  0.46040000  0.18692000  0.61996000  1.0
  O  O86  1  0.53960000  0.68692000  0.88004000  1.0
  O  O87  1  0.53960000  0.81307000  0.38004000  1.0
