# generated using pymatgen
data_NaH6C8N3O2
_symmetry_space_group_name_H-M   'P 1'
_cell_length_a   3.48642000
_cell_length_b   8.23349000
_cell_length_c   27.09840000
_cell_angle_alpha   90.00020000
_cell_angle_beta   90.00180000
_cell_angle_gamma   89.99960000
_symmetry_Int_Tables_number   1
_chemical_formula_structural   NaH6C8N3O2
_chemical_formula_sum   'Na4 H24 C32 N12 O8'
_cell_volume   777.87052492
_cell_formula_units_Z   4
loop_
 _symmetry_equiv_pos_site_id
 _symmetry_equiv_pos_as_xyz
  1  'x, y, z'
loop_
 _atom_site_type_symbol
 _atom_site_label
 _atom_site_symmetry_multiplicity
 _atom_site_fract_x
 _atom_site_fract_y
 _atom_site_fract_z
 _atom_site_occupancy
  Na  Na0  1  0.08188000  0.99843000  0.94725000  1.0
  Na  Na1  1  0.91812000  0.49843000  0.05275000  1.0
  Na  Na2  1  0.58187000  0.49842000  0.55275000  1.0
  Na  Na3  1  0.41815000  0.99844000  0.44725000  1.0
  H  H4  1  0.47633000  0.68736000  0.98850000  1.0
  H  H5  1  0.52365000  0.18736000  0.01150000  1.0
  H  H6  1  0.97634000  0.18737000  0.51149000  1.0
  H  H7  1  0.02367000  0.68737000  0.48850000  1.0
  H  H8  1  0.86171000  0.81952000  0.78207000  1.0
  H  H9  1  0.13831000  0.31952000  0.21793000  1.0
  H  H10  1  0.36169000  0.31951000  0.71793000  1.0
  H  H11  1  0.63830000  0.81953000  0.28207000  1.0
  H  H12  1  0.69033000  0.85691000  0.84160000  1.0
  H  H13  1  0.30968000  0.35691000  0.15840000  1.0
  H  H14  1  0.19030000  0.35690000  0.65840000  1.0
  H  H15  1  0.80968000  0.85692000  0.34160000  1.0
  H  H16  1  0.85654000  0.53996000  0.74946000  1.0
  H  H17  1  0.14348000  0.03995000  0.25054000  1.0
  H  H18  1  0.35651000  0.03995000  0.75054000  1.0
  H  H19  1  0.64347000  0.53997000  0.24946000  1.0
  H  H20  1  0.85386000  0.24874000  0.77010000  1.0
  H  H21  1  0.14615000  0.74874000  0.22990000  1.0
  H  H22  1  0.35385000  0.74873000  0.72990000  1.0
  H  H23  1  0.64617000  0.24875000  0.27010000  1.0
  H  H24  1  0.71120000  0.15567000  0.85641000  1.0
  H  H25  1  0.28880000  0.65568000  0.14359000  1.0
  H  H26  1  0.21119000  0.65567000  0.64359000  1.0
  H  H27  1  0.78881000  0.15569000  0.35641000  1.0
  C  C28  1  0.58183000  0.34602000  0.93479000  1.0
  C  C29  1  0.41816000  0.84602000  0.06521000  1.0
  C  C30  1  0.08183000  0.84602000  0.56521000  1.0
  C  C31  1  0.91818000  0.34603000  0.43479000  1.0
  C  C32  1  0.57726000  0.68141000  0.91242000  1.0
  C  C33  1  0.42274000  0.18142000  0.08758000  1.0
  C  C34  1  0.07725000  0.18142000  0.58758000  1.0
  C  C35  1  0.92276000  0.68142000  0.41242000  1.0
  C  C36  1  0.64232000  0.56721000  0.87250000  1.0
  C  C37  1  0.35769000  0.06720000  0.12750000  1.0
  C  C38  1  0.14230000  0.06720000  0.62750000  1.0
  C  C39  1  0.85770000  0.56722000  0.37250000  1.0
  C  C40  1  0.71716000  0.62019000  0.82320000  1.0
  C  C41  1  0.28284000  0.12020000  0.17680000  1.0
  C  C42  1  0.21714000  0.12020000  0.67680000  1.0
  C  C43  1  0.78285000  0.62021000  0.32320000  1.0
  C  C44  1  0.79361000  0.50150000  0.78717000  1.0
  C  C45  1  0.20639000  0.00149000  0.21283000  1.0
  C  C46  1  0.29360000  0.00149000  0.71283000  1.0
  C  C47  1  0.70639000  0.50150000  0.28717000  1.0
  C  C48  1  0.79122000  0.33686000  0.79906000  1.0
  C  C49  1  0.20877000  0.83686000  0.20094000  1.0
  C  C50  1  0.29121000  0.83685000  0.70094000  1.0
  C  C51  1  0.70880000  0.33688000  0.29906000  1.0
  C  C52  1  0.71398000  0.28397000  0.84674000  1.0
  C  C53  1  0.28602000  0.78397000  0.15326000  1.0
  C  C54  1  0.21397000  0.78397000  0.65326000  1.0
  C  C55  1  0.78603000  0.28399000  0.34674000  1.0
  C  C56  1  0.64323000  0.39882000  0.88367000  1.0
  C  C57  1  0.35677000  0.89882000  0.11633000  1.0
  C  C58  1  0.14323000  0.89882000  0.61633000  1.0
  C  C59  1  0.85678000  0.39883000  0.38367000  1.0
  N  N60  1  0.52290000  0.45438000  0.97039000  1.0
  N  N61  1  0.47707000  0.95438000  0.02961000  1.0
  N  N62  1  0.02291000  0.95438000  0.52961000  1.0
  N  N63  1  0.97710000  0.45439000  0.47039000  1.0
  N  N64  1  0.51831000  0.61506000  0.95735000  1.0
  N  N65  1  0.48167000  0.11505000  0.04266000  1.0
  N  N66  1  0.01831000  0.11506000  0.54265000  1.0
  N  N67  1  0.98170000  0.61506000  0.45734000  1.0
  N  N68  1  0.70487000  0.78211000  0.81146000  1.0
  N  N69  1  0.29514000  0.28211000  0.18854000  1.0
  N  N70  1  0.20484000  0.28211000  0.68854000  1.0
  N  N71  1  0.79514000  0.78213000  0.31146000  1.0
  O  O72  1  0.58952000  0.19322000  0.94613000  1.0
  O  O73  1  0.41046000  0.69323000  0.05387000  1.0
  O  O74  1  0.08953000  0.69322000  0.55387000  1.0
  O  O75  1  0.91048000  0.19323000  0.44613000  1.0
  O  O76  1  0.57635000  0.83701000  0.90811000  1.0
  O  O77  1  0.42365000  0.33701000  0.09189000  1.0
  O  O78  1  0.07632000  0.33701000  0.59189000  1.0
  O  O79  1  0.92368000  0.83702000  0.40811000  1.0
