# generated using pymatgen
data_CuH8C10(NO2)2
_symmetry_space_group_name_H-M   'P 1'
_cell_length_a   9.47910000
_cell_length_b   10.19800000
_cell_length_c   11.15510000
_cell_angle_alpha   89.99800000
_cell_angle_beta   89.99980000
_cell_angle_gamma   71.87200000
_symmetry_Int_Tables_number   1
_chemical_formula_structural   CuH8C10(NO2)2
_chemical_formula_sum   'Cu4 H32 C40 N8 O16'
_cell_volume   1024.81497366
_cell_formula_units_Z   4
loop_
 _symmetry_equiv_pos_site_id
 _symmetry_equiv_pos_as_xyz
  1  'x, y, z'
loop_
 _atom_site_type_symbol
 _atom_site_label
 _atom_site_symmetry_multiplicity
 _atom_site_fract_x
 _atom_site_fract_y
 _atom_site_fract_z
 _atom_site_occupancy
  Cu  Cu0  1  0.72304000  0.75199000  0.74457000  1.0
  Cu  Cu1  1  0.77707000  0.74806000  0.24453000  1.0
  Cu  Cu2  1  0.27724000  0.24791000  0.25546000  1.0
  Cu  Cu3  1  0.22278000  0.25206000  0.75547000  1.0
  H  H4  1  0.74591000  0.82049000  0.99491000  1.0
  H  H5  1  0.75411000  0.67950000  0.49498000  1.0
  H  H6  1  0.25955000  0.17972000  0.00443000  1.0
  H  H7  1  0.24043000  0.32027000  0.50445000  1.0
  H  H8  1  0.01261000  0.52951000  0.82513000  1.0
  H  H9  1  0.48733000  0.97052000  0.32516000  1.0
  H  H10  1  0.98745000  0.47107000  0.17446000  1.0
  H  H11  1  0.51259000  0.02888000  0.67451000  1.0
  H  H12  1  0.68608000  0.47012000  0.78919000  1.0
  H  H13  1  0.81392000  0.02991000  0.28916000  1.0
  H  H14  1  0.31382000  0.52933000  0.21079000  1.0
  H  H15  1  0.18617000  0.97066000  0.71081000  1.0
  H  H16  1  0.53049000  0.31219000  0.76779000  1.0
  H  H17  1  0.96952000  0.18782000  0.26777000  1.0
  H  H18  1  0.46940000  0.68729000  0.23232000  1.0
  H  H19  1  0.03059000  0.81271000  0.73234000  1.0
  H  H20  1  0.13938000  0.54313000  0.51904000  1.0
  H  H21  1  0.36064000  0.95688000  0.01905000  1.0
  H  H22  1  0.86044000  0.45636000  0.48108000  1.0
  H  H23  1  0.63952000  0.04365000  0.98106000  1.0
  H  H24  1  0.06741000  0.76817000  0.41590000  1.0
  H  H25  1  0.43261000  0.73184000  0.91591000  1.0
  H  H26  1  0.93234000  0.23129000  0.58421000  1.0
  H  H27  1  0.56765000  0.26871000  0.08420000  1.0
  H  H28  1  0.22190000  0.92758000  0.43949000  1.0
  H  H29  1  0.27812000  0.57242000  0.93950000  1.0
  H  H30  1  0.77798000  0.07184000  0.56054000  1.0
  H  H31  1  0.72204000  0.42813000  0.06054000  1.0
  H  H32  1  0.44753000  0.85845000  0.56513000  1.0
  H  H33  1  0.05247000  0.64156000  0.06512000  1.0
  H  H34  1  0.55201000  0.14115000  0.43517000  1.0
  H  H35  1  0.94799000  0.35884000  0.93518000  1.0
  C  C36  1  0.75989000  0.70936000  0.99560000  1.0
  C  C37  1  0.74009000  0.79064000  0.49569000  1.0
  C  C38  1  0.24205000  0.29154000  0.00413000  1.0
  C  C39  1  0.25794000  0.20846000  0.50420000  1.0
  C  C40  1  0.98791000  0.51168000  0.73104000  1.0
  C  C41  1  0.51207000  0.98832000  0.23100000  1.0
  C  C42  1  0.01162000  0.48900000  0.26875000  1.0
  C  C43  1  0.48844000  0.01097000  0.76872000  1.0
  C  C44  1  0.58602000  0.50072000  0.73420000  1.0
  C  C45  1  0.91399000  0.99930000  0.23418000  1.0
  C  C46  1  0.41383000  0.49876000  0.26583000  1.0
  C  C47  1  0.08616000  0.00123000  0.76585000  1.0
  C  C48  1  0.49794000  0.41181000  0.72187000  1.0
  C  C49  1  0.00206000  0.08820000  0.22184000  1.0
  C  C50  1  0.50188000  0.58767000  0.27824000  1.0
  C  C51  1  0.99811000  0.91233000  0.77826000  1.0
  C  C52  1  0.20611000  0.61208000  0.52922000  1.0
  C  C53  1  0.29389000  0.88794000  0.02921000  1.0
  C  C54  1  0.79367000  0.38739000  0.47096000  1.0
  C  C55  1  0.70630000  0.11261000  0.97094000  1.0
  C  C56  1  0.16654000  0.73825000  0.47189000  1.0
  C  C57  1  0.33347000  0.76177000  0.97188000  1.0
  C  C58  1  0.83323000  0.26119000  0.52823000  1.0
  C  C59  1  0.66676000  0.23882000  0.02822000  1.0
  C  C60  1  0.25373000  0.82768000  0.48459000  1.0
  C  C61  1  0.24628000  0.67233000  0.98458000  1.0
  C  C62  1  0.74603000  0.17178000  0.51553000  1.0
  C  C63  1  0.75397000  0.32821000  0.01553000  1.0
  C  C64  1  0.38007000  0.79020000  0.55462000  1.0
  C  C65  1  0.11993000  0.70981000  0.05460000  1.0
  C  C66  1  0.61961000  0.20926000  0.44556000  1.0
  C  C67  1  0.88038000  0.29073000  0.94556000  1.0
  C  C68  1  0.42408000  0.66128000  0.61419000  1.0
  C  C69  1  0.07591000  0.83873000  0.11417000  1.0
  C  C70  1  0.57563000  0.33815000  0.38596000  1.0
  C  C71  1  0.92436000  0.16185000  0.88596000  1.0
  C  C72  1  0.33549000  0.57045000  0.60142000  1.0
  C  C73  1  0.16451000  0.92956000  0.10140000  1.0
  C  C74  1  0.66425000  0.42895000  0.39876000  1.0
  C  C75  1  0.83573000  0.07106000  0.89875000  1.0
  N  N76  1  0.55037000  0.62325000  0.68237000  1.0
  N  N77  1  0.94963000  0.87677000  0.18234000  1.0
  N  N78  1  0.44943000  0.37622000  0.31768000  1.0
  N  N79  1  0.05056000  0.12376000  0.81769000  1.0
  N  N80  1  0.37525000  0.44467000  0.65719000  1.0
  N  N81  1  0.12476000  0.05534000  0.15716000  1.0
  N  N82  1  0.62451000  0.55477000  0.34300000  1.0
  N  N83  1  0.87547000  0.94523000  0.84300000  1.0
  O  O84  1  0.75444000  0.64794000  0.89754000  1.0
  O  O85  1  0.74552000  0.85208000  0.39762000  1.0
  O  O86  1  0.24598000  0.35232000  0.10281000  1.0
  O  O87  1  0.25403000  0.14771000  0.60288000  1.0
  O  O88  1  0.88812000  0.60350000  0.67471000  1.0
  O  O89  1  0.61185000  0.89645000  0.17471000  1.0
  O  O90  1  0.11140000  0.39732000  0.32513000  1.0
  O  O91  1  0.38869000  0.10258000  0.82512000  1.0
  O  O92  1  0.78262000  0.64313000  0.09419000  1.0
  O  O93  1  0.71733000  0.85685000  0.59426000  1.0
  O  O94  1  0.21735000  0.35735000  0.90528000  1.0
  O  O95  1  0.28263000  0.14262000  0.40534000  1.0
  O  O96  1  0.06105000  0.39987000  0.68034000  1.0
  O  O97  1  0.43889000  0.10018000  0.18031000  1.0
  O  O98  1  0.93807000  0.60081000  0.31941000  1.0
  O  O99  1  0.56197000  0.89920000  0.81943000  1.0
