# generated using pymatgen
data_ZrH8C14O5
_symmetry_space_group_name_H-M   'P 1'
_cell_length_a   7.84126000
_cell_length_b   15.59660000
_cell_length_c   17.87191353
_cell_angle_alpha   64.12135004
_cell_angle_beta   78.52454070
_cell_angle_gamma   90.00370000
_symmetry_Int_Tables_number   1
_chemical_formula_structural   ZrH8C14O5
_chemical_formula_sum   'Zr4 H32 C56 O20'
_cell_volume   1917.80969100
_cell_formula_units_Z   4
loop_
 _symmetry_equiv_pos_site_id
 _symmetry_equiv_pos_as_xyz
  1  'x, y, z'
loop_
 _atom_site_type_symbol
 _atom_site_label
 _atom_site_symmetry_multiplicity
 _atom_site_fract_x
 _atom_site_fract_y
 _atom_site_fract_z
 _atom_site_occupancy
  Zr  Zr0  1  0.66213000  0.02480000  0.91601000  1.0
  Zr  Zr1  1  0.83781000  0.94085000  0.08400000  1.0
  Zr  Zr2  1  0.33787000  0.97520000  0.08399000  1.0
  Zr  Zr3  1  0.16219000  0.05915000  0.91600000  1.0
  H  H4  1  0.79178000  0.66053000  0.29917000  1.0
  H  H5  1  0.70817000  0.95964000  0.70086000  1.0
  H  H6  1  0.20822000  0.33947000  0.70083000  1.0
  H  H7  1  0.29182000  0.04036000  0.29914000  1.0
  H  H8  1  0.76591000  0.51152000  0.43157000  1.0
  H  H9  1  0.73413000  0.94310000  0.56844000  1.0
  H  H10  1  0.23409000  0.48847000  0.56843000  1.0
  H  H11  1  0.26585000  0.05690000  0.43156000  1.0
  H  H12  1  0.27656000  0.75211000  0.33191000  1.0
  H  H13  1  0.22345000  0.08396000  0.66805000  1.0
  H  H14  1  0.72344000  0.24789000  0.66809000  1.0
  H  H15  1  0.77654000  0.91604000  0.33195000  1.0
  H  H16  1  0.25327000  0.60442000  0.46475000  1.0
  H  H17  1  0.24673000  0.06907000  0.53525000  1.0
  H  H18  1  0.74673000  0.39558000  0.53525000  1.0
  H  H19  1  0.75327000  0.93094000  0.46474000  1.0
  H  H20  1  0.71703000  0.76813000  0.87113000  1.0
  H  H21  1  0.78320000  0.63921000  0.12888000  1.0
  H  H22  1  0.28297000  0.23188000  0.12886000  1.0
  H  H23  1  0.21680000  0.36080000  0.87111000  1.0
  H  H24  1  0.72623000  0.61066000  0.86872000  1.0
  H  H25  1  0.77393000  0.47932000  0.13131000  1.0
  H  H26  1  0.27377000  0.38934000  0.13127000  1.0
  H  H27  1  0.22608000  0.52068000  0.86869000  1.0
  H  H28  1  0.63857000  0.32092000  0.88966000  1.0
  H  H29  1  0.86161000  0.21055000  0.11022000  1.0
  H  H30  1  0.36143000  0.67908000  0.11034000  1.0
  H  H31  1  0.13839000  0.78945000  0.88978000  1.0
  H  H32  1  0.63167000  0.47857000  0.89083000  1.0
  H  H33  1  0.86843000  0.36932000  0.10917000  1.0
  H  H34  1  0.36833000  0.52143000  0.10917000  1.0
  H  H35  1  0.13157000  0.63068000  0.89083000  1.0
  C  C36  1  0.00747000  0.54469000  0.45994000  1.0
  C  C37  1  0.49255000  0.00459000  0.54006000  1.0
  C  C38  1  0.99252000  0.45532000  0.54005000  1.0
  C  C39  1  0.50744000  0.99541000  0.45994000  1.0
  C  C40  1  0.87910000  0.56324000  0.41105000  1.0
  C  C41  1  0.62092000  0.97426000  0.58897000  1.0
  C  C42  1  0.12090000  0.43676000  0.58895000  1.0
  C  C43  1  0.37907000  0.02574000  0.41103000  1.0
  C  C44  1  0.89235000  0.64709000  0.33613000  1.0
  C  C45  1  0.60760000  0.98315000  0.66389000  1.0
  C  C46  1  0.10765000  0.35291000  0.66387000  1.0
  C  C47  1  0.39240000  0.01685000  0.33611000  1.0
  C  C48  1  0.03584000  0.71580000  0.30687000  1.0
  C  C49  1  0.46418000  0.02265000  0.69311000  1.0
  C  C50  1  0.96416000  0.28420000  0.69313000  1.0
  C  C51  1  0.53581000  0.97736000  0.30689000  1.0
  C  C52  1  0.16505000  0.69866000  0.35446000  1.0
  C  C53  1  0.33495000  0.05306000  0.64552000  1.0
  C  C54  1  0.83495000  0.30134000  0.64553000  1.0
  C  C55  1  0.66504000  0.94695000  0.35448000  1.0
  C  C56  1  0.15056000  0.61484000  0.42947000  1.0
  C  C57  1  0.34941000  0.04420000  0.57055000  1.0
  C  C58  1  0.84943000  0.38516000  0.57053000  1.0
  C  C59  1  0.65058000  0.95580000  0.42945000  1.0
  C  C60  1  0.05053000  0.80604000  0.22686000  1.0
  C  C61  1  0.44948000  0.03283000  0.77314000  1.0
  C  C62  1  0.94948000  0.19396000  0.77314000  1.0
  C  C63  1  0.55051000  0.96717000  0.22686000  1.0
  C  C64  1  0.75010000  0.53193000  0.00002000  1.0
  C  C65  1  0.24990000  0.46807000  0.99998000  1.0
  C  C66  1  0.73484000  0.61532000  0.92699000  1.0
  C  C67  1  0.76536000  0.54225000  0.07304000  1.0
  C  C68  1  0.26516000  0.38468000  0.07301000  1.0
  C  C69  1  0.23464000  0.45775000  0.92696000  1.0
  C  C70  1  0.73198000  0.70420000  0.92729000  1.0
  C  C71  1  0.76830000  0.63147000  0.07271000  1.0
  C  C72  1  0.26802000  0.29579000  0.07271000  1.0
  C  C73  1  0.23171000  0.36854000  0.92728000  1.0
  C  C74  1  0.75018000  0.71327000  0.00000000  1.0
  C  C75  1  0.24982000  0.28672000  1.00000000  1.0
  C  C76  1  0.75003000  0.43712000  1.00000000  1.0
  C  C77  1  0.24997000  0.56289000  0.99999000  1.0
  C  C78  1  0.68715000  0.42138000  0.93803000  1.0
  C  C79  1  0.81292000  0.35937000  0.06197000  1.0
  C  C80  1  0.31285000  0.57862000  0.06197000  1.0
  C  C81  1  0.18708000  0.64063000  0.93803000  1.0
  C  C82  1  0.68826000  0.33256000  0.93756000  1.0
  C  C83  1  0.81192000  0.27013000  0.06235000  1.0
  C  C84  1  0.31174000  0.66744000  0.06244000  1.0
  C  C85  1  0.18808000  0.72987000  0.93765000  1.0
  C  C86  1  0.75011000  0.25574000  0.99994000  1.0
  C  C87  1  0.24989000  0.74426000  0.00006000  1.0
  C  C88  1  0.75013000  0.80848000  0.00001000  1.0
  C  C89  1  0.24987000  0.19153000  0.99998000  1.0
  C  C90  1  0.74998000  0.16027000  0.99996000  1.0
  C  C91  1  0.25002000  0.83973000  0.00004000  1.0
  O  O92  1  0.40505000  0.04428000  0.94836000  1.0
  O  O93  1  0.09498000  0.99255000  0.05164000  1.0
  O  O94  1  0.59495000  0.95572000  0.05164000  1.0
  O  O95  1  0.90502000  0.00745000  0.94836000  1.0
  O  O96  1  0.92803000  0.81941000  0.18717000  1.0
  O  O97  1  0.57189000  0.00641000  0.81288000  1.0
  O  O98  1  0.07198000  0.18059000  0.81283000  1.0
  O  O99  1  0.42811000  0.99359000  0.18712000  1.0
  O  O100  1  0.18637000  0.86473000  0.20417000  1.0
  O  O101  1  0.31376000  0.06893000  0.79579000  1.0
  O  O102  1  0.81363000  0.13527000  0.79583000  1.0
  O  O103  1  0.68623000  0.93107000  0.20421000  1.0
  O  O104  1  0.69400000  0.87578000  0.94059000  1.0
  O  O105  1  0.80619000  0.81638000  0.05943000  1.0
  O  O106  1  0.30599000  0.12422000  0.05941000  1.0
  O  O107  1  0.19381000  0.18363000  0.94056000  1.0
  O  O108  1  0.69239000  0.15165000  0.94129000  1.0
  O  O109  1  0.80747000  0.09296000  0.05867000  1.0
  O  O110  1  0.30761000  0.84835000  0.05871000  1.0
  O  O111  1  0.19253000  0.90704000  0.94133000  1.0
