# generated using pymatgen
data_Zn3H10C16O11
_symmetry_space_group_name_H-M   'P 1'
_cell_length_a   8.22218000
_cell_length_b   10.51070000
_cell_length_c   11.89990000
_cell_angle_alpha   71.93090000
_cell_angle_beta   70.74760000
_cell_angle_gamma   78.16320000
_symmetry_Int_Tables_number   1
_chemical_formula_structural   Zn3H10C16O11
_chemical_formula_sum   'Zn6 H20 C32 O22'
_cell_volume   916.92466418
_cell_formula_units_Z   2
loop_
 _symmetry_equiv_pos_site_id
 _symmetry_equiv_pos_as_xyz
  1  'x, y, z'
loop_
 _atom_site_type_symbol
 _atom_site_label
 _atom_site_symmetry_multiplicity
 _atom_site_fract_x
 _atom_site_fract_y
 _atom_site_fract_z
 _atom_site_occupancy
  Zn  Zn0  1  0.34262000  0.37468000  0.76843000  1.0
  Zn  Zn1  1  0.65738000  0.62532000  0.23157000  1.0
  Zn  Zn2  1  0.95665000  0.34593000  0.55867000  1.0
  Zn  Zn3  1  0.04335000  0.65407000  0.44132000  1.0
  Zn  Zn4  1  0.40829000  0.42548000  0.44462000  1.0
  Zn  Zn5  1  0.59170000  0.57452000  0.55539000  1.0
  H  H6  1  0.82816000  0.43552000  0.96542000  1.0
  H  H7  1  0.17184000  0.56448000  0.03458000  1.0
  H  H8  1  0.44571000  0.17047000  0.19931000  1.0
  H  H9  1  0.55428000  0.82953000  0.80068000  1.0
  H  H10  1  0.56290000  0.01790000  0.06178000  1.0
  H  H11  1  0.43710000  0.98210000  0.93822000  1.0
  H  H12  1  0.77706000  0.00983000  0.58643000  1.0
  H  H13  1  0.22294000  0.99016000  0.41357000  1.0
  H  H14  1  0.05401000  0.74236000  0.83467000  1.0
  H  H15  1  0.94600000  0.25764000  0.16532000  1.0
  H  H16  1  0.96624000  0.90425000  0.96433000  1.0
  H  H17  1  0.03377000  0.09575000  0.03567000  1.0
  H  H18  1  0.27517000  0.22493000  0.61597000  1.0
  H  H19  1  0.72482000  0.77507000  0.38403000  1.0
  H  H20  1  0.82738000  0.55012000  0.64634000  1.0
  H  H21  1  0.17262000  0.44988000  0.35366000  1.0
  H  H22  1  0.25969000  0.56537000  0.61057000  1.0
  H  H23  1  0.74032000  0.43463000  0.38943000  1.0
  H  H24  1  0.33392000  0.18858000  0.49122000  1.0
  H  H25  1  0.66608000  0.81142000  0.50878000  1.0
  C  C26  1  0.00785000  0.28703000  0.81407000  1.0
  C  C27  1  0.99214000  0.71297000  0.18592000  1.0
  C  C28  1  0.83457000  0.26021000  0.90572000  1.0
  C  C29  1  0.16543000  0.73979000  0.09428000  1.0
  C  C30  1  0.76556000  0.34654000  0.98363000  1.0
  C  C31  1  0.23444000  0.65346000  0.01637000  1.0
  C  C32  1  0.62426000  0.31678000  0.08778000  1.0
  C  C33  1  0.37575000  0.68321000  0.91222000  1.0
  C  C34  1  0.55217000  0.19703000  0.11579000  1.0
  C  C35  1  0.44783000  0.80296000  0.88421000  1.0
  C  C36  1  0.61744000  0.11211000  0.03787000  1.0
  C  C37  1  0.38256000  0.88789000  0.96213000  1.0
  C  C38  1  0.75681000  0.14260000  0.93074000  1.0
  C  C39  1  0.24320000  0.85740000  0.06926000  1.0
  C  C40  1  0.56692000  0.40542000  0.17416000  1.0
  C  C41  1  0.43308000  0.59458000  0.82584000  1.0
  C  C42  1  0.64264000  0.19955000  0.71549000  1.0
  C  C43  1  0.35738000  0.80045000  0.28450000  1.0
  C  C44  1  0.76280000  0.07470000  0.74502000  1.0
  C  C45  1  0.23720000  0.92529000  0.25498000  1.0
  C  C46  1  0.81698000  0.98645000  0.66995000  1.0
  C  C47  1  0.18301000  0.01355000  0.33005000  1.0
  C  C48  1  0.92194000  0.86617000  0.70238000  1.0
  C  C49  1  0.07805000  0.13383000  0.29763000  1.0
  C  C50  1  0.97418000  0.83683000  0.80925000  1.0
  C  C51  1  0.02582000  0.16318000  0.19075000  1.0
  C  C52  1  0.92393000  0.92733000  0.88201000  1.0
  C  C53  1  0.07607000  0.07267000  0.11799000  1.0
  C  C54  1  0.81782000  0.04722000  0.85123000  1.0
  C  C55  1  0.18219000  0.95278000  0.14877000  1.0
  C  C56  1  0.97743000  0.76992000  0.62384000  1.0
  C  C57  1  0.02257000  0.23008000  0.37616000  1.0
  O  O58  1  0.10614000  0.32853000  0.85500000  1.0
  O  O59  1  0.89386000  0.67148000  0.14500000  1.0
  O  O60  1  0.05448000  0.26471000  0.70730000  1.0
  O  O61  1  0.94551000  0.73528000  0.29271000  1.0
  O  O62  1  0.62520000  0.52010000  0.13211000  1.0
  O  O63  1  0.37480000  0.47990000  0.86790000  1.0
  O  O64  1  0.47034000  0.36003000  0.28255000  1.0
  O  O65  1  0.52965000  0.63997000  0.71746000  1.0
  O  O66  1  0.69829000  0.30007000  0.62799000  1.0
  O  O67  1  0.30172000  0.69993000  0.37200000  1.0
  O  O68  1  0.48596000  0.19916000  0.78415000  1.0
  O  O69  1  0.51405000  0.80085000  0.21585000  1.0
  O  O70  1  0.92866000  0.80403000  0.52471000  1.0
  O  O71  1  0.07134000  0.19597000  0.47529000  1.0
  O  O72  1  0.06766000  0.65918000  0.65548000  1.0
  O  O73  1  0.93234000  0.34081000  0.34453000  1.0
  O  O74  1  0.36312000  0.49653000  0.60122000  1.0
  O  O75  1  0.63688000  0.50347000  0.39878000  1.0
  O  O76  1  0.83936000  0.53382000  0.56744000  1.0
  O  O77  1  0.16063000  0.46618000  0.43256000  1.0
  O  O78  1  0.37782000  0.22167000  0.54306000  1.0
  O  O79  1  0.62218000  0.77833000  0.45693000  1.0
