# generated using pymatgen
data_H4PbC8(N2O)2
_symmetry_space_group_name_H-M   'P 1'
_cell_length_a   7.10896000
_cell_length_b   7.38977000
_cell_length_c   9.34322000
_cell_angle_alpha   89.99970000
_cell_angle_beta   67.68900000
_cell_angle_gamma   89.99840000
_symmetry_Int_Tables_number   1
_chemical_formula_structural   H4PbC8(N2O)2
_chemical_formula_sum   'H8 Pb2 C16 N8 O4'
_cell_volume   454.08750073
_cell_formula_units_Z   2
loop_
 _symmetry_equiv_pos_site_id
 _symmetry_equiv_pos_as_xyz
  1  'x, y, z'
loop_
 _atom_site_type_symbol
 _atom_site_label
 _atom_site_symmetry_multiplicity
 _atom_site_fract_x
 _atom_site_fract_y
 _atom_site_fract_z
 _atom_site_occupancy
  H  H0  1  0.01218000  0.22844000  0.59912000  1.0
  H  H1  1  0.98781000  0.72842000  0.40088000  1.0
  H  H2  1  0.38859000  0.77171000  0.59948000  1.0
  H  H3  1  0.61142000  0.27171000  0.40052000  1.0
  H  H4  1  0.16449000  0.23503000  0.31045000  1.0
  H  H5  1  0.83551000  0.73503000  0.68954000  1.0
  H  H6  1  0.52504000  0.76504000  0.31077000  1.0
  H  H7  1  0.47497000  0.26504000  0.68924000  1.0
  Pb  Pb8  1  0.93922000  0.99990000  0.12209000  1.0
  Pb  Pb9  1  0.06078000  0.49991000  0.87791000  1.0
  C  C10  1  0.10600000  0.99996000  0.78820000  1.0
  C  C11  1  0.89399000  0.49995000  0.21179000  1.0
  C  C12  1  0.19175000  0.00005000  0.61658000  1.0
  C  C13  1  0.80824000  0.50006000  0.38342000  1.0
  C  C14  1  0.12743000  0.12967000  0.53527000  1.0
  C  C15  1  0.87256000  0.62967000  0.46472000  1.0
  C  C16  1  0.33727000  0.87042000  0.53546000  1.0
  C  C17  1  0.66273000  0.37042000  0.46454000  1.0
  C  C18  1  0.20769000  0.12999000  0.37423000  1.0
  C  C19  1  0.79230000  0.62998000  0.62578000  1.0
  C  C20  1  0.41811000  0.87006000  0.37442000  1.0
  C  C21  1  0.58190000  0.37007000  0.62558000  1.0
  C  C22  1  0.35375000  0.00003000  0.29267000  1.0
  C  C23  1  0.64624000  0.50003000  0.70733000  1.0
  C  C24  1  0.43839000  0.00001000  0.12337000  1.0
  C  C25  1  0.56161000  0.50000000  0.87663000  1.0
  N  N26  1  0.46565000  0.01090000  0.88576000  1.0
  N  N27  1  0.53435000  0.51091000  0.11424000  1.0
  N  N28  1  0.64866000  0.98902000  0.88588000  1.0
  N  N29  1  0.35135000  0.48902000  0.11412000  1.0
  N  N30  1  0.33006000  0.01940000  0.03355000  1.0
  N  N31  1  0.66996000  0.51941000  0.96645000  1.0
  N  N32  1  0.63648000  0.98056000  0.03375000  1.0
  N  N33  1  0.36352000  0.48056000  0.96625000  1.0
  O  O34  1  0.08497000  0.85150000  0.86264000  1.0
  O  O35  1  0.91503000  0.35151000  0.13736000  1.0
  O  O36  1  0.05254000  0.14830000  0.86280000  1.0
  O  O37  1  0.94746000  0.64830000  0.13720000  1.0
