# generated using pymatgen
data_Zn4H24C48O13
_symmetry_space_group_name_H-M   'P 1'
_cell_length_a   19.89820000
_cell_length_b   19.89820000
_cell_length_c   39.77540000
_cell_angle_alpha   90.00010000
_cell_angle_beta   90.00010000
_cell_angle_gamma   90.00000000
_symmetry_Int_Tables_number   1
_chemical_formula_structural   Zn4H24C48O13
_chemical_formula_sum   'Zn16 H96 C192 O52'
_cell_volume   15748.60677317
_cell_formula_units_Z   4
loop_
 _symmetry_equiv_pos_site_id
 _symmetry_equiv_pos_as_xyz
  1  'x, y, z'
loop_
 _atom_site_type_symbol
 _atom_site_label
 _atom_site_symmetry_multiplicity
 _atom_site_fract_x
 _atom_site_fract_y
 _atom_site_fract_z
 _atom_site_occupancy
  Zn  Zn0  1  0.30705000  0.19295000  0.32430000  1.0
  Zn  Zn1  1  0.19295000  0.30704000  0.32430000  1.0
  Zn  Zn2  1  0.30704000  0.30705000  0.82430000  1.0
  Zn  Zn3  1  0.19295000  0.19295000  0.82430000  1.0
  Zn  Zn4  1  0.69296000  0.69296000  0.17570000  1.0
  Zn  Zn5  1  0.80705000  0.80705000  0.17570000  1.0
  Zn  Zn6  1  0.69295000  0.80704000  0.67570000  1.0
  Zn  Zn7  1  0.80705000  0.69295000  0.67570000  1.0
  Zn  Zn8  1  0.30688000  0.30688000  0.26742000  1.0
  Zn  Zn9  1  0.19312000  0.19312000  0.26742000  1.0
  Zn  Zn10  1  0.19312000  0.30688000  0.76742000  1.0
  Zn  Zn11  1  0.30688000  0.19312000  0.76742000  1.0
  Zn  Zn12  1  0.69312000  0.80688000  0.23258000  1.0
  Zn  Zn13  1  0.80688000  0.69312000  0.23258000  1.0
  Zn  Zn14  1  0.80688000  0.80688000  0.73258000  1.0
  Zn  Zn15  1  0.69312000  0.69312000  0.73258000  1.0
  H  H16  1  0.51414000  0.32815000  0.25835000  1.0
  H  H17  1  0.98586000  0.17185000  0.25835000  1.0
  H  H18  1  0.17185000  0.51414000  0.75835000  1.0
  H  H19  1  0.32815000  0.98586000  0.75835000  1.0
  H  H20  1  0.48586000  0.82815000  0.24165000  1.0
  H  H21  1  0.01414000  0.67185000  0.24165000  1.0
  H  H22  1  0.82815000  0.01414000  0.74165000  1.0
  H  H23  1  0.67185000  0.48586000  0.74165000  1.0
  H  H24  1  0.48586000  0.67185000  0.74165000  1.0
  H  H25  1  0.01414000  0.82815000  0.74165000  1.0
  H  H26  1  0.82815000  0.48586000  0.24165000  1.0
  H  H27  1  0.67185000  0.01414000  0.24165000  1.0
  H  H28  1  0.51415000  0.17185000  0.75835000  1.0
  H  H29  1  0.98586000  0.32815000  0.75835000  1.0
  H  H30  1  0.17185000  0.98586000  0.25835000  1.0
  H  H31  1  0.32815000  0.51414000  0.25835000  1.0
  H  H32  1  0.63981000  0.32891000  0.25818000  1.0
  H  H33  1  0.86019000  0.17109000  0.25818000  1.0
  H  H34  1  0.17109000  0.63981000  0.75818000  1.0
  H  H35  1  0.32891000  0.86019000  0.75818000  1.0
  H  H36  1  0.36019000  0.82891000  0.24182000  1.0
  H  H37  1  0.13981000  0.67109000  0.24182000  1.0
  H  H38  1  0.82891000  0.13981000  0.74182000  1.0
  H  H39  1  0.67109000  0.36019000  0.74182000  1.0
  H  H40  1  0.36019000  0.67109000  0.74182000  1.0
  H  H41  1  0.13981000  0.82891000  0.74182000  1.0
  H  H42  1  0.82891000  0.36019000  0.24182000  1.0
  H  H43  1  0.67109000  0.13981000  0.24182000  1.0
  H  H44  1  0.63981000  0.17109000  0.75818000  1.0
  H  H45  1  0.86019000  0.32891000  0.75818000  1.0
  H  H46  1  0.17109000  0.86019000  0.25818000  1.0
  H  H47  1  0.32891000  0.63981000  0.25818000  1.0
  H  H48  1  0.64018000  0.17204000  0.33306000  1.0
  H  H49  1  0.85982000  0.32796000  0.33306000  1.0
  H  H50  1  0.32796000  0.64018000  0.83306000  1.0
  H  H51  1  0.17204000  0.85982000  0.83306000  1.0
  H  H52  1  0.35982000  0.67204000  0.16694000  1.0
  H  H53  1  0.14018000  0.82796000  0.16694000  1.0
  H  H54  1  0.67204000  0.14018000  0.66694000  1.0
  H  H55  1  0.82796000  0.35982000  0.66694000  1.0
  H  H56  1  0.35982000  0.82796000  0.66694000  1.0
  H  H57  1  0.14018000  0.67204000  0.66694000  1.0
  H  H58  1  0.67204000  0.35982000  0.16694000  1.0
  H  H59  1  0.82796000  0.14018000  0.16694000  1.0
  H  H60  1  0.64018000  0.32796000  0.83306000  1.0
  H  H61  1  0.85982000  0.17204000  0.83306000  1.0
  H  H62  1  0.32796000  0.85982000  0.33306000  1.0
  H  H63  1  0.17204000  0.64018000  0.33306000  1.0
  H  H64  1  0.51452000  0.17227000  0.33305000  1.0
  H  H65  1  0.98548000  0.32773000  0.33305000  1.0
  H  H66  1  0.32773000  0.51452000  0.83305000  1.0
  H  H67  1  0.17227000  0.98548000  0.83305000  1.0
  H  H68  1  0.48548000  0.67227000  0.16695000  1.0
  H  H69  1  0.01452000  0.82773000  0.16695000  1.0
  H  H70  1  0.67227000  0.01452000  0.66695000  1.0
  H  H71  1  0.82773000  0.48548000  0.66695000  1.0
  H  H72  1  0.48548000  0.82773000  0.66695000  1.0
  H  H73  1  0.01452000  0.67227000  0.66695000  1.0
  H  H74  1  0.67227000  0.48548000  0.16695000  1.0
  H  H75  1  0.82773000  0.01452000  0.16695000  1.0
  H  H76  1  0.51452000  0.32773000  0.83305000  1.0
  H  H77  1  0.98548000  0.17227000  0.83305000  1.0
  H  H78  1  0.32773000  0.98548000  0.33305000  1.0
  H  H79  1  0.17227000  0.51452000  0.33305000  1.0
  H  H80  1  0.32632000  0.17368000  0.42798000  1.0
  H  H81  1  0.17368000  0.32632000  0.42798000  1.0
  H  H82  1  0.32632000  0.32632000  0.92798000  1.0
  H  H83  1  0.17369000  0.17369000  0.92798000  1.0
  H  H84  1  0.67369000  0.67369000  0.07202000  1.0
  H  H85  1  0.82632000  0.82632000  0.07202000  1.0
  H  H86  1  0.67368000  0.82632000  0.57202000  1.0
  H  H87  1  0.82631000  0.67368000  0.57202000  1.0
  H  H88  1  0.32666000  0.17334000  0.49081000  1.0
  H  H89  1  0.17334000  0.32666000  0.49081000  1.0
  H  H90  1  0.32666000  0.32666000  0.99081000  1.0
  H  H91  1  0.17334000  0.17334000  0.99081000  1.0
  H  H92  1  0.67334000  0.67334000  0.00919000  1.0
  H  H93  1  0.82666000  0.82666000  0.00919000  1.0
  H  H94  1  0.67334000  0.82666000  0.50919000  1.0
  H  H95  1  0.82666000  0.67334000  0.50919000  1.0
  H  H96  1  0.32665000  0.17335000  0.60091000  1.0
  H  H97  1  0.17335000  0.32665000  0.60091000  1.0
  H  H98  1  0.32665000  0.32665000  0.10091000  1.0
  H  H99  1  0.17335000  0.17335000  0.10091000  1.0
  H  H100  1  0.67335000  0.67335000  0.89909000  1.0
  H  H101  1  0.82665000  0.82665000  0.89909000  1.0
  H  H102  1  0.67335000  0.82665000  0.39909000  1.0
  H  H103  1  0.82665000  0.67335000  0.39909000  1.0
  H  H104  1  0.32633000  0.17367000  0.66375000  1.0
  H  H105  1  0.17367000  0.32633000  0.66375000  1.0
  H  H106  1  0.32633000  0.32633000  0.16375000  1.0
  H  H107  1  0.17367000  0.17367000  0.16375000  1.0
  H  H108  1  0.67367000  0.67367000  0.83625000  1.0
  H  H109  1  0.82633000  0.82633000  0.83625000  1.0
  H  H110  1  0.67367000  0.82633000  0.33625000  1.0
  H  H111  1  0.82633000  0.67367000  0.33625000  1.0
  C  C112  1  0.43200000  0.24995000  0.29574000  1.0
  C  C113  1  0.06800000  0.25005000  0.29574000  1.0
  C  C114  1  0.25004000  0.43200000  0.79574000  1.0
  C  C115  1  0.24995000  0.06800000  0.79574000  1.0
  C  C116  1  0.56800000  0.74996000  0.20426000  1.0
  C  C117  1  0.93200000  0.75004000  0.20426000  1.0
  C  C118  1  0.74995000  0.93200000  0.70426000  1.0
  C  C119  1  0.75004000  0.56800000  0.70426000  1.0
  C  C120  1  0.56800000  0.75005000  0.70426000  1.0
  C  C121  1  0.93200000  0.74996000  0.70426000  1.0
  C  C122  1  0.74996000  0.56800000  0.20426000  1.0
  C  C123  1  0.75005000  0.93200000  0.20426000  1.0
  C  C124  1  0.43200000  0.25004000  0.79574000  1.0
  C  C125  1  0.06800000  0.24995000  0.79574000  1.0
  C  C126  1  0.25005000  0.06800000  0.29574000  1.0
  C  C127  1  0.24995000  0.43200000  0.29574000  1.0
  C  C128  1  0.50696000  0.25011000  0.29566000  1.0
  C  C129  1  0.99304000  0.24990000  0.29566000  1.0
  C  C130  1  0.24989000  0.50696000  0.79566000  1.0
  C  C131  1  0.25010000  0.99304000  0.79566000  1.0
  C  C132  1  0.49304000  0.75011000  0.20434000  1.0
  C  C133  1  0.00696000  0.74989000  0.20434000  1.0
  C  C134  1  0.75010000  0.00696000  0.70434000  1.0
  C  C135  1  0.74990000  0.49304000  0.70434000  1.0
  C  C136  1  0.49304000  0.74989000  0.70434000  1.0
  C  C137  1  0.00696000  0.75011000  0.70434000  1.0
  C  C138  1  0.75011000  0.49304000  0.20434000  1.0
  C  C139  1  0.74989000  0.00696000  0.20434000  1.0
  C  C140  1  0.50696000  0.24989000  0.79566000  1.0
  C  C141  1  0.99304000  0.25010000  0.79566000  1.0
  C  C142  1  0.24990000  0.99304000  0.29566000  1.0
  C  C143  1  0.25010000  0.50696000  0.29566000  1.0
  C  C144  1  0.54235000  0.29426000  0.27458000  1.0
  C  C145  1  0.95765000  0.20574000  0.27458000  1.0
  C  C146  1  0.20574000  0.54235000  0.77458000  1.0
  C  C147  1  0.29426000  0.95765000  0.77458000  1.0
  C  C148  1  0.45765000  0.79426000  0.22542000  1.0
  C  C149  1  0.04235000  0.70574000  0.22542000  1.0
  C  C150  1  0.79426000  0.04235000  0.72542000  1.0
  C  C151  1  0.70574000  0.45765000  0.72542000  1.0
  C  C152  1  0.45765000  0.70574000  0.72542000  1.0
  C  C153  1  0.04235000  0.79426000  0.72542000  1.0
  C  C154  1  0.79426000  0.45765000  0.22542000  1.0
  C  C155  1  0.70574000  0.04235000  0.22542000  1.0
  C  C156  1  0.54235000  0.20574000  0.77458000  1.0
  C  C157  1  0.95765000  0.29426000  0.77458000  1.0
  C  C158  1  0.20574000  0.95765000  0.27458000  1.0
  C  C159  1  0.29426000  0.54235000  0.27458000  1.0
  C  C160  1  0.61215000  0.29468000  0.27449000  1.0
  C  C161  1  0.88785000  0.20532000  0.27449000  1.0
  C  C162  1  0.20532000  0.61215000  0.77449000  1.0
  C  C163  1  0.29468000  0.88784000  0.77449000  1.0
  C  C164  1  0.38785000  0.79468000  0.22551000  1.0
  C  C165  1  0.11216000  0.70532000  0.22551000  1.0
  C  C166  1  0.79468000  0.11215000  0.72551000  1.0
  C  C167  1  0.70532000  0.38784000  0.72551000  1.0
  C  C168  1  0.38785000  0.70532000  0.72551000  1.0
  C  C169  1  0.11215000  0.79468000  0.72551000  1.0
  C  C170  1  0.79468000  0.38784000  0.22551000  1.0
  C  C171  1  0.70532000  0.11215000  0.22551000  1.0
  C  C172  1  0.61216000  0.20532000  0.77449000  1.0
  C  C173  1  0.88785000  0.29468000  0.77449000  1.0
  C  C174  1  0.20532000  0.88784000  0.27449000  1.0
  C  C175  1  0.29468000  0.61216000  0.27449000  1.0
  C  C176  1  0.64816000  0.25044000  0.29560000  1.0
  C  C177  1  0.85184000  0.24956000  0.29560000  1.0
  C  C178  1  0.24956000  0.64816000  0.79560000  1.0
  C  C179  1  0.25044000  0.85184000  0.79560000  1.0
  C  C180  1  0.35184000  0.75044000  0.20440000  1.0
  C  C181  1  0.14816000  0.74956000  0.20440000  1.0
  C  C182  1  0.75044000  0.14816000  0.70440000  1.0
  C  C183  1  0.74956000  0.35184000  0.70440000  1.0
  C  C184  1  0.35184000  0.74956000  0.70440000  1.0
  C  C185  1  0.14816000  0.75044000  0.70440000  1.0
  C  C186  1  0.75044000  0.35184000  0.20440000  1.0
  C  C187  1  0.74956000  0.14816000  0.20440000  1.0
  C  C188  1  0.64816000  0.24956000  0.79560000  1.0
  C  C189  1  0.85184000  0.25044000  0.79560000  1.0
  C  C190  1  0.24956000  0.85184000  0.29560000  1.0
  C  C191  1  0.25044000  0.64816000  0.29560000  1.0
  C  C192  1  0.61232000  0.20607000  0.31672000  1.0
  C  C193  1  0.88768000  0.29393000  0.31672000  1.0
  C  C194  1  0.29393000  0.61232000  0.81672000  1.0
  C  C195  1  0.20607000  0.88768000  0.81672000  1.0
  C  C196  1  0.38768000  0.70607000  0.18328000  1.0
  C  C197  1  0.11232000  0.79393000  0.18328000  1.0
  C  C198  1  0.70607000  0.11232000  0.68328000  1.0
  C  C199  1  0.79394000  0.38768000  0.68328000  1.0
  C  C200  1  0.38768000  0.79393000  0.68328000  1.0
  C  C201  1  0.11232000  0.70607000  0.68328000  1.0
  C  C202  1  0.70607000  0.38768000  0.18328000  1.0
  C  C203  1  0.79393000  0.11232000  0.18328000  1.0
  C  C204  1  0.61232000  0.29393000  0.81672000  1.0
  C  C205  1  0.88768000  0.20607000  0.81672000  1.0
  C  C206  1  0.29393000  0.88768000  0.31672000  1.0
  C  C207  1  0.20607000  0.61232000  0.31672000  1.0
  C  C208  1  0.54255000  0.20614000  0.31673000  1.0
  C  C209  1  0.95745000  0.29386000  0.31673000  1.0
  C  C210  1  0.29386000  0.54255000  0.81673000  1.0
  C  C211  1  0.20614000  0.95745000  0.81673000  1.0
  C  C212  1  0.45745000  0.70614000  0.18327000  1.0
  C  C213  1  0.04255000  0.79386000  0.18327000  1.0
  C  C214  1  0.70614000  0.04255000  0.68327000  1.0
  C  C215  1  0.79386000  0.45745000  0.68327000  1.0
  C  C216  1  0.45745000  0.79386000  0.68327000  1.0
  C  C217  1  0.04255000  0.70614000  0.68327000  1.0
  C  C218  1  0.70614000  0.45745000  0.18327000  1.0
  C  C219  1  0.79386000  0.04255000  0.18327000  1.0
  C  C220  1  0.54255000  0.29386000  0.81673000  1.0
  C  C221  1  0.95745000  0.20614000  0.81673000  1.0
  C  C222  1  0.29386000  0.95745000  0.31673000  1.0
  C  C223  1  0.20614000  0.54255000  0.31673000  1.0
  C  C224  1  0.71936000  0.25034000  0.29566000  1.0
  C  C225  1  0.78064000  0.24966000  0.29566000  1.0
  C  C226  1  0.24966000  0.71936000  0.79566000  1.0
  C  C227  1  0.25034000  0.78064000  0.79566000  1.0
  C  C228  1  0.28064000  0.75034000  0.20434000  1.0
  C  C229  1  0.21936000  0.74966000  0.20434000  1.0
  C  C230  1  0.75034000  0.21936000  0.70434000  1.0
  C  C231  1  0.74966000  0.28064000  0.70434000  1.0
  C  C232  1  0.28064000  0.74966000  0.70434000  1.0
  C  C233  1  0.21936000  0.75034000  0.70434000  1.0
  C  C234  1  0.75034000  0.28064000  0.20434000  1.0
  C  C235  1  0.74966000  0.21936000  0.20434000  1.0
  C  C236  1  0.71936000  0.24966000  0.79566000  1.0
  C  C237  1  0.78064000  0.25034000  0.79566000  1.0
  C  C238  1  0.24966000  0.78064000  0.29566000  1.0
  C  C239  1  0.25034000  0.71936000  0.29566000  1.0
  C  C240  1  0.25000000  0.25000000  0.38683000  1.0
  C  C241  1  0.25000000  0.25000000  0.88683000  1.0
  C  C242  1  0.75000000  0.75000000  0.11317000  1.0
  C  C243  1  0.74999000  0.75000000  0.61317000  1.0
  C  C244  1  0.25000000  0.25000000  0.42431000  1.0
  C  C245  1  0.25000000  0.25000000  0.92431000  1.0
  C  C246  1  0.75000000  0.75000000  0.07569000  1.0
  C  C247  1  0.75000000  0.75000000  0.57569000  1.0
  C  C248  1  0.29312000  0.20688000  0.44206000  1.0
  C  C249  1  0.20688000  0.29312000  0.44206000  1.0
  C  C250  1  0.29312000  0.29312000  0.94206000  1.0
  C  C251  1  0.20688000  0.20688000  0.94206000  1.0
  C  C252  1  0.70688000  0.70688000  0.05794000  1.0
  C  C253  1  0.79312000  0.79312000  0.05794000  1.0
  C  C254  1  0.70688000  0.79312000  0.55794000  1.0
  C  C255  1  0.79312000  0.70688000  0.55794000  1.0
  C  C256  1  0.29326000  0.20674000  0.47694000  1.0
  C  C257  1  0.20674000  0.29326000  0.47694000  1.0
  C  C258  1  0.29326000  0.29326000  0.97694000  1.0
  C  C259  1  0.20674000  0.20674000  0.97694000  1.0
  C  C260  1  0.70674000  0.70674000  0.02306000  1.0
  C  C261  1  0.79326000  0.79326000  0.02306000  1.0
  C  C262  1  0.70674000  0.79326000  0.52306000  1.0
  C  C263  1  0.79326000  0.70674000  0.52306000  1.0
  C  C264  1  0.25000000  0.25000000  0.49499000  1.0
  C  C265  1  0.25000000  0.25000000  0.99499000  1.0
  C  C266  1  0.75000000  0.75000000  0.00501000  1.0
  C  C267  1  0.75000000  0.75000000  0.50501000  1.0
  C  C268  1  0.25000000  0.25000000  0.53053000  1.0
  C  C269  1  0.25000000  0.25000000  0.03052000  1.0
  C  C270  1  0.75000000  0.75000000  0.96948000  1.0
  C  C271  1  0.75000000  0.75000000  0.46947000  1.0
  C  C272  1  0.25000000  0.25000000  0.56123000  1.0
  C  C273  1  0.25000000  0.25000000  0.06123000  1.0
  C  C274  1  0.75000000  0.75000000  0.93877000  1.0
  C  C275  1  0.75000000  0.75000000  0.43877000  1.0
  C  C276  1  0.25000000  0.25000000  0.59675000  1.0
  C  C277  1  0.25000000  0.25000000  0.09675000  1.0
  C  C278  1  0.75000000  0.75000000  0.90325000  1.0
  C  C279  1  0.75000000  0.75000000  0.40325000  1.0
  C  C280  1  0.29326000  0.20674000  0.61479000  1.0
  C  C281  1  0.20674000  0.29327000  0.61480000  1.0
  C  C282  1  0.29327000  0.29326000  0.11479000  1.0
  C  C283  1  0.20674000  0.20673000  0.11479000  1.0
  C  C284  1  0.70673000  0.70674000  0.88521000  1.0
  C  C285  1  0.79326000  0.79327000  0.88521000  1.0
  C  C286  1  0.70674000  0.79327000  0.38521000  1.0
  C  C287  1  0.79327000  0.70674000  0.38520000  1.0
  C  C288  1  0.29312000  0.20688000  0.64968000  1.0
  C  C289  1  0.20688000  0.29312000  0.64968000  1.0
  C  C290  1  0.29312000  0.29312000  0.14968000  1.0
  C  C291  1  0.20688000  0.20688000  0.14968000  1.0
  C  C292  1  0.70688000  0.70688000  0.85032000  1.0
  C  C293  1  0.79312000  0.79312000  0.85032000  1.0
  C  C294  1  0.70688000  0.79312000  0.35032000  1.0
  C  C295  1  0.79312000  0.70688000  0.35032000  1.0
  C  C296  1  0.25000000  0.25000000  0.66744000  1.0
  C  C297  1  0.25000000  0.25000000  0.16744000  1.0
  C  C298  1  0.75000000  0.75000000  0.83256000  1.0
  C  C299  1  0.75000000  0.75000000  0.33256000  1.0
  C  C300  1  0.25000000  0.25000000  0.70491000  1.0
  C  C301  1  0.25000000  0.25000000  0.20491000  1.0
  C  C302  1  0.75000000  0.75000000  0.79509000  1.0
  C  C303  1  0.75000000  0.75000000  0.29509000  1.0
  O  O304  1  0.24999000  0.24999000  0.29593000  1.0
  O  O305  1  0.24999000  0.25000000  0.79593000  1.0
  O  O306  1  0.75000000  0.75001000  0.20407000  1.0
  O  O307  1  0.75001000  0.75000000  0.70406000  1.0
  O  O308  1  0.40282000  0.29048000  0.27555000  1.0
  O  O309  1  0.09718000  0.20952000  0.27555000  1.0
  O  O310  1  0.20951000  0.40282000  0.77555000  1.0
  O  O311  1  0.29048000  0.09718000  0.77555000  1.0
  O  O312  1  0.59718000  0.79049000  0.22445000  1.0
  O  O313  1  0.90282000  0.70951000  0.22445000  1.0
  O  O314  1  0.79048000  0.90281000  0.72445000  1.0
  O  O315  1  0.70952000  0.59718000  0.72445000  1.0
  O  O316  1  0.59719000  0.70952000  0.72445000  1.0
  O  O317  1  0.90282000  0.79049000  0.72445000  1.0
  O  O318  1  0.79048000  0.59718000  0.22445000  1.0
  O  O319  1  0.70952000  0.90282000  0.22445000  1.0
  O  O320  1  0.40281000  0.20951000  0.77555000  1.0
  O  O321  1  0.09718000  0.29048000  0.77555000  1.0
  O  O322  1  0.20951000  0.09718000  0.27555000  1.0
  O  O323  1  0.29048000  0.40281000  0.27555000  1.0
  O  O324  1  0.40303000  0.20933000  0.31598000  1.0
  O  O325  1  0.09697000  0.29067000  0.31598000  1.0
  O  O326  1  0.29067000  0.40303000  0.81598000  1.0
  O  O327  1  0.20932000  0.09697000  0.81598000  1.0
  O  O328  1  0.59697000  0.70933000  0.18402000  1.0
  O  O329  1  0.90303000  0.79067000  0.18402000  1.0
  O  O330  1  0.70932000  0.90303000  0.68402000  1.0
  O  O331  1  0.79067000  0.59697000  0.68402000  1.0
  O  O332  1  0.59697000  0.79068000  0.68402000  1.0
  O  O333  1  0.90303000  0.70933000  0.68402000  1.0
  O  O334  1  0.70933000  0.59697000  0.18402000  1.0
  O  O335  1  0.79067000  0.90303000  0.18402000  1.0
  O  O336  1  0.40303000  0.29067000  0.81598000  1.0
  O  O337  1  0.09697000  0.20932000  0.81598000  1.0
  O  O338  1  0.29067000  0.09697000  0.31598000  1.0
  O  O339  1  0.20933000  0.40303000  0.31598000  1.0
  O  O340  1  0.29050000  0.20950000  0.37228000  1.0
  O  O341  1  0.20950000  0.29050000  0.37228000  1.0
  O  O342  1  0.29050000  0.29050000  0.87228000  1.0
  O  O343  1  0.20950000  0.20950000  0.87228000  1.0
  O  O344  1  0.70950000  0.70950000  0.12772000  1.0
  O  O345  1  0.79050000  0.79050000  0.12772000  1.0
  O  O346  1  0.70950000  0.79050000  0.62772000  1.0
  O  O347  1  0.79049000  0.70950000  0.62772000  1.0
  O  O348  1  0.29050000  0.20950000  0.71945000  1.0
  O  O349  1  0.20950000  0.29050000  0.71945000  1.0
  O  O350  1  0.29050000  0.29050000  0.21945000  1.0
  O  O351  1  0.20950000  0.20950000  0.21944000  1.0
  O  O352  1  0.70950000  0.70950000  0.78055000  1.0
  O  O353  1  0.79050000  0.79050000  0.78055000  1.0
  O  O354  1  0.70951000  0.79050000  0.28055000  1.0
  O  O355  1  0.79050000  0.70950000  0.28055000  1.0
