# generated using pymatgen
data_GdH16C15O11
_symmetry_space_group_name_H-M   'P 1'
_cell_length_a   7.53252000
_cell_length_b   9.39319000
_cell_length_c   13.05050000
_cell_angle_alpha   102.55200000
_cell_angle_beta   99.51360000
_cell_angle_gamma   107.69100000
_symmetry_Int_Tables_number   1
_chemical_formula_structural   GdH16C15O11
_chemical_formula_sum   'Gd2 H32 C30 O22'
_cell_volume   831.69621164
_cell_formula_units_Z   2
loop_
 _symmetry_equiv_pos_site_id
 _symmetry_equiv_pos_as_xyz
  1  'x, y, z'
loop_
 _atom_site_type_symbol
 _atom_site_label
 _atom_site_symmetry_multiplicity
 _atom_site_fract_x
 _atom_site_fract_y
 _atom_site_fract_z
 _atom_site_occupancy
  Gd  Gd0  1  0.64771000  0.21492000  0.01159000  1.0
  Gd  Gd1  1  0.35228000  0.78508000  0.98841000  1.0
  H  H2  1  0.28176000  0.24413000  0.27974000  1.0
  H  H3  1  0.71824000  0.75587000  0.72025000  1.0
  H  H4  1  0.08232000  0.22000000  0.17739000  1.0
  H  H5  1  0.91768000  0.77999000  0.82261000  1.0
  H  H6  1  0.88991000  0.76935000  0.26138000  1.0
  H  H7  1  0.11009000  0.23065000  0.73862000  1.0
  H  H8  1  0.95073000  0.68679000  0.43114000  1.0
  H  H9  1  0.04928000  0.31320000  0.56886000  1.0
  H  H10  1  0.42520000  0.12186000  0.57572000  1.0
  H  H11  1  0.57481000  0.87813000  0.42428000  1.0
  H  H12  1  0.35717000  0.20424000  0.41462000  1.0
  H  H13  1  0.64283000  0.79575000  0.58538000  1.0
  H  H14  1  0.29262000  0.06360000  0.71642000  1.0
  H  H15  1  0.70738000  0.93640000  0.28358000  1.0
  H  H16  1  0.48265000  0.99112000  0.70275000  1.0
  H  H17  1  0.51735000  0.00888000  0.29725000  1.0
  H  H18  1  0.35543000  0.36738000  0.72003000  1.0
  H  H19  1  0.64458000  0.63263000  0.27997000  1.0
  H  H20  1  0.52654000  0.55033000  0.80484000  1.0
  H  H21  1  0.47345000  0.44967000  0.19516000  1.0
  H  H22  1  0.33787000  0.54938000  0.64830000  1.0
  H  H23  1  0.66213000  0.45061000  0.35169000  1.0
  H  H24  1  0.76627000  0.39652000  0.52285000  1.0
  H  H25  1  0.23373000  0.60347000  0.47715000  1.0
  H  H26  1  0.07304000  0.39603000  0.00106000  1.0
  H  H27  1  0.92696000  0.60397000  0.99895000  1.0
  H  H28  1  0.99232000  0.21439000  0.97492000  1.0
  H  H29  1  0.00768000  0.78561000  0.02508000  1.0
  H  H30  1  0.69529000  0.56667000  0.08976000  1.0
  H  H31  1  0.30471000  0.43334000  0.91024000  1.0
  H  H32  1  0.88524000  0.54507000  0.15426000  1.0
  H  H33  1  0.11476000  0.45494000  0.84573000  1.0
  C  C34  1  0.27142000  0.10787000  0.12223000  1.0
  C  C35  1  0.72857000  0.89213000  0.87777000  1.0
  C  C36  1  0.17241000  0.15874000  0.20875000  1.0
  C  C37  1  0.82759000  0.84126000  0.79125000  1.0
  C  C38  1  0.11530000  0.99166000  0.32658000  1.0
  C  C39  1  0.88470000  0.00833000  0.67342000  1.0
  C  C40  1  0.00660000  0.84417000  0.33177000  1.0
  C  C41  1  0.99340000  0.15584000  0.66823000  1.0
  C  C42  1  0.04114000  0.79838000  0.42513000  1.0
  C  C43  1  0.95886000  0.20162000  0.57487000  1.0
  C  C44  1  0.18938000  0.89884000  0.51523000  1.0
  C  C45  1  0.81063000  0.10116000  0.48478000  1.0
  C  C46  1  0.30485000  0.04284000  0.50863000  1.0
  C  C47  1  0.69515000  0.95716000  0.49137000  1.0
  C  C48  1  0.26726000  0.08937000  0.41485000  1.0
  C  C49  1  0.73275000  0.91064000  0.58515000  1.0
  C  C50  1  0.32868000  0.95692000  0.70338000  1.0
  C  C51  1  0.67131000  0.04308000  0.29662000  1.0
  C  C52  1  0.30544000  0.89537000  0.80022000  1.0
  C  C53  1  0.69456000  0.10463000  0.19978000  1.0
  C  C54  1  0.55762000  0.35157000  0.84612000  1.0
  C  C55  1  0.44238000  0.64844000  0.15388000  1.0
  C  C56  1  0.50860000  0.42956000  0.76226000  1.0
  C  C57  1  0.49141000  0.57045000  0.23774000  1.0
  C  C58  1  0.55945000  0.46645000  0.59632000  1.0
  C  C59  1  0.44055000  0.53355000  0.40368000  1.0
  C  C60  1  0.40802000  0.52417000  0.58358000  1.0
  C  C61  1  0.59198000  0.47583000  0.41642000  1.0
  C  C62  1  0.65147000  0.44382000  0.51300000  1.0
  C  C63  1  0.34853000  0.55618000  0.48700000  1.0
  O  O64  1  0.39905000  0.21512000  0.10229000  1.0
  O  O65  1  0.60094000  0.78488000  0.89771000  1.0
  O  O66  1  0.22083000  0.96314000  0.07580000  1.0
  O  O67  1  0.77917000  0.03686000  0.92420000  1.0
  O  O68  1  0.05106000  0.03018000  0.23477000  1.0
  O  O69  1  0.94895000  0.96982000  0.76523000  1.0
  O  O70  1  0.20920000  0.84518000  0.60541000  1.0
  O  O71  1  0.79080000  0.15482000  0.39459000  1.0
  O  O72  1  0.39165000  0.99626000  0.89405000  1.0
  O  O73  1  0.60834000  0.00374000  0.10595000  1.0
  O  O74  1  0.21682000  0.75501000  0.79337000  1.0
  O  O75  1  0.78317000  0.24499000  0.20663000  1.0
  O  O76  1  0.44991000  0.33976000  0.91366000  1.0
  O  O77  1  0.55009000  0.66024000  0.08634000  1.0
  O  O78  1  0.69474000  0.30063000  0.85198000  1.0
  O  O79  1  0.30526000  0.69938000  0.14802000  1.0
  O  O80  1  0.62370000  0.42631000  0.68696000  1.0
  O  O81  1  0.37631000  0.57370000  0.31304000  1.0
  O  O82  1  0.00297000  0.31090000  0.02808000  1.0
  O  O83  1  0.99703000  0.68910000  0.97193000  1.0
  O  O84  1  0.78380000  0.50268000  0.08715000  1.0
  O  O85  1  0.21620000  0.49733000  0.91284000  1.0
