# generated using pymatgen
data_CuH6C13NO4F
_symmetry_space_group_name_H-M   'P 1'
_cell_length_a   10.55170000
_cell_length_b   11.05030000
_cell_length_c   14.72860000
_cell_angle_alpha   89.99990000
_cell_angle_beta   71.83900000
_cell_angle_gamma   89.99940000
_symmetry_Int_Tables_number   1
_chemical_formula_structural   CuH6C13NO4F
_chemical_formula_sum   'Cu4 H24 C52 N4 O16 F4'
_cell_volume   1631.79606544
_cell_formula_units_Z   4
loop_
 _symmetry_equiv_pos_site_id
 _symmetry_equiv_pos_as_xyz
  1  'x, y, z'
loop_
 _atom_site_type_symbol
 _atom_site_label
 _atom_site_symmetry_multiplicity
 _atom_site_fract_x
 _atom_site_fract_y
 _atom_site_fract_z
 _atom_site_occupancy
  Cu  Cu0  1  0.59126000  0.91838000  0.98867000  1.0
  Cu  Cu1  1  0.40873000  0.41838000  0.51133000  1.0
  Cu  Cu2  1  0.40873000  0.08164000  0.01133000  1.0
  Cu  Cu3  1  0.59126000  0.58163000  0.48867000  1.0
  H  H4  1  0.53603000  0.27013000  0.23005000  1.0
  H  H5  1  0.46396000  0.77014000  0.26994000  1.0
  H  H6  1  0.46397000  0.72986000  0.76996000  1.0
  H  H7  1  0.53603000  0.22986000  0.73004000  1.0
  H  H8  1  0.89692000  0.44897000  0.23167000  1.0
  H  H9  1  0.10307000  0.94897000  0.26832000  1.0
  H  H10  1  0.10308000  0.55103000  0.76833000  1.0
  H  H11  1  0.89693000  0.05103000  0.73167000  1.0
  H  H12  1  0.90588000  0.18140000  0.01525000  1.0
  H  H13  1  0.09412000  0.68141000  0.48476000  1.0
  H  H14  1  0.09413000  0.81860000  0.98477000  1.0
  H  H15  1  0.90588000  0.31860000  0.51524000  1.0
  H  H16  1  0.06502000  0.53243000  0.08075000  1.0
  H  H17  1  0.93498000  0.03243000  0.41925000  1.0
  H  H18  1  0.93500000  0.46757000  0.91925000  1.0
  H  H19  1  0.06501000  0.96757000  0.58074000  1.0
  H  H20  1  0.44843000  0.35550000  0.97939000  1.0
  H  H21  1  0.55157000  0.85550000  0.52061000  1.0
  H  H22  1  0.55158000  0.64450000  0.02060000  1.0
  H  H23  1  0.44843000  0.14449000  0.47939000  1.0
  H  H24  1  0.10798000  0.14222000  0.06315000  1.0
  H  H25  1  0.89203000  0.64222000  0.43685000  1.0
  H  H26  1  0.89203000  0.85777000  0.93686000  1.0
  H  H27  1  0.10797000  0.35777000  0.56314000  1.0
  C  C28  1  0.63968000  0.13520000  0.07224000  1.0
  C  C29  1  0.36032000  0.63521000  0.42775000  1.0
  C  C30  1  0.36032000  0.86480000  0.92776000  1.0
  C  C31  1  0.63968000  0.36480000  0.57224000  1.0
  C  C32  1  0.71384000  0.21924000  0.11700000  1.0
  C  C33  1  0.28615000  0.71925000  0.38300000  1.0
  C  C34  1  0.28616000  0.78075000  0.88301000  1.0
  C  C35  1  0.71384000  0.28075000  0.61699000  1.0
  C  C36  1  0.64294000  0.28374000  0.19839000  1.0
  C  C37  1  0.35706000  0.78375000  0.30161000  1.0
  C  C38  1  0.35706000  0.71625000  0.80162000  1.0
  C  C39  1  0.64294000  0.21625000  0.69838000  1.0
  C  C40  1  0.70989000  0.36448000  0.24042000  1.0
  C  C41  1  0.29010000  0.86449000  0.25958000  1.0
  C  C42  1  0.29011000  0.63552000  0.75959000  1.0
  C  C43  1  0.70990000  0.13552000  0.74042000  1.0
  C  C44  1  0.63524000  0.42293000  0.33349000  1.0
  C  C45  1  0.36475000  0.92293000  0.16651000  1.0
  C  C46  1  0.36476000  0.57708000  0.66652000  1.0
  C  C47  1  0.63524000  0.07708000  0.83349000  1.0
  C  C48  1  0.84653000  0.38490000  0.19829000  1.0
  C  C49  1  0.15346000  0.88491000  0.30171000  1.0
  C  C50  1  0.15348000  0.61510000  0.80172000  1.0
  C  C51  1  0.84653000  0.11510000  0.69829000  1.0
  C  C52  1  0.91879000  0.31893000  0.11727000  1.0
  C  C53  1  0.08121000  0.81893000  0.38273000  1.0
  C  C54  1  0.08122000  0.68107000  0.88274000  1.0
  C  C55  1  0.91879000  0.18107000  0.61727000  1.0
  C  C56  1  0.85175000  0.23405000  0.07801000  1.0
  C  C57  1  0.14825000  0.73406000  0.42199000  1.0
  C  C58  1  0.14826000  0.76594000  0.92200000  1.0
  C  C59  1  0.85175000  0.26595000  0.57800000  1.0
  C  C60  1  0.06457000  0.33488000  0.07649000  1.0
  C  C61  1  0.93543000  0.83489000  0.42352000  1.0
  C  C62  1  0.93544000  0.66511000  0.92352000  1.0
  C  C63  1  0.06457000  0.16511000  0.57648000  1.0
  C  C64  1  0.12417000  0.44974000  0.06397000  1.0
  C  C65  1  0.87582000  0.94974000  0.43603000  1.0
  C  C66  1  0.87584000  0.55026000  0.93603000  1.0
  C  C67  1  0.12417000  0.05026000  0.56396000  1.0
  C  C68  1  0.26221000  0.45553000  0.02828000  1.0
  C  C69  1  0.73778000  0.95553000  0.47172000  1.0
  C  C70  1  0.73780000  0.54447000  0.97171000  1.0
  C  C71  1  0.26221000  0.04446000  0.52828000  1.0
  C  C72  1  0.33982000  0.35144000  0.00601000  1.0
  C  C73  1  0.66018000  0.85144000  0.49399000  1.0
  C  C74  1  0.66019000  0.64856000  0.99399000  1.0
  C  C75  1  0.33982000  0.14855000  0.50600000  1.0
  C  C76  1  0.14887000  0.23368000  0.05247000  1.0
  C  C77  1  0.85113000  0.73369000  0.44753000  1.0
  C  C78  1  0.85113000  0.76631000  0.94753000  1.0
  C  C79  1  0.14887000  0.26631000  0.55247000  1.0
  N  N80  1  0.28197000  0.24194000  0.01907000  1.0
  N  N81  1  0.71803000  0.74195000  0.48093000  1.0
  N  N82  1  0.71804000  0.75805000  0.98093000  1.0
  N  N83  1  0.28197000  0.25805000  0.51907000  1.0
  O  O84  1  0.69493000  0.03439000  0.04111000  1.0
  O  O85  1  0.30506000  0.53439000  0.45889000  1.0
  O  O86  1  0.30507000  0.96561000  0.95889000  1.0
  O  O87  1  0.69493000  0.46561000  0.54111000  1.0
  O  O88  1  0.52656000  0.17281000  0.06996000  1.0
  O  O89  1  0.47344000  0.67280000  0.43004000  1.0
  O  O90  1  0.47345000  0.82720000  0.93004000  1.0
  O  O91  1  0.52655000  0.32720000  0.56996000  1.0
  O  O92  1  0.52452000  0.37368000  0.37950000  1.0
  O  O93  1  0.47546000  0.87368000  0.12049000  1.0
  O  O94  1  0.47547000  0.62632000  0.62050000  1.0
  O  O95  1  0.52453000  0.12633000  0.87950000  1.0
  O  O96  1  0.68886000  0.51426000  0.35985000  1.0
  O  O97  1  0.31113000  0.01427000  0.14015000  1.0
  O  O98  1  0.31113000  0.48575000  0.64015000  1.0
  O  O99  1  0.68887000  0.98575000  0.85985000  1.0
  F  F100  1  0.32369000  0.56529000  0.01541000  1.0
  F  F101  1  0.67630000  0.06529000  0.48459000  1.0
  F  F102  1  0.67632000  0.43471000  0.98458000  1.0
  F  F103  1  0.32369000  0.93470000  0.51540000  1.0
