# generated using pymatgen
data_NiH2(CO2)2
_symmetry_space_group_name_H-M   'P 1'
_cell_length_a   9.75190000
_cell_length_b   11.11420000
_cell_length_c   14.33500000
_cell_angle_alpha   91.01850000
_cell_angle_beta   89.99990000
_cell_angle_gamma   90.00000000
_symmetry_Int_Tables_number   1
_chemical_formula_structural   NiH2(CO2)2
_chemical_formula_sum   'Ni12 H24 C24 O48'
_cell_volume   1553.44729647
_cell_formula_units_Z   12
loop_
 _symmetry_equiv_pos_site_id
 _symmetry_equiv_pos_as_xyz
  1  'x, y, z'
loop_
 _atom_site_type_symbol
 _atom_site_label
 _atom_site_symmetry_multiplicity
 _atom_site_fract_x
 _atom_site_fract_y
 _atom_site_fract_z
 _atom_site_occupancy
  Ni  Ni0  1  0.92503000  0.24467000  0.36472000  1.0
  Ni  Ni1  1  0.61690000  0.24072000  0.30900000  1.0
  Ni  Ni2  1  0.42502000  0.25532000  0.13528000  1.0
  Ni  Ni3  1  0.11690000  0.25928000  0.19100000  1.0
  Ni  Ni4  1  0.07497000  0.75532000  0.63528000  1.0
  Ni  Ni5  1  0.38310000  0.75929000  0.69100000  1.0
  Ni  Ni6  1  0.57497000  0.74468000  0.86472000  1.0
  Ni  Ni7  1  0.88310000  0.74072000  0.80900000  1.0
  Ni  Ni8  1  0.00000000  0.50000000  0.50000000  1.0
  Ni  Ni9  1  0.50000000  0.00000000  0.00000000  1.0
  Ni  Ni10  1  0.00000000  0.00000000  0.50000000  1.0
  Ni  Ni11  1  0.50000000  0.50000000  0.00000000  1.0
  H  H12  1  0.70483000  0.99777000  0.49693000  1.0
  H  H13  1  0.60137000  0.44057000  0.45543000  1.0
  H  H14  1  0.20710000  0.01163000  0.25990000  1.0
  H  H15  1  0.74946000  0.13898000  0.12202000  1.0
  H  H16  1  0.16902000  0.31328000  0.57907000  1.0
  H  H17  1  0.05836000  0.53132000  0.22513000  1.0
  H  H18  1  0.20483000  0.50223000  0.00307000  1.0
  H  H19  1  0.10137000  0.05942000  0.04457000  1.0
  H  H20  1  0.70710000  0.48837000  0.24009000  1.0
  H  H21  1  0.24946000  0.36102000  0.37798000  1.0
  H  H22  1  0.66902000  0.18672000  0.92093000  1.0
  H  H23  1  0.55836000  0.96869000  0.27487000  1.0
  H  H24  1  0.29517000  0.00223000  0.50307000  1.0
  H  H25  1  0.39863000  0.55942000  0.54457000  1.0
  H  H26  1  0.79290000  0.98837000  0.74010000  1.0
  H  H27  1  0.25054000  0.86102000  0.87798000  1.0
  H  H28  1  0.83099000  0.68672000  0.42093000  1.0
  H  H29  1  0.94164000  0.46869000  0.77487000  1.0
  H  H30  1  0.79517000  0.49777000  0.99693000  1.0
  H  H31  1  0.89863000  0.94057000  0.95543000  1.0
  H  H32  1  0.29290000  0.51163000  0.75990000  1.0
  H  H33  1  0.75054000  0.63898000  0.62202000  1.0
  H  H34  1  0.33099000  0.81328000  0.07907000  1.0
  H  H35  1  0.44164000  0.03131000  0.72513000  1.0
  C  C36  1  0.72277000  0.07162000  0.44812000  1.0
  C  C37  1  0.71315000  0.42576000  0.44924000  1.0
  C  C38  1  0.13482000  0.04206000  0.31509000  1.0
  C  C39  1  0.83397000  0.17103000  0.16714000  1.0
  C  C40  1  0.10549000  0.25647000  0.53234000  1.0
  C  C41  1  0.02491000  0.48522000  0.28900000  1.0
  C  C42  1  0.22277000  0.42838000  0.05188000  1.0
  C  C43  1  0.21315000  0.07423000  0.05076000  1.0
  C  C44  1  0.63481000  0.45794000  0.18491000  1.0
  C  C45  1  0.33397000  0.32897000  0.33286000  1.0
  C  C46  1  0.60549000  0.24353000  0.96767000  1.0
  C  C47  1  0.52491000  0.01478000  0.21101000  1.0
  C  C48  1  0.27723000  0.92838000  0.55188000  1.0
  C  C49  1  0.28685000  0.57424000  0.55076000  1.0
  C  C50  1  0.86518000  0.95794000  0.68492000  1.0
  C  C51  1  0.16604000  0.82897000  0.83286000  1.0
  C  C52  1  0.89451000  0.74354000  0.46766000  1.0
  C  C53  1  0.97509000  0.51478000  0.71101000  1.0
  C  C54  1  0.77723000  0.57162000  0.94812000  1.0
  C  C55  1  0.78685000  0.92576000  0.94924000  1.0
  C  C56  1  0.36518000  0.54206000  0.81509000  1.0
  C  C57  1  0.66603000  0.67103000  0.66714000  1.0
  C  C58  1  0.39451000  0.75647000  0.03233000  1.0
  C  C59  1  0.47509000  0.98522000  0.78899000  1.0
  O  O60  1  0.84867000  0.10415000  0.43814000  1.0
  O  O61  1  0.61988000  0.11453000  0.40779000  1.0
  O  O62  1  0.80518000  0.18850000  0.25392000  1.0
  O  O63  1  0.74946000  0.34731000  0.38688000  1.0
  O  O64  1  0.08792000  0.14944000  0.30603000  1.0
  O  O65  1  0.01060000  0.37045000  0.28051000  1.0
  O  O66  1  0.02708000  0.31450000  0.47614000  1.0
  O  O67  1  0.94895000  0.18545000  0.12937000  1.0
  O  O68  1  0.00411000  0.54714000  0.36136000  1.0
  O  O69  1  0.79135000  0.48611000  0.50128000  1.0
  O  O70  1  0.10839000  0.97086000  0.37912000  1.0
  O  O71  1  0.11731000  0.14485000  0.53788000  1.0
  O  O72  1  0.34867000  0.39585000  0.06185000  1.0
  O  O73  1  0.11988000  0.38547000  0.09221000  1.0
  O  O74  1  0.30518000  0.31150000  0.24608000  1.0
  O  O75  1  0.24945000  0.15270000  0.11312000  1.0
  O  O76  1  0.58792000  0.35056000  0.19397000  1.0
  O  O77  1  0.51060000  0.12955000  0.21949000  1.0
  O  O78  1  0.52708000  0.18549000  0.02387000  1.0
  O  O79  1  0.44895000  0.31455000  0.37063000  1.0
  O  O80  1  0.50411000  0.95286000  0.13864000  1.0
  O  O81  1  0.29135000  0.01389000  0.99872000  1.0
  O  O82  1  0.60838000  0.52914000  0.12088000  1.0
  O  O83  1  0.61731000  0.35515000  0.96212000  1.0
  O  O84  1  0.15133000  0.89585000  0.56186000  1.0
  O  O85  1  0.38012000  0.88547000  0.59221000  1.0
  O  O86  1  0.19482000  0.81150000  0.74608000  1.0
  O  O87  1  0.25055000  0.65269000  0.61312000  1.0
  O  O88  1  0.91208000  0.85056000  0.69397000  1.0
  O  O89  1  0.98940000  0.62955000  0.71949000  1.0
  O  O90  1  0.97292000  0.68550000  0.52386000  1.0
  O  O91  1  0.05105000  0.81455000  0.87063000  1.0
  O  O92  1  0.99589000  0.45286000  0.63864000  1.0
  O  O93  1  0.20865000  0.51389000  0.49872000  1.0
  O  O94  1  0.89161000  0.02914000  0.62088000  1.0
  O  O95  1  0.88269000  0.85515000  0.46212000  1.0
  O  O96  1  0.65133000  0.60415000  0.93814000  1.0
  O  O97  1  0.88012000  0.61453000  0.90779000  1.0
  O  O98  1  0.69482000  0.68850000  0.75392000  1.0
  O  O99  1  0.75055000  0.84730000  0.88688000  1.0
  O  O100  1  0.41207000  0.64945000  0.80602000  1.0
  O  O101  1  0.48940000  0.87045000  0.78051000  1.0
  O  O102  1  0.47292000  0.81451000  0.97614000  1.0
  O  O103  1  0.55105000  0.68545000  0.62937000  1.0
  O  O104  1  0.49590000  0.04714000  0.86136000  1.0
  O  O105  1  0.70865000  0.98611000  0.00128000  1.0
  O  O106  1  0.39162000  0.47086000  0.87912000  1.0
  O  O107  1  0.38269000  0.64485000  0.03788000  1.0
