# generated using pymatgen
data_AgH8C11N2O
_symmetry_space_group_name_H-M   'P 1'
_cell_length_a   8.37924000
_cell_length_b   18.66700000
_cell_length_c   18.68090000
_cell_angle_alpha   117.72700000
_cell_angle_beta   98.57680000
_cell_angle_gamma   98.64830000
_symmetry_Int_Tables_number   1
_chemical_formula_structural   AgH8C11N2O
_chemical_formula_sum   'Ag6 H48 C66 N12 O6'
_cell_volume   2475.61517384
_cell_formula_units_Z   6
loop_
 _symmetry_equiv_pos_site_id
 _symmetry_equiv_pos_as_xyz
  1  'x, y, z'
loop_
 _atom_site_type_symbol
 _atom_site_label
 _atom_site_symmetry_multiplicity
 _atom_site_fract_x
 _atom_site_fract_y
 _atom_site_fract_z
 _atom_site_occupancy
  Ag  Ag0  1  0.64389000  0.46178000  0.95068000  1.0
  Ag  Ag1  1  0.69476000  0.04906000  0.51172000  1.0
  Ag  Ag2  1  0.18260000  0.48870000  0.53746000  1.0
  Ag  Ag3  1  0.35611000  0.53823000  0.04932000  1.0
  Ag  Ag4  1  0.30522000  0.95091000  0.48828000  1.0
  Ag  Ag5  1  0.81739000  0.51130000  0.46253000  1.0
  H  H6  1  0.80592000  0.51064000  0.12084000  1.0
  H  H7  1  0.20658000  0.73207000  0.22594000  1.0
  H  H8  1  0.15169000  0.72206000  0.08428000  1.0
  H  H9  1  0.91855000  0.60705000  0.96845000  1.0
  H  H10  1  0.93753000  0.62247000  0.39490000  1.0
  H  H11  1  0.04896000  0.46720000  0.16179000  1.0
  H  H12  1  0.98450000  0.34673000  0.18747000  1.0
  H  H13  1  0.89588000  0.37004000  0.31714000  1.0
  H  H14  1  0.68689000  0.87915000  0.39026000  1.0
  H  H15  1  0.98003000  0.77274000  0.50585000  1.0
  H  H16  1  0.06713000  0.91420000  0.63762000  1.0
  H  H17  1  0.95139000  0.03067000  0.63884000  1.0
  H  H18  1  0.54259000  0.60507000  0.22756000  1.0
  H  H19  1  0.88973000  0.83802000  0.30587000  1.0
  H  H20  1  0.80128000  0.81273000  0.16001000  1.0
  H  H21  1  0.58308000  0.68315000  0.05343000  1.0
  H  H22  1  0.29574000  0.60995000  0.48837000  1.0
  H  H23  1  0.47237000  0.49363000  0.26641000  1.0
  H  H24  1  0.42833000  0.36213000  0.27689000  1.0
  H  H25  1  0.31230000  0.36134000  0.39247000  1.0
  H  H26  1  0.31439000  0.77260000  0.37680000  1.0
  H  H27  1  0.58253000  0.69410000  0.53131000  1.0
  H  H28  1  0.63836000  0.83984000  0.65185000  1.0
  H  H29  1  0.52616000  0.94644000  0.62896000  1.0
  H  H30  1  0.19410000  0.48934000  0.87914000  1.0
  H  H31  1  0.79340000  0.26793000  0.77407000  1.0
  H  H32  1  0.84831000  0.27794000  0.91573000  1.0
  H  H33  1  0.08146000  0.39295000  0.03155000  1.0
  H  H34  1  0.06250000  0.37754000  0.60511000  1.0
  H  H35  1  0.95101000  0.53279000  0.83820000  1.0
  H  H36  1  0.01549000  0.65327000  0.81253000  1.0
  H  H37  1  0.10415000  0.62997000  0.68287000  1.0
  H  H38  1  0.31309000  0.12085000  0.60973000  1.0
  H  H39  1  0.01997000  0.22727000  0.49414000  1.0
  H  H40  1  0.93285000  0.08580000  0.36237000  1.0
  H  H41  1  0.04859000  0.96932000  0.36116000  1.0
  H  H42  1  0.45742000  0.39493000  0.77244000  1.0
  H  H43  1  0.11026000  0.16199000  0.69414000  1.0
  H  H44  1  0.19870000  0.18728000  0.83999000  1.0
  H  H45  1  0.41691000  0.31686000  0.94657000  1.0
  H  H46  1  0.70431000  0.39006000  0.51165000  1.0
  H  H47  1  0.52761000  0.50636000  0.73358000  1.0
  H  H48  1  0.57167000  0.63788000  0.72312000  1.0
  H  H49  1  0.68771000  0.63866000  0.60754000  1.0
  H  H50  1  0.68558000  0.22739000  0.62320000  1.0
  H  H51  1  0.41752000  0.30591000  0.46869000  1.0
  H  H52  1  0.36166000  0.16017000  0.34814000  1.0
  H  H53  1  0.47380000  0.05356000  0.37104000  1.0
  C  C54  1  0.88752000  0.55766000  0.11473000  1.0
  C  C55  1  0.01239000  0.62035000  0.18389000  1.0
  C  C56  1  0.10936000  0.68206000  0.17301000  1.0
  C  C57  1  0.07766000  0.67644000  0.09510000  1.0
  C  C58  1  0.94877000  0.61265000  0.02980000  1.0
  C  C59  1  0.02508000  0.62938000  0.26712000  1.0
  C  C60  1  0.94879000  0.56211000  0.34817000  1.0
  C  C61  1  0.98970000  0.55430000  0.27499000  1.0
  C  C62  1  0.00490000  0.47485000  0.21628000  1.0
  C  C63  1  0.97067000  0.40816000  0.23088000  1.0
  C  C64  1  0.92341000  0.42032000  0.30316000  1.0
  C  C65  1  0.77437000  0.88499000  0.44323000  1.0
  C  C66  1  0.82956000  0.81556000  0.43653000  1.0
  C  C67  1  0.93658000  0.82597000  0.50898000  1.0
  C  C68  1  0.98286000  0.90375000  0.58132000  1.0
  C  C69  1  0.92004000  0.96938000  0.58305000  1.0
  C  C70  1  0.75873000  0.73245000  0.36231000  1.0
  C  C71  1  0.60173000  0.65185000  0.21414000  1.0
  C  C72  1  0.71626000  0.72483000  0.27954000  1.0
  C  C73  1  0.79115000  0.78361000  0.25899000  1.0
  C  C74  1  0.74327000  0.76921000  0.17784000  1.0
  C  C75  1  0.62361000  0.69708000  0.11765000  1.0
  C  C76  1  0.32993000  0.55684000  0.44132000  1.0
  C  C77  1  0.39158000  0.56333000  0.37846000  1.0
  C  C78  1  0.42602000  0.49073000  0.31665000  1.0
  C  C79  1  0.40029000  0.41852000  0.32254000  1.0
  C  C80  1  0.33608000  0.41702000  0.38659000  1.0
  C  C81  1  0.39533000  0.63764000  0.36951000  1.0
  C  C82  1  0.38636000  0.78592000  0.43697000  1.0
  C  C83  1  0.43538000  0.72044000  0.44458000  1.0
  C  C84  1  0.53061000  0.74098000  0.52383000  1.0
  C  C85  1  0.56296000  0.82207000  0.59055000  1.0
  C  C86  1  0.50315000  0.88227000  0.57864000  1.0
  C  C87  1  0.11249000  0.44233000  0.88526000  1.0
  C  C88  1  0.98760000  0.37964000  0.81610000  1.0
  C  C89  1  0.89063000  0.31794000  0.82700000  1.0
  C  C90  1  0.92234000  0.32356000  0.90490000  1.0
  C  C91  1  0.05124000  0.38735000  0.97020000  1.0
  C  C92  1  0.97491000  0.37062000  0.73288000  1.0
  C  C93  1  0.05125000  0.43790000  0.65183000  1.0
  C  C94  1  0.01031000  0.44568000  0.72500000  1.0
  C  C95  1  0.99509000  0.52514000  0.78372000  1.0
  C  C96  1  0.02933000  0.59184000  0.76913000  1.0
  C  C97  1  0.07658000  0.57968000  0.69684000  1.0
  C  C98  1  0.22561000  0.11501000  0.55676000  1.0
  C  C99  1  0.17044000  0.18444000  0.56346000  1.0
  C  C100  1  0.06343000  0.17403000  0.49102000  1.0
  C  C101  1  0.01713000  0.09626000  0.41867000  1.0
  C  C102  1  0.07995000  0.03062000  0.41695000  1.0
  C  C103  1  0.24129000  0.26755000  0.63769000  1.0
  C  C104  1  0.39827000  0.34816000  0.78586000  1.0
  C  C105  1  0.28374000  0.27518000  0.72045000  1.0
  C  C106  1  0.20884000  0.21639000  0.74101000  1.0
  C  C107  1  0.25672000  0.23080000  0.82216000  1.0
  C  C108  1  0.37639000  0.30293000  0.88235000  1.0
  C  C109  1  0.67009000  0.44316000  0.55869000  1.0
  C  C110  1  0.60844000  0.43667000  0.62154000  1.0
  C  C111  1  0.57396000  0.50926000  0.68334000  1.0
  C  C112  1  0.59971000  0.58148000  0.67748000  1.0
  C  C113  1  0.66394000  0.58299000  0.61343000  1.0
  C  C114  1  0.60468000  0.36235000  0.63049000  1.0
  C  C115  1  0.61363000  0.21407000  0.56303000  1.0
  C  C116  1  0.56464000  0.27956000  0.55543000  1.0
  C  C117  1  0.46943000  0.25903000  0.47617000  1.0
  C  C118  1  0.43705000  0.17794000  0.40944000  1.0
  C  C119  1  0.49684000  0.11773000  0.42136000  1.0
  N  N120  1  0.85304000  0.55366000  0.04008000  1.0
  N  N121  1  0.91356000  0.49738000  0.36147000  1.0
  N  N122  1  0.81448000  0.95949000  0.51398000  1.0
  N  N123  1  0.55411000  0.63878000  0.13627000  1.0
  N  N124  1  0.29955000  0.48622000  0.44550000  1.0
  N  N125  1  0.41596000  0.86376000  0.50172000  1.0
  N  N126  1  0.14697000  0.44633000  0.95992000  1.0
  N  N127  1  0.08647000  0.50264000  0.63853000  1.0
  N  N128  1  0.18551000  0.04050000  0.48602000  1.0
  N  N129  1  0.44589000  0.36123000  0.86373000  1.0
  N  N130  1  0.70045000  0.51379000  0.55451000  1.0
  N  N131  1  0.58400000  0.13622000  0.49828000  1.0
  O  O132  1  0.06499000  0.70188000  0.33037000  1.0
  O  O133  1  0.73432000  0.66896000  0.37133000  1.0
  O  O134  1  0.36255000  0.62875000  0.29714000  1.0
  O  O135  1  0.93500000  0.29813000  0.66962000  1.0
  O  O136  1  0.26570000  0.33104000  0.62866000  1.0
  O  O137  1  0.63745000  0.37125000  0.70287000  1.0
