# generated using pymatgen
data_Cd3H60(C11O3)8
_symmetry_space_group_name_H-M   'P 1'
_cell_length_a   15.51130000
_cell_length_b   16.15080000
_cell_length_c   18.18010000
_cell_angle_alpha   107.36400000
_cell_angle_beta   101.82700000
_cell_angle_gamma   111.77200000
_symmetry_Int_Tables_number   1
_chemical_formula_structural   Cd3H60(C11O3)8
_chemical_formula_sum   'Cd3 H60 C88 O24'
_cell_volume   3772.17445504
_cell_formula_units_Z   1
loop_
 _symmetry_equiv_pos_site_id
 _symmetry_equiv_pos_as_xyz
  1  'x, y, z'
loop_
 _atom_site_type_symbol
 _atom_site_label
 _atom_site_symmetry_multiplicity
 _atom_site_fract_x
 _atom_site_fract_y
 _atom_site_fract_z
 _atom_site_occupancy
  Cd  Cd0  1  0.96964000  0.81904000  0.08797000  1.0
  Cd  Cd1  1  0.03037000  0.18097000  0.91204000  1.0
  Cd  Cd2  1  0.00001000  0.00001000  0.00000000  1.0
  H  H3  1  0.97132000  0.55655000  0.15803000  1.0
  H  H4  1  0.02873000  0.44338000  0.84189000  1.0
  H  H5  1  0.02679000  0.48089000  0.24553000  1.0
  H  H6  1  0.97327000  0.51908000  0.75442000  1.0
  H  H7  1  0.28615000  0.75835000  0.40155000  1.0
  H  H8  1  0.71376000  0.24171000  0.59850000  1.0
  H  H9  1  0.23175000  0.83162000  0.30995000  1.0
  H  H10  1  0.76813000  0.16842000  0.69010000  1.0
  H  H11  1  0.14037000  0.43522000  0.28160000  1.0
  H  H12  1  0.85965000  0.56480000  0.71840000  1.0
  H  H13  1  0.19778000  0.81509000  0.54072000  1.0
  H  H14  1  0.80221000  0.18493000  0.45926000  1.0
  H  H15  1  0.11777000  0.70186000  0.54208000  1.0
  H  H16  1  0.88225000  0.29818000  0.45796000  1.0
  H  H17  1  0.11715000  0.71107000  0.44557000  1.0
  H  H18  1  0.88283000  0.28892000  0.55444000  1.0
  H  H19  1  0.34328000  0.37582000  0.57665000  1.0
  H  H20  1  0.65672000  0.62420000  0.42338000  1.0
  H  H21  1  0.39132000  0.44549000  0.52105000  1.0
  H  H22  1  0.60868000  0.55445000  0.47893000  1.0
  H  H23  1  0.29099000  0.32210000  0.46596000  1.0
  H  H24  1  0.70897000  0.67787000  0.53407000  1.0
  H  H25  1  0.54141000  0.68348000  0.56631000  1.0
  H  H26  1  0.45856000  0.31651000  0.43366000  1.0
  H  H27  1  0.53013000  0.77484000  0.64312000  1.0
  H  H28  1  0.46984000  0.22517000  0.35682000  1.0
  H  H29  1  0.43183000  0.69970000  0.54413000  1.0
  H  H30  1  0.56812000  0.30023000  0.45583000  1.0
  H  H31  1  0.23844000  0.34848000  0.26178000  1.0
  H  H32  1  0.76156000  0.65153000  0.73821000  1.0
  H  H33  1  0.17813000  0.17316000  0.17383000  1.0
  H  H34  1  0.82186000  0.82685000  0.82615000  1.0
  H  H35  1  0.02646000  0.08898000  0.33232000  1.0
  H  H36  1  0.97360000  0.91103000  0.66771000  1.0
  H  H37  1  0.08821000  0.26533000  0.42277000  1.0
  H  H38  1  0.91185000  0.73468000  0.57725000  1.0
  H  H39  1  0.37101000  0.72465000  0.85090000  1.0
  H  H40  1  0.62897000  0.27531000  0.14912000  1.0
  H  H41  1  0.13555000  0.75433000  0.70153000  1.0
  H  H42  1  0.86439000  0.24561000  0.29843000  1.0
  H  H43  1  0.05359000  0.82264000  0.78917000  1.0
  H  H44  1  0.94635000  0.17730000  0.21080000  1.0
  H  H45  1  0.13027000  0.69941000  0.95590000  1.0
  H  H46  1  0.86978000  0.30066000  0.04413000  1.0
  H  H47  1  0.21987000  0.63705000  0.87222000  1.0
  H  H48  1  0.78018000  0.36300000  0.12782000  1.0
  H  H49  1  0.48040000  0.55996000  0.78529000  1.0
  H  H50  1  0.51960000  0.44001000  0.21475000  1.0
  H  H51  1  0.56987000  0.86063000  0.82404000  1.0
  H  H52  1  0.43012000  0.13932000  0.17595000  1.0
  H  H53  1  0.73561000  0.90983000  0.92369000  1.0
  H  H54  1  0.26438000  0.09015000  0.07630000  1.0
  H  H55  1  0.64548000  0.61061000  0.88760000  1.0
  H  H56  1  0.35453000  0.38937000  0.11242000  1.0
  H  H57  1  0.97972000  0.48455000  0.56091000  1.0
  H  H58  1  0.02029000  0.51550000  0.43908000  1.0
  H  H59  1  0.05733000  0.50064000  0.65735000  1.0
  H  H60  1  0.94268000  0.49935000  0.34262000  1.0
  H  H61  1  0.07316000  0.44385000  0.56340000  1.0
  H  H62  1  0.92682000  0.55617000  0.43653000  1.0
  C  C63  1  0.06034000  0.74497000  0.17943000  1.0
  C  C64  1  0.93960000  0.25500000  0.82053000  1.0
  C  C65  1  0.09721000  0.69918000  0.22990000  1.0
  C  C66  1  0.90275000  0.30080000  0.77009000  1.0
  C  C67  1  0.04070000  0.59963000  0.21090000  1.0
  C  C68  1  0.95933000  0.40034000  0.78905000  1.0
  C  C69  1  0.07214000  0.55793000  0.26024000  1.0
  C  C70  1  0.92789000  0.44205000  0.73971000  1.0
  C  C71  1  0.15936000  0.61497000  0.33128000  1.0
  C  C72  1  0.84062000  0.38503000  0.66872000  1.0
  C  C73  1  0.21734000  0.71416000  0.34820000  1.0
  C  C74  1  0.78258000  0.28588000  0.65184000  1.0
  C  C75  1  0.18705000  0.75529000  0.29762000  1.0
  C  C76  1  0.81286000  0.24473000  0.70242000  1.0
  C  C77  1  0.18654000  0.56951000  0.38508000  1.0
  C  C78  1  0.81345000  0.43050000  0.61492000  1.0
  C  C79  1  0.17156000  0.47318000  0.34872000  1.0
  C  C80  1  0.82845000  0.52683000  0.65129000  1.0
  C  C81  1  0.19301000  0.42221000  0.39361000  1.0
  C  C82  1  0.80703000  0.57781000  0.60640000  1.0
  C  C83  1  0.23349000  0.47174000  0.48079000  1.0
  C  C84  1  0.76654000  0.52828000  0.51922000  1.0
  C  C85  1  0.24733000  0.56758000  0.52008000  1.0
  C  C86  1  0.75268000  0.43244000  0.47993000  1.0
  C  C87  1  0.22393000  0.61618000  0.47276000  1.0
  C  C88  1  0.77607000  0.38384000  0.52725000  1.0
  C  C89  1  0.16313000  0.73517000  0.50980000  1.0
  C  C90  1  0.83687000  0.26484000  0.49020000  1.0
  C  C91  1  0.32420000  0.39012000  0.52189000  1.0
  C  C92  1  0.67579000  0.60987000  0.47812000  1.0
  C  C93  1  0.48950000  0.70144000  0.59218000  1.0
  C  C94  1  0.51047000  0.29855000  0.40779000  1.0
  C  C95  1  0.16624000  0.31868000  0.34759000  1.0
  C  C96  1  0.83379000  0.68134000  0.65241000  1.0
  C  C97  1  0.19180000  0.29184000  0.27746000  1.0
  C  C98  1  0.80820000  0.70817000  0.72253000  1.0
  C  C99  1  0.15836000  0.19394000  0.22811000  1.0
  C  C100  1  0.84166000  0.80608000  0.77189000  1.0
  C  C101  1  0.09746000  0.12068000  0.24712000  1.0
  C  C102  1  0.90256000  0.87933000  0.75289000  1.0
  C  C103  1  0.07383000  0.14687000  0.31829000  1.0
  C  C104  1  0.92621000  0.85315000  0.68173000  1.0
  C  C105  1  0.10828000  0.24494000  0.36839000  1.0
  C  C106  1  0.89176000  0.75508000  0.63162000  1.0
  C  C107  1  0.38126000  0.64168000  0.65964000  1.0
  C  C108  1  0.61876000  0.35833000  0.34037000  1.0
  C  C109  1  0.28369000  0.61443000  0.61155000  1.0
  C  C110  1  0.71632000  0.38559000  0.38846000  1.0
  C  C111  1  0.21831000  0.62671000  0.65138000  1.0
  C  C112  1  0.78171000  0.37331000  0.34862000  1.0
  C  C113  1  0.24863000  0.66834000  0.73820000  1.0
  C  C114  1  0.75138000  0.33165000  0.26181000  1.0
  C  C115  1  0.34559000  0.69187000  0.78370000  1.0
  C  C116  1  0.65440000  0.30810000  0.21632000  1.0
  C  C117  1  0.41235000  0.67902000  0.74613000  1.0
  C  C118  1  0.58764000  0.32094000  0.25389000  1.0
  C  C119  1  0.18544000  0.69299000  0.78179000  1.0
  C  C120  1  0.81457000  0.30702000  0.21821000  1.0
  C  C121  1  0.13438000  0.74209000  0.75715000  1.0
  C  C122  1  0.86560000  0.25788000  0.24285000  1.0
  C  C123  1  0.08817000  0.77991000  0.80564000  1.0
  C  C124  1  0.91181000  0.22006000  0.19434000  1.0
  C  C125  1  0.08790000  0.76578000  0.87805000  1.0
  C  C126  1  0.91212000  0.23424000  0.12195000  1.0
  C  C127  1  0.13315000  0.71171000  0.90049000  1.0
  C  C128  1  0.86688000  0.28833000  0.09953000  1.0
  C  C129  1  0.18268000  0.67704000  0.85361000  1.0
  C  C130  1  0.81736000  0.32300000  0.14642000  1.0
  C  C131  1  0.04346000  0.81161000  0.93343000  1.0
  C  C132  1  0.95656000  0.18842000  0.06656000  1.0
  C  C133  1  0.53660000  0.63654000  0.81542000  1.0
  C  C134  1  0.46339000  0.36342000  0.18461000  1.0
  C  C135  1  0.51428000  0.70714000  0.79870000  1.0
  C  C136  1  0.48571000  0.29281000  0.20131000  1.0
  C  C137  1  0.58678000  0.80554000  0.83711000  1.0
  C  C138  1  0.41321000  0.19441000  0.16288000  1.0
  C  C139  1  0.67913000  0.83340000  0.89310000  1.0
  C  C140  1  0.32087000  0.16656000  0.10690000  1.0
  C  C141  1  0.69952000  0.76306000  0.91199000  1.0
  C  C142  1  0.30048000  0.23692000  0.08802000  1.0
  C  C143  1  0.62831000  0.66431000  0.87215000  1.0
  C  C144  1  0.37170000  0.33566000  0.12788000  1.0
  C  C145  1  0.05425000  0.50014000  0.59625000  1.0
  C  C146  1  0.94575000  0.49988000  0.40372000  1.0
  C  C147  1  0.05542000  0.01574000  0.19013000  1.0
  C  C148  1  0.94459000  0.98427000  0.80987000  1.0
  C  C149  1  0.79569000  0.79389000  0.97621000  1.0
  C  C150  1  0.20433000  0.20611000  0.02379000  1.0
  O  O151  1  0.07542000  0.99473000  0.12349000  1.0
  O  O152  1  0.92458000  0.00528000  0.87651000  1.0
  O  O153  1  0.86431000  0.88156000  0.00432000  1.0
  O  O154  1  0.13569000  0.11843000  0.99565000  1.0
  O  O155  1  0.80567000  0.73209000  0.00285000  1.0
  O  O156  1  0.19435000  0.26793000  0.99718000  1.0
  O  O157  1  0.12124000  0.81729000  0.17198000  1.0
  O  O158  1  0.87871000  0.18266000  0.82799000  1.0
  O  O159  1  0.00152000  0.94976000  0.20833000  1.0
  O  O160  1  0.99849000  0.05025000  0.79167000  1.0
  O  O161  1  0.24462000  0.71129000  0.51511000  1.0
  O  O162  1  0.75537000  0.28872000  0.48489000  1.0
  O  O163  1  0.01160000  0.76859000  0.97754000  1.0
  O  O164  1  0.98841000  0.23144000  0.02246000  1.0
  O  O165  1  0.25506000  0.42893000  0.53160000  1.0
  O  O166  1  0.74499000  0.57112000  0.46842000  1.0
  O  O167  1  0.44708000  0.62873000  0.62242000  1.0
  O  O168  1  0.55295000  0.37129000  0.37761000  1.0
  O  O169  1  0.96603000  0.70902000  0.14536000  1.0
  O  O170  1  0.03393000  0.29094000  0.85462000  1.0
  O  O171  1  0.04350000  0.88965000  0.93118000  1.0
  O  O172  1  0.95652000  0.11037000  0.06881000  1.0
  O  O173  1  0.12113000  0.59468000  0.60340000  1.0
  O  O174  1  0.87889000  0.40536000  0.39661000  1.0
