# generated using pymatgen
data_Zn4H18C24N6O13
_symmetry_space_group_name_H-M   'P 1'
_cell_length_a   17.79320000
_cell_length_b   17.88630000
_cell_length_c   18.14270000
_cell_angle_alpha   61.52590000
_cell_angle_beta   61.31180000
_cell_angle_gamma   61.10070000
_symmetry_Int_Tables_number   1
_chemical_formula_structural   Zn4H18C24N6O13
_chemical_formula_sum   'Zn8 H36 C48 N12 O26'
_cell_volume   4203.19439812
_cell_formula_units_Z   2
loop_
 _symmetry_equiv_pos_site_id
 _symmetry_equiv_pos_as_xyz
  1  'x, y, z'
loop_
 _atom_site_type_symbol
 _atom_site_label
 _atom_site_symmetry_multiplicity
 _atom_site_fract_x
 _atom_site_fract_y
 _atom_site_fract_z
 _atom_site_occupancy
  Zn  Zn0  1  0.03046000  0.04606000  0.85686000  1.0
  Zn  Zn1  1  0.03454000  0.05522000  0.02665000  1.0
  Zn  Zn2  1  0.04194000  0.87425000  0.02679000  1.0
  Zn  Zn3  1  0.85865000  0.04633000  0.02868000  1.0
  Zn  Zn4  1  0.44763000  0.46142000  0.61422000  1.0
  Zn  Zn5  1  0.44243000  0.46702000  0.43762000  1.0
  Zn  Zn6  1  0.62268000  0.45824000  0.44422000  1.0
  Zn  Zn7  1  0.45323000  0.63656000  0.44305000  1.0
  H  H8  1  0.30530000  0.09271000  0.78316000  1.0
  H  H9  1  0.44800000  0.11149000  0.67523000  1.0
  H  H10  1  0.45797000  0.21204000  0.60343000  1.0
  H  H11  1  0.16807000  0.42501000  0.67874000  1.0
  H  H12  1  0.01356000  0.30038000  0.78440000  1.0
  H  H13  1  0.02405000  0.40304000  0.73846000  1.0
  H  H14  1  0.07769000  0.80295000  0.78007000  1.0
  H  H15  1  0.09918000  0.74559000  0.67285000  1.0
  H  H16  1  0.20259000  0.70104000  0.60671000  1.0
  H  H17  1  0.41273000  0.69943000  0.69486000  1.0
  H  H18  1  0.29009000  0.87173000  0.80016000  1.0
  H  H19  1  0.39236000  0.80211000  0.75861000  1.0
  H  H20  1  0.78339000  0.31637000  0.79646000  1.0
  H  H21  1  0.72892000  0.46064000  0.69237000  1.0
  H  H22  1  0.68809000  0.47195000  0.61960000  1.0
  H  H23  1  0.68881000  0.18421000  0.68239000  1.0
  H  H24  1  0.85959000  0.02835000  0.78820000  1.0
  H  H25  1  0.79270000  0.04082000  0.73893000  1.0
  H  H26  1  0.31634000  0.81754000  0.06834000  1.0
  H  H27  1  0.45802000  0.76257000  0.09223000  1.0
  H  H28  1  0.46809000  0.71624000  0.19392000  1.0
  H  H29  1  0.17551000  0.71065000  0.39431000  1.0
  H  H30  1  0.02352000  0.88835000  0.27300000  1.0
  H  H31  1  0.03250000  0.81782000  0.37292000  1.0
  H  H32  1  0.78685000  0.08887000  0.30005000  1.0
  H  H33  1  0.72916000  0.10848000  0.44196000  1.0
  H  H34  1  0.68408000  0.21050000  0.45433000  1.0
  H  H35  1  0.67952000  0.42165000  0.17231000  1.0
  H  H36  1  0.85782000  0.30403000  0.01804000  1.0
  H  H37  1  0.78374000  0.40441000  0.03071000  1.0
  H  H38  1  0.78274000  0.80496000  0.07507000  1.0
  H  H39  1  0.71910000  0.70003000  0.09822000  1.0
  H  H40  1  0.68350000  0.62798000  0.19815000  1.0
  H  H41  1  0.71283000  0.69744000  0.40051000  1.0
  H  H42  1  0.88932000  0.79924000  0.27099000  1.0
  H  H43  1  0.82711000  0.75164000  0.37364000  1.0
  C  C44  1  0.12373000  0.14698000  0.84611000  1.0
  C  C45  1  0.18161000  0.20526000  0.78421000  1.0
  C  C46  1  0.27593000  0.16582000  0.75740000  1.0
  C  C47  1  0.33288000  0.21760000  0.69650000  1.0
  C  C48  1  0.29150000  0.31213000  0.67174000  1.0
  C  C49  1  0.19733000  0.35163000  0.69979000  1.0
  C  C50  1  0.14012000  0.29930000  0.75222000  1.0
  C  C51  1  0.34889000  0.37165000  0.61496000  1.0
  C  C52  1  0.13191000  0.86500000  0.84838000  1.0
  C  C53  1  0.19123000  0.80770000  0.78929000  1.0
  C  C54  1  0.15159000  0.78187000  0.75892000  1.0
  C  C55  1  0.20442000  0.73154000  0.70028000  1.0
  C  C56  1  0.29939000  0.70062000  0.68004000  1.0
  C  C57  1  0.33895000  0.72472000  0.71216000  1.0
  C  C58  1  0.28633000  0.78245000  0.76360000  1.0
  C  C59  1  0.35875000  0.64255000  0.62203000  1.0
  C  C60  1  0.84825000  0.13631000  0.85154000  1.0
  C  C61  1  0.79221000  0.19453000  0.79161000  1.0
  C  C62  1  0.76484000  0.28811000  0.76837000  1.0
  C  C63  1  0.71675000  0.34592000  0.70814000  1.0
  C  C64  1  0.68782000  0.30587000  0.68006000  1.0
  C  C65  1  0.71289000  0.21249000  0.70526000  1.0
  C  C66  1  0.76989000  0.15460000  0.75717000  1.0
  C  C67  1  0.62971000  0.36414000  0.62203000  1.0
  C  C68  1  0.13484000  0.87791000  0.11814000  1.0
  C  C69  1  0.19172000  0.82236000  0.17758000  1.0
  C  C70  1  0.28601000  0.79637000  0.14039000  1.0
  C  C71  1  0.34245000  0.74584000  0.19329000  1.0
  C  C72  1  0.30008000  0.71267000  0.28565000  1.0
  C  C73  1  0.20558000  0.73728000  0.32261000  1.0
  C  C74  1  0.14925000  0.79679000  0.27038000  1.0
  C  C75  1  0.35625000  0.65093000  0.34512000  1.0
  C  C76  1  0.85083000  0.14422000  0.12258000  1.0
  C  C77  1  0.79244000  0.20251000  0.18075000  1.0
  C  C78  1  0.76539000  0.16229000  0.27265000  1.0
  C  C79  1  0.71372000  0.21381000  0.33018000  1.0
  C  C80  1  0.68141000  0.30829000  0.29152000  1.0
  C  C81  1  0.70608000  0.34840000  0.19959000  1.0
  C  C82  1  0.76620000  0.29723000  0.14213000  1.0
  C  C83  1  0.62283000  0.36700000  0.34898000  1.0
  C  C84  1  0.86137000  0.86226000  0.12184000  1.0
  C  C85  1  0.80551000  0.80201000  0.18247000  1.0
  C  C86  1  0.76916000  0.77827000  0.14666000  1.0
  C  C87  1  0.71903000  0.71919000  0.19989000  1.0
  C  C88  1  0.69722000  0.69322000  0.29248000  1.0
  C  C89  1  0.73135000  0.71888000  0.32856000  1.0
  C  C90  1  0.79067000  0.76912000  0.27461000  1.0
  C  C91  1  0.63707000  0.63678000  0.35261000  1.0
  N  N92  1  0.42727000  0.17803000  0.66655000  1.0
  N  N93  1  0.04537000  0.33877000  0.77775000  1.0
  N  N94  1  0.16480000  0.70707000  0.66829000  1.0
  N  N95  1  0.32583000  0.80929000  0.79353000  1.0
  N  N96  1  0.69212000  0.43962000  0.68201000  1.0
  N  N97  1  0.79773000  0.06104000  0.77950000  1.0
  N  N98  1  0.43657000  0.72328000  0.15561000  1.0
  N  N99  1  0.05418000  0.82465000  0.30776000  1.0
  N  N100  1  0.68925000  0.17341000  0.42250000  1.0
  N  N101  1  0.79382000  0.33780000  0.05019000  1.0
  N  N102  1  0.68570000  0.69190000  0.16386000  1.0
  N  N103  1  0.82755000  0.79165000  0.31088000  1.0
  O  O104  1  0.99126000  0.00534000  0.98556000  1.0
  O  O105  1  0.13176000  0.09953000  0.92288000  1.0
  O  O106  1  0.06876000  0.14998000  0.81706000  1.0
  O  O107  1  0.39574000  0.36930000  0.53548000  1.0
  O  O108  1  0.34711000  0.41965000  0.65023000  1.0
  O  O109  1  0.08721000  0.82911000  0.92746000  1.0
  O  O110  1  0.13183000  0.94653000  0.81426000  1.0
  O  O111  1  0.35380000  0.67699000  0.54336000  1.0
  O  O112  1  0.40885000  0.56367000  0.65418000  1.0
  O  O113  1  0.81587000  0.14348000  0.92850000  1.0
  O  O114  1  0.92634000  0.08195000  0.82047000  1.0
  O  O115  1  0.66460000  0.41463000  0.54526000  1.0
  O  O116  1  0.55011000  0.36023000  0.65263000  1.0
  O  O117  1  0.14185000  0.84253000  0.06757000  1.0
  O  O118  1  0.08209000  0.95696000  0.12350000  1.0
  O  O119  1  0.41213000  0.67938000  0.34173000  1.0
  O  O120  1  0.34558000  0.57437000  0.39464000  1.0
  O  O121  1  0.81820000  0.09254000  0.12603000  1.0
  O  O122  1  0.92973000  0.15153000  0.07279000  1.0
  O  O123  1  0.65592000  0.35857000  0.40303000  1.0
  O  O124  1  0.54521000  0.42060000  0.34114000  1.0
  O  O125  1  0.82614000  0.93803000  0.07065000  1.0
  O  O126  1  0.94135000  0.83318000  0.12616000  1.0
  O  O127  1  0.66731000  0.55763000  0.34714000  1.0
  O  O128  1  0.56011000  0.67124000  0.40380000  1.0
  O  O129  1  0.49088000  0.50561000  0.48491000  1.0
