# generated using pymatgen
data_NaH7C3SO5
_symmetry_space_group_name_H-M   'P 1'
_cell_length_a   5.61024000
_cell_length_b   6.19525000
_cell_length_c   18.52360000
_cell_angle_alpha   89.99960000
_cell_angle_beta   96.16360000
_cell_angle_gamma   89.99940000
_symmetry_Int_Tables_number   1
_chemical_formula_structural   NaH7C3SO5
_chemical_formula_sum   'Na4 H28 C12 S4 O20'
_cell_volume   640.10009739
_cell_formula_units_Z   4
loop_
 _symmetry_equiv_pos_site_id
 _symmetry_equiv_pos_as_xyz
  1  'x, y, z'
loop_
 _atom_site_type_symbol
 _atom_site_label
 _atom_site_symmetry_multiplicity
 _atom_site_fract_x
 _atom_site_fract_y
 _atom_site_fract_z
 _atom_site_occupancy
  Na  Na0  1  0.74889000  0.44068000  0.23314000  1.0
  Na  Na1  1  0.75109000  0.94067000  0.26686000  1.0
  Na  Na2  1  0.25110000  0.55932000  0.76686000  1.0
  Na  Na3  1  0.24890000  0.05932000  0.73314000  1.0
  H  H4  1  0.25502000  0.95645000  0.00590000  1.0
  H  H5  1  0.24499000  0.45643000  0.49410000  1.0
  H  H6  1  0.74498000  0.04356000  0.99410000  1.0
  H  H7  1  0.75502000  0.54357000  0.50590000  1.0
  H  H8  1  0.59559000  0.63605000  0.90734000  1.0
  H  H9  1  0.90443000  0.13606000  0.59266000  1.0
  H  H10  1  0.40442000  0.36395000  0.09266000  1.0
  H  H11  1  0.09559000  0.86395000  0.40734000  1.0
  H  H12  1  0.88813000  0.54092000  0.93617000  1.0
  H  H13  1  0.61188000  0.04093000  0.56383000  1.0
  H  H14  1  0.11188000  0.45908000  0.06382000  1.0
  H  H15  1  0.38813000  0.95907000  0.43617000  1.0
  H  H16  1  0.72400000  0.67865000  0.39365000  1.0
  H  H17  1  0.77600000  0.17865000  0.10635000  1.0
  H  H18  1  0.27600000  0.32135000  0.60635000  1.0
  H  H19  1  0.22400000  0.82136000  0.89365000  1.0
  H  H20  1  0.49600000  0.58609000  0.35181000  1.0
  H  H21  1  0.00401000  0.08609000  0.14819000  1.0
  H  H22  1  0.50400000  0.41391000  0.64819000  1.0
  H  H23  1  0.99599000  0.91392000  0.85181000  1.0
  H  H24  1  0.12721000  0.62213000  0.30168000  1.0
  H  H25  1  0.37279000  0.12213000  0.19832000  1.0
  H  H26  1  0.87279000  0.37787000  0.69832000  1.0
  H  H27  1  0.62721000  0.87787000  0.80168000  1.0
  H  H28  1  0.21132000  0.70793000  0.22938000  1.0
  H  H29  1  0.28869000  0.20793000  0.27062000  1.0
  H  H30  1  0.78869000  0.29207000  0.77062000  1.0
  H  H31  1  0.71130000  0.79206000  0.72938000  1.0
  C  C32  1  0.38253000  0.80073000  0.12189000  1.0
  C  C33  1  0.11746000  0.30073000  0.37811000  1.0
  C  C34  1  0.61747000  0.19926000  0.87811000  1.0
  C  C35  1  0.88253000  0.69928000  0.62189000  1.0
  C  C36  1  0.39264000  0.68735000  0.04757000  1.0
  C  C37  1  0.10737000  0.18734000  0.45242000  1.0
  C  C38  1  0.60737000  0.31266000  0.95242000  1.0
  C  C39  1  0.89264000  0.81265000  0.54758000  1.0
  C  C40  1  0.70174000  0.54373000  0.94959000  1.0
  C  C41  1  0.79827000  0.04372000  0.55041000  1.0
  C  C42  1  0.29827000  0.45627000  0.05041000  1.0
  C  C43  1  0.20175000  0.95627000  0.44960000  1.0
  S  S44  1  0.71656000  0.68653000  0.03497000  1.0
  S  S45  1  0.78345000  0.18652000  0.46503000  1.0
  S  S46  1  0.28344000  0.31348000  0.96502000  1.0
  S  S47  1  0.21656000  0.81347000  0.53497000  1.0
  O  O48  1  0.47647000  0.70589000  0.17850000  1.0
  O  O49  1  0.02350000  0.20587000  0.32150000  1.0
  O  O50  1  0.52353000  0.29411000  0.82150000  1.0
  O  O51  1  0.97648000  0.79412000  0.67850000  1.0
  O  O52  1  0.27968000  0.98340000  0.11957000  1.0
  O  O53  1  0.22034000  0.48340000  0.38042000  1.0
  O  O54  1  0.72032000  0.01661000  0.88043000  1.0
  O  O55  1  0.77965000  0.51659000  0.61958000  1.0
  O  O56  1  0.25555000  0.80129000  0.99190000  1.0
  O  O57  1  0.24444000  0.30128000  0.50810000  1.0
  O  O58  1  0.74444000  0.19872000  0.00810000  1.0
  O  O59  1  0.75555000  0.69872000  0.49190000  1.0
  O  O60  1  0.65268000  0.64837000  0.34359000  1.0
  O  O61  1  0.84731000  0.14839000  0.15640000  1.0
  O  O62  1  0.34732000  0.35162000  0.65641000  1.0
  O  O63  1  0.15269000  0.85162000  0.84360000  1.0
  O  O64  1  0.06726000  0.69484000  0.25525000  1.0
  O  O65  1  0.43273000  0.19484000  0.24475000  1.0
  O  O66  1  0.93274000  0.30517000  0.74475000  1.0
  O  O67  1  0.56726000  0.80516000  0.75525000  1.0
