# generated using pymatgen
data_MnH16C24(NO2)2
_symmetry_space_group_name_H-M   'P 1'
_cell_length_a   13.80880000
_cell_length_b   17.56870000
_cell_length_c   18.84880000
_cell_angle_alpha   98.16810000
_cell_angle_beta   90.00000000
_cell_angle_gamma   90.00000000
_symmetry_Int_Tables_number   1
_chemical_formula_structural   MnH16C24(NO2)2
_chemical_formula_sum   'Mn8 H128 C192 N16 O32'
_cell_volume   4526.38059082
_cell_formula_units_Z   8
loop_
 _symmetry_equiv_pos_site_id
 _symmetry_equiv_pos_as_xyz
  1  'x, y, z'
loop_
 _atom_site_type_symbol
 _atom_site_label
 _atom_site_symmetry_multiplicity
 _atom_site_fract_x
 _atom_site_fract_y
 _atom_site_fract_z
 _atom_site_occupancy
  Mn  Mn0  1  0.57151000  0.38314000  0.00511000  1.0
  Mn  Mn1  1  0.42282000  0.13112000  0.00418000  1.0
  Mn  Mn2  1  0.07150000  0.61685000  0.49490000  1.0
  Mn  Mn3  1  0.92281000  0.86888000  0.49583000  1.0
  Mn  Mn4  1  0.42849000  0.61686000  0.99489000  1.0
  Mn  Mn5  1  0.57718000  0.86888000  0.99582000  1.0
  Mn  Mn6  1  0.92849000  0.38315000  0.50511000  1.0
  Mn  Mn7  1  0.07719000  0.13112000  0.50417000  1.0
  H  H8  1  0.83673000  0.28375000  0.29837000  1.0
  H  H9  1  0.87268000  0.09667000  0.12557000  1.0
  H  H10  1  0.96439000  0.02375000  0.20739000  1.0
  H  H11  1  0.99305000  0.08233000  0.33480000  1.0
  H  H12  1  0.75894000  0.41937000  0.11373000  1.0
  H  H13  1  0.86124000  0.35048000  0.19386000  1.0
  H  H14  1  0.71421000  0.14152000  0.10575000  1.0
  H  H15  1  0.61962000  0.21786000  0.02976000  1.0
  H  H16  1  0.67164000  0.48602000  0.20978000  1.0
  H  H17  1  0.66768000  0.68716000  0.37071000  1.0
  H  H18  1  0.57739000  0.75798000  0.28642000  1.0
  H  H19  1  0.54049000  0.69351000  0.16251000  1.0
  H  H20  1  0.90012000  0.39649000  0.34450000  1.0
  H  H21  1  0.81508000  0.47155000  0.26081000  1.0
  H  H22  1  0.66643000  0.59297000  0.44435000  1.0
  H  H23  1  0.76070000  0.51436000  0.52010000  1.0
  H  H24  1  0.65868000  0.96675000  0.20187000  1.0
  H  H25  1  0.62425000  0.15085000  0.37754000  1.0
  H  H26  1  0.53139000  0.22513000  0.29811000  1.0
  H  H27  1  0.50273000  0.16994000  0.16980000  1.0
  H  H28  1  0.75170000  0.82949000  0.38139000  1.0
  H  H29  1  0.64875000  0.89647000  0.30007000  1.0
  H  H30  1  0.77851000  0.10975000  0.39761000  1.0
  H  H31  1  0.87699000  0.03440000  0.47261000  1.0
  H  H32  1  0.34251000  0.23011000  0.21413000  1.0
  H  H33  1  0.41044000  0.40323000  0.39321000  1.0
  H  H34  1  0.50569000  0.47435000  0.31218000  1.0
  H  H35  1  0.51611000  0.42416000  0.18100000  1.0
  H  H36  1  0.24748000  0.08925000  0.38928000  1.0
  H  H37  1  0.35315000  0.15378000  0.30821000  1.0
  H  H38  1  0.25123000  0.37063000  0.41963000  1.0
  H  H39  1  0.14765000  0.29802000  0.49327000  1.0
  H  H40  1  0.33673000  0.71624000  0.20163000  1.0
  H  H41  1  0.37269000  0.90333000  0.37442000  1.0
  H  H42  1  0.46440000  0.97625000  0.29261000  1.0
  H  H43  1  0.49304000  0.91766000  0.16519000  1.0
  H  H44  1  0.25892000  0.58063000  0.38627000  1.0
  H  H45  1  0.36123000  0.64951000  0.30615000  1.0
  H  H46  1  0.21421000  0.85849000  0.39426000  1.0
  H  H47  1  0.11961000  0.78215000  0.47024000  1.0
  H  H48  1  0.17164000  0.51399000  0.29022000  1.0
  H  H49  1  0.16768000  0.31284000  0.12929000  1.0
  H  H50  1  0.07738000  0.24202000  0.21358000  1.0
  H  H51  1  0.04048000  0.30650000  0.33749000  1.0
  H  H52  1  0.40013000  0.60351000  0.15551000  1.0
  H  H53  1  0.31508000  0.52845000  0.23919000  1.0
  H  H54  1  0.16643000  0.40704000  0.05565000  1.0
  H  H55  1  0.26071000  0.48564000  0.97990000  1.0
  H  H56  1  0.15869000  0.03324000  0.29812000  1.0
  H  H57  1  0.12425000  0.84915000  0.12246000  1.0
  H  H58  1  0.03139000  0.77487000  0.20189000  1.0
  H  H59  1  0.00273000  0.83006000  0.33020000  1.0
  H  H60  1  0.25170000  0.17052000  0.11861000  1.0
  H  H61  1  0.14875000  0.10353000  0.19993000  1.0
  H  H62  1  0.27852000  0.89025000  0.10240000  1.0
  H  H63  1  0.37700000  0.96560000  0.02740000  1.0
  H  H64  1  0.84250000  0.76989000  0.28588000  1.0
  H  H65  1  0.91044000  0.59678000  0.10679000  1.0
  H  H66  1  0.00568000  0.52565000  0.18783000  1.0
  H  H67  1  0.01611000  0.57584000  0.31900000  1.0
  H  H68  1  0.74747000  0.91074000  0.11071000  1.0
  H  H69  1  0.85314000  0.84622000  0.19178000  1.0
  H  H70  1  0.75123000  0.62936000  0.08037000  1.0
  H  H71  1  0.64765000  0.70197000  0.00673000  1.0
  H  H72  1  0.16326000  0.71625000  0.70163000  1.0
  H  H73  1  0.12732000  0.90333000  0.87443000  1.0
  H  H74  1  0.03561000  0.97626000  0.79261000  1.0
  H  H75  1  0.00695000  0.91767000  0.66520000  1.0
  H  H76  1  0.24107000  0.58063000  0.88626000  1.0
  H  H77  1  0.13876000  0.64951000  0.80614000  1.0
  H  H78  1  0.28579000  0.85849000  0.89425000  1.0
  H  H79  1  0.38038000  0.78214000  0.97024000  1.0
  H  H80  1  0.32835000  0.51398000  0.79022000  1.0
  H  H81  1  0.33232000  0.31285000  0.62929000  1.0
  H  H82  1  0.42261000  0.24202000  0.71358000  1.0
  H  H83  1  0.45951000  0.30649000  0.83748000  1.0
  H  H84  1  0.09987000  0.60352000  0.65551000  1.0
  H  H85  1  0.18492000  0.52845000  0.73919000  1.0
  H  H86  1  0.33357000  0.40704000  0.55565000  1.0
  H  H87  1  0.23928000  0.48564000  0.47990000  1.0
  H  H88  1  0.34132000  0.03325000  0.79813000  1.0
  H  H89  1  0.37575000  0.84915000  0.62246000  1.0
  H  H90  1  0.46860000  0.77488000  0.70189000  1.0
  H  H91  1  0.49727000  0.83006000  0.83020000  1.0
  H  H92  1  0.24830000  0.17052000  0.61861000  1.0
  H  H93  1  0.35125000  0.10354000  0.69993000  1.0
  H  H94  1  0.22149000  0.89025000  0.60240000  1.0
  H  H95  1  0.12301000  0.96560000  0.52740000  1.0
  H  H96  1  0.65750000  0.76989000  0.78587000  1.0
  H  H97  1  0.58956000  0.59677000  0.60679000  1.0
  H  H98  1  0.49432000  0.52564000  0.68783000  1.0
  H  H99  1  0.48390000  0.57583000  0.81900000  1.0
  H  H100  1  0.75253000  0.91074000  0.61072000  1.0
  H  H101  1  0.64686000  0.84621000  0.69179000  1.0
  H  H102  1  0.74877000  0.62936000  0.58037000  1.0
  H  H103  1  0.85235000  0.70198000  0.50673000  1.0
  H  H104  1  0.66327000  0.28375000  0.79837000  1.0
  H  H105  1  0.62732000  0.09667000  0.62557000  1.0
  H  H106  1  0.53561000  0.02374000  0.70739000  1.0
  H  H107  1  0.50696000  0.08233000  0.83480000  1.0
  H  H108  1  0.74106000  0.41937000  0.61373000  1.0
  H  H109  1  0.63876000  0.35048000  0.69385000  1.0
  H  H110  1  0.78580000  0.14152000  0.60574000  1.0
  H  H111  1  0.88039000  0.21786000  0.52976000  1.0
  H  H112  1  0.82836000  0.48602000  0.70978000  1.0
  H  H113  1  0.83233000  0.68715000  0.87071000  1.0
  H  H114  1  0.92262000  0.75798000  0.78642000  1.0
  H  H115  1  0.95951000  0.69351000  0.66251000  1.0
  H  H116  1  0.59988000  0.39649000  0.84450000  1.0
  H  H117  1  0.68493000  0.47155000  0.76081000  1.0
  H  H118  1  0.83358000  0.59297000  0.94436000  1.0
  H  H119  1  0.73930000  0.51436000  0.02010000  1.0
  H  H120  1  0.84132000  0.96676000  0.70188000  1.0
  H  H121  1  0.87575000  0.15085000  0.87754000  1.0
  H  H122  1  0.96861000  0.22513000  0.79811000  1.0
  H  H123  1  0.99727000  0.16994000  0.66980000  1.0
  H  H124  1  0.74831000  0.82948000  0.88139000  1.0
  H  H125  1  0.85125000  0.89647000  0.80007000  1.0
  H  H126  1  0.72149000  0.10975000  0.89761000  1.0
  H  H127  1  0.62301000  0.03440000  0.97260000  1.0
  H  H128  1  0.15750000  0.23011000  0.71413000  1.0
  H  H129  1  0.08956000  0.40322000  0.89321000  1.0
  H  H130  1  0.99432000  0.47435000  0.81218000  1.0
  H  H131  1  0.98389000  0.42416000  0.68100000  1.0
  H  H132  1  0.25254000  0.08926000  0.88929000  1.0
  H  H133  1  0.14687000  0.15378000  0.80821000  1.0
  H  H134  1  0.24877000  0.37064000  0.91964000  1.0
  H  H135  1  0.35235000  0.29803000  0.99327000  1.0
  C  C136  1  0.93168000  0.22008000  0.40110000  1.0
  C  C137  1  0.91691000  0.18642000  0.32373000  1.0
  C  C138  1  0.86604000  0.22748000  0.27736000  1.0
  C  C139  1  0.85001000  0.19601000  0.20579000  1.0
  C  C140  1  0.88482000  0.12172000  0.18123000  1.0
  C  C141  1  0.93643000  0.08091000  0.22705000  1.0
  C  C142  1  0.95286000  0.11309000  0.29807000  1.0
  C  C143  1  0.75178000  0.35747000  0.11344000  1.0
  C  C144  1  0.80759000  0.31912000  0.15862000  1.0
  C  C145  1  0.79576000  0.23951000  0.15746000  1.0
  C  C146  1  0.72827000  0.20283000  0.10870000  1.0
  C  C147  1  0.67470000  0.24553000  0.06602000  1.0
  C  C148  1  0.58025000  0.54683000  0.10416000  1.0
  C  C149  1  0.60403000  0.58603000  0.17881000  1.0
  C  C150  1  0.65344000  0.54616000  0.22680000  1.0
  C  C151  1  0.67713000  0.58160000  0.29613000  1.0
  C  C152  1  0.64868000  0.65832000  0.31737000  1.0
  C  C153  1  0.59918000  0.69842000  0.26977000  1.0
  C  C154  1  0.57779000  0.66280000  0.20061000  1.0
  C  C155  1  0.84724000  0.44039000  0.36433000  1.0
  C  C156  1  0.79869000  0.48175000  0.31788000  1.0
  C  C157  1  0.73106000  0.53819000  0.34481000  1.0
  C  C158  1  0.71777000  0.55016000  0.41941000  1.0
  C  C159  1  0.76977000  0.50618000  0.46205000  1.0
  C  C160  1  0.56727000  0.03421000  0.10040000  1.0
  C  C161  1  0.57940000  0.06532000  0.17847000  1.0
  C  C162  1  0.63063000  0.02317000  0.22370000  1.0
  C  C163  1  0.64773000  0.05333000  0.29542000  1.0
  C  C164  1  0.61190000  0.12683000  0.32166000  1.0
  C  C165  1  0.55944000  0.16845000  0.27709000  1.0
  C  C166  1  0.54311000  0.13809000  0.20562000  1.0
  C  C167  1  0.75481000  0.89178000  0.38305000  1.0
  C  C168  1  0.69831000  0.92931000  0.33775000  1.0
  C  C169  1  0.70440000  0.00972000  0.34214000  1.0
  C  C170  1  0.76863000  0.04776000  0.39279000  1.0
  C  C171  1  0.82399000  0.00584000  0.43493000  1.0
  C  C172  1  0.43579000  0.29424000  0.11130000  1.0
  C  C173  1  0.42973000  0.32429000  0.19013000  1.0
  C  C174  1  0.37765000  0.28374000  0.23626000  1.0
  C  C175  1  0.36903000  0.31162000  0.30941000  1.0
  C  C176  1  0.41502000  0.38128000  0.33614000  1.0
  C  C177  1  0.46865000  0.42121000  0.29062000  1.0
  C  C178  1  0.47557000  0.39335000  0.21765000  1.0
  C  C179  1  0.25075000  0.15181000  0.39395000  1.0
  C  C180  1  0.30919000  0.18818000  0.34885000  1.0
  C  C181  1  0.31190000  0.26898000  0.35699000  1.0
  C  C182  1  0.25483000  0.30815000  0.41186000  1.0
  C  C183  1  0.19652000  0.26766000  0.45349000  1.0
  C  C184  1  0.43168000  0.77991000  0.09890000  1.0
  C  C185  1  0.41692000  0.81358000  0.17627000  1.0
  C  C186  1  0.36604000  0.77251000  0.22264000  1.0
  C  C187  1  0.35001000  0.80398000  0.29421000  1.0
  C  C188  1  0.38482000  0.87827000  0.31877000  1.0
  C  C189  1  0.43642000  0.91908000  0.27294000  1.0
  C  C190  1  0.45286000  0.88690000  0.20193000  1.0
  C  C191  1  0.25177000  0.64253000  0.38657000  1.0
  C  C192  1  0.30758000  0.68088000  0.34138000  1.0
  C  C193  1  0.29576000  0.76049000  0.34254000  1.0
  C  C194  1  0.22827000  0.79717000  0.39130000  1.0
  C  C195  1  0.17470000  0.75447000  0.43398000  1.0
  C  C196  1  0.08024000  0.45317000  0.39584000  1.0
  C  C197  1  0.10403000  0.41398000  0.32119000  1.0
  C  C198  1  0.15344000  0.45384000  0.27320000  1.0
  C  C199  1  0.17713000  0.41840000  0.20387000  1.0
  C  C200  1  0.14867000  0.34168000  0.18263000  1.0
  C  C201  1  0.09917000  0.30159000  0.23023000  1.0
  C  C202  1  0.07778000  0.33720000  0.29939000  1.0
  C  C203  1  0.34724000  0.55961000  0.13567000  1.0
  C  C204  1  0.29870000  0.51825000  0.18212000  1.0
  C  C205  1  0.23106000  0.46181000  0.15519000  1.0
  C  C206  1  0.21777000  0.44984000  0.08059000  1.0
  C  C207  1  0.26977000  0.49382000  0.03795000  1.0
  C  C208  1  0.06728000  0.96579000  0.39960000  1.0
  C  C209  1  0.07941000  0.93468000  0.32152000  1.0
  C  C210  1  0.13063000  0.97683000  0.27630000  1.0
  C  C211  1  0.14774000  0.94667000  0.20458000  1.0
  C  C212  1  0.11190000  0.87317000  0.17833000  1.0
  C  C213  1  0.05943000  0.83155000  0.22291000  1.0
  C  C214  1  0.04311000  0.86190000  0.29438000  1.0
  C  C215  1  0.25481000  0.10822000  0.11694000  1.0
  C  C216  1  0.19831000  0.07069000  0.16225000  1.0
  C  C217  1  0.20440000  0.99028000  0.15786000  1.0
  C  C218  1  0.26863000  0.95224000  0.10720000  1.0
  C  C219  1  0.32399000  0.99416000  0.06507000  1.0
  C  C220  1  0.93578000  0.70576000  0.38870000  1.0
  C  C221  1  0.92974000  0.67571000  0.30987000  1.0
  C  C222  1  0.87764000  0.71626000  0.26374000  1.0
  C  C223  1  0.86902000  0.68838000  0.19059000  1.0
  C  C224  1  0.91502000  0.61872000  0.16387000  1.0
  C  C225  1  0.96864000  0.57879000  0.20939000  1.0
  C  C226  1  0.97557000  0.60665000  0.28236000  1.0
  C  C227  1  0.75074000  0.84819000  0.10605000  1.0
  C  C228  1  0.80918000  0.81182000  0.15115000  1.0
  C  C229  1  0.81189000  0.73102000  0.14301000  1.0
  C  C230  1  0.75483000  0.69184000  0.08813000  1.0
  C  C231  1  0.69653000  0.73233000  0.04650000  1.0
  C  C232  1  0.06831000  0.77993000  0.59891000  1.0
  C  C233  1  0.08309000  0.81359000  0.67627000  1.0
  C  C234  1  0.13396000  0.77252000  0.72264000  1.0
  C  C235  1  0.14999000  0.80399000  0.79421000  1.0
  C  C236  1  0.11518000  0.87828000  0.81877000  1.0
  C  C237  1  0.06358000  0.91909000  0.77295000  1.0
  C  C238  1  0.04714000  0.88691000  0.70193000  1.0
  C  C239  1  0.24822000  0.64253000  0.88656000  1.0
  C  C240  1  0.19241000  0.68088000  0.84138000  1.0
  C  C241  1  0.20424000  0.76049000  0.84253000  1.0
  C  C242  1  0.27173000  0.79717000  0.89129000  1.0
  C  C243  1  0.32529000  0.75447000  0.93397000  1.0
  C  C244  1  0.41975000  0.45317000  0.89584000  1.0
  C  C245  1  0.39597000  0.41397000  0.82118000  1.0
  C  C246  1  0.34656000  0.45384000  0.77319000  1.0
  C  C247  1  0.32287000  0.41840000  0.70387000  1.0
  C  C248  1  0.35132000  0.34168000  0.68263000  1.0
  C  C249  1  0.40082000  0.30158000  0.73022000  1.0
  C  C250  1  0.42222000  0.33720000  0.79939000  1.0
  C  C251  1  0.15275000  0.55961000  0.63567000  1.0
  C  C252  1  0.20130000  0.51826000  0.68212000  1.0
  C  C253  1  0.26894000  0.46181000  0.65518000  1.0
  C  C254  1  0.28223000  0.44985000  0.58059000  1.0
  C  C255  1  0.23022000  0.49383000  0.53795000  1.0
  C  C256  1  0.43273000  0.96580000  0.89960000  1.0
  C  C257  1  0.42060000  0.93468000  0.82153000  1.0
  C  C258  1  0.36937000  0.97683000  0.77630000  1.0
  C  C259  1  0.35227000  0.94668000  0.70459000  1.0
  C  C260  1  0.38810000  0.87318000  0.67834000  1.0
  C  C261  1  0.44057000  0.83155000  0.72291000  1.0
  C  C262  1  0.45689000  0.86191000  0.79438000  1.0
  C  C263  1  0.24519000  0.10822000  0.61694000  1.0
  C  C264  1  0.30168000  0.07069000  0.66225000  1.0
  C  C265  1  0.29560000  0.99029000  0.65786000  1.0
  C  C266  1  0.23137000  0.95224000  0.60721000  1.0
  C  C267  1  0.17601000  0.99415000  0.56507000  1.0
  C  C268  1  0.56422000  0.70576000  0.88870000  1.0
  C  C269  1  0.57027000  0.67571000  0.80987000  1.0
  C  C270  1  0.62236000  0.71626000  0.76374000  1.0
  C  C271  1  0.63098000  0.68838000  0.69059000  1.0
  C  C272  1  0.58498000  0.61871000  0.66387000  1.0
  C  C273  1  0.53136000  0.57879000  0.70939000  1.0
  C  C274  1  0.52443000  0.60665000  0.78236000  1.0
  C  C275  1  0.74926000  0.84819000  0.60605000  1.0
  C  C276  1  0.69082000  0.81182000  0.65116000  1.0
  C  C277  1  0.68810000  0.73102000  0.64301000  1.0
  C  C278  1  0.74517000  0.69185000  0.58814000  1.0
  C  C279  1  0.80347000  0.73233000  0.54651000  1.0
  C  C280  1  0.56832000  0.22008000  0.90109000  1.0
  C  C281  1  0.58308000  0.18642000  0.82372000  1.0
  C  C282  1  0.63396000  0.22748000  0.77736000  1.0
  C  C283  1  0.64999000  0.19601000  0.70578000  1.0
  C  C284  1  0.61519000  0.12172000  0.68122000  1.0
  C  C285  1  0.56358000  0.08090000  0.72705000  1.0
  C  C286  1  0.54715000  0.11309000  0.79806000  1.0
  C  C287  1  0.74822000  0.35747000  0.61344000  1.0
  C  C288  1  0.69241000  0.31912000  0.65862000  1.0
  C  C289  1  0.70424000  0.23951000  0.65746000  1.0
  C  C290  1  0.77173000  0.20283000  0.60870000  1.0
  C  C291  1  0.82530000  0.24553000  0.56602000  1.0
  C  C292  1  0.91974000  0.54683000  0.60417000  1.0
  C  C293  1  0.89597000  0.58603000  0.67882000  1.0
  C  C294  1  0.84656000  0.54616000  0.72681000  1.0
  C  C295  1  0.82287000  0.58161000  0.79613000  1.0
  C  C296  1  0.85133000  0.65833000  0.81737000  1.0
  C  C297  1  0.90082000  0.69842000  0.76978000  1.0
  C  C298  1  0.92222000  0.66281000  0.70061000  1.0
  C  C299  1  0.65277000  0.44039000  0.86433000  1.0
  C  C300  1  0.70131000  0.48175000  0.81789000  1.0
  C  C301  1  0.76894000  0.53819000  0.84482000  1.0
  C  C302  1  0.78224000  0.55016000  0.91942000  1.0
  C  C303  1  0.73024000  0.50618000  0.96205000  1.0
  C  C304  1  0.93273000  0.03421000  0.60040000  1.0
  C  C305  1  0.92060000  0.06532000  0.67847000  1.0
  C  C306  1  0.86937000  0.02317000  0.72370000  1.0
  C  C307  1  0.85227000  0.05333000  0.79541000  1.0
  C  C308  1  0.88810000  0.12683000  0.82167000  1.0
  C  C309  1  0.94057000  0.16845000  0.77709000  1.0
  C  C310  1  0.95689000  0.13809000  0.70562000  1.0
  C  C311  1  0.74519000  0.89178000  0.88305000  1.0
  C  C312  1  0.80169000  0.92931000  0.83775000  1.0
  C  C313  1  0.79560000  0.00972000  0.84214000  1.0
  C  C314  1  0.73137000  0.04776000  0.89279000  1.0
  C  C315  1  0.67601000  0.00584000  0.93493000  1.0
  C  C316  1  0.06421000  0.29424000  0.61130000  1.0
  C  C317  1  0.07027000  0.32429000  0.69013000  1.0
  C  C318  1  0.12236000  0.28374000  0.73626000  1.0
  C  C319  1  0.13098000  0.31162000  0.80941000  1.0
  C  C320  1  0.08498000  0.38128000  0.83614000  1.0
  C  C321  1  0.03136000  0.42120000  0.79062000  1.0
  C  C322  1  0.02443000  0.39335000  0.71765000  1.0
  C  C323  1  0.24927000  0.15181000  0.89395000  1.0
  C  C324  1  0.19082000  0.18818000  0.84885000  1.0
  C  C325  1  0.18811000  0.26898000  0.85699000  1.0
  C  C326  1  0.24517000  0.30816000  0.91187000  1.0
  C  C327  1  0.30348000  0.26767000  0.95350000  1.0
  N  N328  1  0.68535000  0.32206000  0.06795000  1.0
  N  N329  1  0.83349000  0.45158000  0.43574000  1.0
  N  N330  1  0.81732000  0.92881000  0.43082000  1.0
  N  N331  1  0.19384000  0.19021000  0.44507000  1.0
  N  N332  1  0.18534000  0.67795000  0.43206000  1.0
  N  N333  1  0.33349000  0.54842000  0.06426000  1.0
  N  N334  1  0.31732000  0.07119000  0.06918000  1.0
  N  N335  1  0.69384000  0.80978000  0.05493000  1.0
  N  N336  1  0.31465000  0.67795000  0.93205000  1.0
  N  N337  1  0.16650000  0.54842000  0.56426000  1.0
  N  N338  1  0.18268000  0.07119000  0.56918000  1.0
  N  N339  1  0.80616000  0.80978000  0.55493000  1.0
  N  N340  1  0.81465000  0.32206000  0.56794000  1.0
  N  N341  1  0.66652000  0.45158000  0.93574000  1.0
  N  N342  1  0.68268000  0.92881000  0.93082000  1.0
  N  N343  1  0.30617000  0.19022000  0.94507000  1.0
  O  O344  1  0.96940000  0.17718000  0.44256000  1.0
  O  O345  1  0.90310000  0.28881000  0.41988000  1.0
  O  O346  1  0.54727000  0.58745000  0.05931000  1.0
  O  O347  1  0.59801000  0.47492000  0.09156000  1.0
  O  O348  1  0.53608000  0.07964000  0.05874000  1.0
  O  O349  1  0.59325000  0.96479000  0.08106000  1.0
  O  O350  1  0.46474000  0.33981000  0.06924000  1.0
  O  O351  1  0.40875000  0.22499000  0.09207000  1.0
  O  O352  1  0.46939000  0.82282000  0.05744000  1.0
  O  O353  1  0.40309000  0.71119000  0.08012000  1.0
  O  O354  1  0.04726000  0.41256000  0.44068000  1.0
  O  O355  1  0.09800000  0.52509000  0.40844000  1.0
  O  O356  1  0.03608000  0.92036000  0.44125000  1.0
  O  O357  1  0.09326000  0.03521000  0.41893000  1.0
  O  O358  1  0.96472000  0.66018000  0.43075000  1.0
  O  O359  1  0.90873000  0.77501000  0.40793000  1.0
  O  O360  1  0.03060000  0.82283000  0.55745000  1.0
  O  O361  1  0.09689000  0.71120000  0.58013000  1.0
  O  O362  1  0.45273000  0.41255000  0.94068000  1.0
  O  O363  1  0.40198000  0.52508000  0.90843000  1.0
  O  O364  1  0.46392000  0.92036000  0.94125000  1.0
  O  O365  1  0.40675000  0.03521000  0.91894000  1.0
  O  O366  1  0.53527000  0.66018000  0.93075000  1.0
  O  O367  1  0.59126000  0.77501000  0.90792000  1.0
  O  O368  1  0.53061000  0.17718000  0.94255000  1.0
  O  O369  1  0.59691000  0.28881000  0.91988000  1.0
  O  O370  1  0.95272000  0.58745000  0.55932000  1.0
  O  O371  1  0.90198000  0.47492000  0.59157000  1.0
  O  O372  1  0.96392000  0.07964000  0.55874000  1.0
  O  O373  1  0.90674000  0.96479000  0.58107000  1.0
  O  O374  1  0.03526000  0.33982000  0.56924000  1.0
  O  O375  1  0.09126000  0.22499000  0.59207000  1.0
