# generated using pymatgen
data_CsH13C7N2O7
_symmetry_space_group_name_H-M   'P 1'
_cell_length_a   4.96203000
_cell_length_b   10.09090000
_cell_length_c   12.47310000
_cell_angle_alpha   90.00090000
_cell_angle_beta   90.00040000
_cell_angle_gamma   89.99950000
_symmetry_Int_Tables_number   1
_chemical_formula_structural   CsH13C7N2O7
_chemical_formula_sum   'Cs2 H26 C14 N4 O14'
_cell_volume   624.54493720
_cell_formula_units_Z   2
loop_
 _symmetry_equiv_pos_site_id
 _symmetry_equiv_pos_as_xyz
  1  'x, y, z'
loop_
 _atom_site_type_symbol
 _atom_site_label
 _atom_site_symmetry_multiplicity
 _atom_site_fract_x
 _atom_site_fract_y
 _atom_site_fract_z
 _atom_site_occupancy
  Cs  Cs0  1  0.97670000  0.15787000  0.00000000  1.0
  Cs  Cs1  1  0.02329000  0.65786000  0.00000000  1.0
  H  H2  1  0.40704000  0.26188000  0.25330000  1.0
  H  H3  1  0.59298000  0.76188000  0.74670000  1.0
  H  H4  1  0.59298000  0.76189000  0.25330000  1.0
  H  H5  1  0.40700000  0.26189000  0.74670000  1.0
  H  H6  1  0.17178000  0.14294000  0.29970000  1.0
  H  H7  1  0.82822000  0.64292000  0.70030000  1.0
  H  H8  1  0.82823000  0.64293000  0.29970000  1.0
  H  H9  1  0.17176000  0.14293000  0.70030000  1.0
  H  H10  1  0.14212000  0.10081000  0.50000000  1.0
  H  H11  1  0.85789000  0.60081000  0.50000000  1.0
  H  H12  1  0.80267000  0.32583000  0.38564000  1.0
  H  H13  1  0.19733000  0.82583000  0.61437000  1.0
  H  H14  1  0.19733000  0.82583000  0.38563000  1.0
  H  H15  1  0.80266000  0.32583000  0.61437000  1.0
  H  H16  1  0.05151000  0.40625000  0.23783000  1.0
  H  H17  1  0.94849000  0.90625000  0.76217000  1.0
  H  H18  1  0.94850000  0.90624000  0.23783000  1.0
  H  H19  1  0.05150000  0.40625000  0.76217000  1.0
  H  H20  1  0.77333000  0.40868000  0.18064000  1.0
  H  H21  1  0.22667000  0.90867000  0.81935000  1.0
  H  H22  1  0.22667000  0.90867000  0.18065000  1.0
  H  H23  1  0.77333000  0.40868000  0.81936000  1.0
  H  H24  1  0.44111000  0.40832000  0.93740000  1.0
  H  H25  1  0.55890000  0.90832000  0.06260000  1.0
  H  H26  1  0.55889000  0.90832000  0.93740000  1.0
  H  H27  1  0.44111000  0.40832000  0.06260000  1.0
  C  C28  1  0.56107000  0.06300000  0.25522000  1.0
  C  C29  1  0.43893000  0.56300000  0.74478000  1.0
  C  C30  1  0.43894000  0.56300000  0.25521000  1.0
  C  C31  1  0.56107000  0.06301000  0.74478000  1.0
  C  C32  1  0.38409000  0.17312000  0.30292000  1.0
  C  C33  1  0.61591000  0.67312000  0.69708000  1.0
  C  C34  1  0.61592000  0.67312000  0.30292000  1.0
  C  C35  1  0.38408000  0.17313000  0.69708000  1.0
  C  C36  1  0.32286000  0.16103000  0.50001000  1.0
  C  C37  1  0.67715000  0.66103000  0.50001000  1.0
  C  C38  1  0.67063000  0.28146000  0.44510000  1.0
  C  C39  1  0.32937000  0.78145000  0.55491000  1.0
  C  C40  1  0.32938000  0.78145000  0.44510000  1.0
  C  C41  1  0.67063000  0.28146000  0.55491000  1.0
  N  N42  1  0.45178000  0.20654000  0.41297000  1.0
  N  N43  1  0.54824000  0.70653000  0.58702000  1.0
  N  N44  1  0.54823000  0.70653000  0.41297000  1.0
  N  N45  1  0.45176000  0.20653000  0.58702000  1.0
  O  O46  1  0.49118000  0.03076000  0.16026000  1.0
  O  O47  1  0.50881000  0.53076000  0.83974000  1.0
  O  O48  1  0.50883000  0.53077000  0.16026000  1.0
  O  O49  1  0.49117000  0.03076000  0.83974000  1.0
  O  O50  1  0.75074000  0.01492000  0.30980000  1.0
  O  O51  1  0.24925000  0.51492000  0.69020000  1.0
  O  O52  1  0.24926000  0.51493000  0.30979000  1.0
  O  O53  1  0.75074000  0.01494000  0.69021000  1.0
  O  O54  1  0.91476000  0.34670000  0.20421000  1.0
  O  O55  1  0.08524000  0.84670000  0.79579000  1.0
  O  O56  1  0.08525000  0.84670000  0.20421000  1.0
  O  O57  1  0.91475000  0.34670000  0.79579000  1.0
  O  O58  1  0.43957000  0.34820000  0.00000000  1.0
  O  O59  1  0.56044000  0.84820000  0.00000000  1.0
