# generated using pymatgen
data_AlH18C24(NO2)3
_symmetry_space_group_name_H-M   'P 1'
_cell_length_a   3.97782000
_cell_length_b   28.49150000
_cell_length_c   28.49160000
_cell_angle_alpha   60.00034831
_cell_angle_beta   89.99980000
_cell_angle_gamma   89.99960000
_symmetry_Int_Tables_number   1
_chemical_formula_structural   AlH18C24(NO2)3
_chemical_formula_sum   'Al2 H36 C48 N6 O12'
_cell_volume   2796.46530682
_cell_formula_units_Z   2
loop_
 _symmetry_equiv_pos_site_id
 _symmetry_equiv_pos_as_xyz
  1  'x, y, z'
loop_
 _atom_site_type_symbol
 _atom_site_label
 _atom_site_symmetry_multiplicity
 _atom_site_fract_x
 _atom_site_fract_y
 _atom_site_fract_z
 _atom_site_occupancy
  Al  Al0  1  0.99004000  0.00000000  0.50000000  1.0
  Al  Al1  1  0.98999000  0.66667000  0.16667000  1.0
  H  H2  1  0.16563000  0.51621000  0.29464000  1.0
  H  H3  1  0.12574000  0.41569000  0.34196000  1.0
  H  H4  1  0.68948000  0.41703000  0.21201000  1.0
  H  H5  1  0.68949000  0.24963000  0.45466000  1.0
  H  H6  1  0.12574000  0.25097000  0.32471000  1.0
  H  H7  1  0.16562000  0.15045000  0.37203000  1.0
  H  H8  1  0.41742000  0.33343000  0.27939000  1.0
  H  H9  1  0.41739000  0.33323000  0.38728000  1.0
  H  H10  1  0.16562000  0.79464000  0.18915000  1.0
  H  H11  1  0.12574000  0.84196000  0.24235000  1.0
  H  H12  1  0.68947000  0.71201000  0.37096000  1.0
  H  H13  1  0.68947000  0.95465000  0.29571000  1.0
  H  H14  1  0.12572000  0.82471000  0.42432000  1.0
  H  H15  1  0.16565000  0.87203000  0.47752000  1.0
  H  H16  1  0.41737000  0.77938000  0.38718000  1.0
  H  H17  1  0.41736000  0.88728000  0.27949000  1.0
  H  H18  1  0.16567000  0.68915000  0.01621000  1.0
  H  H19  1  0.12580000  0.74234000  0.91570000  1.0
  H  H20  1  0.68948000  0.87096000  0.91703000  1.0
  H  H21  1  0.68947000  0.79570000  0.74964000  1.0
  H  H22  1  0.12574000  0.92432000  0.75097000  1.0
  H  H23  1  0.16564000  0.97751000  0.65046000  1.0
  H  H24  1  0.41741000  0.88718000  0.83343000  1.0
  H  H25  1  0.41742000  0.77948000  0.83324000  1.0
  H  H26  1  0.86591000  0.55997000  0.14549000  1.0
  H  H27  1  0.95703000  0.49918000  0.14949000  1.0
  H  H28  1  0.86593000  0.10670000  0.52118000  1.0
  H  H29  1  0.95704000  0.16749000  0.51717000  1.0
  H  H30  1  0.86590000  0.64549000  0.29454000  1.0
  H  H31  1  0.95702000  0.64949000  0.35133000  1.0
  H  H32  1  0.86595000  0.02116000  0.37213000  1.0
  H  H33  1  0.95705000  0.01717000  0.31535000  1.0
  H  H34  1  0.86595000  0.79455000  0.05996000  1.0
  H  H35  1  0.95707000  0.85132000  0.99918000  1.0
  H  H36  1  0.86593000  0.87213000  0.60670000  1.0
  H  H37  1  0.95704000  0.81534000  0.66749000  1.0
  C  C38  1  0.48305000  0.95376000  0.58391000  1.0
  C  C39  1  0.48305000  0.08390000  0.46233000  1.0
  C  C40  1  0.48307000  0.96232000  0.45377000  1.0
  C  C41  1  0.48307000  0.58276000  0.20434000  1.0
  C  C42  1  0.48305000  0.70434000  0.21290000  1.0
  C  C43  1  0.48306000  0.71290000  0.08276000  1.0
  C  C44  1  0.46534000  0.52346000  0.22888000  1.0
  C  C45  1  0.28802000  0.49355000  0.27794000  1.0
  C  C46  1  0.26785000  0.43766000  0.30439000  1.0
  C  C47  1  0.41212000  0.40939000  0.28035000  1.0
  C  C48  1  0.57552000  0.43879000  0.23051000  1.0
  C  C49  1  0.61877000  0.49537000  0.20482000  1.0
  C  C50  1  0.40138000  0.35046000  0.30628000  1.0
  C  C51  1  0.40135000  0.31621000  0.36038000  1.0
  C  C52  1  0.57554000  0.22787000  0.43616000  1.0
  C  C53  1  0.41210000  0.25727000  0.38632000  1.0
  C  C54  1  0.26786000  0.22900000  0.36227000  1.0
  C  C55  1  0.28803000  0.17311000  0.38873000  1.0
  C  C56  1  0.46529000  0.14320000  0.43779000  1.0
  C  C57  1  0.61875000  0.17130000  0.46184000  1.0
  C  C58  1  0.46533000  0.72888000  0.24766000  1.0
  C  C59  1  0.28806000  0.77793000  0.22851000  1.0
  C  C60  1  0.26784000  0.80440000  0.25794000  1.0
  C  C61  1  0.41211000  0.78035000  0.31026000  1.0
  C  C62  1  0.57551000  0.73051000  0.33070000  1.0
  C  C63  1  0.61877000  0.70482000  0.29981000  1.0
  C  C64  1  0.40135000  0.80629000  0.34325000  1.0
  C  C65  1  0.40134000  0.86038000  0.32341000  1.0
  C  C66  1  0.57549000  0.93615000  0.33597000  1.0
  C  C67  1  0.41211000  0.88631000  0.35641000  1.0
  C  C68  1  0.26784000  0.86227000  0.40872000  1.0
  C  C69  1  0.28806000  0.88873000  0.43816000  1.0
  C  C70  1  0.46532000  0.93778000  0.41901000  1.0
  C  C71  1  0.61880000  0.96184000  0.36686000  1.0
  C  C72  1  0.46532000  0.74766000  0.02346000  1.0
  C  C73  1  0.28805000  0.72850000  0.99356000  1.0
  C  C74  1  0.26786000  0.75794000  0.93766000  1.0
  C  C75  1  0.41215000  0.81026000  0.90939000  1.0
  C  C76  1  0.57552000  0.83070000  0.93879000  1.0
  C  C77  1  0.61878000  0.79981000  0.99537000  1.0
  C  C78  1  0.40139000  0.84325000  0.85046000  1.0
  C  C79  1  0.40138000  0.82341000  0.81621000  1.0
  C  C80  1  0.57552000  0.83597000  0.72787000  1.0
  C  C81  1  0.41212000  0.85640000  0.75728000  1.0
  C  C82  1  0.26784000  0.90873000  0.72900000  1.0
  C  C83  1  0.28805000  0.93816000  0.67311000  1.0
  C  C84  1  0.46533000  0.91900000  0.64321000  1.0
  C  C85  1  0.61879000  0.86686000  0.67130000  1.0
  N  N86  1  0.78834000  0.52180000  0.15629000  1.0
  N  N87  1  0.78835000  0.14486000  0.51037000  1.0
  N  N88  1  0.78836000  0.65629000  0.32191000  1.0
  N  N89  1  0.78837000  0.01037000  0.34476000  1.0
  N  N90  1  0.78835000  0.82191000  0.02179000  1.0
  N  N91  1  0.78835000  0.84476000  0.64487000  1.0
  O  O92  1  0.72432000  0.99567000  0.44604000  1.0
  O  O93  1  0.72432000  0.94604000  0.55829000  1.0
  O  O94  1  0.72430000  0.05829000  0.49567000  1.0
  O  O95  1  0.25746000  0.94949000  0.49035000  1.0
  O  O96  1  0.25748000  0.06016000  0.44950000  1.0
  O  O97  1  0.25746000  0.99034000  0.56017000  1.0
  O  O98  1  0.72430000  0.72063000  0.10838000  1.0
  O  O99  1  0.72433000  0.60838000  0.17099000  1.0
  O  O100  1  0.72432000  0.67100000  0.22063000  1.0
  O  O101  1  0.25747000  0.67632000  0.10651000  1.0
  O  O102  1  0.25746000  0.71717000  0.17632000  1.0
  O  O103  1  0.25748000  0.60651000  0.21717000  1.0
