# generated using pymatgen
data_ZnH17C18I(NO)4
_symmetry_space_group_name_H-M   'P 1'
_cell_length_a   7.98780000
_cell_length_b   17.19350000
_cell_length_c   17.34900000
_cell_angle_alpha   89.99980000
_cell_angle_beta   89.99950000
_cell_angle_gamma   84.77520000
_symmetry_Int_Tables_number   1
_chemical_formula_structural   ZnH17C18I(NO)4
_chemical_formula_sum   'Zn4 H68 C72 I4 N16 O16'
_cell_volume   2372.78125403
_cell_formula_units_Z   4
loop_
 _symmetry_equiv_pos_site_id
 _symmetry_equiv_pos_as_xyz
  1  'x, y, z'
loop_
 _atom_site_type_symbol
 _atom_site_label
 _atom_site_symmetry_multiplicity
 _atom_site_fract_x
 _atom_site_fract_y
 _atom_site_fract_z
 _atom_site_occupancy
  Zn  Zn0  1  0.09025000  0.78342000  0.18170000  1.0
  Zn  Zn1  1  0.40974000  0.71658000  0.68169000  1.0
  Zn  Zn2  1  0.90975000  0.21658000  0.81830000  1.0
  Zn  Zn3  1  0.59025000  0.28342000  0.31831000  1.0
  H  H4  1  0.82452000  0.00434000  0.22274000  1.0
  H  H5  1  0.67547000  0.49566000  0.72273000  1.0
  H  H6  1  0.17548000  0.99565000  0.77727000  1.0
  H  H7  1  0.32452000  0.50434000  0.27727000  1.0
  H  H8  1  0.33135000  0.11863000  0.18385000  1.0
  H  H9  1  0.16865000  0.38137000  0.68385000  1.0
  H  H10  1  0.66866000  0.88137000  0.81615000  1.0
  H  H11  1  0.83135000  0.61863000  0.31615000  1.0
  H  H12  1  0.47619000  0.89332000  0.07975000  1.0
  H  H13  1  0.02383000  0.60668000  0.57975000  1.0
  H  H14  1  0.52382000  0.10668000  0.92025000  1.0
  H  H15  1  0.97618000  0.39332000  0.42025000  1.0
  H  H16  1  0.15442000  0.94097000  0.27738000  1.0
  H  H17  1  0.34558000  0.55903000  0.77738000  1.0
  H  H18  1  0.84559000  0.05903000  0.72262000  1.0
  H  H19  1  0.65442000  0.44097000  0.22263000  1.0
  H  H20  1  0.46532000  0.95651000  0.34717000  1.0
  H  H21  1  0.03468000  0.54349000  0.84717000  1.0
  H  H22  1  0.53469000  0.04348000  0.65283000  1.0
  H  H23  1  0.96532000  0.45652000  0.15283000  1.0
  H  H24  1  0.47228000  0.73504000  0.23994000  1.0
  H  H25  1  0.02772000  0.76496000  0.73994000  1.0
  H  H26  1  0.52772000  0.26496000  0.76006000  1.0
  H  H27  1  0.97228000  0.23504000  0.26006000  1.0
  H  H28  1  0.75661000  0.78244000  0.28503000  1.0
  H  H29  1  0.74339000  0.71756000  0.78502000  1.0
  H  H30  1  0.24339000  0.21756000  0.71497000  1.0
  H  H31  1  0.25661000  0.28244000  0.21498000  1.0
  H  H32  1  0.75276000  0.87428000  0.33038000  1.0
  H  H33  1  0.74724000  0.62571000  0.83038000  1.0
  H  H34  1  0.24724000  0.12571000  0.66962000  1.0
  H  H35  1  0.25276000  0.37429000  0.16962000  1.0
  H  H36  1  0.61634000  0.72808000  0.40036000  1.0
  H  H37  1  0.88365000  0.77192000  0.90036000  1.0
  H  H38  1  0.38366000  0.27192000  0.59964000  1.0
  H  H39  1  0.11634000  0.22808000  0.09964000  1.0
  H  H40  1  0.62587000  0.81676000  0.44984000  1.0
  H  H41  1  0.87412000  0.68324000  0.94984000  1.0
  H  H42  1  0.37413000  0.18323000  0.55016000  1.0
  H  H43  1  0.12587000  0.31676000  0.05016000  1.0
  H  H44  1  0.85212000  0.71634000  0.48815000  1.0
  H  H45  1  0.64787000  0.78366000  0.98815000  1.0
  H  H46  1  0.14788000  0.28366000  0.51185000  1.0
  H  H47  1  0.35212000  0.21634000  0.01185000  1.0
  H  H48  1  0.92620000  0.70793000  0.39158000  1.0
  H  H49  1  0.57379000  0.79207000  0.89158000  1.0
  H  H50  1  0.07380000  0.29207000  0.60842000  1.0
  H  H51  1  0.42621000  0.20793000  0.10842000  1.0
  H  H52  1  0.92286000  0.85749000  0.48846000  1.0
  H  H53  1  0.57713000  0.64251000  0.98846000  1.0
  H  H54  1  0.07714000  0.14251000  0.51154000  1.0
  H  H55  1  0.42287000  0.35749000  0.01154000  1.0
  H  H56  1  0.01509000  0.84240000  0.39563000  1.0
  H  H57  1  0.48490000  0.65760000  0.89563000  1.0
  H  H58  1  0.98490000  0.15760000  0.60437000  1.0
  H  H59  1  0.51510000  0.34240000  0.10437000  1.0
  H  H60  1  0.10161000  0.81971000  0.60290000  1.0
  H  H61  1  0.39838000  0.68029000  0.10291000  1.0
  H  H62  1  0.89838000  0.18029000  0.39710000  1.0
  H  H63  1  0.60162000  0.31971000  0.89710000  1.0
  H  H64  1  0.48546000  0.66636000  0.50526000  1.0
  H  H65  1  0.01453000  0.83364000  0.00526000  1.0
  H  H66  1  0.51453000  0.33364000  0.49474000  1.0
  H  H67  1  0.98547000  0.16636000  0.99474000  1.0
  H  H68  1  0.25676000  0.71641000  0.38960000  1.0
  H  H69  1  0.24323000  0.78358000  0.88960000  1.0
  H  H70  1  0.74324000  0.28359000  0.61040000  1.0
  H  H71  1  0.75677000  0.21641000  0.11040000  1.0
  C  C72  1  0.78589000  0.87023000  0.14413000  1.0
  C  C73  1  0.71412000  0.62977000  0.64411000  1.0
  C  C74  1  0.21411000  0.12976000  0.85588000  1.0
  C  C75  1  0.28588000  0.37023000  0.35588000  1.0
  C  C76  1  0.66147000  0.94125000  0.15149000  1.0
  C  C77  1  0.83853000  0.55875000  0.65149000  1.0
  C  C78  1  0.33853000  0.05875000  0.84851000  1.0
  C  C79  1  0.16146000  0.44125000  0.34851000  1.0
  C  C80  1  0.70102000  0.00477000  0.19621000  1.0
  C  C81  1  0.79898000  0.49524000  0.69620000  1.0
  C  C82  1  0.29899000  0.99523000  0.80379000  1.0
  C  C83  1  0.20102000  0.50476000  0.30379000  1.0
  C  C84  1  0.58345000  0.06911000  0.20693000  1.0
  C  C85  1  0.91655000  0.43090000  0.70693000  1.0
  C  C86  1  0.41656000  0.93089000  0.79307000  1.0
  C  C87  1  0.08344000  0.56910000  0.29307000  1.0
  C  C88  1  0.42416000  0.06953000  0.17312000  1.0
  C  C89  1  0.07583000  0.43047000  0.67312000  1.0
  C  C90  1  0.57584000  0.93047000  0.82688000  1.0
  C  C91  1  0.92416000  0.56953000  0.32688000  1.0
  C  C92  1  0.38747000  0.00711000  0.12673000  1.0
  C  C93  1  0.11254000  0.49289000  0.62673000  1.0
  C  C94  1  0.61254000  0.99289000  0.87327000  1.0
  C  C95  1  0.88746000  0.50711000  0.37327000  1.0
  C  C96  1  0.50433000  0.94283000  0.11511000  1.0
  C  C97  1  0.99568000  0.55717000  0.61511000  1.0
  C  C98  1  0.49567000  0.05717000  0.88489000  1.0
  C  C99  1  0.00432000  0.44283000  0.38489000  1.0
  C  C100  1  0.62903000  0.13781000  0.25357000  1.0
  C  C101  1  0.87095000  0.36219000  0.75357000  1.0
  C  C102  1  0.37097000  0.86219000  0.74643000  1.0
  C  C103  1  0.12903000  0.63781000  0.24643000  1.0
  C  C104  1  0.26581000  0.90017000  0.28155000  1.0
  C  C105  1  0.23419000  0.59983000  0.78155000  1.0
  C  C106  1  0.73420000  0.09983000  0.71845000  1.0
  C  C107  1  0.76581000  0.40017000  0.21846000  1.0
  C  C108  1  0.41818000  0.90851000  0.31594000  1.0
  C  C109  1  0.08182000  0.59149000  0.81594000  1.0
  C  C110  1  0.58183000  0.09149000  0.68406000  1.0
  C  C111  1  0.91817000  0.40851000  0.18407000  1.0
  C  C112  1  0.42687000  0.79321000  0.25906000  1.0
  C  C113  1  0.07312000  0.70679000  0.75906000  1.0
  C  C114  1  0.57313000  0.20679000  0.74094000  1.0
  C  C115  1  0.92687000  0.29321000  0.24094000  1.0
  C  C116  1  0.69003000  0.82011000  0.32840000  1.0
  C  C117  1  0.80997000  0.67989000  0.82839000  1.0
  C  C118  1  0.30998000  0.17989000  0.67160000  1.0
  C  C119  1  0.19003000  0.32011000  0.17161000  1.0
  C  C120  1  0.69068000  0.77850000  0.40612000  1.0
  C  C121  1  0.80931000  0.72150000  0.90612000  1.0
  C  C122  1  0.30932000  0.22150000  0.59388000  1.0
  C  C123  1  0.19069000  0.27850000  0.09388000  1.0
  C  C124  1  0.86568000  0.74869000  0.43414000  1.0
  C  C125  1  0.63432000  0.75131000  0.93414000  1.0
  C  C126  1  0.13432000  0.25131000  0.56586000  1.0
  C  C127  1  0.36568000  0.24869000  0.06586000  1.0
  C  C128  1  0.98168000  0.81298000  0.44901000  1.0
  C  C129  1  0.51831000  0.68702000  0.94901000  1.0
  C  C130  1  0.01832000  0.18702000  0.55099000  1.0
  C  C131  1  0.48169000  0.31298000  0.05099000  1.0
  C  C132  1  0.17461000  0.78415000  0.56112000  1.0
  C  C133  1  0.32538000  0.71586000  0.06112000  1.0
  C  C134  1  0.82539000  0.21585000  0.43888000  1.0
  C  C135  1  0.67462000  0.28414000  0.93888000  1.0
  C  C136  1  0.37056000  0.70491000  0.50799000  1.0
  C  C137  1  0.12942000  0.79509000  0.00799000  1.0
  C  C138  1  0.62943000  0.29509000  0.49201000  1.0
  C  C139  1  0.87057000  0.20491000  0.99201000  1.0
  C  C140  1  0.25966000  0.72951000  0.45067000  1.0
  C  C141  1  0.24033000  0.77049000  0.95067000  1.0
  C  C142  1  0.74034000  0.27049000  0.54933000  1.0
  C  C143  1  0.75967000  0.22951000  0.04933000  1.0
  I  I144  1  0.14603000  0.01216000  0.07635000  1.0
  I  I145  1  0.35399000  0.48785000  0.57636000  1.0
  I  I146  1  0.85398000  0.98785000  0.92364000  1.0
  I  I147  1  0.64602000  0.51216000  0.42365000  1.0
  N  N148  1  0.31624000  0.73952000  0.57645000  1.0
  N  N149  1  0.18375000  0.76048000  0.07645000  1.0
  N  N150  1  0.68375000  0.26048000  0.42355000  1.0
  N  N151  1  0.81625000  0.23952000  0.92355000  1.0
  N  N152  1  0.27293000  0.82777000  0.24644000  1.0
  N  N153  1  0.22707000  0.67223000  0.74644000  1.0
  N  N154  1  0.72707000  0.17223000  0.75356000  1.0
  N  N155  1  0.77293000  0.32777000  0.25356000  1.0
  N  N156  1  0.51866000  0.84054000  0.30072000  1.0
  N  N157  1  0.98134000  0.65946000  0.80072000  1.0
  N  N158  1  0.48134000  0.15945000  0.69928000  1.0
  N  N159  1  0.01866000  0.34055000  0.19928000  1.0
  N  N160  1  0.13710000  0.77988000  0.48532000  1.0
  N  N161  1  0.36289000  0.72013000  0.98533000  1.0
  N  N162  1  0.86289000  0.22013000  0.51467000  1.0
  N  N163  1  0.63711000  0.27987000  0.01468000  1.0
  O  O164  1  0.91907000  0.87259000  0.18696000  1.0
  O  O165  1  0.58094000  0.62742000  0.68695000  1.0
  O  O166  1  0.08093000  0.12741000  0.81304000  1.0
  O  O167  1  0.41907000  0.37259000  0.31305000  1.0
  O  O168  1  0.75672000  0.81481000  0.10114000  1.0
  O  O169  1  0.74330000  0.68519000  0.60113000  1.0
  O  O170  1  0.24329000  0.18519000  0.89886000  1.0
  O  O171  1  0.25670000  0.31481000  0.39886000  1.0
  O  O172  1  0.51121000  0.19489000  0.25976000  1.0
  O  O173  1  0.98878000  0.30511000  0.75976000  1.0
  O  O174  1  0.48880000  0.80511000  0.74023000  1.0
  O  O175  1  0.01121000  0.69489000  0.24024000  1.0
  O  O176  1  0.77315000  0.13786000  0.28217000  1.0
  O  O177  1  0.72684000  0.36214000  0.78217000  1.0
  O  O178  1  0.22686000  0.86214000  0.71783000  1.0
  O  O179  1  0.27315000  0.63786000  0.21783000  1.0
