# generated using pymatgen
data_CuH4C3IN
_symmetry_space_group_name_H-M   'P 1'
_cell_length_a   4.27606000
_cell_length_b   12.68480000
_cell_length_c   17.68280000
_cell_angle_alpha   89.99990000
_cell_angle_beta   89.99970000
_cell_angle_gamma   88.83430000
_symmetry_Int_Tables_number   1
_chemical_formula_structural   CuH4C3IN
_chemical_formula_sum   'Cu8 H32 C24 I8 N8'
_cell_volume   958.93365100
_cell_formula_units_Z   8
loop_
 _symmetry_equiv_pos_site_id
 _symmetry_equiv_pos_as_xyz
  1  'x, y, z'
loop_
 _atom_site_type_symbol
 _atom_site_label
 _atom_site_symmetry_multiplicity
 _atom_site_fract_x
 _atom_site_fract_y
 _atom_site_fract_z
 _atom_site_occupancy
  Cu  Cu0  1  0.14779000  0.29287000  0.44185000  1.0
  Cu  Cu1  1  0.35221000  0.20714000  0.94185000  1.0
  Cu  Cu2  1  0.85222000  0.70713000  0.55815000  1.0
  Cu  Cu3  1  0.64779000  0.79287000  0.05815000  1.0
  Cu  Cu4  1  0.47289000  0.23387000  0.32475000  1.0
  Cu  Cu5  1  0.02710000  0.26613000  0.82475000  1.0
  Cu  Cu6  1  0.52710000  0.76613000  0.67525000  1.0
  Cu  Cu7  1  0.97290000  0.73387000  0.17525000  1.0
  H  H8  1  0.75209000  0.39617000  0.70200000  1.0
  H  H9  1  0.74790000  0.10383000  0.20200000  1.0
  H  H10  1  0.24792000  0.60383000  0.29800000  1.0
  H  H11  1  0.25209000  0.89617000  0.79800000  1.0
  H  H12  1  0.81188000  0.40883000  0.56139000  1.0
  H  H13  1  0.68812000  0.09118000  0.06139000  1.0
  H  H14  1  0.18813000  0.59117000  0.43861000  1.0
  H  H15  1  0.31188000  0.90883000  0.93860000  1.0
  H  H16  1  0.34308000  0.04986000  0.54329000  1.0
  H  H17  1  0.15693000  0.45014000  0.04329000  1.0
  H  H18  1  0.65693000  0.95014000  0.45672000  1.0
  H  H19  1  0.84307000  0.54986000  0.95672000  1.0
  H  H20  1  0.68618000  0.10481000  0.58035000  1.0
  H  H21  1  0.81382000  0.39520000  0.08035000  1.0
  H  H22  1  0.31383000  0.89519000  0.41965000  1.0
  H  H23  1  0.18618000  0.60481000  0.91965000  1.0
  H  H24  1  0.52196000  0.15581000  0.49473000  1.0
  H  H25  1  0.97804000  0.34419000  0.99473000  1.0
  H  H26  1  0.47805000  0.84419000  0.50527000  1.0
  H  H27  1  0.02195000  0.65581000  0.00527000  1.0
  H  H28  1  0.57668000  0.14668000  0.75386000  1.0
  H  H29  1  0.92332000  0.35333000  0.25386000  1.0
  H  H30  1  0.42332000  0.85333000  0.24614000  1.0
  H  H31  1  0.07668000  0.64667000  0.74614000  1.0
  H  H32  1  0.50284000  0.04805000  0.68482000  1.0
  H  H33  1  0.99716000  0.45195000  0.18482000  1.0
  H  H34  1  0.49717000  0.95195000  0.31519000  1.0
  H  H35  1  0.00284000  0.54805000  0.81518000  1.0
  H  H36  1  0.22867000  0.07575000  0.75865000  1.0
  H  H37  1  0.27133000  0.42425000  0.25865000  1.0
  H  H38  1  0.77133000  0.92426000  0.24136000  1.0
  H  H39  1  0.72867000  0.57574000  0.74135000  1.0
  C  C40  1  0.26756000  0.20111000  0.59391000  1.0
  C  C41  1  0.23244000  0.29888000  0.09391000  1.0
  C  C42  1  0.73245000  0.79889000  0.40609000  1.0
  C  C43  1  0.76756000  0.70111000  0.90609000  1.0
  C  C44  1  0.23116000  0.19333000  0.67307000  1.0
  C  C45  1  0.26883000  0.30667000  0.17307000  1.0
  C  C46  1  0.76883000  0.80667000  0.32693000  1.0
  C  C47  1  0.73117000  0.69332000  0.82693000  1.0
  C  C48  1  0.90075000  0.34018000  0.67104000  1.0
  C  C49  1  0.59925000  0.15983000  0.17104000  1.0
  C  C50  1  0.09926000  0.65983000  0.32896000  1.0
  C  C51  1  0.40075000  0.84017000  0.82896000  1.0
  C  C52  1  0.93436000  0.34727000  0.59346000  1.0
  C  C53  1  0.56563000  0.15273000  0.09346000  1.0
  C  C54  1  0.06565000  0.65273000  0.40654000  1.0
  C  C55  1  0.43436000  0.84727000  0.90654000  1.0
  C  C56  1  0.46718000  0.12437000  0.55087000  1.0
  C  C57  1  0.03281000  0.37563000  0.05087000  1.0
  C  C58  1  0.53282000  0.87563000  0.44914000  1.0
  C  C59  1  0.96719000  0.62436000  0.94913000  1.0
  C  C60  1  0.39427000  0.11072000  0.71884000  1.0
  C  C61  1  0.10573000  0.38928000  0.21884000  1.0
  C  C62  1  0.60573000  0.88928000  0.28116000  1.0
  C  C63  1  0.89427000  0.61072000  0.78116000  1.0
  I  I64  1  0.99496000  0.12011000  0.36526000  1.0
  I  I65  1  0.50503000  0.37989000  0.86526000  1.0
  I  I66  1  0.00504000  0.87989000  0.63474000  1.0
  I  I67  1  0.49496000  0.62011000  0.13474000  1.0
  I  I68  1  0.62041000  0.40673000  0.40078000  1.0
  I  I69  1  0.87959000  0.09327000  0.90078000  1.0
  I  I70  1  0.37960000  0.59326000  0.59922000  1.0
  I  I71  1  0.12040000  0.90674000  0.09922000  1.0
  N  N72  1  0.11569000  0.27808000  0.55433000  1.0
  N  N73  1  0.38430000  0.22192000  0.05433000  1.0
  N  N74  1  0.88432000  0.72192000  0.44567000  1.0
  N  N75  1  0.61570000  0.77808000  0.94566000  1.0
  N  N76  1  0.04739000  0.26363000  0.71137000  1.0
  N  N77  1  0.45260000  0.23638000  0.21137000  1.0
  N  N78  1  0.95262000  0.73637000  0.28864000  1.0
  N  N79  1  0.54740000  0.76362000  0.78863000  1.0
