# generated using pymatgen
data_ZnH11C16N2O5
_symmetry_space_group_name_H-M   'P 1'
_cell_length_a   8.27695000
_cell_length_b   9.76964000
_cell_length_c   20.35000000
_cell_angle_alpha   94.59960000
_cell_angle_beta   93.16170000
_cell_angle_gamma   114.32700000
_symmetry_Int_Tables_number   1
_chemical_formula_structural   ZnH11C16N2O5
_chemical_formula_sum   'Zn4 H44 C64 N8 O20'
_cell_volume   1487.55714371
_cell_formula_units_Z   4
loop_
 _symmetry_equiv_pos_site_id
 _symmetry_equiv_pos_as_xyz
  1  'x, y, z'
loop_
 _atom_site_type_symbol
 _atom_site_label
 _atom_site_symmetry_multiplicity
 _atom_site_fract_x
 _atom_site_fract_y
 _atom_site_fract_z
 _atom_site_occupancy
  Zn  Zn0  1  0.19187000  0.17851000  0.32897000  1.0
  Zn  Zn1  1  0.80813000  0.82150000  0.67103000  1.0
  Zn  Zn2  1  0.14415000  0.32743000  0.14618000  1.0
  Zn  Zn3  1  0.85586000  0.67257000  0.85382000  1.0
  H  H4  1  0.07525000  0.53158000  0.19767000  1.0
  H  H5  1  0.92475000  0.46842000  0.80233000  1.0
  H  H6  1  0.56002000  0.15500000  0.18101000  1.0
  H  H7  1  0.43998000  0.84499000  0.81899000  1.0
  H  H8  1  0.66203000  0.41831000  0.28550000  1.0
  H  H9  1  0.33797000  0.58169000  0.71450000  1.0
  H  H10  1  0.52600000  0.06200000  0.36446000  1.0
  H  H11  1  0.47400000  0.93799000  0.63554000  1.0
  H  H12  1  0.63009000  0.99627000  0.24402000  1.0
  H  H13  1  0.36991000  0.00373000  0.75598000  1.0
  H  H14  1  0.38667000  0.14772000  0.87368000  1.0
  H  H15  1  0.61332000  0.85227000  0.12632000  1.0
  H  H16  1  0.36344000  0.40070000  0.87106000  1.0
  H  H17  1  0.63656000  0.59929000  0.12894000  1.0
  H  H18  1  0.27027000  0.74439000  0.49434000  1.0
  H  H19  1  0.72972000  0.25562000  0.50566000  1.0
  H  H20  1  0.18668000  0.91898000  0.41806000  1.0
  H  H21  1  0.81332000  0.08103000  0.58194000  1.0
  H  H22  1  0.05230000  0.98813000  0.18741000  1.0
  H  H23  1  0.94769000  0.01187000  0.81259000  1.0
  H  H24  1  0.25432000  0.51529000  0.30174000  1.0
  H  H25  1  0.74569000  0.48472000  0.69826000  1.0
  H  H26  1  0.34177000  0.92413000  0.93177000  1.0
  H  H27  1  0.65822000  0.07586000  0.06823000  1.0
  H  H28  1  0.25299000  0.78706000  0.03351000  1.0
  H  H29  1  0.74701000  0.21294000  0.96649000  1.0
  H  H30  1  0.28208000  0.59395000  0.92720000  1.0
  H  H31  1  0.71792000  0.40605000  0.07280000  1.0
  H  H32  1  0.18112000  0.56177000  0.04309000  1.0
  H  H33  1  0.81889000  0.43823000  0.95691000  1.0
  H  H34  1  0.25099000  0.60339000  0.59278000  1.0
  H  H35  1  0.74902000  0.39662000  0.40722000  1.0
  H  H36  1  0.24012000  0.37159000  0.63945000  1.0
  H  H37  1  0.75989000  0.62842000  0.36055000  1.0
  H  H38  1  0.12328000  0.77432000  0.14289000  1.0
  H  H39  1  0.87671000  0.22568000  0.85711000  1.0
  H  H40  1  0.26967000  0.74344000  0.36917000  1.0
  H  H41  1  0.73033000  0.25656000  0.63083000  1.0
  H  H42  1  0.22653000  0.10848000  0.62081000  1.0
  H  H43  1  0.77348000  0.89153000  0.37919000  1.0
  H  H44  1  0.19521000  0.89199000  0.54170000  1.0
  H  H45  1  0.80479000  0.10802000  0.45830000  1.0
  H  H46  1  0.27642000  0.64649000  0.19883000  1.0
  H  H47  1  0.72358000  0.35350000  0.80117000  1.0
  C  C48  1  0.82855000  0.15499000  0.31727000  1.0
  C  C49  1  0.17145000  0.84501000  0.68273000  1.0
  C  C50  1  0.82679000  0.32003000  0.20479000  1.0
  C  C51  1  0.17322000  0.67997000  0.79521000  1.0
  C  C52  1  0.42242000  0.33304000  0.22018000  1.0
  C  C53  1  0.57758000  0.66696000  0.77982000  1.0
  C  C54  1  0.64585000  0.21872000  0.22616000  1.0
  C  C55  1  0.35415000  0.78128000  0.77384000  1.0
  C  C56  1  0.55828000  0.30716000  0.26477000  1.0
  C  C57  1  0.44172000  0.69284000  0.73523000  1.0
  C  C58  1  0.49658000  0.08117000  0.31344000  1.0
  C  C59  1  0.50342000  0.91883000  0.68656000  1.0
  C  C60  1  0.20645000  0.11778000  0.04879000  1.0
  C  C61  1  0.79355000  0.88222000  0.95121000  1.0
  C  C62  1  0.65280000  0.10287000  0.27308000  1.0
  C  C63  1  0.34720000  0.89713000  0.72692000  1.0
  C  C64  1  0.25095000  0.39528000  0.44790000  1.0
  C  C65  1  0.74905000  0.60472000  0.55210000  1.0
  C  C66  1  0.32095000  0.94766000  0.28453000  1.0
  C  C67  1  0.67904000  0.05234000  0.71547000  1.0
  C  C68  1  0.23431000  0.24874000  0.01528000  1.0
  C  C69  1  0.76569000  0.75125000  0.98472000  1.0
  C  C70  1  0.23893000  0.25996000  0.47468000  1.0
  C  C71  1  0.76107000  0.74005000  0.52532000  1.0
  C  C72  1  0.24032000  0.25433000  0.54430000  1.0
  C  C73  1  0.75968000  0.74568000  0.45570000  1.0
  C  C74  1  0.24803000  0.00185000  0.01873000  1.0
  C  C75  1  0.75197000  0.99815000  0.98127000  1.0
  C  C76  1  0.33923000  0.13945000  0.92281000  1.0
  C  C77  1  0.66077000  0.86054000  0.07719000  1.0
  C  C78  1  0.31474000  0.38620000  0.91983000  1.0
  C  C79  1  0.68526000  0.61379000  0.08017000  1.0
  C  C80  1  0.29802000  0.25851000  0.95168000  1.0
  C  C81  1  0.70198000  0.74149000  0.04832000  1.0
  C  C82  1  0.26500000  0.64770000  0.46222000  1.0
  C  C83  1  0.73499000  0.35231000  0.53777000  1.0
  C  C84  1  0.25740000  0.51886000  0.49127000  1.0
  C  C85  1  0.74260000  0.48114000  0.50873000  1.0
  C  C86  1  0.20695000  0.01308000  0.45512000  1.0
  C  C87  1  0.79305000  0.98692000  0.54488000  1.0
  C  C88  1  0.10719000  0.98947000  0.13984000  1.0
  C  C89  1  0.89281000  0.01053000  0.86016000  1.0
  C  C90  1  0.25738000  0.51951000  0.35543000  1.0
  C  C91  1  0.74262000  0.48049000  0.64457000  1.0
  C  C92  1  0.31567000  0.01625000  0.95516000  1.0
  C  C93  1  0.68433000  0.98375000  0.04485000  1.0
  C  C94  1  0.21796000  0.87642000  0.05425000  1.0
  C  C95  1  0.78204000  0.12358000  0.94575000  1.0
  C  C96  1  0.27072000  0.49528000  0.95138000  1.0
  C  C97  1  0.72928000  0.50471000  0.04862000  1.0
  C  C98  1  0.21318000  0.47783000  0.01512000  1.0
  C  C99  1  0.78682000  0.52217000  0.98488000  1.0
  C  C100  1  0.25262000  0.50842000  0.56106000  1.0
  C  C101  1  0.74738000  0.49159000  0.43894000  1.0
  C  C102  1  0.24611000  0.38108000  0.58648000  1.0
  C  C103  1  0.75390000  0.61892000  0.41352000  1.0
  C  C104  1  0.14674000  0.86938000  0.11442000  1.0
  C  C105  1  0.85325000  0.13061000  0.88558000  1.0
  C  C106  1  0.26493000  0.64796000  0.39436000  1.0
  C  C107  1  0.73507000  0.35204000  0.60564000  1.0
  C  C108  1  0.22828000  0.11875000  0.56781000  1.0
  C  C109  1  0.77172000  0.88125000  0.43219000  1.0
  C  C110  1  0.21209000  0.99822000  0.52324000  1.0
  C  C111  1  0.78791000  0.00178000  0.47676000  1.0
  N  N112  1  0.13876000  0.11070000  0.10818000  1.0
  N  N113  1  0.86124000  0.88930000  0.89183000  1.0
  N  N114  1  0.25118000  0.39708000  0.38138000  1.0
  N  N115  1  0.74882000  0.60293000  0.61862000  1.0
  N  N116  1  0.19582000  0.35832000  0.04619000  1.0
  N  N117  1  0.80418000  0.64168000  0.95381000  1.0
  N  N118  1  0.22075000  0.14026000  0.43149000  1.0
  N  N119  1  0.77925000  0.85975000  0.56851000  1.0
  O  O120  1  0.48035000  0.22397000  0.31907000  1.0
  O  O121  1  0.51965000  0.77603000  0.68093000  1.0
  O  O122  1  0.88308000  0.25840000  0.15839000  1.0
  O  O123  1  0.11692000  0.74159000  0.84161000  1.0
  O  O124  1  0.17805000  0.96637000  0.29073000  1.0
  O  O125  1  0.82195000  0.03364000  0.70927000  1.0
  O  O126  1  0.26351000  0.29535000  0.23768000  1.0
  O  O127  1  0.73649000  0.70465000  0.76232000  1.0
  O  O128  1  0.94077000  0.11159000  0.29146000  1.0
  O  O129  1  0.05923000  0.88841000  0.70854000  1.0
  O  O130  1  0.46804000  0.38818000  0.16706000  1.0
  O  O131  1  0.53196000  0.61182000  0.83294000  1.0
  O  O132  1  0.18460000  0.55876000  0.17120000  1.0
  O  O133  1  0.81540000  0.44124000  0.82880000  1.0
  O  O134  1  0.90764000  0.45275000  0.23315000  1.0
  O  O135  1  0.09236000  0.54725000  0.76685000  1.0
  O  O136  1  0.33106000  0.82930000  0.26035000  1.0
  O  O137  1  0.66894000  0.17070000  0.73965000  1.0
  O  O138  1  0.84967000  0.22822000  0.37283000  1.0
  O  O139  1  0.15033000  0.77178000  0.62717000  1.0
