# generated using pymatgen
data_Cd3H24C34(N3O8)2
_symmetry_space_group_name_H-M   'P 1'
_cell_length_a   9.05059000
_cell_length_b   14.11560000
_cell_length_c   15.40190000
_cell_angle_alpha   91.82460000
_cell_angle_beta   102.20500000
_cell_angle_gamma   97.82530000
_symmetry_Int_Tables_number   1
_chemical_formula_structural   Cd3H24C34(N3O8)2
_chemical_formula_sum   'Cd6 H48 C68 N12 O32'
_cell_volume   1901.54099087
_cell_formula_units_Z   2
loop_
 _symmetry_equiv_pos_site_id
 _symmetry_equiv_pos_as_xyz
  1  'x, y, z'
loop_
 _atom_site_type_symbol
 _atom_site_label
 _atom_site_symmetry_multiplicity
 _atom_site_fract_x
 _atom_site_fract_y
 _atom_site_fract_z
 _atom_site_occupancy
  Cd  Cd0  1  0.63392000  0.63997000  0.15469000  1.0
  Cd  Cd1  1  0.36608000  0.36003000  0.84531000  1.0
  Cd  Cd2  1  0.29976000  0.60077000  0.77002000  1.0
  Cd  Cd3  1  0.70023000  0.39923000  0.22998000  1.0
  Cd  Cd4  1  0.43147000  0.50446000  0.37484000  1.0
  Cd  Cd5  1  0.56854000  0.49554000  0.62516000  1.0
  H  H6  1  0.92002000  0.47382000  0.58176000  1.0
  H  H7  1  0.07998000  0.52618000  0.41823000  1.0
  H  H8  1  0.74170000  0.25294000  0.37313000  1.0
  H  H9  1  0.25829000  0.74706000  0.62687000  1.0
  H  H10  1  0.16153000  0.23437000  0.56339000  1.0
  H  H11  1  0.83846000  0.76562000  0.43661000  1.0
  H  H12  1  0.98238000  0.85379000  0.27302000  1.0
  H  H13  1  0.01762000  0.14620000  0.72699000  1.0
  H  H14  1  0.13796000  0.72219000  0.27581000  1.0
  H  H15  1  0.86204000  0.27781000  0.72420000  1.0
  H  H16  1  0.47499000  0.87252000  0.49353000  1.0
  H  H17  1  0.52502000  0.12748000  0.50648000  1.0
  H  H18  1  0.31858000  0.00781000  0.48857000  1.0
  H  H19  1  0.68143000  0.99219000  0.51143000  1.0
  H  H20  1  0.17369000  0.54911000  0.17684000  1.0
  H  H21  1  0.82630000  0.45089000  0.82315000  1.0
  H  H22  1  0.78413000  0.37037000  0.01444000  1.0
  H  H23  1  0.21586000  0.62962000  0.98556000  1.0
  H  H24  1  0.22615000  0.27847000  0.05825000  1.0
  H  H25  1  0.77384000  0.72153000  0.94175000  1.0
  H  H26  1  0.73104000  0.94384000  0.79519000  1.0
  H  H27  1  0.26896000  0.05616000  0.20480000  1.0
  H  H28  1  0.81064000  0.79350000  0.74444000  1.0
  H  H29  1  0.18937000  0.20650000  0.25556000  1.0
  H  H30  1  0.27143000  0.88938000  0.88817000  1.0
  H  H31  1  0.72858000  0.11063000  0.11182000  1.0
  H  H32  1  0.19076000  0.03699000  0.94365000  1.0
  H  H33  1  0.80924000  0.96302000  0.05635000  1.0
  H  H34  1  0.74503000  0.09818000  0.33598000  1.0
  H  H35  1  0.25497000  0.90182000  0.66402000  1.0
  H  H36  1  0.69812000  0.23372000  0.93054000  1.0
  H  H37  1  0.30187000  0.76627000  0.06946000  1.0
  H  H38  1  0.16112000  0.34576000  0.32235000  1.0
  H  H39  1  0.83889000  0.65424000  0.67765000  1.0
  H  H40  1  0.28985000  0.32683000  0.40784000  1.0
  H  H41  1  0.71017000  0.67318000  0.59217000  1.0
  H  H42  1  0.51728000  0.65521000  0.96421000  1.0
  H  H43  1  0.48271000  0.34478000  0.03579000  1.0
  H  H44  1  0.40337000  0.57357000  0.98556000  1.0
  H  H45  1  0.59662000  0.42643000  0.01445000  1.0
  H  H46  1  0.81201000  0.80750000  0.09103000  1.0
  H  H47  1  0.18798000  0.19251000  0.90897000  1.0
  H  H48  1  0.74613000  0.84428000  0.17056000  1.0
  H  H49  1  0.25387000  0.15572000  0.82945000  1.0
  H  H50  1  0.39603000  0.68032000  0.23936000  1.0
  H  H51  1  0.60397000  0.31968000  0.76064000  1.0
  H  H52  1  0.46138000  0.78238000  0.21579000  1.0
  H  H53  1  0.53862000  0.21762000  0.78421000  1.0
  C  C54  1  0.05192000  0.35818000  0.57999000  1.0
  C  C55  1  0.94808000  0.64182000  0.42001000  1.0
  C  C56  1  0.92892000  0.40679000  0.54771000  1.0
  C  C57  1  0.07108000  0.59321000  0.45228000  1.0
  C  C58  1  0.81841000  0.36853000  0.47282000  1.0
  C  C59  1  0.18159000  0.63147000  0.52717000  1.0
  C  C60  1  0.83069000  0.28155000  0.43085000  1.0
  C  C61  1  0.16932000  0.71845000  0.56915000  1.0
  C  C62  1  0.95407000  0.23287000  0.46270000  1.0
  C  C63  1  0.04593000  0.76712000  0.53730000  1.0
  C  C64  1  0.06571000  0.27205000  0.53752000  1.0
  C  C65  1  0.93429000  0.72795000  0.46248000  1.0
  C  C66  1  0.16295000  0.39743000  0.66384000  1.0
  C  C67  1  0.83704000  0.60256000  0.33616000  1.0
  C  C68  1  0.68702000  0.41884000  0.43801000  1.0
  C  C69  1  0.31298000  0.58116000  0.56199000  1.0
  C  C70  1  0.96672000  0.14088000  0.42140000  1.0
  C  C71  1  0.03328000  0.85912000  0.57860000  1.0
  C  C72  1  0.04296000  0.01253000  0.38399000  1.0
  C  C73  1  0.95704000  0.98747000  0.61601000  1.0
  C  C74  1  0.14050000  0.93879000  0.38081000  1.0
  C  C75  1  0.85952000  0.06121000  0.61920000  1.0
  C  C76  1  0.09190000  0.85892000  0.31995000  1.0
  C  C77  1  0.90811000  0.14108000  0.68006000  1.0
  C  C78  1  0.17952000  0.78527000  0.32152000  1.0
  C  C79  1  0.82048000  0.21473000  0.67849000  1.0
  C  C80  1  0.31718000  0.78969000  0.38506000  1.0
  C  C81  1  0.68282000  0.21031000  0.61495000  1.0
  C  C82  1  0.36845000  0.87091000  0.44428000  1.0
  C  C83  1  0.63156000  0.12909000  0.55572000  1.0
  C  C84  1  0.28183000  0.94528000  0.44176000  1.0
  C  C85  1  0.71818000  0.05472000  0.55824000  1.0
  C  C86  1  0.40091000  0.70514000  0.39569000  1.0
  C  C87  1  0.59910000  0.29486000  0.60431000  1.0
  C  C88  1  0.21761000  0.41589000  0.12009000  1.0
  C  C89  1  0.78238000  0.58411000  0.87991000  1.0
  C  C90  1  0.12520000  0.48405000  0.13487000  1.0
  C  C91  1  0.87479000  0.51595000  0.86513000  1.0
  C  C92  1  0.96850000  0.46676000  0.09731000  1.0
  C  C93  1  0.03149000  0.53324000  0.90269000  1.0
  C  C94  1  0.90608000  0.38324000  0.04326000  1.0
  C  C95  1  0.09391000  0.61676000  0.95674000  1.0
  C  C96  1  0.99886000  0.31635000  0.02644000  1.0
  C  C97  1  0.00113000  0.68365000  0.97357000  1.0
  C  C98  1  0.15425000  0.33226000  0.06696000  1.0
  C  C99  1  0.84574000  0.66774000  0.93304000  1.0
  C  C100  1  0.38405000  0.42903000  0.16155000  1.0
  C  C101  1  0.61594000  0.57097000  0.83844000  1.0
  C  C102  1  0.86769000  0.53732000  0.11532000  1.0
  C  C103  1  0.13230000  0.46268000  0.88468000  1.0
  C  C104  1  0.93834000  0.22889000  0.97041000  1.0
  C  C105  1  0.06165000  0.77111000  0.02959000  1.0
  C  C106  1  0.91385000  0.09086000  0.90245000  1.0
  C  C107  1  0.08615000  0.90914000  0.09754000  1.0
  C  C108  1  0.95616000  0.00163000  0.87101000  1.0
  C  C109  1  0.04384000  0.99837000  0.12899000  1.0
  C  C110  1  0.84940000  0.93159000  0.81567000  1.0
  C  C111  1  0.15060000  0.06841000  0.18433000  1.0
  C  C112  1  0.89442000  0.84767000  0.78688000  1.0
  C  C113  1  0.10558000  0.15233000  0.21312000  1.0
  C  C114  1  0.04737000  0.83251000  0.81197000  1.0
  C  C115  1  0.95263000  0.16749000  0.18803000  1.0
  C  C116  1  0.15338000  0.90207000  0.86802000  1.0
  C  C117  1  0.84663000  0.09794000  0.13198000  1.0
  C  C118  1  0.10840000  0.98502000  0.89794000  1.0
  C  C119  1  0.89160000  0.01498000  0.10205000  1.0
  C  C120  1  0.10114000  0.74397000  0.78169000  1.0
  C  C121  1  0.89887000  0.25604000  0.21831000  1.0
  N  N122  1  0.85252000  0.08525000  0.36191000  1.0
  N  N123  1  0.14748000  0.91475000  0.63810000  1.0
  N  N124  1  0.89780000  0.00320000  0.33721000  1.0
  N  N125  1  0.10220000  0.99680000  0.66279000  1.0
  N  N126  1  0.08900000  0.09576000  0.43648000  1.0
  N  N127  1  0.91100000  0.90424000  0.56352000  1.0
  N  N128  1  0.78897000  0.19706000  0.93527000  1.0
  N  N129  1  0.21102000  0.80294000  0.06473000  1.0
  N  N130  1  0.77010000  0.11024000  0.89132000  1.0
  N  N131  1  0.22990000  0.88976000  0.10867000  1.0
  N  N132  1  0.02060000  0.16315000  0.94923000  1.0
  N  N133  1  0.97939000  0.83685000  0.05077000  1.0
  O  O134  1  0.26098000  0.34564000  0.69958000  1.0
  O  O135  1  0.73902000  0.65436000  0.30042000  1.0
  O  O136  1  0.14600000  0.47986000  0.69286000  1.0
  O  O137  1  0.85399000  0.52014000  0.30714000  1.0
  O  O138  1  0.65517000  0.48716000  0.48415000  1.0
  O  O139  1  0.34484000  0.51284000  0.51585000  1.0
  O  O140  1  0.60422000  0.39382000  0.36003000  1.0
  O  O141  1  0.39577000  0.60617000  0.63996000  1.0
  O  O142  1  0.50398000  0.69854000  0.46205000  1.0
  O  O143  1  0.49603000  0.30146000  0.53795000  1.0
  O  O144  1  0.35187000  0.63706000  0.33121000  1.0
  O  O145  1  0.64814000  0.36295000  0.66879000  1.0
  O  O146  1  0.45811000  0.36092000  0.14708000  1.0
  O  O147  1  0.54188000  0.63907000  0.85292000  1.0
  O  O148  1  0.44695000  0.50531000  0.20901000  1.0
  O  O149  1  0.55305000  0.49469000  0.79098000  1.0
  O  O150  1  0.91967000  0.62161000  0.14314000  1.0
  O  O151  1  0.08031000  0.37839000  0.85686000  1.0
  O  O152  1  0.72058000  0.50448000  0.10239000  1.0
  O  O153  1  0.27941000  0.49552000  0.89761000  1.0
  O  O154  1  0.24610000  0.74121000  0.80755000  1.0
  O  O155  1  0.75391000  0.25879000  0.19245000  1.0
  O  O156  1  0.01162000  0.67630000  0.73433000  1.0
  O  O157  1  0.98839000  0.32371000  0.26567000  1.0
  O  O158  1  0.27235000  0.36151000  0.35370000  1.0
  O  O159  1  0.72767000  0.63849000  0.64631000  1.0
  O  O160  1  0.47075000  0.63276000  0.01407000  1.0
  O  O161  1  0.52925000  0.36724000  0.98593000  1.0
  O  O162  1  0.72149000  0.79691000  0.12029000  1.0
  O  O163  1  0.27851000  0.20309000  0.87972000  1.0
  O  O164  1  0.43467000  0.71635000  0.19115000  1.0
  O  O165  1  0.56533000  0.28365000  0.80885000  1.0
