# generated using pymatgen
data_CdH27C39(N3O4)2
_symmetry_space_group_name_H-M   'P 1'
_cell_length_a   9.44086000
_cell_length_b   16.94050000
_cell_length_c   23.62270000
_cell_angle_alpha   89.99940000
_cell_angle_beta   95.05950000
_cell_angle_gamma   89.99960000
_symmetry_Int_Tables_number   1
_chemical_formula_structural   CdH27C39(N3O4)2
_chemical_formula_sum   'Cd4 H108 C156 N24 O32'
_cell_volume   3763.32606905
_cell_formula_units_Z   4
loop_
 _symmetry_equiv_pos_site_id
 _symmetry_equiv_pos_as_xyz
  1  'x, y, z'
loop_
 _atom_site_type_symbol
 _atom_site_label
 _atom_site_symmetry_multiplicity
 _atom_site_fract_x
 _atom_site_fract_y
 _atom_site_fract_z
 _atom_site_occupancy
  Cd  Cd0  1  0.36690000  0.66797000  0.24946000  1.0
  Cd  Cd1  1  0.63308000  0.16797000  0.25054000  1.0
  Cd  Cd2  1  0.63310000  0.33203000  0.75054000  1.0
  Cd  Cd3  1  0.36690000  0.83203000  0.74946000  1.0
  H  H4  1  0.37571000  0.44286000  0.82957000  1.0
  H  H5  1  0.62431000  0.94286000  0.67043000  1.0
  H  H6  1  0.62430000  0.55714000  0.17043000  1.0
  H  H7  1  0.37570000  0.05714000  0.32957000  1.0
  H  H8  1  0.73547000  0.61851000  0.74010000  1.0
  H  H9  1  0.26453000  0.11849000  0.75989000  1.0
  H  H10  1  0.26453000  0.38151000  0.25990000  1.0
  H  H11  1  0.73546000  0.88152000  0.24010000  1.0
  H  H12  1  0.95952000  0.69271000  0.72747000  1.0
  H  H13  1  0.04050000  0.19269000  0.77253000  1.0
  H  H14  1  0.04049000  0.30730000  0.27253000  1.0
  H  H15  1  0.95949000  0.80731000  0.22747000  1.0
  H  H16  1  0.66937000  0.58951000  0.83793000  1.0
  H  H17  1  0.33062000  0.08951000  0.66206000  1.0
  H  H18  1  0.33061000  0.41049000  0.16207000  1.0
  H  H19  1  0.66938000  0.91049000  0.33794000  1.0
  H  H20  1  0.82646000  0.63646000  0.92175000  1.0
  H  H21  1  0.17352000  0.13648000  0.57825000  1.0
  H  H22  1  0.17352000  0.36353000  0.07825000  1.0
  H  H23  1  0.82649000  0.86353000  0.42174000  1.0
  H  H24  1  0.18255000  0.60563000  0.86122000  1.0
  H  H25  1  0.81745000  0.10564000  0.63878000  1.0
  H  H26  1  0.81745000  0.39437000  0.13878000  1.0
  H  H27  1  0.18254000  0.89437000  0.36122000  1.0
  H  H28  1  0.54420000  0.58593000  0.98461000  1.0
  H  H29  1  0.45581000  0.08592000  0.51539000  1.0
  H  H30  1  0.45580000  0.41407000  0.01539000  1.0
  H  H31  1  0.54420000  0.91407000  0.48460000  1.0
  H  H32  1  0.21928000  0.75935000  0.00772000  1.0
  H  H33  1  0.78072000  0.25936000  0.49228000  1.0
  H  H34  1  0.78073000  0.24064000  0.99229000  1.0
  H  H35  1  0.21928000  0.74064000  0.50771000  1.0
  H  H36  1  0.65840000  0.71396000  0.97456000  1.0
  H  H37  1  0.34161000  0.21395000  0.52544000  1.0
  H  H38  1  0.34160000  0.28605000  0.02544000  1.0
  H  H39  1  0.65840000  0.78604000  0.47456000  1.0
  H  H40  1  0.91648000  0.72608000  0.00106000  1.0
  H  H41  1  0.08353000  0.22607000  0.49894000  1.0
  H  H42  1  0.08353000  0.27393000  0.99894000  1.0
  H  H43  1  0.91648000  0.77393000  0.50107000  1.0
  H  H44  1  0.01091000  0.72440000  0.10367000  1.0
  H  H45  1  0.98909000  0.22440000  0.39633000  1.0
  H  H46  1  0.98910000  0.27560000  0.89633000  1.0
  H  H47  1  0.01091000  0.77561000  0.60367000  1.0
  H  H48  1  0.84277000  0.70599000  0.17794000  1.0
  H  H49  1  0.15723000  0.20599000  0.32206000  1.0
  H  H50  1  0.15723000  0.29400000  0.82207000  1.0
  H  H51  1  0.84277000  0.79401000  0.67793000  1.0
  H  H52  1  0.25528000  0.50366000  0.03713000  1.0
  H  H53  1  0.74473000  0.00366000  0.46287000  1.0
  H  H54  1  0.74472000  0.49634000  0.96287000  1.0
  H  H55  1  0.25529000  0.99635000  0.53712000  1.0
  H  H56  1  0.81407000  0.54535000  0.06050000  1.0
  H  H57  1  0.18593000  0.04535000  0.43950000  1.0
  H  H58  1  0.18593000  0.45465000  0.93951000  1.0
  H  H59  1  0.81408000  0.95466000  0.56049000  1.0
  H  H60  1  0.28169000  0.60737000  0.10349000  1.0
  H  H61  1  0.71832000  0.10738000  0.39651000  1.0
  H  H62  1  0.71831000  0.39263000  0.89651000  1.0
  H  H63  1  0.28169000  0.89262000  0.60348000  1.0
  H  H64  1  0.89310000  0.51559000  0.15360000  1.0
  H  H65  1  0.10690000  0.01559000  0.34639000  1.0
  H  H66  1  0.10691000  0.48440000  0.84641000  1.0
  H  H67  1  0.89312000  0.98442000  0.65360000  1.0
  H  H68  1  0.04783000  0.58348000  0.24644000  1.0
  H  H69  1  0.95216000  0.08348000  0.25355000  1.0
  H  H70  1  0.95219000  0.41651000  0.75356000  1.0
  H  H71  1  0.04783000  0.91652000  0.74644000  1.0
  H  H72  1  0.54035000  0.47874000  0.24222000  1.0
  H  H73  1  0.45965000  0.97873000  0.25778000  1.0
  H  H74  1  0.45966000  0.52127000  0.75778000  1.0
  H  H75  1  0.54034000  0.02127000  0.74222000  1.0
  H  H76  1  0.55442000  0.37297000  0.33256000  1.0
  H  H77  1  0.44557000  0.87298000  0.16744000  1.0
  H  H78  1  0.44558000  0.62703000  0.66744000  1.0
  H  H79  1  0.55442000  0.12702000  0.83256000  1.0
  H  H80  1  0.27282000  0.56136000  0.36303000  1.0
  H  H81  1  0.72718000  0.06136000  0.13698000  1.0
  H  H82  1  0.72719000  0.43864000  0.63698000  1.0
  H  H83  1  0.27282000  0.93864000  0.86303000  1.0
  H  H84  1  0.62617000  0.40967000  0.43471000  1.0
  H  H85  1  0.37383000  0.90968000  0.06529000  1.0
  H  H86  1  0.37383000  0.59032000  0.56529000  1.0
  H  H87  1  0.62616000  0.09032000  0.93471000  1.0
  H  H88  1  0.61744000  0.36596000  0.53385000  1.0
  H  H89  1  0.38255000  0.86596000  0.96615000  1.0
  H  H90  1  0.38255000  0.63404000  0.46615000  1.0
  H  H91  1  0.61743000  0.13405000  0.03385000  1.0
  H  H92  1  0.16232000  0.39951000  0.51827000  1.0
  H  H93  1  0.83768000  0.89952000  0.98172000  1.0
  H  H94  1  0.83767000  0.60048000  0.48172000  1.0
  H  H95  1  0.16232000  0.10049000  0.01828000  1.0
  H  H96  1  0.17307000  0.44434000  0.41934000  1.0
  H  H97  1  0.82693000  0.94435000  0.08066000  1.0
  H  H98  1  0.82694000  0.55565000  0.58065000  1.0
  H  H99  1  0.17307000  0.05565000  0.91935000  1.0
  H  H100  1  0.59677000  0.30418000  0.60884000  1.0
  H  H101  1  0.40323000  0.80417000  0.89116000  1.0
  H  H102  1  0.40323000  0.69582000  0.39117000  1.0
  H  H103  1  0.59676000  0.19583000  0.10884000  1.0
  H  H104  1  0.25949000  0.32297000  0.71285000  1.0
  H  H105  1  0.74052000  0.82297000  0.78716000  1.0
  H  H106  1  0.74051000  0.67705000  0.28716000  1.0
  H  H107  1  0.25947000  0.17703000  0.21284000  1.0
  H  H108  1  0.16749000  0.38213000  0.60732000  1.0
  H  H109  1  0.83251000  0.88213000  0.89268000  1.0
  H  H110  1  0.83251000  0.61788000  0.39268000  1.0
  H  H111  1  0.16749000  0.11787000  0.10732000  1.0
  C  C112  1  0.80234000  0.63947000  0.77694000  1.0
  C  C113  1  0.19767000  0.13947000  0.72306000  1.0
  C  C114  1  0.19767000  0.36053000  0.22306000  1.0
  C  C115  1  0.80232000  0.86053000  0.27694000  1.0
  C  C116  1  0.14129000  0.75936000  0.80530000  1.0
  C  C117  1  0.85871000  0.25936000  0.69471000  1.0
  C  C118  1  0.85872000  0.24064000  0.19471000  1.0
  C  C119  1  0.14128000  0.74064000  0.30529000  1.0
  C  C120  1  0.01235000  0.71123000  0.81637000  1.0
  C  C121  1  0.98764000  0.21122000  0.68364000  1.0
  C  C122  1  0.98765000  0.28877000  0.18364000  1.0
  C  C123  1  0.01235000  0.78878000  0.31636000  1.0
  C  C124  1  0.92596000  0.68176000  0.76974000  1.0
  C  C125  1  0.07405000  0.18175000  0.73026000  1.0
  C  C126  1  0.07405000  0.31824000  0.23026000  1.0
  C  C127  1  0.92594000  0.81825000  0.26974000  1.0
  C  C128  1  0.40049000  0.43006000  0.42090000  1.0
  C  C129  1  0.59950000  0.93006000  0.07909000  1.0
  C  C130  1  0.59951000  0.56994000  0.57910000  1.0
  C  C131  1  0.40049000  0.06994000  0.92090000  1.0
  C  C132  1  0.76438000  0.62377000  0.83163000  1.0
  C  C133  1  0.23561000  0.12377000  0.66837000  1.0
  C  C134  1  0.23560000  0.37623000  0.16837000  1.0
  C  C135  1  0.76439000  0.87624000  0.33163000  1.0
  C  C136  1  0.03833000  0.52699000  0.05494000  1.0
  C  C137  1  0.96167000  0.02699000  0.44506000  1.0
  C  C138  1  0.96166000  0.47301000  0.94507000  1.0
  C  C139  1  0.03834000  0.97301000  0.55493000  1.0
  C  C140  1  0.85091000  0.65038000  0.87867000  1.0
  C  C141  1  0.14907000  0.15038000  0.62133000  1.0
  C  C142  1  0.14908000  0.34962000  0.12133000  1.0
  C  C143  1  0.85092000  0.84962000  0.37867000  1.0
  C  C144  1  0.97286000  0.69396000  0.87081000  1.0
  C  C145  1  0.02713000  0.19397000  0.62919000  1.0
  C  C146  1  0.02713000  0.30604000  0.12919000  1.0
  C  C147  1  0.97287000  0.80604000  0.37081000  1.0
  C  C148  1  0.18535000  0.68589000  0.93267000  1.0
  C  C149  1  0.81465000  0.18589000  0.56733000  1.0
  C  C150  1  0.81465000  0.31411000  0.06733000  1.0
  C  C151  1  0.18535000  0.81411000  0.43266000  1.0
  C  C152  1  0.24008000  0.62595000  0.90032000  1.0
  C  C153  1  0.75992000  0.12595000  0.59968000  1.0
  C  C154  1  0.75992000  0.37405000  0.09969000  1.0
  C  C155  1  0.24008000  0.87405000  0.40031000  1.0
  C  C156  1  0.36952000  0.59085000  0.91971000  1.0
  C  C157  1  0.63049000  0.09085000  0.58029000  1.0
  C  C158  1  0.63049000  0.40915000  0.08029000  1.0
  C  C159  1  0.36950000  0.90915000  0.41970000  1.0
  C  C160  1  0.42392000  0.52035000  0.89055000  1.0
  C  C161  1  0.57607000  0.02034000  0.60945000  1.0
  C  C162  1  0.57607000  0.47966000  0.10944000  1.0
  C  C163  1  0.42393000  0.97966000  0.39055000  1.0
  C  C164  1  0.44685000  0.61634000  0.96947000  1.0
  C  C165  1  0.55316000  0.11633000  0.53053000  1.0
  C  C166  1  0.55316000  0.38366000  0.03053000  1.0
  C  C167  1  0.44684000  0.88367000  0.46947000  1.0
  C  C168  1  0.39327000  0.67859000  0.99971000  1.0
  C  C169  1  0.60673000  0.17859000  0.50029000  1.0
  C  C170  1  0.60673000  0.32141000  0.00029000  1.0
  C  C171  1  0.39326000  0.82141000  0.49970000  1.0
  C  C172  1  0.26232000  0.71312000  0.98216000  1.0
  C  C173  1  0.73768000  0.21312000  0.51784000  1.0
  C  C174  1  0.73768000  0.28688000  0.01785000  1.0
  C  C175  1  0.26232000  0.78687000  0.48215000  1.0
  C  C176  1  0.60461000  0.70667000  0.06142000  1.0
  C  C177  1  0.39538000  0.20666000  0.43858000  1.0
  C  C178  1  0.39539000  0.29333000  0.93859000  1.0
  C  C179  1  0.60461000  0.79333000  0.56141000  1.0
  C  C180  1  0.69870000  0.71339000  0.01919000  1.0
  C  C181  1  0.30130000  0.21340000  0.48082000  1.0
  C  C182  1  0.30130000  0.28661000  0.98082000  1.0
  C  C183  1  0.69870000  0.78660000  0.51918000  1.0
  C  C184  1  0.84444000  0.72028000  0.03444000  1.0
  C  C185  1  0.15557000  0.22029000  0.46556000  1.0
  C  C186  1  0.15557000  0.27971000  0.96556000  1.0
  C  C187  1  0.84444000  0.77971000  0.53444000  1.0
  C  C188  1  0.89709000  0.71954000  0.09154000  1.0
  C  C189  1  0.10291000  0.21953000  0.40846000  1.0
  C  C190  1  0.10292000  0.28046000  0.90846000  1.0
  C  C191  1  0.89708000  0.78047000  0.59154000  1.0
  C  C192  1  0.80297000  0.70982000  0.13333000  1.0
  C  C193  1  0.19703000  0.20982000  0.36667000  1.0
  C  C194  1  0.19703000  0.29018000  0.86667000  1.0
  C  C195  1  0.80296000  0.79018000  0.63333000  1.0
  C  C196  1  0.65635000  0.70374000  0.11899000  1.0
  C  C197  1  0.34364000  0.20374000  0.38101000  1.0
  C  C198  1  0.34365000  0.29626000  0.88101000  1.0
  C  C199  1  0.65635000  0.79626000  0.61899000  1.0
  C  C200  1  0.55806000  0.69270000  0.16488000  1.0
  C  C201  1  0.44194000  0.19271000  0.33512000  1.0
  C  C202  1  0.44195000  0.30729000  0.83512000  1.0
  C  C203  1  0.55806000  0.80729000  0.66488000  1.0
  C  C204  1  0.14373000  0.50293000  0.02059000  1.0
  C  C205  1  0.85628000  0.00294000  0.47941000  1.0
  C  C206  1  0.85629000  0.49707000  0.97942000  1.0
  C  C207  1  0.14373000  0.99707000  0.52058000  1.0
  C  C208  1  0.89506000  0.52418000  0.03421000  1.0
  C  C209  1  0.10495000  0.02418000  0.46579000  1.0
  C  C210  1  0.10495000  0.47582000  0.96579000  1.0
  C  C211  1  0.89506000  0.97583000  0.53421000  1.0
  C  C212  1  0.19791000  0.59294000  0.13022000  1.0
  C  C213  1  0.80209000  0.09295000  0.36978000  1.0
  C  C214  1  0.80209000  0.40706000  0.86978000  1.0
  C  C215  1  0.19792000  0.90706000  0.63022000  1.0
  C  C216  1  0.99583000  0.54431000  0.15728000  1.0
  C  C217  1  0.00416000  0.04432000  0.34272000  1.0
  C  C218  1  0.00418000  0.45568000  0.84273000  1.0
  C  C219  1  0.99584000  0.95568000  0.65727000  1.0
  C  C220  1  0.07272000  0.57865000  0.20263000  1.0
  C  C221  1  0.92727000  0.07865000  0.29737000  1.0
  C  C222  1  0.92729000  0.42134000  0.79738000  1.0
  C  C223  1  0.07273000  0.92135000  0.70262000  1.0
  C  C224  1  0.48767000  0.48090000  0.28114000  1.0
  C  C225  1  0.51233000  0.98090000  0.21886000  1.0
  C  C226  1  0.51234000  0.51911000  0.71886000  1.0
  C  C227  1  0.48766000  0.01910000  0.78114000  1.0
  C  C228  1  0.49982000  0.42908000  0.32600000  1.0
  C  C229  1  0.50017000  0.92908000  0.17400000  1.0
  C  C230  1  0.50018000  0.57092000  0.67400000  1.0
  C  C231  1  0.49982000  0.07091000  0.82600000  1.0
  C  C232  1  0.34629000  0.52470000  0.34185000  1.0
  C  C233  1  0.65371000  0.02470000  0.15815000  1.0
  C  C234  1  0.65371000  0.47530000  0.65815000  1.0
  C  C235  1  0.34629000  0.97530000  0.84186000  1.0
  C  C236  1  0.52477000  0.40728000  0.45332000  1.0
  C  C237  1  0.47523000  0.90728000  0.04667000  1.0
  C  C238  1  0.47522000  0.59272000  0.54668000  1.0
  C  C239  1  0.52477000  0.09272000  0.95333000  1.0
  C  C240  1  0.51937000  0.38279000  0.50917000  1.0
  C  C241  1  0.48063000  0.88279000  0.99083000  1.0
  C  C242  1  0.48062000  0.61721000  0.49082000  1.0
  C  C243  1  0.51936000  0.11721000  0.00917000  1.0
  C  C244  1  0.38907000  0.37980000  0.53322000  1.0
  C  C245  1  0.61092000  0.87981000  0.96678000  1.0
  C  C246  1  0.61093000  0.62019000  0.46678000  1.0
  C  C247  1  0.38907000  0.12019000  0.03322000  1.0
  C  C248  1  0.26499000  0.40350000  0.50085000  1.0
  C  C249  1  0.73501000  0.90351000  0.99915000  1.0
  C  C250  1  0.73501000  0.59649000  0.49915000  1.0
  C  C251  1  0.26499000  0.09650000  0.00085000  1.0
  C  C252  1  0.27052000  0.42843000  0.44494000  1.0
  C  C253  1  0.72948000  0.92844000  0.05506000  1.0
  C  C254  1  0.72947000  0.57157000  0.55506000  1.0
  C  C255  1  0.27053000  0.07157000  0.94494000  1.0
  C  C256  1  0.49253000  0.31652000  0.62267000  1.0
  C  C257  1  0.50747000  0.81653000  0.87733000  1.0
  C  C258  1  0.50746000  0.68348000  0.37733000  1.0
  C  C259  1  0.49253000  0.18348000  0.12267000  1.0
  C  C260  1  0.31615000  0.32795000  0.67513000  1.0
  C  C261  1  0.68385000  0.82796000  0.82488000  1.0
  C  C262  1  0.68385000  0.67206000  0.32487000  1.0
  C  C263  1  0.31614000  0.17205000  0.17512000  1.0
  C  C264  1  0.26944000  0.35797000  0.62302000  1.0
  C  C265  1  0.73056000  0.85797000  0.87698000  1.0
  C  C266  1  0.73056000  0.64204000  0.37698000  1.0
  C  C267  1  0.26944000  0.14204000  0.12302000  1.0
  N  N268  1  0.07630000  0.55339000  0.11130000  1.0
  N  N269  1  0.92370000  0.05340000  0.38870000  1.0
  N  N270  1  0.92371000  0.44660000  0.88871000  1.0
  N  N271  1  0.07631000  0.94661000  0.61129000  1.0
  N  N272  1  0.19773000  0.60896000  0.18512000  1.0
  N  N273  1  0.80226000  0.10897000  0.31488000  1.0
  N  N274  1  0.80228000  0.39103000  0.81488000  1.0
  N  N275  1  0.19774000  0.89103000  0.68511000  1.0
  N  N276  1  0.39281000  0.54025000  0.29176000  1.0
  N  N277  1  0.60719000  0.04024000  0.20824000  1.0
  N  N278  1  0.60721000  0.45976000  0.70824000  1.0
  N  N279  1  0.39280000  0.95976000  0.79176000  1.0
  N  N280  1  0.38329000  0.35154000  0.58951000  1.0
  N  N281  1  0.61671000  0.85154000  0.91049000  1.0
  N  N282  1  0.61670000  0.64846000  0.41049000  1.0
  N  N283  1  0.38328000  0.14846000  0.08951000  1.0
  N  N284  1  0.45522000  0.30250000  0.67449000  1.0
  N  N285  1  0.54479000  0.80250000  0.82551000  1.0
  N  N286  1  0.54478000  0.69751000  0.32551000  1.0
  N  N287  1  0.45520000  0.19751000  0.17449000  1.0
  N  N288  1  0.40919000  0.45756000  0.36459000  1.0
  N  N289  1  0.59080000  0.95756000  0.13540000  1.0
  N  N290  1  0.59080000  0.54243000  0.63540000  1.0
  N  N291  1  0.40920000  0.04243000  0.86460000  1.0
  O  O292  1  0.21011000  0.73459000  0.76441000  1.0
  O  O293  1  0.78991000  0.23459000  0.73561000  1.0
  O  O294  1  0.78991000  0.26541000  0.23560000  1.0
  O  O295  1  0.21007000  0.76541000  0.26438000  1.0
  O  O296  1  0.17109000  0.82091000  0.83425000  1.0
  O  O297  1  0.82888000  0.32090000  0.66576000  1.0
  O  O298  1  0.82889000  0.17910000  0.16576000  1.0
  O  O299  1  0.17112000  0.67910000  0.33424000  1.0
  O  O300  1  0.05397000  0.71963000  0.91985000  1.0
  O  O301  1  0.94603000  0.21965000  0.58016000  1.0
  O  O302  1  0.94603000  0.28035000  0.08016000  1.0
  O  O303  1  0.05397000  0.78035000  0.41984000  1.0
  O  O304  1  0.34001000  0.49673000  0.84538000  1.0
  O  O305  1  0.65999000  0.99674000  0.65462000  1.0
  O  O306  1  0.65998000  0.50327000  0.15462000  1.0
  O  O307  1  0.34001000  0.00327000  0.34538000  1.0
  O  O308  1  0.53452000  0.48612000  0.90833000  1.0
  O  O309  1  0.46548000  0.98611000  0.59168000  1.0
  O  O310  1  0.46547000  0.51388000  0.09167000  1.0
  O  O311  1  0.53451000  0.01388000  0.40832000  1.0
  O  O312  1  0.45833000  0.70588000  0.05054000  1.0
  O  O313  1  0.54166000  0.20587000  0.44946000  1.0
  O  O314  1  0.54167000  0.29412000  0.94946000  1.0
  O  O315  1  0.45833000  0.79412000  0.55054000  1.0
  O  O316  1  0.46369000  0.74300000  0.17269000  1.0
  O  O317  1  0.53631000  0.24300000  0.32730000  1.0
  O  O318  1  0.53631000  0.25700000  0.82731000  1.0
  O  O319  1  0.46369000  0.75700000  0.67269000  1.0
  O  O320  1  0.57669000  0.63048000  0.19623000  1.0
  O  O321  1  0.42331000  0.13049000  0.30377000  1.0
  O  O322  1  0.42331000  0.36952000  0.80378000  1.0
  O  O323  1  0.57669000  0.86952000  0.69622000  1.0
