# generated using pymatgen
data_CuP3H19C14NO10
_symmetry_space_group_name_H-M   'P 1'
_cell_length_a   9.69776000
_cell_length_b   9.82467000
_cell_length_c   10.18750000
_cell_angle_alpha   80.38460000
_cell_angle_beta   74.43740000
_cell_angle_gamma   87.51420000
_symmetry_Int_Tables_number   1
_chemical_formula_structural   CuP3H19C14NO10
_chemical_formula_sum   'Cu2 P6 H38 C28 N2 O20'
_cell_volume   921.91436430
_cell_formula_units_Z   2
loop_
 _symmetry_equiv_pos_site_id
 _symmetry_equiv_pos_as_xyz
  1  'x, y, z'
loop_
 _atom_site_type_symbol
 _atom_site_label
 _atom_site_symmetry_multiplicity
 _atom_site_fract_x
 _atom_site_fract_y
 _atom_site_fract_z
 _atom_site_occupancy
  Cu  Cu0  1  0.79425000  0.35257000  0.71236000  1.0
  Cu  Cu1  1  0.27781000  0.67561000  0.67809000  1.0
  P  P2  1  0.86133000  0.10537000  0.52129000  1.0
  P  P3  1  0.18204000  0.49620000  0.00386000  1.0
  P  P4  1  0.87804000  0.53235000  0.38535000  1.0
  P  P5  1  0.20682000  0.92499000  0.86504000  1.0
  P  P6  1  0.37765000  0.37803000  0.62074000  1.0
  P  P7  1  0.67172000  0.64530000  0.76834000  1.0
  H  H8  1  0.09837000  0.59212000  0.25063000  1.0
  H  H9  1  0.22119000  0.74224000  0.03145000  1.0
  H  H10  1  0.90651000  0.69692000  0.64545000  1.0
  H  H11  1  0.84109000  0.28814000  0.35673000  1.0
  H  H12  1  0.96309000  0.43542000  0.13926000  1.0
  H  H13  1  0.77185000  0.88990000  0.61674000  1.0
  H  H14  1  0.52571000  0.49608000  0.69070000  1.0
  H  H15  1  0.29389000  0.14550000  0.76798000  1.0
  H  H16  1  0.44124000  0.99365000  0.00328000  1.0
  H  H17  1  0.61729000  0.04160000  0.38651000  1.0
  H  H18  1  0.04756000  0.07200000  0.99998000  1.0
  H  H19  1  0.00866000  0.06968000  0.83967000  1.0
  H  H20  1  0.54074000  0.36328000  0.40176000  1.0
  H  H21  1  0.50607000  0.20179000  0.51028000  1.0
  H  H22  1  0.57084000  0.14135000  0.79073000  1.0
  H  H23  1  0.83600000  0.91422000  0.82008000  1.0
  H  H24  1  0.22755000  0.11525000  0.56414000  1.0
  H  H25  1  0.96843000  0.86634000  0.19509000  1.0
  H  H26  1  0.48979000  0.89232000  0.59951000  1.0
  H  H27  1  0.09799000  0.15920000  0.18737000  1.0
  H  H28  1  0.56085000  0.83300000  0.87182000  1.0
  H  H29  1  0.51637000  0.67571000  0.98507000  1.0
  H  H30  1  0.05768000  0.95555000  0.54206000  1.0
  H  H31  1  0.01456000  0.95734000  0.38254000  1.0
  H  H32  1  0.61418000  0.62934000  0.17490000  1.0
  H  H33  1  0.36119000  0.85785000  0.17188000  1.0
  H  H34  1  0.71486000  0.15800000  0.21409000  1.0
  H  H35  1  0.65369000  0.64032000  0.39534000  1.0
  H  H36  1  0.78047000  0.75402000  0.41303000  1.0
  H  H37  1  0.82148000  0.30997000  0.99501000  1.0
  H  H38  1  0.25784000  0.70421000  0.39191000  1.0
  H  H39  1  0.28223000  0.27724000  0.96915000  1.0
  H  H40  1  0.40851000  0.39094000  0.98855000  1.0
  H  H41  1  0.44959000  0.39913000  0.20860000  1.0
  H  H42  1  0.05567000  0.62221000  0.52071000  1.0
  H  H43  1  0.99829000  0.42113000  0.86100000  1.0
  H  H44  1  0.10382000  0.34743000  0.74822000  1.0
  H  H45  1  0.02986000  0.54653000  0.67525000  1.0
  C  C46  1  0.71446000  0.76609000  0.98788000  1.0
  C  C47  1  0.34958000  0.26227000  0.39556000  1.0
  C  C48  1  0.91706000  0.89877000  0.99850000  1.0
  C  C49  1  0.52742000  0.05838000  0.00769000  1.0
  C  C50  1  0.53544000  0.97206000  0.38145000  1.0
  C  C51  1  0.03367000  0.00393000  0.92896000  1.0
  C  C52  1  0.45448000  0.29607000  0.47075000  1.0
  C  C53  1  0.14898000  0.12759000  0.38429000  1.0
  C  C54  1  0.59843000  0.14250000  0.88711000  1.0
  C  C55  1  0.78963000  0.73982000  0.20094000  1.0
  C  C56  1  0.82445000  0.86280000  0.92572000  1.0
  C  C57  1  0.24036000  0.16475000  0.45771000  1.0
  C  C58  1  0.49884000  0.96676000  0.25844000  1.0
  C  C59  1  0.89820000  0.83720000  0.13663000  1.0
  C  C60  1  0.56798000  0.05875000  0.12964000  1.0
  C  C61  1  0.46577000  0.88756000  0.50214000  1.0
  C  C62  1  0.27540000  0.28715000  0.18206000  1.0
  C  C63  1  0.16775000  0.18878000  0.24608000  1.0
  C  C64  1  0.60673000  0.73640000  0.91404000  1.0
  C  C65  1  0.03164000  0.02310000  0.45427000  1.0
  C  C66  1  0.70047000  0.70361000  0.12453000  1.0
  C  C67  1  0.39481000  0.86975000  0.26304000  1.0
  C  C68  1  0.67719000  0.15047000  0.12409000  1.0
  C  C69  1  0.76421000  0.67796000  0.35076000  1.0
  C  C70  1  0.73977000  0.23515000  0.00113000  1.0
  C  C71  1  0.33370000  0.78465000  0.38628000  1.0
  C  C72  1  0.29867000  0.35140000  0.03329000  1.0
  C  C73  1  0.36406000  0.32400000  0.25866000  1.0
  N  N74  1  0.36672000  0.79529000  0.50425000  1.0
  N  N75  1  0.70288000  0.22937000  0.88400000  1.0
  O  O76  1  0.31885000  0.51881000  0.57288000  1.0
  O  O77  1  0.26354000  0.27836000  0.72121000  1.0
  O  O78  1  0.73412000  0.50733000  0.81934000  1.0
  O  O79  1  0.03654000  0.59330000  0.35061000  1.0
  O  O80  1  0.18585000  0.59924000  0.10142000  1.0
  O  O81  1  0.25494000  0.84393000  0.99210000  1.0
  O  O82  1  0.83102000  0.47778000  0.53735000  1.0
  O  O83  1  0.87982000  0.19185000  0.62481000  1.0
  O  O84  1  0.87496000  0.42803000  0.28898000  1.0
  O  O85  1  0.19219000  0.83801000  0.76016000  1.0
  O  O86  1  0.79746000  0.74293000  0.66641000  1.0
  O  O87  1  0.80876000  0.18514000  0.39708000  1.0
  O  O88  1  0.22489000  0.55271000  0.85225000  1.0
  O  O89  1  0.02430000  0.43375000  0.03979000  1.0
  O  O90  1  0.55119000  0.63752000  0.70042000  1.0
  O  O91  1  0.74374000  0.98986000  0.58218000  1.0
  O  O92  1  0.50529000  0.39222000  0.68566000  1.0
  O  O93  1  0.32184000  0.04130000  0.80784000  1.0
  O  O94  1  0.03743000  0.64237000  0.61569000  1.0
  O  O95  1  0.01001000  0.39787000  0.76845000  1.0
