# generated using pymatgen
data_Zn2H22C25(NO4)2
_symmetry_space_group_name_H-M   'P 1'
_cell_length_a   9.90806000
_cell_length_b   11.03710000
_cell_length_c   11.07200000
_cell_angle_alpha   84.38130000
_cell_angle_beta   84.96980000
_cell_angle_gamma   87.56970000
_symmetry_Int_Tables_number   1
_chemical_formula_structural   Zn2H22C25(NO4)2
_chemical_formula_sum   'Zn2 H22 C25 N2 O8'
_cell_volume   1199.63566012
_cell_formula_units_Z   1
loop_
 _symmetry_equiv_pos_site_id
 _symmetry_equiv_pos_as_xyz
  1  'x, y, z'
loop_
 _atom_site_type_symbol
 _atom_site_label
 _atom_site_symmetry_multiplicity
 _atom_site_fract_x
 _atom_site_fract_y
 _atom_site_fract_z
 _atom_site_occupancy
  Zn  Zn0  1  0.64722000  0.48522000  0.48950000  1.0
  Zn  Zn1  1  0.35618000  0.49778000  0.49574000  1.0
  H  H2  1  0.30819000  0.59763000  0.10632000  1.0
  H  H3  1  0.84250000  0.10333000  0.46549000  1.0
  H  H4  1  0.82416000  0.48798000  0.24425000  1.0
  H  H5  1  0.97757000  0.40013000  0.21079000  1.0
  H  H6  1  0.83512000  0.33418000  0.30128000  1.0
  H  H7  1  0.92039000  0.31499000  0.78684000  1.0
  H  H8  1  0.85176000  0.40620000  0.90273000  1.0
  H  H9  1  0.74683000  0.36748000  0.78987000  1.0
  H  H10  1  0.10619000  0.47166000  0.78449000  1.0
  H  H11  1  0.21868000  0.68680000  0.90612000  1.0
  H  H12  1  0.37073000  0.76572000  0.87561000  1.0
  H  H13  1  0.15892000  0.45230000  0.31766000  1.0
  H  H14  1  0.31854000  0.67390000  0.76506000  1.0
  H  H15  1  0.30319000  0.10735000  0.45739000  1.0
  H  H16  1  0.85162000  0.87339000  0.48154000  1.0
  H  H17  1  0.82100000  0.58428000  0.74525000  1.0
  H  H18  1  0.06976000  0.62799000  0.73698000  1.0
  H  H19  1  0.61007000  0.52015000  0.07554000  1.0
  H  H20  1  0.51980000  0.41178000  0.91567000  1.0
  H  H21  1  0.31186000  0.88056000  0.46629000  1.0
  H  H22  1  0.79903000  0.87001000  0.64018000  1.0
  H  H23  1  0.79221000  0.09965000  0.62436000  1.0
  C  C24  1  0.51050000  0.25724000  0.48384000  1.0
  C  C25  1  0.08891000  0.46459000  0.39745000  1.0
  C  C26  1  0.94902000  0.45101000  0.39341000  1.0
  C  C27  1  0.46648000  0.47301000  0.73072000  1.0
  C  C28  1  0.91923000  0.49074000  0.59120000  1.0
  C  C29  1  0.89028000  0.50681000  0.72616000  1.0
  C  C30  1  0.04736000  0.53374000  0.72402000  1.0
  C  C31  1  0.52334000  0.72385000  0.50536000  1.0
  C  C32  1  0.49756000  0.52887000  0.25505000  1.0
  C  C33  1  0.40275000  0.57061000  0.05529000  1.0
  C  C34  1  0.50959000  0.53856000  0.12003000  1.0
  C  C35  1  0.51267000  0.12170000  0.49051000  1.0
  C  C36  1  0.39984000  0.57392000  0.92309000  1.0
  C  C37  1  0.46320000  0.48315000  0.86389000  1.0
  C  C38  1  0.62964000  0.05193000  0.51371000  1.0
  C  C39  1  0.89480000  0.41662000  0.28032000  1.0
  C  C40  1  0.84938000  0.39141000  0.80621000  1.0
  C  C41  1  0.32280000  0.68020000  0.86274000  1.0
  C  C42  1  0.39723000  0.05618000  0.47482000  1.0
  C  C43  1  0.40179000  0.92924000  0.48051000  1.0
  C  C44  1  0.52126000  0.85925000  0.50335000  1.0
  C  C45  1  0.63402000  0.92476000  0.52092000  1.0
  C  C46  1  0.78143000  0.91479000  0.54949000  1.0
  C  C47  1  0.77640000  0.05887000  0.54021000  1.0
  C  C48  1  0.05791000  0.50618000  0.59286000  1.0
  N  N49  1  0.14609000  0.49462000  0.49687000  1.0
  N  N50  1  0.86013000  0.46744000  0.49300000  1.0
  O  O51  1  0.62642000  0.30548000  0.47517000  1.0
  O  O52  1  0.39593000  0.31396000  0.48806000  1.0
  O  O53  1  0.58332000  0.45767000  0.67536000  1.0
  O  O54  1  0.35412000  0.47921000  0.68245000  1.0
  O  O55  1  0.63889000  0.66796000  0.50827000  1.0
  O  O56  1  0.40960000  0.67464000  0.50341000  1.0
  O  O57  1  0.60809000  0.52486000  0.30687000  1.0
  O  O58  1  0.37870000  0.52404000  0.30960000  1.0
