# generated using pymatgen
data_Mn3H56C84(N7O9)2
_symmetry_space_group_name_H-M   'P 1'
_cell_length_a   12.20570000
_cell_length_b   13.48770000
_cell_length_c   13.78070000
_cell_angle_alpha   89.28760000
_cell_angle_beta   71.09260000
_cell_angle_gamma   65.85320000
_symmetry_Int_Tables_number   1
_chemical_formula_structural   Mn3H56C84(N7O9)2
_chemical_formula_sum   'Mn3 H56 C84 N14 O18'
_cell_volume   1939.41259146
_cell_formula_units_Z   1
loop_
 _symmetry_equiv_pos_site_id
 _symmetry_equiv_pos_as_xyz
  1  'x, y, z'
loop_
 _atom_site_type_symbol
 _atom_site_label
 _atom_site_symmetry_multiplicity
 _atom_site_fract_x
 _atom_site_fract_y
 _atom_site_fract_z
 _atom_site_occupancy
  Mn  Mn0  1  0.50000000  0.50000000  0.50000000  1.0
  Mn  Mn1  1  0.54188000  0.36774000  0.24440000  1.0
  Mn  Mn2  1  0.45813000  0.63226000  0.75559000  1.0
  H  H3  1  0.70286000  0.73357000  0.60096000  1.0
  H  H4  1  0.29714000  0.26644000  0.39904000  1.0
  H  H5  1  0.50842000  0.02292000  0.74774000  1.0
  H  H6  1  0.49158000  0.97708000  0.25225000  1.0
  H  H7  1  0.08442000  0.07399000  0.57180000  1.0
  H  H8  1  0.91558000  0.92602000  0.42821000  1.0
  H  H9  1  0.15079000  0.58692000  0.27101000  1.0
  H  H10  1  0.84921000  0.41308000  0.72899000  1.0
  H  H11  1  0.91337000  0.67565000  0.32036000  1.0
  H  H12  1  0.08663000  0.32436000  0.67964000  1.0
  H  H13  1  0.87470000  0.65516000  0.64114000  1.0
  H  H14  1  0.12530000  0.34484000  0.35887000  1.0
  H  H15  1  0.11044000  0.56950000  0.59082000  1.0
  H  H16  1  0.88956000  0.43051000  0.40918000  1.0
  H  H17  1  0.48165000  0.85759000  0.38883000  1.0
  H  H18  1  0.51835000  0.14240000  0.61117000  1.0
  H  H19  1  0.18840000  0.08508000  0.65954000  1.0
  H  H20  1  0.81160000  0.91492000  0.34046000  1.0
  H  H21  1  0.55561000  0.87052000  0.67106000  1.0
  H  H22  1  0.44439000  0.12949000  0.32894000  1.0
  H  H23  1  0.60577000  0.08499000  0.82560000  1.0
  H  H24  1  0.39423000  0.91502000  0.17439000  1.0
  H  H25  1  0.60738000  0.17074000  0.98434000  1.0
  H  H26  1  0.39262000  0.82925000  0.01565000  1.0
  H  H27  1  0.23324000  0.19352000  0.15344000  1.0
  H  H28  1  0.76676000  0.80648000  0.84656000  1.0
  H  H29  1  0.22753000  0.11120000  0.99436000  1.0
  H  H30  1  0.77248000  0.88880000  0.00563000  1.0
  H  H31  1  0.14976000  0.09380000  0.29108000  1.0
  H  H32  1  0.85024000  0.90620000  0.70892000  1.0
  H  H33  1  0.97051000  0.18146000  0.22335000  1.0
  H  H34  1  0.02949000  0.81855000  0.77665000  1.0
  H  H35  1  0.69673000  0.25136000  0.53059000  1.0
  H  H36  1  0.30326000  0.74864000  0.46942000  1.0
  H  H37  1  0.87341000  0.16107000  0.59988000  1.0
  H  H38  1  0.12659000  0.83893000  0.40012000  1.0
  H  H39  1  0.58743000  0.31377000  0.68469000  1.0
  H  H40  1  0.41257000  0.68624000  0.31532000  1.0
  H  H41  1  0.39179000  0.28762000  0.83660000  1.0
  H  H42  1  0.60821000  0.71238000  0.16340000  1.0
  H  H43  1  0.23835000  0.51897000  0.65050000  1.0
  H  H44  1  0.76165000  0.48103000  0.34950000  1.0
  H  H45  1  0.21243000  0.25287000  0.84463000  1.0
  H  H46  1  0.78757000  0.74712000  0.15536000  1.0
  H  H47  1  0.99624000  0.27141000  0.93946000  1.0
  H  H48  1  0.00377000  0.72859000  0.06054000  1.0
  H  H49  1  0.84191000  0.61589000  0.90409000  1.0
  H  H50  1  0.15809000  0.38412000  0.09590000  1.0
  H  H51  1  0.06081000  0.59518000  0.80613000  1.0
  H  H52  1  0.93919000  0.40482000  0.19387000  1.0
  H  H53  1  0.65937000  0.59286000  0.92908000  1.0
  H  H54  1  0.34063000  0.40714000  0.07092000  1.0
  H  H55  1  0.46704000  0.57137000  0.09018000  1.0
  H  H56  1  0.53296000  0.42862000  0.90982000  1.0
  H  H57  1  0.82208000  0.33609000  0.09221000  1.0
  H  H58  1  0.17793000  0.66390000  0.90779000  1.0
  C  C59  1  0.02353000  0.12150000  0.44968000  1.0
  C  C60  1  0.97646000  0.87849000  0.55033000  1.0
  C  C61  1  0.28876000  0.52477000  0.40065000  1.0
  C  C62  1  0.71124000  0.47524000  0.59936000  1.0
  C  C63  1  0.14726000  0.57365000  0.42753000  1.0
  C  C64  1  0.85274000  0.42636000  0.57248000  1.0
  C  C65  1  0.08972000  0.60309000  0.35223000  1.0
  C  C66  1  0.91028000  0.39692000  0.64777000  1.0
  C  C67  1  0.95688000  0.65263000  0.37929000  1.0
  C  C68  1  0.04312000  0.34737000  0.62072000  1.0
  C  C69  1  0.87827000  0.67255000  0.48435000  1.0
  C  C70  1  0.12173000  0.32745000  0.51565000  1.0
  C  C71  1  0.93572000  0.64042000  0.56010000  1.0
  C  C72  1  0.06428000  0.35959000  0.43990000  1.0
  C  C73  1  0.06747000  0.59269000  0.53152000  1.0
  C  C74  1  0.93253000  0.40731000  0.46848000  1.0
  C  C75  1  0.66682000  0.77367000  0.46500000  1.0
  C  C76  1  0.33317000  0.22633000  0.53500000  1.0
  C  C77  1  0.53108000  0.85172000  0.52512000  1.0
  C  C78  1  0.46892000  0.14828000  0.47488000  1.0
  C  C79  1  0.44773000  0.89079000  0.47000000  1.0
  C  C80  1  0.55227000  0.10920000  0.53000000  1.0
  C  C81  1  0.32354000  0.97370000  0.51659000  1.0
  C  C82  1  0.67646000  0.02629000  0.48341000  1.0
  C  C83  1  0.28216000  0.01740000  0.62055000  1.0
  C  C84  1  0.71784000  0.98260000  0.37945000  1.0
  C  C85  1  0.36682000  0.98111000  0.67544000  1.0
  C  C86  1  0.63318000  0.01889000  0.32456000  1.0
  C  C87  1  0.49023000  0.89801000  0.62800000  1.0
  C  C88  1  0.50977000  0.10200000  0.37200000  1.0
  C  C89  1  0.32479000  0.03764000  0.78259000  1.0
  C  C90  1  0.67521000  0.96236000  0.21741000  1.0
  C  C91  1  0.41587000  0.09369000  0.89937000  1.0
  C  C92  1  0.58413000  0.90631000  0.10062000  1.0
  C  C93  1  0.52328000  0.11053000  0.89745000  1.0
  C  C94  1  0.47672000  0.88948000  0.10255000  1.0
  C  C95  1  0.52432000  0.15800000  0.98571000  1.0
  C  C96  1  0.47568000  0.84201000  0.01428000  1.0
  C  C97  1  0.41933000  0.18900000  0.07872000  1.0
  C  C98  1  0.58067000  0.81100000  0.92128000  1.0
  C  C99  1  0.31339000  0.17122000  0.08032000  1.0
  C  C100  1  0.68661000  0.82877000  0.91967000  1.0
  C  C101  1  0.30991000  0.12492000  0.99227000  1.0
  C  C102  1  0.69010000  0.87508000  0.00772000  1.0
  C  C103  1  0.42037000  0.23857000  0.17497000  1.0
  C  C104  1  0.57964000  0.76142000  0.82503000  1.0
  C  C105  1  0.24835000  0.01678000  0.44647000  1.0
  C  C106  1  0.75164000  0.98321000  0.55353000  1.0
  C  C107  1  0.05070000  0.12745000  0.34295000  1.0
  C  C108  1  0.94930000  0.87255000  0.65705000  1.0
  C  C109  1  0.95024000  0.17759000  0.30606000  1.0
  C  C110  1  0.04975000  0.82241000  0.69395000  1.0
  C  C111  1  0.82214000  0.22384000  0.37316000  1.0
  C  C112  1  0.17786000  0.77616000  0.62684000  1.0
  C  C113  1  0.79618000  0.21693000  0.47914000  1.0
  C  C114  1  0.20382000  0.78307000  0.52087000  1.0
  C  C115  1  0.89500000  0.16620000  0.51712000  1.0
  C  C116  1  0.10500000  0.83380000  0.48288000  1.0
  C  C117  1  0.71691000  0.27801000  0.33196000  1.0
  C  C118  1  0.28308000  0.72200000  0.66804000  1.0
  C  C119  1  0.48563000  0.35116000  0.69843000  1.0
  C  C120  1  0.51438000  0.64884000  0.30157000  1.0
  C  C121  1  0.38980000  0.33788000  0.77487000  1.0
  C  C122  1  0.61020000  0.66211000  0.22513000  1.0
  C  C123  1  0.30704000  0.46232000  0.68139000  1.0
  C  C124  1  0.69297000  0.53768000  0.31861000  1.0
  C  C125  1  0.15087000  0.42300000  0.82112000  1.0
  C  C126  1  0.84913000  0.57700000  0.17888000  1.0
  C  C127  1  0.13214000  0.33288000  0.85973000  1.0
  C  C128  1  0.86786000  0.66712000  0.14026000  1.0
  C  C129  1  0.00908000  0.34370000  0.91304000  1.0
  C  C130  1  0.99092000  0.65630000  0.08696000  1.0
  C  C131  1  0.90444000  0.44566000  0.92924000  1.0
  C  C132  1  0.09557000  0.55434000  0.07076000  1.0
  C  C133  1  0.92287000  0.53584000  0.88971000  1.0
  C  C134  1  0.07713000  0.46416000  0.11028000  1.0
  C  C135  1  0.04623000  0.52437000  0.83530000  1.0
  C  C136  1  0.95378000  0.47563000  0.16469000  1.0
  C  C137  1  0.66386000  0.53780000  0.98685000  1.0
  C  C138  1  0.33614000  0.46219000  0.01315000  1.0
  C  C139  1  0.56996000  0.52548000  0.06624000  1.0
  C  C140  1  0.43004000  0.47451000  0.93375000  1.0
  C  C141  1  0.75138000  0.40178000  0.06938000  1.0
  C  C142  1  0.24862000  0.59822000  0.93061000  1.0
  N  N143  1  0.43287000  0.42839000  0.63984000  1.0
  N  N144  1  0.56713000  0.57161000  0.36016000  1.0
  N  N145  1  0.62535000  0.44042000  0.11688000  1.0
  N  N146  1  0.37466000  0.55957000  0.88311000  1.0
  N  N147  1  0.27625000  0.41045000  0.76421000  1.0
  N  N148  1  0.72375000  0.58955000  0.23579000  1.0
  N  N149  1  0.77938000  0.45876000  0.98978000  1.0
  N  N150  1  0.22062000  0.54124000  0.01022000  1.0
  N  N151  1  0.74418000  0.72609000  0.52130000  1.0
  N  N152  1  0.25582000  0.27391000  0.47870000  1.0
  N  N153  1  0.42242000  0.04556000  0.80697000  1.0
  N  N154  1  0.57758000  0.95444000  0.19302000  1.0
  N  N155  1  0.11827000  0.07285000  0.49386000  1.0
  N  N156  1  0.88173000  0.92715000  0.50615000  1.0
  O  O157  1  0.33067000  0.51916000  0.47496000  1.0
  O  O158  1  0.66933000  0.48086000  0.52504000  1.0
  O  O159  1  0.36064000  0.49180000  0.30502000  1.0
  O  O160  1  0.63936000  0.50819000  0.69498000  1.0
  O  O161  1  0.51812000  0.25866000  0.16421000  1.0
  O  O162  1  0.48188000  0.74134000  0.83579000  1.0
  O  O163  1  0.32890000  0.25693000  0.25884000  1.0
  O  O164  1  0.67110000  0.74307000  0.74115000  1.0
  O  O165  1  0.74184000  0.26747000  0.23443000  1.0
  O  O166  1  0.25815000  0.73254000  0.76558000  1.0
  O  O167  1  0.60054000  0.33571000  0.39338000  1.0
  O  O168  1  0.39946000  0.66430000  0.60663000  1.0
  O  O169  1  0.70549000  0.76078000  0.36885000  1.0
  O  O170  1  0.29451000  0.23922000  0.63115000  1.0
  O  O171  1  0.21165000  0.07616000  0.84133000  1.0
  O  O172  1  0.78835000  0.92385000  0.15866000  1.0
  O  O173  1  0.30323000  0.00156000  0.35078000  1.0
  O  O174  1  0.69676000  0.99842000  0.64922000  1.0
