# generated using pymatgen
data_AgH10C9N3O2
_symmetry_space_group_name_H-M   'P 1'
_cell_length_a   11.46590000
_cell_length_b   11.46590000
_cell_length_c   11.46590000
_cell_angle_alpha   96.22340000
_cell_angle_beta   96.22360000
_cell_angle_gamma   96.22350000
_symmetry_Int_Tables_number   1
_chemical_formula_structural   AgH10C9N3O2
_chemical_formula_sum   'Ag6 H60 C54 N18 O12'
_cell_volume   1478.61855091
_cell_formula_units_Z   6
loop_
 _symmetry_equiv_pos_site_id
 _symmetry_equiv_pos_as_xyz
  1  'x, y, z'
loop_
 _atom_site_type_symbol
 _atom_site_label
 _atom_site_symmetry_multiplicity
 _atom_site_fract_x
 _atom_site_fract_y
 _atom_site_fract_z
 _atom_site_occupancy
  Ag  Ag0  1  0.53137000  0.32437000  0.99773000  1.0
  Ag  Ag1  1  0.32437000  0.99773000  0.53138000  1.0
  Ag  Ag2  1  0.99773000  0.53137000  0.32437000  1.0
  Ag  Ag3  1  0.46862000  0.67563000  0.00227000  1.0
  Ag  Ag4  1  0.67563000  0.00227000  0.46863000  1.0
  Ag  Ag5  1  0.00227000  0.46863000  0.67563000  1.0
  H  H6  1  0.46051000  0.64834000  0.74663000  1.0
  H  H7  1  0.64834000  0.74663000  0.46051000  1.0
  H  H8  1  0.74663000  0.46051000  0.64834000  1.0
  H  H9  1  0.53949000  0.35166000  0.25337000  1.0
  H  H10  1  0.35166000  0.25337000  0.53949000  1.0
  H  H11  1  0.25337000  0.53949000  0.35166000  1.0
  H  H12  1  0.85749000  0.07739000  0.16947000  1.0
  H  H13  1  0.07739000  0.16946000  0.85749000  1.0
  H  H14  1  0.16946000  0.85749000  0.07739000  1.0
  H  H15  1  0.14251000  0.92261000  0.83053000  1.0
  H  H16  1  0.92261000  0.83054000  0.14251000  1.0
  H  H17  1  0.83053000  0.14251000  0.92261000  1.0
  H  H18  1  0.67310000  0.00524000  0.03563000  1.0
  H  H19  1  0.00524000  0.03562000  0.67310000  1.0
  H  H20  1  0.03562000  0.67310000  0.00524000  1.0
  H  H21  1  0.32690000  0.99476000  0.96437000  1.0
  H  H22  1  0.99476000  0.96438000  0.32690000  1.0
  H  H23  1  0.96438000  0.32690000  0.99476000  1.0
  H  H24  1  0.57320000  0.10739000  0.99196000  1.0
  H  H25  1  0.10739000  0.99196000  0.57321000  1.0
  H  H26  1  0.99196000  0.57320000  0.10740000  1.0
  H  H27  1  0.42680000  0.89261000  0.00804000  1.0
  H  H28  1  0.89261000  0.00804000  0.42680000  1.0
  H  H29  1  0.00804000  0.42680000  0.89260000  1.0
  H  H30  1  0.57878000  0.06144000  0.13571000  1.0
  H  H31  1  0.06144000  0.13571000  0.57879000  1.0
  H  H32  1  0.13571000  0.57878000  0.06144000  1.0
  H  H33  1  0.42122000  0.93856000  0.86429000  1.0
  H  H34  1  0.93856000  0.86429000  0.42122000  1.0
  H  H35  1  0.86429000  0.42122000  0.93856000  1.0
  H  H36  1  0.09678000  0.32359000  0.26277000  1.0
  H  H37  1  0.32359000  0.26277000  0.09678000  1.0
  H  H38  1  0.26277000  0.09678000  0.32359000  1.0
  H  H39  1  0.90322000  0.67641000  0.73723000  1.0
  H  H40  1  0.67641000  0.73723000  0.90322000  1.0
  H  H41  1  0.73722000  0.90322000  0.67641000  1.0
  H  H42  1  0.05928000  0.16648000  0.25206000  1.0
  H  H43  1  0.16648000  0.25206000  0.05928000  1.0
  H  H44  1  0.25206000  0.05928000  0.16648000  1.0
  H  H45  1  0.94072000  0.83352000  0.74794000  1.0
  H  H46  1  0.83352000  0.74794000  0.94072000  1.0
  H  H47  1  0.74794000  0.94072000  0.83352000  1.0
  H  H48  1  0.03005000  0.26049000  0.37693000  1.0
  H  H49  1  0.26049000  0.37693000  0.03005000  1.0
  H  H50  1  0.37693000  0.03005000  0.26049000  1.0
  H  H51  1  0.96995000  0.73951000  0.62307000  1.0
  H  H52  1  0.73951000  0.62307000  0.96995000  1.0
  H  H53  1  0.62307000  0.96995000  0.73951000  1.0
  H  H54  1  0.64632000  0.50191000  0.15717000  1.0
  H  H55  1  0.50191000  0.15717000  0.64632000  1.0
  H  H56  1  0.15716000  0.64632000  0.50191000  1.0
  H  H57  1  0.35368000  0.49809000  0.84283000  1.0
  H  H58  1  0.49809000  0.84283000  0.35368000  1.0
  H  H59  1  0.84283000  0.35368000  0.49809000  1.0
  H  H60  1  0.78007000  0.55937000  0.24254000  1.0
  H  H61  1  0.55937000  0.24254000  0.78007000  1.0
  H  H62  1  0.24254000  0.78007000  0.55937000  1.0
  H  H63  1  0.21993000  0.44063000  0.75746000  1.0
  H  H64  1  0.44063000  0.75746000  0.21993000  1.0
  H  H65  1  0.75746000  0.21993000  0.44063000  1.0
  C  C66  1  0.52935000  0.63385000  0.69028000  1.0
  C  C67  1  0.63385000  0.69028000  0.52935000  1.0
  C  C68  1  0.69028000  0.52935000  0.63385000  1.0
  C  C69  1  0.47065000  0.36615000  0.30972000  1.0
  C  C70  1  0.36615000  0.30972000  0.47065000  1.0
  C  C71  1  0.30972000  0.47065000  0.36615000  1.0
  C  C72  1  0.83338000  0.16649000  0.16879000  1.0
  C  C73  1  0.16649000  0.16879000  0.83338000  1.0
  C  C74  1  0.16879000  0.83338000  0.16649000  1.0
  C  C75  1  0.16662000  0.83351000  0.83120000  1.0
  C  C76  1  0.83351000  0.83121000  0.16662000  1.0
  C  C77  1  0.83121000  0.16663000  0.83350000  1.0
  C  C78  1  0.63239000  0.08368000  0.06524000  1.0
  C  C79  1  0.08368000  0.06523000  0.63239000  1.0
  C  C80  1  0.06523000  0.63239000  0.08368000  1.0
  C  C81  1  0.36761000  0.91632000  0.93477000  1.0
  C  C82  1  0.91632000  0.93477000  0.36761000  1.0
  C  C83  1  0.93477000  0.36761000  0.91632000  1.0
  C  C84  1  0.03122000  0.25239000  0.28046000  1.0
  C  C85  1  0.25239000  0.28046000  0.03122000  1.0
  C  C86  1  0.28046000  0.03122000  0.25239000  1.0
  C  C87  1  0.96878000  0.74761000  0.71954000  1.0
  C  C88  1  0.74761000  0.71954000  0.96878000  1.0
  C  C89  1  0.71954000  0.96878000  0.74761000  1.0
  C  C90  1  0.58702000  0.46721000  0.80294000  1.0
  C  C91  1  0.46721000  0.80294000  0.58702000  1.0
  C  C92  1  0.80294000  0.58702000  0.46721000  1.0
  C  C93  1  0.41298000  0.53279000  0.19706000  1.0
  C  C94  1  0.53279000  0.19706000  0.41298000  1.0
  C  C95  1  0.19706000  0.41298000  0.53279000  1.0
  C  C96  1  0.76924000  0.38711000  0.17250000  1.0
  C  C97  1  0.38711000  0.17250000  0.76924000  1.0
  C  C98  1  0.17250000  0.76924000  0.38711000  1.0
  C  C99  1  0.23076000  0.61290000  0.82750000  1.0
  C  C100  1  0.61289000  0.82750000  0.23076000  1.0
  C  C101  1  0.82750000  0.23076000  0.61289000  1.0
  C  C102  1  0.60178000  0.54498000  0.70696000  1.0
  C  C103  1  0.54498000  0.70696000  0.60178000  1.0
  C  C104  1  0.70696000  0.60178000  0.54498000  1.0
  C  C105  1  0.39822000  0.45502000  0.29304000  1.0
  C  C106  1  0.45502000  0.29304000  0.39822000  1.0
  C  C107  1  0.29304000  0.39822000  0.45502000  1.0
  C  C108  1  0.72244000  0.18516000  0.11615000  1.0
  C  C109  1  0.18517000  0.11614000  0.72244000  1.0
  C  C110  1  0.11615000  0.72244000  0.18517000  1.0
  C  C111  1  0.27756000  0.81484000  0.88385000  1.0
  C  C112  1  0.81483000  0.88385000  0.27756000  1.0
  C  C113  1  0.88386000  0.27756000  0.81483000  1.0
  C  C114  1  0.91114000  0.26440000  0.22164000  1.0
  C  C115  1  0.26441000  0.22164000  0.91114000  1.0
  C  C116  1  0.22164000  0.91113000  0.26440000  1.0
  C  C117  1  0.08886000  0.73559000  0.77835000  1.0
  C  C118  1  0.73560000  0.77836000  0.08887000  1.0
  C  C119  1  0.77836000  0.08887000  0.73559000  1.0
  N  N120  1  0.69230000  0.29510000  0.11353000  1.0
  N  N121  1  0.29510000  0.11353000  0.69230000  1.0
  N  N122  1  0.11352000  0.69230000  0.29510000  1.0
  N  N123  1  0.30770000  0.70490000  0.88647000  1.0
  N  N124  1  0.70490000  0.88647000  0.30770000  1.0
  N  N125  1  0.88648000  0.30771000  0.70490000  1.0
  N  N126  1  0.73542000  0.49571000  0.17778000  1.0
  N  N127  1  0.49571000  0.17778000  0.73542000  1.0
  N  N128  1  0.17778000  0.73542000  0.49571000  1.0
  N  N129  1  0.26458000  0.50429000  0.82222000  1.0
  N  N130  1  0.50429000  0.82222000  0.26458000  1.0
  N  N131  1  0.82223000  0.26458000  0.50428000  1.0
  N  N132  1  0.87921000  0.37413000  0.22419000  1.0
  N  N133  1  0.37413000  0.22419000  0.87921000  1.0
  N  N134  1  0.22419000  0.87921000  0.37413000  1.0
  N  N135  1  0.12079000  0.62587000  0.77581000  1.0
  N  N136  1  0.62587000  0.77581000  0.12079000  1.0
  N  N137  1  0.77581000  0.12079000  0.62587000  1.0
  O  O138  1  0.50684000  0.48567000  0.87036000  1.0
  O  O139  1  0.48567000  0.87036000  0.50684000  1.0
  O  O140  1  0.87036000  0.50684000  0.48568000  1.0
  O  O141  1  0.49316000  0.51433000  0.12964000  1.0
  O  O142  1  0.51432000  0.12964000  0.49316000  1.0
  O  O143  1  0.12964000  0.49316000  0.51432000  1.0
  O  O144  1  0.65406000  0.38705000  0.81379000  1.0
  O  O145  1  0.38705000  0.81378000  0.65406000  1.0
  O  O146  1  0.81378000  0.65406000  0.38705000  1.0
  O  O147  1  0.34594000  0.61295000  0.18622000  1.0
  O  O148  1  0.61295000  0.18621000  0.34594000  1.0
  O  O149  1  0.18622000  0.34594000  0.61295000  1.0
