# generated using pymatgen
data_ZnH18C13NO5
_symmetry_space_group_name_H-M   'P 1'
_cell_length_a   8.20197000
_cell_length_b   9.41251000
_cell_length_c   10.68400000
_cell_angle_alpha   75.21390000
_cell_angle_beta   89.99120000
_cell_angle_gamma   69.74170000
_symmetry_Int_Tables_number   1
_chemical_formula_structural   ZnH18C13NO5
_chemical_formula_sum   'Zn2 H36 C26 N2 O10'
_cell_volume   744.62425247
_cell_formula_units_Z   2
loop_
 _symmetry_equiv_pos_site_id
 _symmetry_equiv_pos_as_xyz
  1  'x, y, z'
loop_
 _atom_site_type_symbol
 _atom_site_label
 _atom_site_symmetry_multiplicity
 _atom_site_fract_x
 _atom_site_fract_y
 _atom_site_fract_z
 _atom_site_occupancy
  Zn  Zn0  1  0.63828000  0.14845000  0.66429000  1.0
  Zn  Zn1  1  0.36172000  0.85155000  0.33571000  1.0
  H  H2  1  0.54666000  0.34068000  0.42846000  1.0
  H  H3  1  0.45334000  0.65932000  0.57154000  1.0
  H  H4  1  0.48446000  0.19095000  0.44393000  1.0
  H  H5  1  0.51554000  0.80905000  0.55608000  1.0
  H  H6  1  0.79318000  0.60794000  0.55531000  1.0
  H  H7  1  0.20682000  0.39206000  0.44469000  1.0
  H  H8  1  0.97591000  0.45444000  0.65003000  1.0
  H  H9  1  0.02409000  0.54556000  0.34997000  1.0
  H  H10  1  0.89159000  0.17481000  0.94582000  1.0
  H  H11  1  0.10841000  0.82519000  0.05418000  1.0
  H  H12  1  0.03926000  0.09184000  0.08977000  1.0
  H  H13  1  0.96074000  0.90816000  0.91023000  1.0
  H  H14  1  0.50047000  0.22573000  0.90313000  1.0
  H  H15  1  0.49953000  0.77427000  0.09687000  1.0
  H  H16  1  0.26415000  0.19297000  0.04282000  1.0
  H  H17  1  0.73585000  0.80703000  0.95718000  1.0
  H  H18  1  0.34079000  0.04043000  0.63402000  1.0
  H  H19  1  0.65921000  0.95957000  0.36598000  1.0
  H  H20  1  0.09188000  0.00912000  0.75756000  1.0
  H  H21  1  0.90813000  0.99088000  0.24244000  1.0
  H  H22  1  0.82557000  0.45127000  0.84863000  1.0
  H  H23  1  0.17443000  0.54873000  0.15137000  1.0
  H  H24  1  0.64692000  0.62461000  0.76665000  1.0
  H  H25  1  0.35308000  0.37539000  0.23336000  1.0
  H  H26  1  0.12022000  0.70390000  0.81370000  1.0
  H  H27  1  0.87978000  0.29610000  0.18630000  1.0
  H  H28  1  0.16011000  0.50803000  0.80675000  1.0
  H  H29  1  0.83989000  0.49197000  0.19324000  1.0
  H  H30  1  0.98161000  0.60369000  0.88711000  1.0
  H  H31  1  0.01839000  0.39631000  0.11289000  1.0
  H  H32  1  0.98081000  0.75390000  0.46668000  1.0
  H  H33  1  0.01919000  0.24610000  0.53332000  1.0
  H  H34  1  0.16771000  0.60628000  0.56606000  1.0
  H  H35  1  0.83229000  0.39372000  0.43394000  1.0
  H  H36  1  0.10836000  0.80465000  0.57068000  1.0
  H  H37  1  0.89164000  0.19535000  0.42932000  1.0
  C  C38  1  0.79872000  0.84262000  0.66332000  1.0
  C  C39  1  0.20128000  0.15738000  0.33668000  1.0
  C  C40  1  0.86670000  0.56197000  0.65203000  1.0
  C  C41  1  0.13330000  0.43803000  0.34797000  1.0
  C  C42  1  0.94317000  0.68284000  0.67343000  1.0
  C  C43  1  0.05683000  0.31716000  0.32658000  1.0
  C  C44  1  0.01304000  0.07840000  0.99367000  1.0
  C  C45  1  0.98696000  0.92160000  0.00633000  1.0
  C  C46  1  0.15745000  0.09722000  0.91268000  1.0
  C  C47  1  0.84255000  0.90278000  0.08732000  1.0
  C  C48  1  0.40714000  0.17751000  0.87526000  1.0
  C  C49  1  0.59286000  0.82249000  0.12474000  1.0
  C  C50  1  0.66006000  0.41770000  0.71213000  1.0
  C  C51  1  0.33994000  0.58230000  0.28787000  1.0
  C  C52  1  0.27455000  0.16022000  0.95153000  1.0
  C  C53  1  0.72545000  0.83978000  0.04847000  1.0
  C  C54  1  0.31752000  0.07414000  0.72455000  1.0
  C  C55  1  0.68248000  0.92586000  0.27544000  1.0
  C  C56  1  0.18043000  0.05569000  0.79496000  1.0
  C  C57  1  0.81957000  0.94431000  0.20504000  1.0
  C  C58  1  0.74819000  0.51773000  0.75465000  1.0
  C  C59  1  0.25181000  0.48227000  0.24535000  1.0
  C  C60  1  0.05738000  0.62137000  0.80344000  1.0
  C  C61  1  0.94263000  0.37863000  0.19656000  1.0
  C  C62  1  0.05636000  0.71450000  0.56194000  1.0
  C  C63  1  0.94364000  0.28550000  0.43806000  1.0
  N  N64  1  0.43028000  0.13352000  0.76405000  1.0
  N  N65  1  0.56972000  0.86648000  0.23595000  1.0
  O  O66  1  0.83987000  0.94132000  0.70927000  1.0
  O  O67  1  0.16013000  0.05868000  0.29073000  1.0
  O  O68  1  0.57834000  0.22403000  0.47379000  1.0
  O  O69  1  0.42166000  0.77597000  0.52621000  1.0
  O  O70  1  0.64883000  0.87938000  0.60700000  1.0
  O  O71  1  0.35117000  0.12062000  0.39301000  1.0
  O  O72  1  0.74785000  0.26816000  0.74149000  1.0
  O  O73  1  0.25215000  0.73184000  0.25851000  1.0
  O  O74  1  0.51138000  0.47952000  0.64903000  1.0
  O  O75  1  0.48861000  0.52048000  0.35097000  1.0
