# generated using pymatgen
data_ZnH9C11NO5
_symmetry_space_group_name_H-M   'P 1'
_cell_length_a   8.94669000
_cell_length_b   8.96406000
_cell_length_c   53.48990000
_cell_angle_alpha   90.00000000
_cell_angle_beta   90.00010000
_cell_angle_gamma   89.53760000
_symmetry_Int_Tables_number   1
_chemical_formula_structural   ZnH9C11NO5
_chemical_formula_sum   'Zn8 H72 C88 N8 O40'
_cell_volume   4289.67892222
_cell_formula_units_Z   8
loop_
 _symmetry_equiv_pos_site_id
 _symmetry_equiv_pos_as_xyz
  1  'x, y, z'
loop_
 _atom_site_type_symbol
 _atom_site_label
 _atom_site_symmetry_multiplicity
 _atom_site_fract_x
 _atom_site_fract_y
 _atom_site_fract_z
 _atom_site_occupancy
  Zn  Zn0  1  0.17407000  0.26835000  0.25240000  1.0
  Zn  Zn1  1  0.82592000  0.73165000  0.75240000  1.0
  Zn  Zn2  1  0.20886000  0.23264000  0.19907000  1.0
  Zn  Zn3  1  0.79114000  0.76736000  0.69907000  1.0
  Zn  Zn4  1  0.33866000  0.57252000  0.45275000  1.0
  Zn  Zn5  1  0.66134000  0.42748000  0.95275000  1.0
  Zn  Zn6  1  0.63248000  0.39553000  0.00485000  1.0
  Zn  Zn7  1  0.36752000  0.60447000  0.50485000  1.0
  H  H8  1  0.93839000  0.11958000  0.29241000  1.0
  H  H9  1  0.06161000  0.88041000  0.79241000  1.0
  H  H10  1  0.89220000  0.28342000  0.27652000  1.0
  H  H11  1  0.10780000  0.71657000  0.77652000  1.0
  H  H12  1  0.72646000  0.36956000  0.31022000  1.0
  H  H13  1  0.27354000  0.63044000  0.81022000  1.0
  H  H14  1  0.68452000  0.17873000  0.30532000  1.0
  H  H15  1  0.31548000  0.82127000  0.80532000  1.0
  H  H16  1  0.86148000  0.11163000  0.34046000  1.0
  H  H17  1  0.13852000  0.88836000  0.84045000  1.0
  H  H18  1  0.96339000  0.30674000  0.36699000  1.0
  H  H19  1  0.03661000  0.69326000  0.86699000  1.0
  H  H20  1  0.42162000  0.46805000  0.32946000  1.0
  H  H21  1  0.57837000  0.53195000  0.82946000  1.0
  H  H22  1  0.38497000  0.38906000  0.28494000  1.0
  H  H23  1  0.61503000  0.61093000  0.78494000  1.0
  H  H24  1  0.47765000  0.39062000  0.41318000  1.0
  H  H25  1  0.52235000  0.60938000  0.91318000  1.0
  H  H26  1  0.42464000  0.31650000  0.36863000  1.0
  H  H27  1  0.57535000  0.68350000  0.86863000  1.0
  H  H28  1  0.03171000  0.59960000  0.37169000  1.0
  H  H29  1  0.96829000  0.40041000  0.87169000  1.0
  H  H30  1  0.10259000  0.66152000  0.41608000  1.0
  H  H31  1  0.89741000  0.33848000  0.91608000  1.0
  H  H32  1  0.69545000  0.18061000  0.36931000  1.0
  H  H33  1  0.30455000  0.81939000  0.86931000  1.0
  H  H34  1  0.75148000  0.46138000  0.35711000  1.0
  H  H35  1  0.24852000  0.53862000  0.85711000  1.0
  H  H36  1  0.08487000  0.99011000  0.15515000  1.0
  H  H37  1  0.91513000  0.00990000  0.65515000  1.0
  H  H38  1  0.23608000  0.95233000  0.17485000  1.0
  H  H39  1  0.76392000  0.04767000  0.67485000  1.0
  H  H40  1  0.35738000  0.79031000  0.14393000  1.0
  H  H41  1  0.64262000  0.20970000  0.64393000  1.0
  H  H42  1  0.16593000  0.74010000  0.14408000  1.0
  H  H43  1  0.83408000  0.25990000  0.64408000  1.0
  H  H44  1  0.12300000  0.91088000  0.10724000  1.0
  H  H45  1  0.87700000  0.08913000  0.60724000  1.0
  H  H46  1  0.33370000  0.02184000  0.08568000  1.0
  H  H47  1  0.66630000  0.97816000  0.58568000  1.0
  H  H48  1  0.42844000  0.49066000  0.12475000  1.0
  H  H49  1  0.57156000  0.50934000  0.62475000  1.0
  H  H50  1  0.32069000  0.45107000  0.16753000  1.0
  H  H51  1  0.67931000  0.54893000  0.66753000  1.0
  H  H52  1  0.40404000  0.51448000  0.03826000  1.0
  H  H53  1  0.59595000  0.48552000  0.53826000  1.0
  H  H54  1  0.29862000  0.46266000  0.08111000  1.0
  H  H55  1  0.70138000  0.53733000  0.58110000  1.0
  H  H56  1  0.63619000  0.11935000  0.08944000  1.0
  H  H57  1  0.36381000  0.88065000  0.58944000  1.0
  H  H58  1  0.72970000  0.18896000  0.04659000  1.0
  H  H59  1  0.27030000  0.81105000  0.54659000  1.0
  H  H60  1  0.23373000  0.75050000  0.08058000  1.0
  H  H61  1  0.76627000  0.24950000  0.58058000  1.0
  H  H62  1  0.49081000  0.82027000  0.10003000  1.0
  H  H63  1  0.50919000  0.17973000  0.60003000  1.0
  H  H64  1  0.21291000  0.74728000  0.19945000  1.0
  H  H65  1  0.78709000  0.25272000  0.69945000  1.0
  H  H66  1  0.17142000  0.75873000  0.25663000  1.0
  H  H67  1  0.82859000  0.24127000  0.75663000  1.0
  H  H68  1  0.69780000  0.24000000  0.19500000  1.0
  H  H69  1  0.30220000  0.76000000  0.69500000  1.0
  H  H70  1  0.68952000  0.26148000  0.25252000  1.0
  H  H71  1  0.31048000  0.73852000  0.75252000  1.0
  H  H72  1  0.34574000  0.08391000  0.45068000  1.0
  H  H73  1  0.65425000  0.91610000  0.95068000  1.0
  H  H74  1  0.36346000  0.09213000  0.50822000  1.0
  H  H75  1  0.63654000  0.90787000  0.00822000  1.0
  H  H76  1  0.85307000  0.62280000  0.50572000  1.0
  H  H77  1  0.14693000  0.37720000  0.00572000  1.0
  H  H78  1  0.85223000  0.55044000  0.44937000  1.0
  H  H79  1  0.14776000  0.44955000  0.94937000  1.0
  C  C80  1  0.04876000  0.31026000  0.30606000  1.0
  C  C81  1  0.95124000  0.68974000  0.80606000  1.0
  C  C82  1  0.91137000  0.23868000  0.29540000  1.0
  C  C83  1  0.08863000  0.76131000  0.79540000  1.0
  C  C84  1  0.77181000  0.25539000  0.31164000  1.0
  C  C85  1  0.22819000  0.74461000  0.81164000  1.0
  C  C86  1  0.81176000  0.22431000  0.33871000  1.0
  C  C87  1  0.18824000  0.77569000  0.83871000  1.0
  C  C88  1  0.92388000  0.34066000  0.34818000  1.0
  C  C89  1  0.07612000  0.65934000  0.84818000  1.0
  C  C90  1  0.05789000  0.35625000  0.33118000  1.0
  C  C91  1  0.94211000  0.64375000  0.83118000  1.0
  C  C92  1  0.19506000  0.41175000  0.34012000  1.0
  C  C93  1  0.80494000  0.58825000  0.84012000  1.0
  C  C94  1  0.31454000  0.42406000  0.32334000  1.0
  C  C95  1  0.68546000  0.57594000  0.82334000  1.0
  C  C96  1  0.29548000  0.38076000  0.29870000  1.0
  C  C97  1  0.70452000  0.61924000  0.79870000  1.0
  C  C98  1  0.38077000  0.43378000  0.40302000  1.0
  C  C99  1  0.61923000  0.56622000  0.90302000  1.0
  C  C100  1  0.35045000  0.39368000  0.37847000  1.0
  C  C101  1  0.64955000  0.60633000  0.87847000  1.0
  C  C102  1  0.22301000  0.45259000  0.36656000  1.0
  C  C103  1  0.77699000  0.54742000  0.86656000  1.0
  C  C104  1  0.13171000  0.55133000  0.38014000  1.0
  C  C105  1  0.86829000  0.44867000  0.88014000  1.0
  C  C106  1  0.17040000  0.58632000  0.40464000  1.0
  C  C107  1  0.82961000  0.41368000  0.90464000  1.0
  C  C108  1  0.27956000  0.10964000  0.14594000  1.0
  C  C109  1  0.72044000  0.89036000  0.64594000  1.0
  C  C110  1  0.20670000  0.96919000  0.15509000  1.0
  C  C111  1  0.79330000  0.03081000  0.65509000  1.0
  C  C112  1  0.24371000  0.83036000  0.13960000  1.0
  C  C113  1  0.75630000  0.16964000  0.63960000  1.0
  C  C114  1  0.23538000  0.86739000  0.11196000  1.0
  C  C115  1  0.76462000  0.13261000  0.61196000  1.0
  C  C116  1  0.35274000  0.98511000  0.10521000  1.0
  C  C117  1  0.64726000  0.01489000  0.60521000  1.0
  C  C118  1  0.34505000  0.12011000  0.12208000  1.0
  C  C119  1  0.65495000  0.87989000  0.62208000  1.0
  C  C120  1  0.39873000  0.25946000  0.11403000  1.0
  C  C121  1  0.60127000  0.74054000  0.61403000  1.0
  C  C122  1  0.38871000  0.38111000  0.13037000  1.0
  C  C123  1  0.61129000  0.61889000  0.63037000  1.0
  C  C124  1  0.32842000  0.36060000  0.15395000  1.0
  C  C125  1  0.67158000  0.63940000  0.65395000  1.0
  C  C126  1  0.45239000  0.42976000  0.05054000  1.0
  C  C127  1  0.54761000  0.57024000  0.55054000  1.0
  C  C128  1  0.39449000  0.39973000  0.07407000  1.0
  C  C129  1  0.60551000  0.60026000  0.57407000  1.0
  C  C130  1  0.45969000  0.28654000  0.08868000  1.0
  C  C131  1  0.54031000  0.71346000  0.58868000  1.0
  C  C132  1  0.58273000  0.20859000  0.07882000  1.0
  C  C133  1  0.41727000  0.79141000  0.57882000  1.0
  C  C134  1  0.63469000  0.24649000  0.05513000  1.0
  C  C135  1  0.36531000  0.75351000  0.55513000  1.0
  C  C136  1  0.19758000  0.54068000  0.22156000  1.0
  C  C137  1  0.80242000  0.45932000  0.72156000  1.0
  C  C138  1  0.20108000  0.70562000  0.21849000  1.0
  C  C139  1  0.79892000  0.29437000  0.71849000  1.0
  C  C140  1  0.18670000  0.80077000  0.23768000  1.0
  C  C141  1  0.81331000  0.19923000  0.73768000  1.0
  C  C142  1  0.18673000  0.96563000  0.23449000  1.0
  C  C143  1  0.81326000  0.03437000  0.73449000  1.0
  C  C144  1  0.90662000  0.25074000  0.21686000  1.0
  C  C145  1  0.09337000  0.74926000  0.71686000  1.0
  C  C146  1  0.74125000  0.24961000  0.21398000  1.0
  C  C147  1  0.25875000  0.75039000  0.71398000  1.0
  C  C148  1  0.64706000  0.25546000  0.23345000  1.0
  C  C149  1  0.35294000  0.74454000  0.73345000  1.0
  C  C150  1  0.48168000  0.25182000  0.23052000  1.0
  C  C151  1  0.51832000  0.74817000  0.73052000  1.0
  C  C152  1  0.35867000  0.87692000  0.47301000  1.0
  C  C153  1  0.64133000  0.12309000  0.97301000  1.0
  C  C154  1  0.35249000  0.04165000  0.46977000  1.0
  C  C155  1  0.64750000  0.95836000  0.96977000  1.0
  C  C156  1  0.35490000  0.13569000  0.48923000  1.0
  C  C157  1  0.64510000  0.86431000  0.98923000  1.0
  C  C158  1  0.35006000  0.30059000  0.48644000  1.0
  C  C159  1  0.64994000  0.69941000  0.98644000  1.0
  C  C160  1  0.06394000  0.60354000  0.48451000  1.0
  C  C161  1  0.93605000  0.39646000  0.98451000  1.0
  C  C162  1  0.89862000  0.60218000  0.48711000  1.0
  C  C163  1  0.10138000  0.39782000  0.98711000  1.0
  C  C164  1  0.80708000  0.57280000  0.46795000  1.0
  C  C165  1  0.19292000  0.42720000  0.96795000  1.0
  C  C166  1  0.64183000  0.57065000  0.47068000  1.0
  C  C167  1  0.35816000  0.42935000  0.97068000  1.0
  N  N168  1  0.16654000  0.32308000  0.29037000  1.0
  N  N169  1  0.83346000  0.67692000  0.79037000  1.0
  N  N170  1  0.29239000  0.52877000  0.41582000  1.0
  N  N171  1  0.70761000  0.47123000  0.91582000  1.0
  N  N172  1  0.27358000  0.22871000  0.16146000  1.0
  N  N173  1  0.72642000  0.77129000  0.66146000  1.0
  N  N174  1  0.57093000  0.35479000  0.04130000  1.0
  N  N175  1  0.42907000  0.64521000  0.54130000  1.0
  O  O176  1  0.67759000  0.23450000  0.35377000  1.0
  O  O177  1  0.32241000  0.76550000  0.85377000  1.0
  O  O178  1  0.84961000  0.48347000  0.34992000  1.0
  O  O179  1  0.15039000  0.51653000  0.84992000  1.0
  O  O180  1  0.26609000  0.73331000  0.09774000  1.0
  O  O181  1  0.73391000  0.26669000  0.59774000  1.0
  O  O182  1  0.49992000  0.92031000  0.10724000  1.0
  O  O183  1  0.50008000  0.07969000  0.60724000  1.0
  O  O184  1  0.21156000  0.48801000  0.24354000  1.0
  O  O185  1  0.78845000  0.51198000  0.74354000  1.0
  O  O186  1  0.18078000  0.46500000  0.20153000  1.0
  O  O187  1  0.81922000  0.53500000  0.70153000  1.0
  O  O188  1  0.14576000  0.04207000  0.25348000  1.0
  O  O189  1  0.85423000  0.95793000  0.75348000  1.0
  O  O190  1  0.22763000  0.01825000  0.21345000  1.0
  O  O191  1  0.77237000  0.98174000  0.71345000  1.0
  O  O192  1  0.96031000  0.29173000  0.23782000  1.0
  O  O193  1  0.03969000  0.70827000  0.73782000  1.0
  O  O194  1  0.98221000  0.21029000  0.19772000  1.0
  O  O195  1  0.01779000  0.78971000  0.69772000  1.0
  O  O196  1  0.40594000  0.23566000  0.25059000  1.0
  O  O197  1  0.59406000  0.76434000  0.75059000  1.0
  O  O198  1  0.42872000  0.26592000  0.20857000  1.0
  O  O199  1  0.57128000  0.73407000  0.70857000  1.0
  O  O200  1  0.36679000  0.79994000  0.45296000  1.0
  O  O201  1  0.63320000  0.20007000  0.95296000  1.0
  O  O202  1  0.35444000  0.82577000  0.49522000  1.0
  O  O203  1  0.64556000  0.17423000  0.99522000  1.0
  O  O204  1  0.32182000  0.35447000  0.46492000  1.0
  O  O205  1  0.67818000  0.64553000  0.96492000  1.0
  O  O206  1  0.37531000  0.37523000  0.50635000  1.0
  O  O207  1  0.62468000  0.62477000  0.00635000  1.0
  O  O208  1  0.11829000  0.60780000  0.46252000  1.0
  O  O209  1  0.88170000  0.39219000  0.96252000  1.0
  O  O210  1  0.13796000  0.59936000  0.50492000  1.0
  O  O211  1  0.86205000  0.40064000  0.00492000  1.0
  O  O212  1  0.56749000  0.54245000  0.45085000  1.0
  O  O213  1  0.43251000  0.45757000  0.95085000  1.0
  O  O214  1  0.58716000  0.59851000  0.49216000  1.0
  O  O215  1  0.41284000  0.40149000  0.99216000  1.0
