# generated using pymatgen
data_ZnH9C17N2(ClO)3
_symmetry_space_group_name_H-M   'P 1'
_cell_length_a   8.23444000
_cell_length_b   10.69890000
_cell_length_c   12.39740000
_cell_angle_alpha   73.68800000
_cell_angle_beta   73.72540000
_cell_angle_gamma   75.79820000
_symmetry_Int_Tables_number   1
_chemical_formula_structural   ZnH9C17N2(ClO)3
_chemical_formula_sum   'Zn2 H18 C34 N4 Cl6 O6'
_cell_volume   989.64119011
_cell_formula_units_Z   2
loop_
 _symmetry_equiv_pos_site_id
 _symmetry_equiv_pos_as_xyz
  1  'x, y, z'
loop_
 _atom_site_type_symbol
 _atom_site_label
 _atom_site_symmetry_multiplicity
 _atom_site_fract_x
 _atom_site_fract_y
 _atom_site_fract_z
 _atom_site_occupancy
  Zn  Zn0  1  0.67113000  0.64761000  0.40435000  1.0
  Zn  Zn1  1  0.32887000  0.35239000  0.59565000  1.0
  H  H2  1  0.26567000  0.22881000  0.18532000  1.0
  H  H3  1  0.73433000  0.77118000  0.81468000  1.0
  H  H4  1  0.43075000  0.67293000  0.25440000  1.0
  H  H5  1  0.56925000  0.32707000  0.74560000  1.0
  H  H6  1  0.34194000  0.82283000  0.08072000  1.0
  H  H7  1  0.65807000  0.17717000  0.91928000  1.0
  H  H8  1  0.72259000  0.05140000  0.06023000  1.0
  H  H9  1  0.27742000  0.94860000  0.93976000  1.0
  H  H10  1  0.79285000  0.89277000  0.23319000  1.0
  H  H11  1  0.20715000  0.10723000  0.76681000  1.0
  H  H12  1  0.04316000  0.67026000  0.38800000  1.0
  H  H13  1  0.95684000  0.32974000  0.61199000  1.0
  H  H14  1  0.19525000  0.82267000  0.42465000  1.0
  H  H15  1  0.80474000  0.17733000  0.57535000  1.0
  H  H16  1  0.69486000  0.04720000  0.54912000  1.0
  H  H17  1  0.30513000  0.95279000  0.45088000  1.0
  H  H18  1  0.56701000  0.88050000  0.51253000  1.0
  H  H19  1  0.43299000  0.11950000  0.48747000  1.0
  C  C20  1  0.79039000  0.34901000  0.33278000  1.0
  C  C21  1  0.20961000  0.65098000  0.66722000  1.0
  C  C22  1  0.83202000  0.24514000  0.27633000  1.0
  C  C23  1  0.16798000  0.75485000  0.72367000  1.0
  C  C24  1  0.00255000  0.20129000  0.22313000  1.0
  C  C25  1  0.99745000  0.79871000  0.77687000  1.0
  C  C26  1  0.13236000  0.26311000  0.22552000  1.0
  C  C27  1  0.86764000  0.73689000  0.77449000  1.0
  C  C28  1  0.09120000  0.36941000  0.27761000  1.0
  C  C29  1  0.90880000  0.63058000  0.72239000  1.0
  C  C30  1  0.91852000  0.41918000  0.33125000  1.0
  C  C31  1  0.08148000  0.58082000  0.66876000  1.0
  C  C32  1  0.61249000  0.38740000  0.40158000  1.0
  C  C33  1  0.38751000  0.61260000  0.59842000  1.0
  C  C34  1  0.49057000  0.75892000  0.20805000  1.0
  C  C35  1  0.50944000  0.24109000  0.79195000  1.0
  C  C36  1  0.44300000  0.84386000  0.11010000  1.0
  C  C37  1  0.55700000  0.15615000  0.88990000  1.0
  C  C38  1  0.52394000  0.95333000  0.05214000  1.0
  C  C39  1  0.47607000  0.04667000  0.94785000  1.0
  C  C40  1  0.65270000  0.96965000  0.09832000  1.0
  C  C41  1  0.34731000  0.03035000  0.90168000  1.0
  C  C42  1  0.69369000  0.88032000  0.19649000  1.0
  C  C43  1  0.30632000  0.11968000  0.80351000  1.0
  C  C44  1  0.97245000  0.75644000  0.42252000  1.0
  C  C45  1  0.02755000  0.24357000  0.57748000  1.0
  C  C46  1  0.05532000  0.84312000  0.44324000  1.0
  C  C47  1  0.94468000  0.15689000  0.55675000  1.0
  C  C48  1  0.95885000  0.95198000  0.48919000  1.0
  C  C49  1  0.04115000  0.04802000  0.51081000  1.0
  C  C50  1  0.77905000  0.96500000  0.51450000  1.0
  C  C51  1  0.22094000  0.03499000  0.48550000  1.0
  C  C52  1  0.70583000  0.87416000  0.49209000  1.0
  C  C53  1  0.29417000  0.12584000  0.50791000  1.0
  N  N54  1  0.61425000  0.77642000  0.25135000  1.0
  N  N55  1  0.38576000  0.22358000  0.74865000  1.0
  N  N56  1  0.79971000  0.77200000  0.44559000  1.0
  N  N57  1  0.20029000  0.22800000  0.55441000  1.0
  Cl  Cl58  1  0.66969000  0.17471000  0.26685000  1.0
  Cl  Cl59  1  0.33031000  0.82529000  0.73316000  1.0
  Cl  Cl60  1  0.05583000  0.07218000  0.15361000  1.0
  Cl  Cl61  1  0.94417000  0.92781000  0.84639000  1.0
  Cl  Cl62  1  0.25268000  0.44519000  0.27967000  1.0
  Cl  Cl63  1  0.74731000  0.55481000  0.72034000  1.0
  O  O64  1  0.53608000  0.50622000  0.37916000  1.0
  O  O65  1  0.46392000  0.49378000  0.62084000  1.0
  O  O66  1  0.55075000  0.29647000  0.48411000  1.0
  O  O67  1  0.44925000  0.70354000  0.51589000  1.0
  O  O68  1  0.88641000  0.51950000  0.37870000  1.0
  O  O69  1  0.11359000  0.48050000  0.62130000  1.0
