# generated using pymatgen
data_Zr6H30C52S5O49
_symmetry_space_group_name_H-M   'P 1'
_cell_length_a   14.70411454
_cell_length_b   14.73596348
_cell_length_c   14.76660000
_cell_angle_alpha   119.59101848
_cell_angle_beta   90.11931261
_cell_angle_gamma   119.56397100
_symmetry_Int_Tables_number   1
_chemical_formula_structural   Zr6H30C52S5O49
_chemical_formula_sum   'Zr6 H30 C52 S5 O49'
_cell_volume   2288.78472333
_cell_formula_units_Z   1
loop_
 _symmetry_equiv_pos_site_id
 _symmetry_equiv_pos_as_xyz
  1  'x, y, z'
loop_
 _atom_site_type_symbol
 _atom_site_label
 _atom_site_symmetry_multiplicity
 _atom_site_fract_x
 _atom_site_fract_y
 _atom_site_fract_z
 _atom_site_occupancy
  Zr  Zr0  1  0.12889000  0.50755000  0.62659000  1.0
  Zr  Zr1  1  0.88528000  0.49851000  0.38177000  1.0
  Zr  Zr2  1  0.89302000  0.26647000  0.38919000  1.0
  Zr  Zr3  1  0.12440000  0.74285000  0.62032000  1.0
  Zr  Zr4  1  0.88630000  0.50469000  0.62159000  1.0
  Zr  Zr5  1  0.12690000  0.50506000  0.38510000  1.0
  H  H6  1  0.91681000  0.32008000  0.60316000  1.0
  H  H7  1  0.90629000  0.68591000  0.59174000  1.0
  H  H8  1  0.91416000  0.31394000  0.22308000  1.0
  H  H9  1  0.28847000  0.69327000  0.59729000  1.0
  H  H10  1  0.18118000  0.57806000  0.96051000  1.0
  H  H11  1  0.86053000  0.51411000  0.91748000  1.0
  H  H12  1  0.17044000  0.57231000  0.12670000  1.0
  H  H13  1  0.41961000  0.48409000  0.63749000  1.0
  H  H14  1  0.42764000  0.53354000  0.37299000  1.0
  H  H15  1  0.58817000  0.48319000  0.62576000  1.0
  H  H16  1  0.87836000  0.77950000  0.94307000  1.0
  H  H17  1  0.16078000  0.04948000  0.91638000  1.0
  H  H18  1  0.89103000  0.95790000  0.11172000  1.0
  H  H19  1  0.42696000  0.77723000  0.34987000  1.0
  H  H20  1  0.40288000  0.04683000  0.63516000  1.0
  H  H21  1  0.59548000  0.95606000  0.36236000  1.0
  H  H22  1  0.04641000  0.29128000  0.71975000  1.0
  H  H23  1  0.97002000  0.90282000  0.68235000  1.0
  H  H24  1  0.98788000  0.82672000  0.32936000  1.0
  H  H25  1  0.99218000  0.00183000  0.33630000  1.0
  H  H26  1  0.40719000  0.07235000  0.94860000  1.0
  H  H27  1  0.41284000  0.76485000  0.90649000  1.0
  H  H28  1  0.57304000  0.22415000  0.11478000  1.0
  H  H29  1  0.76703000  0.37862000  0.13018000  1.0
  H  H30  1  0.77309000  0.63979000  0.32742000  1.0
  H  H31  1  0.12363000  0.35282000  0.14235000  1.0
  H  H32  1  0.74054000  0.35337000  0.71159000  1.0
  H  H33  1  0.74453000  0.02419000  0.14773000  1.0
  H  H34  1  0.07472000  0.30995000  0.95325000  1.0
  H  H35  1  0.94825000  0.12784000  0.91195000  1.0
  C  C36  1  0.01453000  0.52449000  0.81751000  1.0
  C  C37  1  0.69997000  0.49805000  0.49253000  1.0
  C  C38  1  0.00372000  0.51235000  0.20176000  1.0
  C  C39  1  0.30915000  0.50225000  0.50464000  1.0
  C  C40  1  0.01700000  0.20617000  0.50792000  1.0
  C  C41  1  0.30372000  0.81125000  0.81137000  1.0
  C  C42  1  0.00540000  0.80219000  0.49559000  1.0
  C  C43  1  0.69726000  0.18557000  0.19922000  1.0
  C  C44  1  0.69980000  0.20168000  0.50590000  1.0
  C  C45  1  0.02178000  0.20311000  0.20377000  1.0
  C  C46  1  0.30276000  0.80004000  0.49066000  1.0
  C  C47  1  0.00863000  0.80212000  0.81076000  1.0
  C  C48  1  0.00906000  0.53558000  0.11346000  1.0
  C  C49  1  0.01957000  0.54156000  0.92631000  1.0
  C  C50  1  0.92278000  0.52507000  0.05632000  1.0
  C  C51  1  0.10944000  0.56382000  0.98784000  1.0
  C  C52  1  0.92901000  0.52756000  0.96351000  1.0
  C  C53  1  0.10338000  0.56086000  0.08042000  1.0
  C  C54  1  0.60288000  0.50667000  0.49317000  1.0
  C  C55  1  0.41244000  0.50672000  0.50426000  1.0
  C  C56  1  0.55801000  0.52333000  0.42176000  1.0
  C  C57  1  0.45831000  0.49498000  0.57749000  1.0
  C  C58  1  0.46340000  0.52291000  0.42854000  1.0
  C  C59  1  0.55274000  0.49536000  0.57132000  1.0
  C  C60  1  0.03094000  0.10497000  0.10919000  1.0
  C  C61  1  0.01913000  0.90387000  0.91913000  1.0
  C  C62  1  0.10918000  0.12965000  0.05354000  1.0
  C  C63  1  0.94378000  0.87748000  0.97496000  1.0
  C  C64  1  0.10301000  0.02964000  0.96075000  1.0
  C  C65  1  0.95097000  0.97746000  0.06917000  1.0
  C  C66  1  0.59613000  0.10259000  0.50578000  1.0
  C  C67  1  0.40323000  0.90137000  0.49115000  1.0
  C  C68  1  0.53998000  0.12744000  0.58361000  1.0
  C  C69  1  0.45787000  0.87504000  0.41446000  1.0
  C  C70  1  0.44482000  0.02715000  0.57480000  1.0
  C  C71  1  0.55296000  0.97527000  0.42233000  1.0
  C  C72  1  0.01390000  0.10416000  0.50885000  1.0
  C  C73  1  0.01749000  0.10565000  0.60630000  1.0
  C  C74  1  0.99947000  0.00298000  0.41038000  1.0
  C  C75  1  0.02672000  0.20386000  0.70791000  1.0
  C  C76  1  0.01286000  0.19074000  0.79362000  1.0
  C  C77  1  0.00111000  0.90296000  0.49931000  1.0
  C  C78  1  0.99593000  0.90394000  0.40611000  1.0
  C  C79  1  0.00449000  0.99868000  0.59919000  1.0
  C  C80  1  0.98608000  0.98588000  0.68753000  1.0
  C  C81  1  0.98347000  0.07607000  0.77994000  1.0
  C  C82  1  0.59090000  0.08283000  0.10401000  1.0
  C  C83  1  0.40036000  0.90836000  0.91550000  1.0
  C  C84  1  0.54174000  0.95017000  0.04501000  1.0
  C  C85  1  0.44468000  0.03795000  0.97526000  1.0
  C  C86  1  0.44844000  0.86587000  0.95224000  1.0
  C  C87  1  0.53850000  0.12314000  0.06825000  1.0
  S  S88  1  0.79841000  0.50733000  0.08832000  1.0
  S  S89  1  0.60159000  0.53725000  0.31168000  1.0
  S  S90  1  0.21999000  0.28167000  0.08541000  1.0
  S  S91  1  0.57545000  0.27870000  0.70026000  1.0
  S  S92  1  0.58095000  0.86897000  0.07816000  1.0
  O  O93  1  0.08981000  0.51874000  0.77739000  1.0
  O  O94  1  0.73967000  0.49135000  0.41428000  1.0
  O  O95  1  0.91766000  0.48909000  0.23237000  1.0
  O  O96  1  0.27153000  0.50411000  0.58312000  1.0
  O  O97  1  0.94200000  0.16942000  0.42894000  1.0
  O  O98  1  0.26744000  0.84951000  0.76936000  1.0
  O  O99  1  0.08129000  0.83990000  0.57406000  1.0
  O  O100  1  0.74699000  0.15357000  0.23741000  1.0
  O  O101  1  0.74412000  0.31916000  0.58469000  1.0
  O  O102  1  0.08705000  0.31976000  0.23542000  1.0
  O  O103  1  0.26539000  0.68447000  0.41593000  1.0
  O  O104  1  0.92697000  0.68790000  0.76847000  1.0
  O  O105  1  0.94826000  0.16639000  0.24607000  1.0
  O  O106  1  0.26214000  0.83622000  0.56673000  1.0
  O  O107  1  0.08122000  0.83817000  0.76666000  1.0
  O  O108  1  0.74004000  0.16592000  0.42998000  1.0
  O  O109  1  0.09096000  0.32196000  0.58442000  1.0
  O  O110  1  0.73503000  0.29991000  0.23610000  1.0
  O  O111  1  0.93519000  0.68650000  0.41648000  1.0
  O  O112  1  0.26578000  0.69532000  0.77079000  1.0
  O  O113  1  0.26556000  0.49816000  0.42653000  1.0
  O  O114  1  0.93233000  0.51240000  0.77043000  1.0
  O  O115  1  0.73809000  0.49791000  0.57028000  1.0
  O  O116  1  0.08184000  0.51230000  0.23898000  1.0
  O  O117  1  0.20828000  0.63981000  0.57069000  1.0
  O  O118  1  0.94081000  0.36650000  0.30285000  1.0
  O  O119  1  0.93630000  0.63529000  0.56667000  1.0
  O  O120  1  0.94234000  0.37161000  0.57417000  1.0
  O  O121  1  0.85673000  0.40050000  0.45296000  1.0
  O  O122  1  0.05462000  0.60282000  0.65063000  1.0
  O  O123  1  0.05404000  0.59991000  0.45129000  1.0
  O  O124  1  0.05935000  0.40686000  0.45666000  1.0
  O  O125  1  0.73176000  0.37081000  0.06732000  1.0
  O  O126  1  0.73453000  0.49568000  0.00542000  1.0
  O  O127  1  0.82874000  0.60500000  0.20284000  1.0
  O  O128  1  0.72783000  0.65479000  0.37552000  1.0
  O  O129  1  0.54301000  0.57702000  0.28038000  1.0
  O  O130  1  0.59414000  0.42446000  0.22903000  1.0
  O  O131  1  0.15416000  0.34158000  0.07969000  1.0
  O  O132  1  0.26162000  0.26153000  0.99464000  1.0
  O  O133  1  0.29137000  0.35667000  0.19590000  1.0
  O  O134  1  0.69998000  0.34346000  0.76390000  1.0
  O  O135  1  0.51311000  0.25614000  0.76990000  1.0
  O  O136  1  0.57008000  0.34819000  0.66049000  1.0
  O  O137  1  0.70760000  0.93300000  0.08508000  1.0
  O  O138  1  0.52385000  0.73980000  0.98479000  1.0
  O  O139  1  0.57064000  0.89760000  0.18440000  1.0
  O  O140  1  0.01843000  0.28310000  0.89224000  1.0
  O  O141  1  0.95228000  0.05697000  0.85921000  1.0
