# generated using pymatgen
data_Cd2H9C6N12Cl
_symmetry_space_group_name_H-M   'P 1'
_cell_length_a   8.08541000
_cell_length_b   10.04330000
_cell_length_c   16.56200000
_cell_angle_alpha   90.00000000
_cell_angle_beta   90.00000000
_cell_angle_gamma   90.00000000
_symmetry_Int_Tables_number   1
_chemical_formula_structural   Cd2H9C6N12Cl
_chemical_formula_sum   'Cd8 H36 C24 N48 Cl4'
_cell_volume   1344.90393147
_cell_formula_units_Z   4
loop_
 _symmetry_equiv_pos_site_id
 _symmetry_equiv_pos_as_xyz
  1  'x, y, z'
loop_
 _atom_site_type_symbol
 _atom_site_label
 _atom_site_symmetry_multiplicity
 _atom_site_fract_x
 _atom_site_fract_y
 _atom_site_fract_z
 _atom_site_occupancy
  Cd  Cd0  1  0.10636000  0.75000000  0.77680000  1.0
  Cd  Cd1  1  0.60636000  0.25000000  0.72320000  1.0
  Cd  Cd2  1  0.39364000  0.75000000  0.27680000  1.0
  Cd  Cd3  1  0.89364000  0.25000000  0.22320000  1.0
  Cd  Cd4  1  0.05245000  0.75000000  0.54074000  1.0
  Cd  Cd5  1  0.55245000  0.25000000  0.95926000  1.0
  Cd  Cd6  1  0.44755000  0.75000000  0.04074000  1.0
  Cd  Cd7  1  0.94755000  0.25000000  0.45926000  1.0
  H  H8  1  0.85376000  0.02660000  0.79885000  1.0
  H  H9  1  0.35377000  0.97340000  0.70115000  1.0
  H  H10  1  0.64623000  0.47340000  0.29885000  1.0
  H  H11  1  0.14623000  0.52660000  0.20115000  1.0
  H  H12  1  0.14624000  0.97340000  0.20115000  1.0
  H  H13  1  0.64623000  0.02660000  0.29885000  1.0
  H  H14  1  0.35376000  0.52660000  0.70115000  1.0
  H  H15  1  0.85376000  0.47340000  0.79885000  1.0
  H  H16  1  0.06143000  0.75000000  0.98600000  1.0
  H  H17  1  0.56143000  0.25000000  0.51400000  1.0
  H  H18  1  0.43857000  0.75000000  0.48600000  1.0
  H  H19  1  0.93857000  0.25000000  0.01400000  1.0
  H  H20  1  0.69768000  0.75000000  0.75465000  1.0
  H  H21  1  0.19767000  0.25000000  0.74535000  1.0
  H  H22  1  0.80232000  0.75000000  0.25465000  1.0
  H  H23  1  0.30232000  0.25000000  0.24535000  1.0
  H  H24  1  0.81434000  0.98575000  0.48929000  1.0
  H  H25  1  0.31434000  0.01425000  0.01071000  1.0
  H  H26  1  0.68566000  0.51425000  0.98929000  1.0
  H  H27  1  0.18566000  0.48575000  0.51071000  1.0
  H  H28  1  0.18566000  0.01425000  0.51071000  1.0
  H  H29  1  0.68566000  0.98575000  0.98929000  1.0
  H  H30  1  0.31434000  0.48575000  0.01071000  1.0
  H  H31  1  0.81434000  0.51425000  0.48929000  1.0
  H  H32  1  0.67130000  0.08566000  0.52673000  1.0
  H  H33  1  0.17131000  0.91434000  0.97327000  1.0
  H  H34  1  0.82869000  0.41434000  0.02674000  1.0
  H  H35  1  0.32869000  0.58566000  0.47327000  1.0
  H  H36  1  0.32869000  0.91434000  0.47327000  1.0
  H  H37  1  0.82869000  0.08566000  0.02674000  1.0
  H  H38  1  0.17131000  0.58566000  0.97327000  1.0
  H  H39  1  0.67131000  0.41434000  0.52674000  1.0
  H  H40  1  0.51797000  0.75000000  0.81235000  1.0
  H  H41  1  0.01797000  0.25000000  0.68765000  1.0
  H  H42  1  0.98203000  0.75000000  0.31235000  1.0
  H  H43  1  0.48203000  0.25000000  0.18765000  1.0
  C  C44  1  0.83805000  0.01952000  0.60774000  1.0
  C  C45  1  0.33805000  0.98048000  0.89226000  1.0
  C  C46  1  0.66195000  0.48048000  0.10774000  1.0
  C  C47  1  0.16195000  0.51952000  0.39226000  1.0
  C  C48  1  0.16195000  0.98048000  0.39226000  1.0
  C  C49  1  0.66195000  0.01952000  0.10774000  1.0
  C  C50  1  0.33805000  0.51952000  0.89226000  1.0
  C  C51  1  0.83805000  0.48048000  0.60774000  1.0
  C  C52  1  0.86551000  0.00657000  0.73476000  1.0
  C  C53  1  0.36551000  0.99343000  0.76524000  1.0
  C  C54  1  0.63449000  0.49343000  0.23477000  1.0
  C  C55  1  0.13449000  0.50657000  0.26524000  1.0
  C  C56  1  0.13449000  0.99343000  0.26524000  1.0
  C  C57  1  0.63449000  0.00657000  0.23476000  1.0
  C  C58  1  0.36551000  0.50657000  0.76524000  1.0
  C  C59  1  0.86551000  0.49343000  0.73477000  1.0
  C  C60  1  0.93817000  0.75000000  0.96005000  1.0
  C  C61  1  0.43817000  0.25000000  0.53994000  1.0
  C  C62  1  0.56183000  0.75000000  0.46005000  1.0
  C  C63  1  0.06183000  0.25000000  0.03995000  1.0
  C  C64  1  0.73534000  0.75000000  0.87750000  1.0
  C  C65  1  0.23534000  0.25000000  0.62250000  1.0
  C  C66  1  0.76467000  0.75000000  0.37749000  1.0
  C  C67  1  0.26467000  0.25000000  0.12251000  1.0
  N  N68  1  0.96089000  0.91219000  0.70388000  1.0
  N  N69  1  0.46089000  0.08781000  0.79612000  1.0
  N  N70  1  0.53911000  0.58781000  0.20388000  1.0
  N  N71  1  0.03911000  0.41219000  0.29612000  1.0
  N  N72  1  0.03911000  0.08781000  0.29612000  1.0
  N  N73  1  0.53911000  0.91219000  0.20388000  1.0
  N  N74  1  0.46089000  0.41219000  0.79612000  1.0
  N  N75  1  0.96089000  0.58781000  0.70388000  1.0
  N  N76  1  0.94383000  0.92007000  0.62126000  1.0
  N  N77  1  0.44383000  0.07993000  0.87874000  1.0
  N  N78  1  0.55616000  0.57993000  0.12127000  1.0
  N  N79  1  0.05616000  0.42007000  0.37874000  1.0
  N  N80  1  0.05617000  0.07993000  0.37874000  1.0
  N  N81  1  0.55616000  0.92007000  0.12126000  1.0
  N  N82  1  0.44383000  0.42007000  0.87874000  1.0
  N  N83  1  0.94383000  0.57993000  0.62127000  1.0
  N  N84  1  0.78628000  0.07871000  0.67690000  1.0
  N  N85  1  0.28628000  0.92129000  0.82310000  1.0
  N  N86  1  0.71372000  0.42129000  0.17690000  1.0
  N  N87  1  0.21372000  0.57871000  0.32310000  1.0
  N  N88  1  0.21372000  0.92129000  0.32310000  1.0
  N  N89  1  0.71372000  0.07871000  0.17690000  1.0
  N  N90  1  0.28628000  0.57871000  0.82310000  1.0
  N  N91  1  0.78628000  0.42129000  0.67690000  1.0
  N  N92  1  0.79348000  0.06069000  0.53005000  1.0
  N  N93  1  0.29348000  0.93931000  0.96995000  1.0
  N  N94  1  0.70652000  0.43931000  0.03005000  1.0
  N  N95  1  0.20652000  0.56069000  0.46995000  1.0
  N  N96  1  0.20652000  0.93931000  0.46995000  1.0
  N  N97  1  0.70652000  0.06069000  0.03005000  1.0
  N  N98  1  0.29348000  0.56069000  0.96995000  1.0
  N  N99  1  0.79348000  0.43931000  0.53005000  1.0
  N  N100  1  0.80652000  0.75000000  0.00681000  1.0
  N  N101  1  0.30652000  0.25000000  0.49319000  1.0
  N  N102  1  0.69348000  0.75000000  0.50681000  1.0
  N  N103  1  0.19348000  0.25000000  0.99319000  1.0
  N  N104  1  0.67224000  0.75000000  0.95367000  1.0
  N  N105  1  0.17224000  0.25000000  0.54633000  1.0
  N  N106  1  0.82776000  0.75000000  0.45367000  1.0
  N  N107  1  0.32777000  0.25000000  0.04633000  1.0
  N  N108  1  0.90407000  0.75000000  0.87891000  1.0
  N  N109  1  0.40406000  0.25000000  0.62108000  1.0
  N  N110  1  0.59593000  0.75000000  0.37892000  1.0
  N  N111  1  0.09593000  0.25000000  0.12108000  1.0
  N  N112  1  0.64298000  0.75000000  0.80950000  1.0
  N  N113  1  0.14298000  0.25000000  0.69050000  1.0
  N  N114  1  0.85702000  0.75000000  0.30950000  1.0
  N  N115  1  0.35702000  0.25000000  0.19050000  1.0
  Cl  Cl116  1  0.31649000  0.75000000  0.63130000  1.0
  Cl  Cl117  1  0.81649000  0.25000000  0.86870000  1.0
  Cl  Cl118  1  0.18351000  0.75000000  0.13130000  1.0
  Cl  Cl119  1  0.68351000  0.25000000  0.36870000  1.0
