# generated using pymatgen
data_CdH28C26(N2O3)2
_symmetry_space_group_name_H-M   'P 1'
_cell_length_a   10.34870000
_cell_length_b   10.47460000
_cell_length_c   13.69820000
_cell_angle_alpha   98.13140000
_cell_angle_beta   105.92500000
_cell_angle_gamma   106.27400000
_symmetry_Int_Tables_number   1
_chemical_formula_structural   CdH28C26(N2O3)2
_chemical_formula_sum   'Cd2 H56 C52 N8 O12'
_cell_volume   1331.77451593
_cell_formula_units_Z   2
loop_
 _symmetry_equiv_pos_site_id
 _symmetry_equiv_pos_as_xyz
  1  'x, y, z'
loop_
 _atom_site_type_symbol
 _atom_site_label
 _atom_site_symmetry_multiplicity
 _atom_site_fract_x
 _atom_site_fract_y
 _atom_site_fract_z
 _atom_site_occupancy
  Cd  Cd0  1  0.60534000  0.88684000  0.93154000  1.0
  Cd  Cd1  1  0.39466000  0.11316000  0.06846000  1.0
  H  H2  1  0.70868000  0.20360000  0.51840000  1.0
  H  H3  1  0.29132000  0.79641000  0.48160000  1.0
  H  H4  1  0.52577000  0.44343000  0.27878000  1.0
  H  H5  1  0.47424000  0.55657000  0.72122000  1.0
  H  H6  1  0.10432000  0.77063000  0.69743000  1.0
  H  H7  1  0.89569000  0.22937000  0.30257000  1.0
  H  H8  1  0.16175000  0.62620000  0.70627000  1.0
  H  H9  1  0.83826000  0.37380000  0.29373000  1.0
  H  H10  1  0.91063000  0.55795000  0.59244000  1.0
  H  H11  1  0.08938000  0.44205000  0.40756000  1.0
  H  H12  1  0.98362000  0.39576000  0.69413000  1.0
  H  H13  1  0.01638000  0.60424000  0.30587000  1.0
  H  H14  1  0.80439000  0.38306000  0.68271000  1.0
  H  H15  1  0.19561000  0.61694000  0.31729000  1.0
  H  H16  1  0.94250000  0.39237000  0.86648000  1.0
  H  H17  1  0.05750000  0.60763000  0.13352000  1.0
  H  H18  1  0.18340000  0.53184000  0.86721000  1.0
  H  H19  1  0.81660000  0.46816000  0.13279000  1.0
  H  H20  1  0.14008000  0.60744000  0.97272000  1.0
  H  H21  1  0.85992000  0.39256000  0.02729000  1.0
  H  H22  1  0.04199000  0.88048000  0.84781000  1.0
  H  H23  1  0.95801000  0.11952000  0.15219000  1.0
  H  H24  1  0.05607000  0.81704000  0.96082000  1.0
  H  H25  1  0.94393000  0.18296000  0.03918000  1.0
  H  H26  1  0.72288000  0.58474000  0.67068000  1.0
  H  H27  1  0.27712000  0.41525000  0.32932000  1.0
  H  H28  1  0.84257000  0.74504000  0.67497000  1.0
  H  H29  1  0.15743000  0.25496000  0.32503000  1.0
  H  H30  1  0.88104000  0.58410000  0.95203000  1.0
  H  H31  1  0.11895000  0.41590000  0.04797000  1.0
  H  H32  1  0.74412000  0.48995000  0.83255000  1.0
  H  H33  1  0.25588000  0.51005000  0.16745000  1.0
  H  H34  1  0.38474000  0.01965000  0.80256000  1.0
  H  H35  1  0.61526000  0.98035000  0.19744000  1.0
  H  H36  1  0.34168000  0.11863000  0.64274000  1.0
  H  H37  1  0.65832000  0.88137000  0.35726000  1.0
  H  H38  1  0.76319000  0.13087000  0.64520000  1.0
  H  H39  1  0.23681000  0.86913000  0.35480000  1.0
  H  H40  1  0.78695000  0.03263000  0.80110000  1.0
  H  H41  1  0.21305000  0.96737000  0.19890000  1.0
  H  H42  1  0.47892000  0.23046000  0.34810000  1.0
  H  H43  1  0.52108000  0.76954000  0.65190000  1.0
  H  H44  1  0.65391000  0.24156000  0.34822000  1.0
  H  H45  1  0.34609000  0.75844000  0.65178000  1.0
  H  H46  1  0.57743000  0.45703000  0.47634000  1.0
  H  H47  1  0.42257000  0.54297000  0.52366000  1.0
  H  H48  1  0.75242000  0.47105000  0.47547000  1.0
  H  H49  1  0.24758000  0.52895000  0.52453000  1.0
  H  H50  1  0.44492000  0.63225000  0.00990000  1.0
  H  H51  1  0.55509000  0.36775000  0.99010000  1.0
  H  H52  1  0.47601000  0.51250000  0.15530000  1.0
  H  H53  1  0.52399000  0.48750000  0.84470000  1.0
  H  H54  1  0.90938000  0.79173000  0.28880000  1.0
  H  H55  1  0.09062000  0.20827000  0.71120000  1.0
  H  H56  1  0.86125000  0.89551000  0.13129000  1.0
  H  H57  1  0.13874000  0.10450000  0.86871000  1.0
  C  C58  1  0.28500000  0.80710000  0.89028000  1.0
  C  C59  1  0.71501000  0.19290000  0.10972000  1.0
  C  C60  1  0.08987000  0.67673000  0.72706000  1.0
  C  C61  1  0.91014000  0.32327000  0.27294000  1.0
  C  C62  1  0.93489000  0.58174000  0.67756000  1.0
  C  C63  1  0.06511000  0.41826000  0.32243000  1.0
  C  C64  1  0.91637000  0.45043000  0.71780000  1.0
  C  C65  1  0.08363000  0.54957000  0.28220000  1.0
  C  C66  1  0.95517000  0.48652000  0.83728000  1.0
  C  C67  1  0.04483000  0.51348000  0.16273000  1.0
  C  C68  1  0.11055000  0.58189000  0.88687000  1.0
  C  C69  1  0.88945000  0.41811000  0.11313000  1.0
  C  C70  1  0.12920000  0.71457000  0.84743000  1.0
  C  C71  1  0.87080000  0.28543000  0.15257000  1.0
  C  C72  1  0.02875000  0.78577000  0.87555000  1.0
  C  C73  1  0.97125000  0.21423000  0.12445000  1.0
  C  C74  1  0.87272000  0.69055000  0.82609000  1.0
  C  C75  1  0.12728000  0.30945000  0.17391000  1.0
  C  C76  1  0.83467000  0.65266000  0.70594000  1.0
  C  C77  1  0.16533000  0.34734000  0.29406000  1.0
  C  C78  1  0.85586000  0.55821000  0.86656000  1.0
  C  C79  1  0.14414000  0.44179000  0.13343000  1.0
  C  C80  1  0.77017000  0.75800000  0.85343000  1.0
  C  C81  1  0.22983000  0.24200000  0.14657000  1.0
  C  C82  1  0.46485000  0.04677000  0.76441000  1.0
  C  C83  1  0.53515000  0.95323000  0.23559000  1.0
  C  C84  1  0.44154000  0.10112000  0.67692000  1.0
  C  C85  1  0.55846000  0.89888000  0.32308000  1.0
  C  C86  1  0.54760000  0.13284000  0.63059000  1.0
  C  C87  1  0.45240000  0.86716000  0.36941000  1.0
  C  C88  1  0.67511000  0.10954000  0.67620000  1.0
  C  C89  1  0.32489000  0.89046000  0.32380000  1.0
  C  C90  1  0.69065000  0.05500000  0.76410000  1.0
  C  C91  1  0.30935000  0.94500000  0.23590000  1.0
  C  C92  1  0.51292000  0.18796000  0.53418000  1.0
  C  C93  1  0.48708000  0.81204000  0.46582000  1.0
  C  C94  1  0.59233000  0.27209000  0.39520000  1.0
  C  C95  1  0.40767000  0.72790000  0.60480000  1.0
  C  C96  1  0.63924000  0.42841000  0.42830000  1.0
  C  C97  1  0.36076000  0.57159000  0.57170000  1.0
  C  C98  1  0.72935000  0.59027000  0.33157000  1.0
  C  C99  1  0.27065000  0.40973000  0.66843000  1.0
  C  C100  1  0.54655000  0.66319000  0.07305000  1.0
  C  C101  1  0.45345000  0.33681000  0.92695000  1.0
  C  C102  1  0.56485000  0.59846000  0.15541000  1.0
  C  C103  1  0.43515000  0.40154000  0.84459000  1.0
  C  C104  1  0.69692000  0.64578000  0.23535000  1.0
  C  C105  1  0.30308000  0.35422000  0.76465000  1.0
  C  C106  1  0.80613000  0.75385000  0.22699000  1.0
  C  C107  1  0.19387000  0.24615000  0.77301000  1.0
  C  C108  1  0.77960000  0.81132000  0.14130000  1.0
  C  C109  1  0.22040000  0.18869000  0.85869000  1.0
  N  N110  1  0.58718000  0.02330000  0.80728000  1.0
  N  N111  1  0.41281000  0.97670000  0.19272000  1.0
  N  N112  1  0.61256000  0.21351000  0.48590000  1.0
  N  N113  1  0.38744000  0.78649000  0.51410000  1.0
  N  N114  1  0.62115000  0.48807000  0.33878000  1.0
  N  N115  1  0.37885000  0.51193000  0.66122000  1.0
  N  N116  1  0.65119000  0.76783000  0.06613000  1.0
  N  N117  1  0.34881000  0.23217000  0.93387000  1.0
  O  O118  1  0.37681000  0.74973000  0.88283000  1.0
  O  O119  1  0.62319000  0.25027000  0.11717000  1.0
  O  O120  1  0.31615000  0.93512000  0.92390000  1.0
  O  O121  1  0.68385000  0.06488000  0.07610000  1.0
  O  O122  1  0.63661000  0.69010000  0.81920000  1.0
  O  O123  1  0.36339000  0.30990000  0.18080000  1.0
  O  O124  1  0.82001000  0.87976000  0.91044000  1.0
  O  O125  1  0.17999000  0.12024000  0.08956000  1.0
  O  O126  1  0.39680000  0.20597000  0.50095000  1.0
  O  O127  1  0.60320000  0.79403000  0.49905000  1.0
  O  O128  1  0.84992000  0.63958000  0.39918000  1.0
  O  O129  1  0.15008000  0.36043000  0.60082000  1.0
