# generated using pymatgen
data_AgH13C18SN2O7
_symmetry_space_group_name_H-M   'P 1'
_cell_length_a   7.83505000
_cell_length_b   9.77543000
_cell_length_c   11.66830000
_cell_angle_alpha   82.43660000
_cell_angle_beta   86.11290000
_cell_angle_gamma   79.89610000
_symmetry_Int_Tables_number   1
_chemical_formula_structural   AgH13C18SN2O7
_chemical_formula_sum   'Ag2 H26 C36 S2 N4 O14'
_cell_volume   871.25662946
_cell_formula_units_Z   2
loop_
 _symmetry_equiv_pos_site_id
 _symmetry_equiv_pos_as_xyz
  1  'x, y, z'
loop_
 _atom_site_type_symbol
 _atom_site_label
 _atom_site_symmetry_multiplicity
 _atom_site_fract_x
 _atom_site_fract_y
 _atom_site_fract_z
 _atom_site_occupancy
  Ag  Ag0  1  0.65563000  0.57912000  0.94623000  1.0
  Ag  Ag1  1  0.34436000  0.42088000  0.05377000  1.0
  H  H2  1  0.88217000  0.38072000  0.11844000  1.0
  H  H3  1  0.11783000  0.61928000  0.88156000  1.0
  H  H4  1  0.10275000  0.16923000  0.12748000  1.0
  H  H5  1  0.89725000  0.83077000  0.87252000  1.0
  H  H6  1  0.86340000  0.40840000  0.76217000  1.0
  H  H7  1  0.13660000  0.59160000  0.23784000  1.0
  H  H8  1  0.08132000  0.19437000  0.75365000  1.0
  H  H9  1  0.91868000  0.80563000  0.24635000  1.0
  H  H10  1  0.26074000  0.98722000  0.12960000  1.0
  H  H11  1  0.73925000  0.01278000  0.87040000  1.0
  H  H12  1  0.47047000  0.76695000  0.12379000  1.0
  H  H13  1  0.52953000  0.23305000  0.87621000  1.0
  H  H14  1  0.25832000  0.01680000  0.75479000  1.0
  H  H15  1  0.74168000  0.98320000  0.24521000  1.0
  H  H16  1  0.46106000  0.79335000  0.76784000  1.0
  H  H17  1  0.53894000  0.20666000  0.23216000  1.0
  H  H18  1  0.31618000  0.69802000  0.33350000  1.0
  H  H19  1  0.68382000  0.30198000  0.66650000  1.0
  H  H20  1  0.50841000  0.89463000  0.59595000  1.0
  H  H21  1  0.49159000  0.10537000  0.40405000  1.0
  H  H22  1  0.83511000  0.55400000  0.44919000  1.0
  H  H23  1  0.16489000  0.44600000  0.55081000  1.0
  H  H24  1  0.98903000  0.94504000  0.42288000  1.0
  H  H25  1  0.01097000  0.05496000  0.57712000  1.0
  H  H26  1  0.06435000  0.64156000  0.64593000  1.0
  H  H27  1  0.93565000  0.35844000  0.35407000  1.0
  C  C28  1  0.93026000  0.33552000  0.03959000  1.0
  C  C29  1  0.06974000  0.66448000  0.96040000  1.0
  C  C30  1  0.05470000  0.21518000  0.04309000  1.0
  C  C31  1  0.94530000  0.78482000  0.95691000  1.0
  C  C32  1  0.91924000  0.35013000  0.84077000  1.0
  C  C33  1  0.08077000  0.64987000  0.15923000  1.0
  C  C34  1  0.04218000  0.22962000  0.83754000  1.0
  C  C35  1  0.95782000  0.77038000  0.16246000  1.0
  C  C36  1  0.30062000  0.95035000  0.04623000  1.0
  C  C37  1  0.69938000  0.04965000  0.95377000  1.0
  C  C38  1  0.41745000  0.82628000  0.04473000  1.0
  C  C39  1  0.58255000  0.17372000  0.95527000  1.0
  C  C40  1  0.29953000  0.96752000  0.83982000  1.0
  C  C41  1  0.70047000  0.03248000  0.16018000  1.0
  C  C42  1  0.41478000  0.84186000  0.84536000  1.0
  C  C43  1  0.58522000  0.15815000  0.15464000  1.0
  C  C44  1  0.11192000  0.15711000  0.94048000  1.0
  C  C45  1  0.88808000  0.84289000  0.05952000  1.0
  C  C46  1  0.23819000  0.02534000  0.94191000  1.0
  C  C47  1  0.76181000  0.97466000  0.05809000  1.0
  C  C48  1  0.58003000  0.61824000  0.38051000  1.0
  C  C49  1  0.41997000  0.38176000  0.61949000  1.0
  C  C50  1  0.42103000  0.70765000  0.38676000  1.0
  C  C51  1  0.57896000  0.29236000  0.61324000  1.0
  C  C52  1  0.39509000  0.80713000  0.46496000  1.0
  C  C53  1  0.60491000  0.19287000  0.53504000  1.0
  C  C54  1  0.52859000  0.81713000  0.53539000  1.0
  C  C55  1  0.47141000  0.18287000  0.46461000  1.0
  C  C56  1  0.68623000  0.72559000  0.53039000  1.0
  C  C57  1  0.31377000  0.27441000  0.46961000  1.0
  C  C58  1  0.71260000  0.62595000  0.45207000  1.0
  C  C59  1  0.28740000  0.37405000  0.54793000  1.0
  C  C60  1  0.22242000  0.89491000  0.47983000  1.0
  C  C61  1  0.77759000  0.10508000  0.52016000  1.0
  C  C62  1  0.82276000  0.73170000  0.61217000  1.0
  C  C63  1  0.17724000  0.26830000  0.38784000  1.0
  S  S64  1  0.61276000  0.49905000  0.27407000  1.0
  S  S65  1  0.38724000  0.50095000  0.72593000  1.0
  N  N66  1  0.86112000  0.40192000  0.94049000  1.0
  N  N67  1  0.13888000  0.59808000  0.05951000  1.0
  N  N68  1  0.47394000  0.77159000  0.94602000  1.0
  N  N69  1  0.52606000  0.22841000  0.05398000  1.0
  O  O70  1  0.68410000  0.57854000  0.17165000  1.0
  O  O71  1  0.31589000  0.42146000  0.82835000  1.0
  O  O72  1  0.73728000  0.37466000  0.31830000  1.0
  O  O73  1  0.26272000  0.62535000  0.68170000  1.0
  O  O74  1  0.44095000  0.46568000  0.25964000  1.0
  O  O75  1  0.55905000  0.53431000  0.74036000  1.0
  O  O76  1  0.10736000  0.88215000  0.40622000  1.0
  O  O77  1  0.89265000  0.11785000  0.59378000  1.0
  O  O78  1  0.19055000  0.97203000  0.55870000  1.0
  O  O79  1  0.80945000  0.02797000  0.44130000  1.0
  O  O80  1  0.96249000  0.63352000  0.59955000  1.0
  O  O81  1  0.03751000  0.36647000  0.40046000  1.0
  O  O82  1  0.80707000  0.81712000  0.68249000  1.0
  O  O83  1  0.19294000  0.18287000  0.31750000  1.0
