# generated using pymatgen
data_ZnH22C34N4O5
_symmetry_space_group_name_H-M   'P 1'
_cell_length_a   10.29020000
_cell_length_b   12.46940000
_cell_length_c   13.84750000
_cell_angle_alpha   101.57700000
_cell_angle_beta   106.95200000
_cell_angle_gamma   103.33000000
_symmetry_Int_Tables_number   1
_chemical_formula_structural   ZnH22C34N4O5
_chemical_formula_sum   'Zn2 H44 C68 N8 O10'
_cell_volume   1583.82665498
_cell_formula_units_Z   2
loop_
 _symmetry_equiv_pos_site_id
 _symmetry_equiv_pos_as_xyz
  1  'x, y, z'
loop_
 _atom_site_type_symbol
 _atom_site_label
 _atom_site_symmetry_multiplicity
 _atom_site_fract_x
 _atom_site_fract_y
 _atom_site_fract_z
 _atom_site_occupancy
  Zn  Zn0  1  0.24539000  0.56879000  0.50326000  1.0
  Zn  Zn1  1  0.75460000  0.43121000  0.49673000  1.0
  H  H2  1  0.80616000  0.72542000  0.53634000  1.0
  H  H3  1  0.19384000  0.27458000  0.46366000  1.0
  H  H4  1  0.99009000  0.67558000  0.48927000  1.0
  H  H5  1  0.00991000  0.32442000  0.51073000  1.0
  H  H6  1  0.58596000  0.68767000  0.57513000  1.0
  H  H7  1  0.41404000  0.31233000  0.42487000  1.0
  H  H8  1  0.84209000  0.52093000  0.26289000  1.0
  H  H9  1  0.15791000  0.47908000  0.73710000  1.0
  H  H10  1  0.59398000  0.91180000  0.89783000  1.0
  H  H11  1  0.40602000  0.08820000  0.10217000  1.0
  H  H12  1  0.12848000  0.65395000  0.29862000  1.0
  H  H13  1  0.87153000  0.34604000  0.70138000  1.0
  H  H14  1  0.48243000  0.73994000  0.73781000  1.0
  H  H15  1  0.51756000  0.26006000  0.26219000  1.0
  H  H16  1  0.12602000  0.78658000  0.18392000  1.0
  H  H17  1  0.87398000  0.21342000  0.81608000  1.0
  H  H18  1  0.72697000  0.42382000  0.91590000  1.0
  H  H19  1  0.27303000  0.57618000  0.08410000  1.0
  H  H20  1  0.21721000  0.30844000  0.68332000  1.0
  H  H21  1  0.78279000  0.69156000  0.31668000  1.0
  H  H22  1  0.65071000  0.52136000  0.77726000  1.0
  H  H23  1  0.34929000  0.47864000  0.22274000  1.0
  H  H24  1  0.13332000  0.05580000  0.65692000  1.0
  H  H25  1  0.86668000  0.94421000  0.34307000  1.0
  H  H26  1  0.29138000  0.21336000  0.82465000  1.0
  H  H27  1  0.70862000  0.78664000  0.17535000  1.0
  H  H28  1  0.94637000  0.15227000  0.61673000  1.0
  H  H29  1  0.05363000  0.84773000  0.38326000  1.0
  H  H30  1  0.69044000  0.03715000  0.53329000  1.0
  H  H31  1  0.30956000  0.96285000  0.46671000  1.0
  H  H32  1  0.97773000  0.23726000  0.14711000  1.0
  H  H33  1  0.02227000  0.76274000  0.85289000  1.0
  H  H34  1  0.22078000  0.02444000  0.81249000  1.0
  H  H35  1  0.77922000  0.97556000  0.18751000  1.0
  H  H36  1  0.34756000  0.93718000  0.20915000  1.0
  H  H37  1  0.65243000  0.06282000  0.79085000  1.0
  H  H38  1  0.57735000  0.96039000  0.34530000  1.0
  H  H39  1  0.42264000  0.03960000  0.65470000  1.0
  H  H40  1  0.61915000  0.44928000  0.10257000  1.0
  H  H41  1  0.38085000  0.55072000  0.89743000  1.0
  H  H42  1  0.75140000  0.16191000  0.98611000  1.0
  H  H43  1  0.24860000  0.83809000  0.01389000  1.0
  H  H44  1  0.46466000  0.05133000  0.93273000  1.0
  H  H45  1  0.53534000  0.94867000  0.06727000  1.0
  C  C46  1  0.73434000  0.87480000  0.52754000  1.0
  C  C47  1  0.26566000  0.12520000  0.47246000  1.0
  C  C48  1  0.83710000  0.81895000  0.55361000  1.0
  C  C49  1  0.16290000  0.18106000  0.44639000  1.0
  C  C50  1  0.38782000  0.48645000  0.64569000  1.0
  C  C51  1  0.61218000  0.51355000  0.35431000  1.0
  C  C52  1  0.92402000  0.38434000  0.21327000  1.0
  C  C53  1  0.07598000  0.61567000  0.78673000  1.0
  C  C54  1  0.08243000  0.72788000  0.55878000  1.0
  C  C55  1  0.91757000  0.27212000  0.44122000  1.0
  C  C56  1  0.29135000  0.78951000  0.68434000  1.0
  C  C57  1  0.70865000  0.21049000  0.31565000  1.0
  C  C58  1  0.35438000  0.73451000  0.38659000  1.0
  C  C59  1  0.64562000  0.26549000  0.61341000  1.0
  C  C60  1  0.52715000  0.71687000  0.51209000  1.0
  C  C61  1  0.47285000  0.28313000  0.48791000  1.0
  C  C62  1  0.05593000  0.42588000  0.31051000  1.0
  C  C63  1  0.94407000  0.57412000  0.68949000  1.0
  C  C64  1  0.82332000  0.44427000  0.20055000  1.0
  C  C65  1  0.17668000  0.55573000  0.79945000  1.0
  C  C66  1  0.48020000  0.82118000  0.40037000  1.0
  C  C67  1  0.51980000  0.17882000  0.59963000  1.0
  C  C68  1  0.48799000  0.89874000  0.84191000  1.0
  C  C69  1  0.51201000  0.10126000  0.15809000  1.0
  C  C70  1  0.42950000  0.42198000  0.72297000  1.0
  C  C71  1  0.57050000  0.57802000  0.27703000  1.0
  C  C72  1  0.51259000  0.31393000  0.87844000  1.0
  C  C73  1  0.48741000  0.68606000  0.12156000  1.0
  C  C74  1  0.21900000  0.87043000  0.70459000  1.0
  C  C75  1  0.78100000  0.12957000  0.29541000  1.0
  C  C76  1  0.22454000  0.72097000  0.30875000  1.0
  C  C77  1  0.77547000  0.27903000  0.69125000  1.0
  C  C78  1  0.98039000  0.88535000  0.60186000  1.0
  C  C79  1  0.01961000  0.11465000  0.39814000  1.0
  C  C80  1  0.42812000  0.80335000  0.75315000  1.0
  C  C81  1  0.57188000  0.19665000  0.24685000  1.0
  C  C82  1  0.67525000  0.30232000  0.03611000  1.0
  C  C83  1  0.32475000  0.69768000  0.96389000  1.0
  C  C84  1  0.22510000  0.79504000  0.24575000  1.0
  C  C85  1  0.77490000  0.20496000  0.75425000  1.0
  C  C86  1  0.61525000  0.40024000  0.86605000  1.0
  C  C87  1  0.38475000  0.59976000  0.13395000  1.0
  C  C88  1  0.32852000  0.33351000  0.73490000  1.0
  C  C89  1  0.67149000  0.66649000  0.26510000  1.0
  C  C90  1  0.57299000  0.45399000  0.78883000  1.0
  C  C91  1  0.42702000  0.54601000  0.21117000  1.0
  C  C92  1  0.02086000  0.00541000  0.62426000  1.0
  C  C93  1  0.97914000  0.99459000  0.37574000  1.0
  C  C94  1  0.36899000  0.28029000  0.81279000  1.0
  C  C95  1  0.63101000  0.71972000  0.18721000  1.0
  C  C96  1  0.91609000  0.05896000  0.59887000  1.0
  C  C97  1  0.08391000  0.94104000  0.40112000  1.0
  C  C98  1  0.77224000  0.99469000  0.55029000  1.0
  C  C99  1  0.22776000  0.00531000  0.44971000  1.0
  C  C100  1  0.89856000  0.28296000  0.13563000  1.0
  C  C101  1  0.10144000  0.71704000  0.86437000  1.0
  C  C102  1  0.27840000  0.96473000  0.79470000  1.0
  C  C103  1  0.72160000  0.03527000  0.20530000  1.0
  C  C104  1  0.35064000  0.88055000  0.25970000  1.0
  C  C105  1  0.64936000  0.11944000  0.74030000  1.0
  C  C106  1  0.48073000  0.89526000  0.33695000  1.0
  C  C107  1  0.51927000  0.10474000  0.66305000  1.0
  C  C108  1  0.69893000  0.40409000  0.11204000  1.0
  C  C109  1  0.30107000  0.59591000  0.88796000  1.0
  C  C110  1  0.77400000  0.24135000  0.04679000  1.0
  C  C111  1  0.22599000  0.75865000  0.95321000  1.0
  C  C112  1  0.41440000  0.97767000  0.86268000  1.0
  C  C113  1  0.58560000  0.02233000  0.13731000  1.0
  N  N114  1  0.20230000  0.70204000  0.59268000  1.0
  N  N115  1  0.79770000  0.29796000  0.40732000  1.0
  N  N116  1  0.38833000  0.67194000  0.45820000  1.0
  N  N117  1  0.61167000  0.32806000  0.54180000  1.0
  N  N118  1  0.08656000  0.82929000  0.62253000  1.0
  N  N119  1  0.91344000  0.17072000  0.37746000  1.0
  N  N120  1  0.58815000  0.80739000  0.48118000  1.0
  N  N121  1  0.41186000  0.19261000  0.51882000  1.0
  O  O122  1  0.06494000  0.51735000  0.38045000  1.0
  O  O123  1  0.93506000  0.48265000  0.61955000  1.0
  O  O124  1  0.54612000  0.25472000  0.95117000  1.0
  O  O125  1  0.45388000  0.74528000  0.04883000  1.0
  O  O126  1  0.25690000  0.44853000  0.57869000  1.0
  O  O127  1  0.74310000  0.55147000  0.42131000  1.0
  O  O128  1  0.47656000  0.57566000  0.64767000  1.0
  O  O129  1  0.52344000  0.42434000  0.35233000  1.0
  O  O130  1  0.14756000  0.37418000  0.32104000  1.0
  O  O131  1  0.85244000  0.62582000  0.67896000  1.0
