# generated using pymatgen
data_CdH16C12(S2N3)2
_symmetry_space_group_name_H-M   'P 1'
_cell_length_a   8.77433000
_cell_length_b   8.77434000
_cell_length_c   12.53960000
_cell_angle_alpha   101.39700000
_cell_angle_beta   101.39700000
_cell_angle_gamma   105.77600000
_symmetry_Int_Tables_number   1
_chemical_formula_structural   CdH16C12(S2N3)2
_chemical_formula_sum   'Cd2 H32 C24 S8 N12'
_cell_volume   877.80943059
_cell_formula_units_Z   2
loop_
 _symmetry_equiv_pos_site_id
 _symmetry_equiv_pos_as_xyz
  1  'x, y, z'
loop_
 _atom_site_type_symbol
 _atom_site_label
 _atom_site_symmetry_multiplicity
 _atom_site_fract_x
 _atom_site_fract_y
 _atom_site_fract_z
 _atom_site_occupancy
  Cd  Cd0  1  0.98309000  0.01691000  0.24999000  1.0
  Cd  Cd1  1  0.01692000  0.98308000  0.75000000  1.0
  H  H2  1  0.31439000  0.51621000  0.99684000  1.0
  H  H3  1  0.48379000  0.68560000  0.50316000  1.0
  H  H4  1  0.68560000  0.48379000  0.00316000  1.0
  H  H5  1  0.51621000  0.31440000  0.49684000  1.0
  H  H6  1  0.10855000  0.64190000  0.10516000  1.0
  H  H7  1  0.35810000  0.89144000  0.39484000  1.0
  H  H8  1  0.89144000  0.35810000  0.89484000  1.0
  H  H9  1  0.64190000  0.10856000  0.60516000  1.0
  H  H10  1  0.39922000  0.18584000  0.12978000  1.0
  H  H11  1  0.81416000  0.60079000  0.37022000  1.0
  H  H12  1  0.60078000  0.81415000  0.87022000  1.0
  H  H13  1  0.18584000  0.39922000  0.62978000  1.0
  H  H14  1  0.40922000  0.26148000  0.00804000  1.0
  H  H15  1  0.73853000  0.59078000  0.49196000  1.0
  H  H16  1  0.59078000  0.73852000  0.99196000  1.0
  H  H17  1  0.26148000  0.40922000  0.50804000  1.0
  H  H18  1  0.55547000  0.37369000  0.14177000  1.0
  H  H19  1  0.62631000  0.44453000  0.35823000  1.0
  H  H20  1  0.44453000  0.62631000  0.85823000  1.0
  H  H21  1  0.37369000  0.55547000  0.64177000  1.0
  H  H22  1  0.03782000  0.63164000  0.28579000  1.0
  H  H23  1  0.36836000  0.96218000  0.21420000  1.0
  H  H24  1  0.96219000  0.36836000  0.71420000  1.0
  H  H25  1  0.63164000  0.03782000  0.78580000  1.0
  H  H26  1  0.93782000  0.41576000  0.26015000  1.0
  H  H27  1  0.58424000  0.06218000  0.23985000  1.0
  H  H28  1  0.06218000  0.58424000  0.73985000  1.0
  H  H29  1  0.41576000  0.93782000  0.76015000  1.0
  H  H30  1  0.12204000  0.51774000  0.37176000  1.0
  H  H31  1  0.48227000  0.87796000  0.12824000  1.0
  H  H32  1  0.87796000  0.48227000  0.62824000  1.0
  H  H33  1  0.51774000  0.12204000  0.87176000  1.0
  C  C34  1  0.24263000  0.37605000  0.21141000  1.0
  C  C35  1  0.62395000  0.75737000  0.28859000  1.0
  C  C36  1  0.75737000  0.62395000  0.78859000  1.0
  C  C37  1  0.37605000  0.24264000  0.71141000  1.0
  C  C38  1  0.27171000  0.49350000  0.06926000  1.0
  C  C39  1  0.50650000  0.72830000  0.43074000  1.0
  C  C40  1  0.72828000  0.50650000  0.93074000  1.0
  C  C41  1  0.49350000  0.27170000  0.56927000  1.0
  C  C42  1  0.16955000  0.55356000  0.12139000  1.0
  C  C43  1  0.44644000  0.83045000  0.37861000  1.0
  C  C44  1  0.83045000  0.44643000  0.87861000  1.0
  C  C45  1  0.55356000  0.16955000  0.62139000  1.0
  C  C46  1  0.42777000  0.29623000  0.09966000  1.0
  C  C47  1  0.70377000  0.57223000  0.40034000  1.0
  C  C48  1  0.57223000  0.70377000  0.90033000  1.0
  C  C49  1  0.29623000  0.42777000  0.59967000  1.0
  C  C50  1  0.05697000  0.51373000  0.28670000  1.0
  C  C51  1  0.48627000  0.94303000  0.21330000  1.0
  C  C52  1  0.94303000  0.48627000  0.71330000  1.0
  C  C53  1  0.51373000  0.05697000  0.78670000  1.0
  C  C54  1  0.11415000  0.87806000  0.01505000  1.0
  C  C55  1  0.12192000  0.88586000  0.48494000  1.0
  C  C56  1  0.88586000  0.12192000  0.98494000  1.0
  C  C57  1  0.87809000  0.11414000  0.51506000  1.0
  S  S58  1  0.26387000  0.26182000  0.30466000  1.0
  S  S59  1  0.73818000  0.73613000  0.19534000  1.0
  S  S60  1  0.73613000  0.73818000  0.69534000  1.0
  S  S61  1  0.26182000  0.26387000  0.80466000  1.0
  S  S62  1  0.20107000  0.86509000  0.91156000  1.0
  S  S63  1  0.13490000  0.79894000  0.58843000  1.0
  S  S64  1  0.79893000  0.13491000  0.08843000  1.0
  S  S65  1  0.86510000  0.20106000  0.41157000  1.0
  N  N66  1  0.31573000  0.38456000  0.12512000  1.0
  N  N67  1  0.61545000  0.68427000  0.37489000  1.0
  N  N68  1  0.68426000  0.61544000  0.87488000  1.0
  N  N69  1  0.38456000  0.31574000  0.62512000  1.0
  N  N70  1  0.15395000  0.48191000  0.20898000  1.0
  N  N71  1  0.51810000  0.84605000  0.29102000  1.0
  N  N72  1  0.84605000  0.51809000  0.79102000  1.0
  N  N73  1  0.48190000  0.15395000  0.70898000  1.0
  N  N74  1  0.05755000  0.88444000  0.09365000  1.0
  N  N75  1  0.11556000  0.94245000  0.40635000  1.0
  N  N76  1  0.94245000  0.11555000  0.90635000  1.0
  N  N77  1  0.88446000  0.05755000  0.59366000  1.0
