# generated using pymatgen
data_TbH9C5(NO4)2
_symmetry_space_group_name_H-M   'P 1'
_cell_length_a   6.56862000
_cell_length_b   6.72213000
_cell_length_c   6.72226000
_cell_angle_alpha   64.18450000
_cell_angle_beta   73.13390000
_cell_angle_gamma   73.13270000
_symmetry_Int_Tables_number   1
_chemical_formula_structural   TbH9C5(NO4)2
_chemical_formula_sum   'Tb1 H9 C5 N2 O8'
_cell_volume   251.04085873
_cell_formula_units_Z   1
loop_
 _symmetry_equiv_pos_site_id
 _symmetry_equiv_pos_as_xyz
  1  'x, y, z'
loop_
 _atom_site_type_symbol
 _atom_site_label
 _atom_site_symmetry_multiplicity
 _atom_site_fract_x
 _atom_site_fract_y
 _atom_site_fract_z
 _atom_site_occupancy
  Tb  Tb0  1  0.00000000  0.48918000  0.51082000  1.0
  H  H1  1  0.60138000  0.84664000  0.71803000  1.0
  H  H2  1  0.39862000  0.28199000  0.15333000  1.0
  H  H3  1  0.47224000  0.74732000  0.00843000  1.0
  H  H4  1  0.52777000  0.99158000  0.25269000  1.0
  H  H5  1  0.17804000  0.01885000  0.96051000  1.0
  H  H6  1  0.82197000  0.03948000  0.98116000  1.0
  H  H7  1  0.87649000  0.64362000  0.98001000  1.0
  H  H8  1  0.12351000  0.01996000  0.35642000  1.0
  H  H9  1  0.49999000  0.40835000  0.59166000  1.0
  C  C10  1  0.29807000  0.01738000  0.80717000  1.0
  C  C11  1  0.70194000  0.19281000  0.98262000  1.0
  C  C12  1  0.04184000  0.53920000  0.98027000  1.0
  C  C13  1  0.95815000  0.01972000  0.46082000  1.0
  C  C14  1  0.49999000  0.56215000  0.43785000  1.0
  N  N15  1  0.47068000  0.85663000  0.84518000  1.0
  N  N16  1  0.52935000  0.15483000  0.14334000  1.0
  O  O17  1  0.26622000  0.16011000  0.61567000  1.0
  O  O18  1  0.73379000  0.38433000  0.83987000  1.0
  O  O19  1  0.12800000  0.49436000  0.14645000  1.0
  O  O20  1  0.87199000  0.85355000  0.50564000  1.0
  O  O21  1  0.33262000  0.64019000  0.34815000  1.0
  O  O22  1  0.66737000  0.65184000  0.35981000  1.0
  O  O23  1  0.13148000  0.47316000  0.82155000  1.0
  O  O24  1  0.86851000  0.17845000  0.52685000  1.0
