# generated using pymatgen
data_CoH6(C3N2)2
_symmetry_space_group_name_H-M   'P 1'
_cell_length_a   14.67670000
_cell_length_b   15.38580000
_cell_length_c   18.29950000
_cell_angle_alpha   89.99980000
_cell_angle_beta   89.99980000
_cell_angle_gamma   90.00000000
_symmetry_Int_Tables_number   1
_chemical_formula_structural   CoH6(C3N2)2
_chemical_formula_sum   'Co16 H96 C96 N64'
_cell_volume   4132.26080030
_cell_formula_units_Z   16
loop_
 _symmetry_equiv_pos_site_id
 _symmetry_equiv_pos_as_xyz
  1  'x, y, z'
loop_
 _atom_site_type_symbol
 _atom_site_label
 _atom_site_symmetry_multiplicity
 _atom_site_fract_x
 _atom_site_fract_y
 _atom_site_fract_z
 _atom_site_occupancy
  Co  Co0  1  0.52794000  0.35208000  0.31690000  1.0
  Co  Co1  1  0.97206000  0.64792000  0.81690000  1.0
  Co  Co2  1  0.47206000  0.85208000  0.18310000  1.0
  Co  Co3  1  0.02794000  0.14792000  0.68310000  1.0
  Co  Co4  1  0.47206000  0.64792000  0.68310000  1.0
  Co  Co5  1  0.02794000  0.35208000  0.18310000  1.0
  Co  Co6  1  0.52794000  0.14792000  0.81690000  1.0
  Co  Co7  1  0.97206000  0.85208000  0.31690000  1.0
  Co  Co8  1  0.21548000  0.13991000  0.39672000  1.0
  Co  Co9  1  0.28452000  0.86009000  0.89672000  1.0
  Co  Co10  1  0.78452000  0.63991000  0.10328000  1.0
  Co  Co11  1  0.71548000  0.36009000  0.60328000  1.0
  Co  Co12  1  0.78452000  0.86009000  0.60328000  1.0
  Co  Co13  1  0.71548000  0.13991000  0.10328000  1.0
  Co  Co14  1  0.21548000  0.36009000  0.89672000  1.0
  Co  Co15  1  0.28451000  0.63991000  0.39672000  1.0
  H  H16  1  0.32931000  0.29359000  0.33728000  1.0
  H  H17  1  0.17069000  0.70641000  0.83728000  1.0
  H  H18  1  0.67069000  0.79359000  0.16272000  1.0
  H  H19  1  0.82931000  0.20641000  0.66272000  1.0
  H  H20  1  0.67069000  0.70641000  0.66272000  1.0
  H  H21  1  0.82931000  0.29359000  0.16272000  1.0
  H  H22  1  0.32931000  0.20641000  0.83728000  1.0
  H  H23  1  0.17069000  0.79359000  0.33728000  1.0
  H  H24  1  0.56952000  0.15243000  0.38037000  1.0
  H  H25  1  0.93049000  0.84757000  0.88037000  1.0
  H  H26  1  0.43048000  0.65243000  0.11963000  1.0
  H  H27  1  0.06952000  0.34757000  0.61963000  1.0
  H  H28  1  0.43049000  0.84758000  0.61963000  1.0
  H  H29  1  0.06952000  0.15243000  0.11963000  1.0
  H  H30  1  0.56951000  0.34757000  0.88037000  1.0
  H  H31  1  0.93048000  0.65243000  0.38037000  1.0
  H  H32  1  0.42016000  0.05296000  0.42029000  1.0
  H  H33  1  0.07985000  0.94703000  0.92029000  1.0
  H  H34  1  0.57984000  0.55297000  0.07971000  1.0
  H  H35  1  0.92016000  0.44703000  0.57971000  1.0
  H  H36  1  0.57985000  0.94703000  0.57971000  1.0
  H  H37  1  0.92016000  0.05297000  0.07971000  1.0
  H  H38  1  0.42015000  0.44703000  0.92029000  1.0
  H  H39  1  0.07984000  0.55297000  0.42029000  1.0
  H  H40  1  0.58349000  0.29275000  0.47761000  1.0
  H  H41  1  0.91652000  0.70725000  0.97761000  1.0
  H  H42  1  0.41651000  0.79275000  0.02239000  1.0
  H  H43  1  0.08349000  0.20724000  0.52239000  1.0
  H  H44  1  0.41651000  0.70724000  0.52239000  1.0
  H  H45  1  0.08349000  0.29276000  0.02239000  1.0
  H  H46  1  0.58349000  0.20725000  0.97761000  1.0
  H  H47  1  0.91651000  0.79275000  0.47761000  1.0
  H  H48  1  0.67840000  0.50000000  0.34774000  1.0
  H  H49  1  0.82160000  0.50000000  0.84774000  1.0
  H  H50  1  0.32160000  0.00000000  0.15226000  1.0
  H  H51  1  0.17840000  0.00000000  0.65226000  1.0
  H  H52  1  0.32160000  0.50000000  0.65226000  1.0
  H  H53  1  0.17840000  0.50001000  0.15226000  1.0
  H  H54  1  0.67840000  0.00000000  0.84774000  1.0
  H  H55  1  0.82160000  0.00000000  0.34774000  1.0
  H  H56  1  0.76853000  0.50233000  0.48139000  1.0
  H  H57  1  0.73147000  0.49767000  0.98140000  1.0
  H  H58  1  0.23147000  0.00233000  0.01861000  1.0
  H  H59  1  0.26854000  0.99767000  0.51861000  1.0
  H  H60  1  0.23146000  0.49767000  0.51861000  1.0
  H  H61  1  0.26854000  0.50233000  0.01861000  1.0
  H  H62  1  0.76853000  0.99767000  0.98140000  1.0
  H  H63  1  0.73147000  0.00233000  0.48139000  1.0
  H  H64  1  0.42427000  0.48810000  0.41543000  1.0
  H  H65  1  0.07574000  0.51190000  0.91543000  1.0
  H  H66  1  0.57574000  0.98810000  0.08456000  1.0
  H  H67  1  0.92426000  0.01191000  0.58457000  1.0
  H  H68  1  0.57574000  0.51191000  0.58456000  1.0
  H  H69  1  0.92426000  0.48810000  0.08456000  1.0
  H  H70  1  0.42427000  0.01190000  0.91544000  1.0
  H  H71  1  0.07573000  0.98810000  0.41544000  1.0
  H  H72  1  0.39816000  0.43514000  0.19028000  1.0
  H  H73  1  0.10183000  0.56486000  0.69027000  1.0
  H  H74  1  0.60184000  0.93514000  0.30972000  1.0
  H  H75  1  0.89816000  0.06486000  0.80973000  1.0
  H  H76  1  0.60183000  0.56486000  0.80972000  1.0
  H  H77  1  0.89817000  0.43514000  0.30972000  1.0
  H  H78  1  0.39817000  0.06486000  0.69028000  1.0
  H  H79  1  0.10184000  0.93514000  0.19028000  1.0
  H  H80  1  0.27617000  0.56569000  0.22944000  1.0
  H  H81  1  0.22383000  0.43431000  0.72943000  1.0
  H  H82  1  0.72383000  0.06569000  0.27056000  1.0
  H  H83  1  0.77617000  0.93431000  0.77056000  1.0
  H  H84  1  0.72382000  0.43431000  0.77056000  1.0
  H  H85  1  0.77617000  0.56569000  0.27056000  1.0
  H  H86  1  0.27618000  0.93431000  0.72944000  1.0
  H  H87  1  0.22383000  0.06569000  0.22944000  1.0
  H  H88  1  0.58744000  0.18826000  0.23085000  1.0
  H  H89  1  0.91256000  0.81174000  0.73085000  1.0
  H  H90  1  0.41256000  0.68826000  0.26915000  1.0
  H  H91  1  0.08744000  0.31174000  0.76914000  1.0
  H  H92  1  0.41256000  0.81174000  0.76914000  1.0
  H  H93  1  0.08744000  0.18826000  0.26914000  1.0
  H  H94  1  0.58744000  0.31174000  0.73085000  1.0
  H  H95  1  0.91256000  0.68826000  0.23085000  1.0
  H  H96  1  0.61284000  0.45255000  0.17386000  1.0
  H  H97  1  0.88716000  0.54745000  0.67385000  1.0
  H  H98  1  0.38715000  0.95255000  0.32615000  1.0
  H  H99  1  0.11284000  0.04745000  0.82615000  1.0
  H  H100  1  0.38715000  0.54745000  0.82615000  1.0
  H  H101  1  0.11284000  0.45255000  0.32614000  1.0
  H  H102  1  0.61285000  0.04745000  0.67385000  1.0
  H  H103  1  0.88716000  0.95255000  0.17386000  1.0
  H  H104  1  0.69523000  0.35087000  0.06685000  1.0
  H  H105  1  0.80477000  0.64914000  0.56685000  1.0
  H  H106  1  0.30476000  0.85087000  0.43315000  1.0
  H  H107  1  0.19523000  0.14914000  0.93315000  1.0
  H  H108  1  0.30477000  0.64914000  0.93315000  1.0
  H  H109  1  0.19523000  0.35087000  0.43315000  1.0
  H  H110  1  0.69523000  0.14914000  0.56684000  1.0
  H  H111  1  0.80476000  0.85087000  0.06685000  1.0
  C  C112  1  0.37431000  0.24146000  0.35435000  1.0
  C  C113  1  0.12570000  0.75854000  0.85434000  1.0
  C  C114  1  0.62569000  0.74146000  0.14565000  1.0
  C  C115  1  0.87431000  0.25854000  0.64565000  1.0
  C  C116  1  0.62570000  0.75854000  0.64565000  1.0
  C  C117  1  0.87431000  0.24146000  0.14565000  1.0
  C  C118  1  0.37430000  0.25854000  0.85434000  1.0
  C  C119  1  0.12569000  0.74146000  0.35435000  1.0
  C  C120  1  0.49734000  0.16741000  0.37747000  1.0
  C  C121  1  0.00267000  0.83259000  0.87747000  1.0
  C  C122  1  0.50266000  0.66741000  0.12253000  1.0
  C  C123  1  0.99734000  0.33258000  0.62253000  1.0
  C  C124  1  0.50266000  0.83259000  0.62253000  1.0
  C  C125  1  0.99734000  0.16741000  0.12253000  1.0
  C  C126  1  0.49734000  0.33259000  0.87747000  1.0
  C  C127  1  0.00266000  0.66742000  0.37747000  1.0
  C  C128  1  0.42300000  0.11769000  0.39682000  1.0
  C  C129  1  0.07701000  0.88230000  0.89682000  1.0
  C  C130  1  0.57700000  0.61770000  0.10318000  1.0
  C  C131  1  0.92300000  0.38230000  0.60318000  1.0
  C  C132  1  0.57701000  0.88230000  0.60318000  1.0
  C  C133  1  0.92300000  0.11770000  0.10318000  1.0
  C  C134  1  0.42299000  0.38230000  0.89682000  1.0
  C  C135  1  0.07700000  0.61770000  0.39682000  1.0
  C  C136  1  0.62211000  0.34925000  0.46019000  1.0
  C  C137  1  0.87790000  0.65075000  0.96020000  1.0
  C  C138  1  0.37789000  0.84925000  0.03981000  1.0
  C  C139  1  0.12211000  0.15075000  0.53980000  1.0
  C  C140  1  0.37789000  0.65075000  0.53980000  1.0
  C  C141  1  0.12211000  0.34925000  0.03981000  1.0
  C  C142  1  0.62211000  0.15075000  0.96020000  1.0
  C  C143  1  0.87789000  0.84925000  0.46019000  1.0
  C  C144  1  0.67206000  0.45733000  0.39459000  1.0
  C  C145  1  0.82794000  0.54267000  0.89460000  1.0
  C  C146  1  0.32794000  0.95733000  0.10541000  1.0
  C  C147  1  0.17206000  0.04267000  0.60540000  1.0
  C  C148  1  0.32794000  0.54267000  0.60540000  1.0
  C  C149  1  0.17206000  0.45733000  0.10540000  1.0
  C  C150  1  0.67206000  0.04267000  0.89460000  1.0
  C  C151  1  0.82794000  0.95733000  0.39459000  1.0
  C  C152  1  0.71675000  0.45832000  0.46076000  1.0
  C  C153  1  0.78325000  0.54169000  0.96077000  1.0
  C  C154  1  0.28325000  0.95832000  0.03923000  1.0
  C  C155  1  0.21675000  0.04169000  0.53923000  1.0
  C  C156  1  0.28324000  0.54168000  0.53923000  1.0
  C  C157  1  0.21675000  0.45832000  0.03923000  1.0
  C  C158  1  0.71675000  0.04169000  0.96077000  1.0
  C  C159  1  0.78325000  0.95832000  0.46077000  1.0
  C  C160  1  0.40044000  0.49124000  0.35936000  1.0
  C  C161  1  0.09956000  0.50876000  0.85936000  1.0
  C  C162  1  0.59956000  0.99123000  0.14064000  1.0
  C  C163  1  0.90044000  0.00877000  0.64064000  1.0
  C  C164  1  0.59956000  0.50877000  0.64064000  1.0
  C  C165  1  0.90044000  0.49123000  0.14064000  1.0
  C  C166  1  0.40044000  0.00876000  0.85936000  1.0
  C  C167  1  0.09956000  0.99124000  0.35936000  1.0
  C  C168  1  0.38562000  0.46553000  0.24284000  1.0
  C  C169  1  0.11438000  0.53447000  0.74284000  1.0
  C  C170  1  0.61438000  0.96553000  0.25716000  1.0
  C  C171  1  0.88562000  0.03447000  0.75716000  1.0
  C  C172  1  0.61438000  0.53447000  0.75715000  1.0
  C  C173  1  0.88562000  0.46553000  0.25716000  1.0
  C  C174  1  0.38562000  0.03447000  0.74285000  1.0
  C  C175  1  0.11438000  0.96553000  0.24284000  1.0
  C  C176  1  0.32480000  0.52978000  0.26231000  1.0
  C  C177  1  0.17520000  0.47022000  0.76231000  1.0
  C  C178  1  0.67520000  0.02978000  0.23768000  1.0
  C  C179  1  0.82480000  0.97022000  0.73769000  1.0
  C  C180  1  0.67519000  0.47022000  0.73768000  1.0
  C  C181  1  0.82480000  0.52978000  0.23769000  1.0
  C  C182  1  0.32480000  0.97022000  0.76231000  1.0
  C  C183  1  0.17520000  0.02978000  0.26231000  1.0
  C  C184  1  0.60588000  0.24640000  0.20072000  1.0
  C  C185  1  0.89412000  0.75360000  0.70072000  1.0
  C  C186  1  0.39411000  0.74640000  0.29928000  1.0
  C  C187  1  0.10589000  0.25360000  0.79928000  1.0
  C  C188  1  0.39411000  0.75360000  0.79928000  1.0
  C  C189  1  0.10589000  0.24640000  0.29928000  1.0
  C  C190  1  0.60589000  0.25360000  0.70072000  1.0
  C  C191  1  0.89412000  0.74640000  0.20072000  1.0
  C  C192  1  0.61965000  0.38248000  0.16971000  1.0
  C  C193  1  0.88035000  0.61752000  0.66971000  1.0
  C  C194  1  0.38034000  0.88248000  0.33029000  1.0
  C  C195  1  0.11965000  0.11752000  0.83030000  1.0
  C  C196  1  0.38035000  0.61752000  0.83029000  1.0
  C  C197  1  0.11965000  0.38248000  0.33029000  1.0
  C  C198  1  0.61965000  0.11751000  0.66971000  1.0
  C  C199  1  0.88035000  0.88248000  0.16971000  1.0
  C  C200  1  0.66043000  0.33198000  0.11672000  1.0
  C  C201  1  0.83957000  0.66802000  0.61671000  1.0
  C  C202  1  0.33956000  0.83199000  0.38328000  1.0
  C  C203  1  0.16043000  0.16802000  0.88329000  1.0
  C  C204  1  0.33957000  0.66802000  0.88329000  1.0
  C  C205  1  0.16043000  0.33199000  0.38328000  1.0
  C  C206  1  0.66043000  0.16802000  0.61671000  1.0
  C  C207  1  0.83957000  0.83198000  0.11672000  1.0
  N  N208  1  0.46588000  0.24604000  0.35075000  1.0
  N  N209  1  0.03412000  0.75396000  0.85075000  1.0
  N  N210  1  0.53412000  0.74604000  0.14925000  1.0
  N  N211  1  0.96588000  0.25396000  0.64925000  1.0
  N  N212  1  0.53412000  0.75396000  0.64925000  1.0
  N  N213  1  0.96588000  0.24604000  0.14925000  1.0
  N  N214  1  0.46588000  0.25396000  0.85075000  1.0
  N  N215  1  0.03412000  0.74604000  0.35075000  1.0
  N  N216  1  0.34503000  0.16506000  0.38195000  1.0
  N  N217  1  0.15497000  0.83493000  0.88194000  1.0
  N  N218  1  0.65497000  0.66507000  0.11806000  1.0
  N  N219  1  0.84503000  0.33493000  0.61805000  1.0
  N  N220  1  0.65497000  0.83493000  0.61805000  1.0
  N  N221  1  0.84503000  0.16507000  0.11805000  1.0
  N  N222  1  0.34503000  0.33493000  0.88194000  1.0
  N  N223  1  0.15497000  0.66507000  0.38195000  1.0
  N  N224  1  0.61219000  0.38797000  0.39447000  1.0
  N  N225  1  0.88781000  0.61203000  0.89447000  1.0
  N  N226  1  0.38781000  0.88797000  0.10553000  1.0
  N  N227  1  0.11219000  0.11203000  0.60553000  1.0
  N  N228  1  0.38781000  0.61203000  0.60553000  1.0
  N  N229  1  0.11219000  0.38797000  0.10553000  1.0
  N  N230  1  0.61219000  0.11204000  0.89447000  1.0
  N  N231  1  0.88781000  0.88797000  0.39447000  1.0
  N  N232  1  0.68474000  0.38953000  0.50216000  1.0
  N  N233  1  0.81527000  0.61047000  0.00216000  1.0
  N  N234  1  0.31526000  0.88953000  0.99784000  1.0
  N  N235  1  0.18474000  0.11047000  0.49784000  1.0
  N  N236  1  0.31526000  0.61047000  0.49784000  1.0
  N  N237  1  0.18474000  0.38953000  0.99784000  1.0
  N  N238  1  0.68473000  0.11047000  0.00216000  1.0
  N  N239  1  0.81526000  0.88953000  0.50216000  1.0
  N  N240  1  0.43355000  0.44157000  0.30476000  1.0
  N  N241  1  0.06645000  0.55843000  0.80476000  1.0
  N  N242  1  0.56645000  0.94157000  0.19524000  1.0
  N  N243  1  0.93355000  0.05843000  0.69524000  1.0
  N  N244  1  0.56645000  0.55843000  0.69524000  1.0
  N  N245  1  0.93355000  0.44157000  0.19524000  1.0
  N  N246  1  0.43356000  0.05843000  0.80476000  1.0
  N  N247  1  0.06645000  0.94157000  0.30476000  1.0
  N  N248  1  0.33447000  0.54575000  0.33630000  1.0
  N  N249  1  0.16554000  0.45425000  0.83629000  1.0
  N  N250  1  0.66554000  0.04575000  0.16370000  1.0
  N  N251  1  0.83446000  0.95425000  0.66371000  1.0
  N  N252  1  0.66553000  0.45425000  0.66370000  1.0
  N  N253  1  0.83446000  0.54575000  0.16370000  1.0
  N  N254  1  0.33447000  0.95425000  0.83630000  1.0
  N  N255  1  0.16554000  0.04575000  0.33630000  1.0
  N  N256  1  0.58523000  0.32763000  0.22282000  1.0
  N  N257  1  0.91476000  0.67237000  0.72282000  1.0
  N  N258  1  0.41476000  0.82763000  0.27718000  1.0
  N  N259  1  0.08524000  0.17237000  0.77718000  1.0
  N  N260  1  0.41476000  0.67237000  0.77718000  1.0
  N  N261  1  0.08524000  0.32763000  0.27718000  1.0
  N  N262  1  0.58524000  0.17237000  0.72282000  1.0
  N  N263  1  0.91476000  0.82763000  0.22282000  1.0
  N  N264  1  0.65188000  0.24558000  0.13691000  1.0
  N  N265  1  0.84813000  0.75442000  0.63691000  1.0
  N  N266  1  0.34812000  0.74559000  0.36309000  1.0
  N  N267  1  0.15187000  0.25441000  0.86309000  1.0
  N  N268  1  0.34813000  0.75442000  0.86309000  1.0
  N  N269  1  0.15188000  0.24559000  0.36309000  1.0
  N  N270  1  0.65188000  0.25441000  0.63691000  1.0
  N  N271  1  0.84812000  0.74558000  0.13691000  1.0
