# generated using pymatgen
data_MnGa3P4H26C8(N3O8)2
_symmetry_space_group_name_H-M   'P 1'
_cell_length_a   13.47490000
_cell_length_b   14.06070000
_cell_length_c   14.06190000
_cell_angle_alpha   110.30100000
_cell_angle_beta   108.62100000
_cell_angle_gamma   108.63500000
_symmetry_Int_Tables_number   1
_chemical_formula_structural   MnGa3P4H26C8(N3O8)2
_chemical_formula_sum   'Mn3 Ga9 P12 H78 C24 N18 O48'
_cell_volume   2071.90215484
_cell_formula_units_Z   3
loop_
 _symmetry_equiv_pos_site_id
 _symmetry_equiv_pos_as_xyz
  1  'x, y, z'
loop_
 _atom_site_type_symbol
 _atom_site_label
 _atom_site_symmetry_multiplicity
 _atom_site_fract_x
 _atom_site_fract_y
 _atom_site_fract_z
 _atom_site_occupancy
  Mn  Mn0  1  0.47185000  0.61156000  0.46910000  1.0
  Mn  Mn1  1  0.00270000  0.53093000  0.14252000  1.0
  Mn  Mn2  1  0.86023000  0.85753000  0.38838000  1.0
  Ga  Ga3  1  0.26687000  0.45671000  0.57977000  1.0
  Ga  Ga4  1  0.52655000  0.37345000  0.53794000  1.0
  Ga  Ga5  1  0.68706000  0.42018000  0.87692000  1.0
  Ga  Ga6  1  0.98868000  0.46213000  0.83557000  1.0
  Ga  Ga7  1  0.81016000  0.12312000  0.54323000  1.0
  Ga  Ga8  1  0.15308000  0.16439000  0.62657000  1.0
  Ga  Ga9  1  0.72748000  0.54245000  0.41868000  1.0
  Ga  Ga10  1  0.30883000  0.58135000  0.12389000  1.0
  Ga  Ga11  1  0.18508000  0.87633000  0.45760000  1.0
  P  P12  1  0.55628000  0.61516000  0.67382000  1.0
  P  P13  1  0.58624000  0.65936000  0.31387000  1.0
  P  P14  1  0.88244000  0.32616000  0.94132000  1.0
  P  P15  1  0.27233000  0.68615000  0.34556000  1.0
  P  P16  1  0.94120000  0.05879000  0.38493000  1.0
  P  P17  1  0.92681000  0.65460000  0.34063000  1.0
  P  P18  1  0.44870000  0.37664000  0.33099000  1.0
  P  P19  1  0.40728000  0.33753000  0.68799000  1.0
  P  P20  1  0.11780000  0.66905000  0.04579000  1.0
  P  P21  1  0.71935000  0.31211000  0.64961000  1.0
  P  P22  1  0.07201000  0.95431000  0.62334000  1.0
  P  P23  1  0.06983000  0.35050000  0.66257000  1.0
  H  H24  1  0.28651000  0.60028000  0.76504000  1.0
  H  H25  1  0.41698000  0.65660000  0.76360000  1.0
  H  H26  1  0.23434000  0.55425000  0.45174000  1.0
  H  H27  1  0.26326000  0.29945000  0.41051000  1.0
  H  H28  1  0.14657000  0.24307000  0.43053000  1.0
  H  H29  1  0.34961000  0.72696000  0.64870000  1.0
  H  H30  1  0.27199000  0.74784000  0.72941000  1.0
  H  H31  1  0.13078000  0.64548000  0.51473000  1.0
  H  H32  1  0.09469000  0.55369000  0.57398000  1.0
  H  H33  1  0.01378000  0.36610000  0.40428000  1.0
  H  H34  1  0.02911000  0.42131000  0.30895000  1.0
  H  H35  1  0.04375000  0.23659000  0.25993000  1.0
  H  H36  1  0.17576000  0.35580000  0.29392000  1.0
  H  H37  1  0.52141000  0.23483000  0.83522000  1.0
  H  H38  1  0.65330000  0.23625000  0.89286000  1.0
  H  H39  1  0.78263000  0.54816000  0.10246000  1.0
  H  H40  1  0.85271000  0.58946000  0.88889000  1.0
  H  H41  1  0.71602000  0.56945000  0.81254000  1.0
  H  H42  1  0.70088000  0.35110000  0.07817000  1.0
  H  H43  1  0.54256000  0.27043000  0.01841000  1.0
  H  H44  1  0.61611000  0.48521000  0.13075000  1.0
  H  H45  1  0.52075000  0.42590000  0.97972000  1.0
  H  H46  1  0.60954000  0.59568000  0.96196000  1.0
  H  H47  1  0.72029000  0.69099000  0.11246000  1.0
  H  H48  1  0.78375000  0.74003000  0.97668000  1.0
  H  H49  1  0.88183000  0.70607000  0.06181000  1.0
  H  H50  1  0.68626000  0.16484000  0.39960000  1.0
  H  H51  1  0.76057000  0.10721000  0.34345000  1.0
  H  H52  1  0.67997000  0.89752000  0.44564000  1.0
  H  H53  1  0.96363000  0.11097000  0.70046000  1.0
  H  H54  1  0.90339000  0.18744000  0.75684000  1.0
  H  H55  1  0.62290000  0.92186000  0.27309000  1.0
  H  H56  1  0.52434000  0.98158000  0.25191000  1.0
  H  H57  1  0.48522000  0.86935000  0.35434000  1.0
  H  H58  1  0.54097000  0.02044000  0.44607000  1.0
  H  H59  1  0.64754000  0.03831000  0.63369000  1.0
  H  H60  1  0.60749000  0.88772000  0.57850000  1.0
  H  H61  1  0.80678000  0.02335000  0.76324000  1.0
  H  H62  1  0.81963000  0.93807000  0.64412000  1.0
  H  H63  1  0.71581000  0.40105000  0.23603000  1.0
  H  H64  1  0.58390000  0.34015000  0.23548000  1.0
  H  H65  1  0.76883000  0.45120000  0.55139000  1.0
  H  H66  1  0.73840000  0.70441000  0.59056000  1.0
  H  H67  1  0.85331000  0.75903000  0.56704000  1.0
  H  H68  1  0.65251000  0.27380000  0.35184000  1.0
  H  H69  1  0.73237000  0.25410000  0.27337000  1.0
  H  H70  1  0.87220000  0.35853000  0.48769000  1.0
  H  H71  1  0.90662000  0.44986000  0.42769000  1.0
  H  H72  1  0.98501000  0.63611000  0.59130000  1.0
  H  H73  1  0.97523000  0.58533000  0.69070000  1.0
  H  H74  1  0.95855000  0.76817000  0.73741000  1.0
  H  H75  1  0.82832000  0.64983000  0.70706000  1.0
  H  H76  1  0.47985000  0.76397000  0.16510000  1.0
  H  H77  1  0.34852000  0.76448000  0.10462000  1.0
  H  H78  1  0.21741000  0.44859000  0.89988000  1.0
  H  H79  1  0.14776000  0.40953000  0.11398000  1.0
  H  H80  1  0.28613000  0.43288000  0.19202000  1.0
  H  H81  1  0.30103000  0.64811000  0.92201000  1.0
  H  H82  1  0.45937000  0.72644000  0.98087000  1.0
  H  H83  1  0.38452000  0.51205000  0.87094000  1.0
  H  H84  1  0.47889000  0.57195000  0.02225000  1.0
  H  H85  1  0.39335000  0.40832000  0.04469000  1.0
  H  H86  1  0.28408000  0.30899000  0.89452000  1.0
  H  H87  1  0.22072000  0.26237000  0.03074000  1.0
  H  H88  1  0.12094000  0.29287000  0.94286000  1.0
  H  H89  1  0.31473000  0.83502000  0.59896000  1.0
  H  H90  1  0.24374000  0.89539000  0.65986000  1.0
  H  H91  1  0.31778000  0.10032000  0.54875000  1.0
  H  H92  1  0.03413000  0.88638000  0.29567000  1.0
  H  H93  1  0.09432000  0.80813000  0.24102000  1.0
  H  H94  1  0.37879000  0.07812000  0.72618000  1.0
  H  H95  1  0.47831000  0.01932000  0.74587000  1.0
  H  H96  1  0.51372000  0.12921000  0.64144000  1.0
  H  H97  1  0.45679000  0.97786000  0.55011000  1.0
  H  H98  1  0.34892000  0.95515000  0.36386000  1.0
  H  H99  1  0.39009000  0.10539000  0.41463000  1.0
  H  H100  1  0.19054000  0.96934000  0.23183000  1.0
  H  H101  1  0.17874000  0.05741000  0.35017000  1.0
  C  C102  1  0.28143000  0.68247000  0.66753000  1.0
  C  C103  1  0.16190000  0.59884000  0.55507000  1.0
  C  C104  1  0.07495000  0.40444000  0.37609000  1.0
  C  C105  1  0.12016000  0.32172000  0.32899000  1.0
  C  C106  1  0.61388000  0.33231000  0.01492000  1.0
  C  C107  1  0.60688000  0.44483000  0.04377000  1.0
  C  C108  1  0.69893000  0.62386000  0.02841000  1.0
  C  C109  1  0.79114000  0.67097000  0.99271000  1.0
  C  C110  1  0.59907000  0.98513000  0.31741000  1.0
  C  C111  1  0.56300000  0.95633000  0.40098000  1.0
  C  C112  1  0.67031000  0.97172000  0.59538000  1.0
  C  C113  1  0.79817000  0.00727000  0.67815000  1.0
  C  C114  1  0.72111000  0.31901000  0.33376000  1.0
  C  C115  1  0.83978000  0.40409000  0.44664000  1.0
  C  C116  1  0.92642000  0.59955000  0.62252000  1.0
  C  C117  1  0.88173000  0.68264000  0.66963000  1.0
  C  C118  1  0.38761000  0.66613000  0.98537000  1.0
  C  C119  1  0.39318000  0.55313000  0.95756000  1.0
  C  C120  1  0.30355000  0.37720000  0.97696000  1.0
  C  C121  1  0.21177000  0.33020000  0.01303000  1.0
  C  C122  1  0.40214000  0.01480000  0.68098000  1.0
  C  C123  1  0.43574000  0.04260000  0.59587000  1.0
  C  C124  1  0.32699000  0.02301000  0.40042000  1.0
  C  C125  1  0.19926000  0.98712000  0.31736000  1.0
  N  N126  1  0.32430000  0.61692000  0.71637000  1.0
  N  N127  1  0.18002000  0.51185000  0.47809000  1.0
  N  N128  1  0.19628000  0.31148000  0.42427000  1.0
  N  N129  1  0.60788000  0.28350000  0.90049000  1.0
  N  N130  1  0.70196000  0.52182000  0.03374000  1.0
  N  N131  1  0.77198000  0.57570000  0.88718000  1.0
  N  N132  1  0.70748000  0.09958000  0.38303000  1.0
  N  N133  1  0.66805000  0.96629000  0.48800000  1.0
  N  N134  1  0.88465000  0.11277000  0.68843000  1.0
  N  N135  1  0.67686000  0.38262000  0.28328000  1.0
  N  N136  1  0.82105000  0.49097000  0.52275000  1.0
  N  N137  1  0.80354000  0.69102000  0.57417000  1.0
  N  N138  1  0.39369000  0.71668000  0.09938000  1.0
  N  N139  1  0.29821000  0.47711000  0.96827000  1.0
  N  N140  1  0.22924000  0.42579000  0.11692000  1.0
  N  N141  1  0.29425000  0.90073000  0.61740000  1.0
  N  N142  1  0.33019000  0.03188000  0.50901000  1.0
  N  N143  1  0.11263000  0.88332000  0.30902000  1.0
  O  O144  1  0.42153000  0.54154000  0.56751000  1.0
  O  O145  1  0.61161000  0.69653000  0.62996000  1.0
  O  O146  1  0.60644000  0.52661000  0.66389000  1.0
  O  O147  1  0.56836000  0.67540000  0.79099000  1.0
  O  O148  1  0.56334000  0.69395000  0.42162000  1.0
  O  O149  1  0.67407000  0.77675000  0.33410000  1.0
  O  O150  1  0.47100000  0.59651000  0.19957000  1.0
  O  O151  1  0.64224000  0.57932000  0.31147000  1.0
  O  O152  1  0.85392000  0.43244000  0.97407000  1.0
  O  O153  1  0.98155000  0.36998000  0.06654000  1.0
  O  O154  1  0.94256000  0.33617000  0.86274000  1.0
  O  O155  1  0.77738000  0.20891000  0.88428000  1.0
  O  O156  1  0.14164000  0.57843000  0.27240000  1.0
  O  O157  1  0.33991000  0.66588000  0.44264000  1.0
  O  O158  1  0.27145000  0.80048000  0.39710000  1.0
  O  O159  1  0.33075000  0.68854000  0.26791000  1.0
  O  O160  1  0.87989000  0.02600000  0.45845000  1.0
  O  O161  1  0.91512000  0.93358000  0.30351000  1.0
  O  O162  1  0.07988000  0.13740000  0.47351000  1.0
  O  O163  1  0.89315000  0.11583000  0.32473000  1.0
  O  O164  1  0.86918000  0.72764000  0.30595000  1.0
  O  O165  1  0.89739000  0.55744000  0.22334000  1.0
  O  O166  1  0.87445000  0.60307000  0.40345000  1.0
  O  O167  1  0.06283000  0.73238000  0.42076000  1.0
  O  O168  1  0.58293000  0.45950000  0.43314000  1.0
  O  O169  1  0.39970000  0.30420000  0.38686000  1.0
  O  O170  1  0.38764000  0.45595000  0.33002000  1.0
  O  O171  1  0.43226000  0.30453000  0.21430000  1.0
  O  O172  1  0.42449000  0.29001000  0.58038000  1.0
  O  O173  1  0.31826000  0.22643000  0.68064000  1.0
  O  O174  1  0.52310000  0.40230000  0.80216000  1.0
  O  O175  1  0.35111000  0.41655000  0.68395000  1.0
  O  O176  1  0.14982000  0.56685000  0.02646000  1.0
  O  O177  1  0.01297000  0.61321000  0.91749000  1.0
  O  O178  1  0.05769000  0.67006000  0.12605000  1.0
  O  O179  1  0.21810000  0.78574000  0.09037000  1.0
  O  O180  1  0.84418000  0.41976000  0.70976000  1.0
  O  O181  1  0.63772000  0.31947000  0.54586000  1.0
  O  O182  1  0.72106000  0.19797000  0.60023000  1.0
  O  O183  1  0.66712000  0.31606000  0.73259000  1.0
  O  O184  1  0.12363000  0.97393000  0.54071000  1.0
  O  O185  1  0.09530000  0.08255000  0.69577000  1.0
  O  O186  1  0.93171000  0.87391000  0.54385000  1.0
  O  O187  1  0.12763000  0.90962000  0.69538000  1.0
  O  O188  1  0.13442000  0.29028000  0.70998000  1.0
  O  O189  1  0.09199000  0.45426000  0.77371000  1.0
  O  O190  1  0.12092000  0.39989000  0.59780000  1.0
  O  O191  1  0.93460000  0.26756000  0.58356000  1.0
