# generated using pymatgen
data_CoH15C19N2O5
_symmetry_space_group_name_H-M   'P 1'
_cell_length_a   15.81530000
_cell_length_b   19.15680000
_cell_length_c   19.15641078
_cell_angle_alpha   80.19723229
_cell_angle_beta   65.61988879
_cell_angle_gamma   65.61980000
_symmetry_Int_Tables_number   1
_chemical_formula_structural   CoH15C19N2O5
_chemical_formula_sum   'Co8 H120 C152 N16 O40'
_cell_volume   4814.88619597
_cell_formula_units_Z   8
loop_
 _symmetry_equiv_pos_site_id
 _symmetry_equiv_pos_as_xyz
  1  'x, y, z'
loop_
 _atom_site_type_symbol
 _atom_site_label
 _atom_site_symmetry_multiplicity
 _atom_site_fract_x
 _atom_site_fract_y
 _atom_site_fract_z
 _atom_site_occupancy
  Co  Co0  1  0.82226000  0.81333000  0.77805000  1.0
  Co  Co1  1  0.39973000  0.77797000  0.18662000  1.0
  Co  Co2  1  0.41362000  0.18670000  0.22202000  1.0
  Co  Co3  1  0.36436000  0.22198000  0.81332000  1.0
  Co  Co4  1  0.92765000  0.72201000  0.68669000  1.0
  Co  Co5  1  0.33634000  0.27803000  0.31337000  1.0
  Co  Co6  1  0.38564000  0.68666000  0.27801000  1.0
  Co  Co7  1  0.35037000  0.31325000  0.72194000  1.0
  H  H8  1  0.81566000  0.96679000  0.78273000  1.0
  H  H9  1  0.40167000  0.78266000  0.03306000  1.0
  H  H10  1  0.56511000  0.03322000  0.21733000  1.0
  H  H11  1  0.21752000  0.21737000  0.96690000  1.0
  H  H12  1  0.93431000  0.71731000  0.53324000  1.0
  H  H13  1  0.18477000  0.28275000  0.46678000  1.0
  H  H14  1  0.53256000  0.53318000  0.28267000  1.0
  H  H15  1  0.34827000  0.46683000  0.71733000  1.0
  H  H16  1  0.96401000  0.98117000  0.71196000  1.0
  H  H17  1  0.32385000  0.71198000  0.01878000  1.0
  H  H18  1  0.65739000  0.01890000  0.28795000  1.0
  H  H19  1  0.05464000  0.28803000  0.98119000  1.0
  H  H20  1  0.78570000  0.78793000  0.51898000  1.0
  H  H21  1  0.09277000  0.21196000  0.48118000  1.0
  H  H22  1  0.69539000  0.51883000  0.21193000  1.0
  H  H23  1  0.42617000  0.48115000  0.78802000  1.0
  H  H24  1  0.07535000  0.05399000  0.65827000  1.0
  H  H25  1  0.26611000  0.65821000  0.94605000  1.0
  H  H26  1  0.78779000  0.94600000  0.34173000  1.0
  H  H27  1  0.87042000  0.34173000  0.05399000  1.0
  H  H28  1  0.67440000  0.84172000  0.44608000  1.0
  H  H29  1  0.96235000  0.15822000  0.55395000  1.0
  H  H30  1  0.87959000  0.44610000  0.15824000  1.0
  H  H31  1  0.48386000  0.55396000  0.84172000  1.0
  H  H32  1  0.27765000  0.88410000  0.48128000  1.0
  H  H33  1  0.24078000  0.48137000  0.11602000  1.0
  H  H34  1  0.64316000  0.11589000  0.51874000  1.0
  H  H35  1  0.83812000  0.51871000  0.88411000  1.0
  H  H36  1  0.47216000  0.01874000  0.61596000  1.0
  H  H37  1  0.10702000  0.98123000  0.38406000  1.0
  H  H38  1  0.91189000  0.61602000  0.98138000  1.0
  H  H39  1  0.50904000  0.38411000  0.01872000  1.0
  H  H40  1  0.16410000  0.81121000  0.53557000  1.0
  H  H41  1  0.30012000  0.53570000  0.18881000  1.0
  H  H42  1  0.51110000  0.18877000  0.46440000  1.0
  H  H43  1  0.02457000  0.46441000  0.81127000  1.0
  H  H44  1  0.58569000  0.96442000  0.68883000  1.0
  H  H45  1  0.23913000  0.03554000  0.31121000  1.0
  H  H46  1  0.72544000  0.68886000  0.03564000  1.0
  H  H47  1  0.44978000  0.31124000  0.96442000  1.0
  H  H48  1  0.28639000  0.13134000  0.48130000  1.0
  H  H49  1  0.23215000  0.48145000  0.86858000  1.0
  H  H50  1  0.89920000  0.86847000  0.51868000  1.0
  H  H51  1  0.58209000  0.51867000  0.13146000  1.0
  H  H52  1  0.46361000  0.01870000  0.36853000  1.0
  H  H53  1  0.85094000  0.98130000  0.63134000  1.0
  H  H54  1  0.16777000  0.36863000  0.98146000  1.0
  H  H55  1  0.51778000  0.63140000  0.01867000  1.0
  H  H56  1  0.31787000  0.21104000  0.55073000  1.0
  H  H57  1  0.13129000  0.55100000  0.78885000  1.0
  H  H58  1  0.07981000  0.78878000  0.44919000  1.0
  H  H59  1  0.47104000  0.44914000  0.21124000  1.0
  H  H60  1  0.43221000  0.94923000  0.28882000  1.0
  H  H61  1  0.67035000  0.05073000  0.71102000  1.0
  H  H62  1  0.27882000  0.28885000  0.05098000  1.0
  H  H63  1  0.61852000  0.71121000  0.94920000  1.0
  H  H64  1  0.27306000  0.06358000  0.74705000  1.0
  H  H65  1  0.97974000  0.74722000  0.93647000  1.0
  H  H66  1  0.08381000  0.93631000  0.25292000  1.0
  H  H67  1  0.66320000  0.25290000  0.06360000  1.0
  H  H68  1  0.47691000  0.75292000  0.43630000  1.0
  H  H69  1  0.66626000  0.24703000  0.56355000  1.0
  H  H70  1  0.08656000  0.43644000  0.24726000  1.0
  H  H71  1  0.77023000  0.56365000  0.75289000  1.0
  H  H72  1  0.24134000  0.98322000  0.67802000  1.0
  H  H73  1  0.08029000  0.67801000  0.01697000  1.0
  H  H74  1  0.90274000  0.01668000  0.32202000  1.0
  H  H75  1  0.77511000  0.32201000  0.98317000  1.0
  H  H76  1  0.50848000  0.82203000  0.51672000  1.0
  H  H77  1  0.84741000  0.17798000  0.48318000  1.0
  H  H78  1  0.97468000  0.51697000  0.17807000  1.0
  H  H79  1  0.66968000  0.48316000  0.82197000  1.0
  H  H80  1  0.62185000  0.83204000  0.95373000  1.0
  H  H81  1  0.42440000  0.95364000  0.16776000  1.0
  H  H82  1  0.40769000  0.16792000  0.04626000  1.0
  H  H83  1  0.54590000  0.04638000  0.83212000  1.0
  H  H84  1  0.12809000  0.54630000  0.66793000  1.0
  H  H85  1  0.34241000  0.45369000  0.33203000  1.0
  H  H86  1  0.20420000  0.66789000  0.45373000  1.0
  H  H87  1  0.32584000  0.33203000  0.54621000  1.0
  H  H88  1  0.59131000  0.87859000  0.03904000  1.0
  H  H89  1  0.36961000  0.03900000  0.12131000  1.0
  H  H90  1  0.50895000  0.12132000  0.96096000  1.0
  H  H91  1  0.53003000  0.96103000  0.87864000  1.0
  H  H92  1  0.15879000  0.46098000  0.62132000  1.0
  H  H93  1  0.24112000  0.53900000  0.37860000  1.0
  H  H94  1  0.22009000  0.62141000  0.53906000  1.0
  H  H95  1  0.38052000  0.37859000  0.46091000  1.0
  H  H96  1  0.71114000  0.80509000  0.99578000  1.0
  H  H97  1  0.29303000  0.99585000  0.19490000  1.0
  H  H98  1  0.51207000  0.19488000  0.00412000  1.0
  H  H99  1  0.48389000  0.00412000  0.80503000  1.0
  H  H100  1  0.03897000  0.50409000  0.69488000  1.0
  H  H101  1  0.23800000  0.49580000  0.30510000  1.0
  H  H102  1  0.26637000  0.69493000  0.49587000  1.0
  H  H103  1  0.45718000  0.30509000  0.50408000  1.0
  H  H104  1  0.82064000  0.07979000  0.87697000  1.0
  H  H105  1  0.30254000  0.87684000  0.91999000  1.0
  H  H106  1  0.77733000  0.92014000  0.12315000  1.0
  H  H107  1  0.09949000  0.12313000  0.07987000  1.0
  H  H108  1  0.92938000  0.62313000  0.42014000  1.0
  H  H109  1  0.97256000  0.37700000  0.57979000  1.0
  H  H110  1  0.65069000  0.42007000  0.37673000  1.0
  H  H111  1  0.44747000  0.57988000  0.62329000  1.0
  H  H112  1  0.69147000  0.12900000  0.93222000  1.0
  H  H113  1  0.37646000  0.93207000  0.87082000  1.0
  H  H114  1  0.75264000  0.87097000  0.06785000  1.0
  H  H115  1  0.17947000  0.06791000  0.12904000  1.0
  H  H116  1  0.05855000  0.56783000  0.37097000  1.0
  H  H117  1  0.99728000  0.43225000  0.62899000  1.0
  H  H118  1  0.57069000  0.37092000  0.43202000  1.0
  H  H119  1  0.37360000  0.62905000  0.56800000  1.0
  H  H120  1  0.73288000  0.12056000  0.83146000  1.0
  H  H121  1  0.43582000  0.83133000  0.87925000  1.0
  H  H122  1  0.68483000  0.87937000  0.16860000  1.0
  H  H123  1  0.14651000  0.16866000  0.12060000  1.0
  H  H124  1  0.01721000  0.66859000  0.37937000  1.0
  H  H125  1  0.06507000  0.33148000  0.62055000  1.0
  H  H126  1  0.60356000  0.37936000  0.33126000  1.0
  H  H127  1  0.31416000  0.62055000  0.66875000  1.0
  C  C128  1  0.99091000  0.84704000  0.66126000  1.0
  C  C129  1  0.34773000  0.66130000  0.15292000  1.0
  C  C130  1  0.49940000  0.15301000  0.33869000  1.0
  C  C131  1  0.16193000  0.33870000  0.84705000  1.0
  C  C132  1  0.75888000  0.83868000  0.65304000  1.0
  C  C133  1  0.25074000  0.16127000  0.34708000  1.0
  C  C134  1  0.58806000  0.65295000  0.16126000  1.0
  C  C135  1  0.40234000  0.34702000  0.83871000  1.0
  C  C136  1  0.05737000  0.89080000  0.62786000  1.0
  C  C137  1  0.31450000  0.62796000  0.10923000  1.0
  C  C138  1  0.57629000  0.10927000  0.37205000  1.0
  C  C139  1  0.05167000  0.37210000  0.89082000  1.0
  C  C140  1  0.69231000  0.87205000  0.60935000  1.0
  C  C141  1  0.17394000  0.12785000  0.39078000  1.0
  C  C142  1  0.69833000  0.60926000  0.12791000  1.0
  C  C143  1  0.43541000  0.39079000  0.87212000  1.0
  C  C144  1  0.03299000  0.95952000  0.66169000  1.0
  C  C145  1  0.30510000  0.66172000  0.04047000  1.0
  C  C146  1  0.65443000  0.04052000  0.33825000  1.0
  C  C147  1  0.00730000  0.33831000  0.95956000  1.0
  C  C148  1  0.71674000  0.83823000  0.54059000  1.0
  C  C149  1  0.09575000  0.16168000  0.45951000  1.0
  C  C150  1  0.74270000  0.54052000  0.16169000  1.0
  C  C151  1  0.44484000  0.45953000  0.83831000  1.0
  C  C152  1  0.09527000  0.00035000  0.63205000  1.0
  C  C153  1  0.27245000  0.63204000  0.99968000  1.0
  C  C154  1  0.72785000  0.99964000  0.36793000  1.0
  C  C155  1  0.90419000  0.36795000  0.00039000  1.0
  C  C156  1  0.65452000  0.86791000  0.49972000  1.0
  C  C157  1  0.02232000  0.13201000  0.50033000  1.0
  C  C158  1  0.84582000  0.49971000  0.13203000  1.0
  C  C159  1  0.47748000  0.50036000  0.86795000  1.0
  C  C160  1  0.18415000  0.97180000  0.56767000  1.0
  C  C161  1  0.24795000  0.56767000  0.02825000  1.0
  C  C162  1  0.72382000  0.02816000  0.43233000  1.0
  C  C163  1  0.84386000  0.43234000  0.97184000  1.0
  C  C164  1  0.56564000  0.93233000  0.52823000  1.0
  C  C165  1  0.02639000  0.06762000  0.47177000  1.0
  C  C166  1  0.90614000  0.52827000  0.06767000  1.0
  C  C167  1  0.50198000  0.47181000  0.93233000  1.0
  C  C168  1  0.20900000  0.90418000  0.53214000  1.0
  C  C169  1  0.25868000  0.53217000  0.09586000  1.0
  C  C170  1  0.64553000  0.09580000  0.46785000  1.0
  C  C171  1  0.88665000  0.46787000  0.90424000  1.0
  C  C172  1  0.54077000  0.96785000  0.59586000  1.0
  C  C173  1  0.10471000  0.03209000  0.40415000  1.0
  C  C174  1  0.86332000  0.59588000  0.03216000  1.0
  C  C175  1  0.49125000  0.40420000  0.96787000  1.0
  C  C176  1  0.14568000  0.86410000  0.56239000  1.0
  C  C177  1  0.29171000  0.56249000  0.13592000  1.0
  C  C178  1  0.57241000  0.13590000  0.43756000  1.0
  C  C179  1  0.99008000  0.43761000  0.86417000  1.0
  C  C180  1  0.60408000  0.93758000  0.63597000  1.0
  C  C181  1  0.17784000  0.06236000  0.36409000  1.0
  C  C182  1  0.75992000  0.63597000  0.06245000  1.0
  C  C183  1  0.45817000  0.36413000  0.93761000  1.0
  C  C184  1  0.25958000  0.05412000  0.57636000  1.0
  C  C185  1  0.16378000  0.57647000  0.94593000  1.0
  C  C186  1  0.89025000  0.94576000  0.42365000  1.0
  C  C187  1  0.68608000  0.42361000  0.05416000  1.0
  C  C188  1  0.49030000  0.92365000  0.44582000  1.0
  C  C189  1  0.85994000  0.07634000  0.55409000  1.0
  C  C190  1  0.06379000  0.44594000  0.07650000  1.0
  C  C191  1  0.58614000  0.55413000  0.92361000  1.0
  C  C192  1  0.28197000  0.11764000  0.53993000  1.0
  C  C193  1  0.17794000  0.54008000  0.88233000  1.0
  C  C194  1  0.93969000  0.88223000  0.46008000  1.0
  C  C195  1  0.60021000  0.46005000  0.11771000  1.0
  C  C196  1  0.46798000  0.96009000  0.38228000  1.0
  C  C197  1  0.81047000  0.03991000  0.61761000  1.0
  C  C198  1  0.14962000  0.38236000  0.04009000  1.0
  C  C199  1  0.57202000  0.61767000  0.96006000  1.0
  C  C200  1  0.29960000  0.16181000  0.57888000  1.0
  C  C201  1  0.12143000  0.57908000  0.83812000  1.0
  C  C202  1  0.04043000  0.83807000  0.42111000  1.0
  C  C203  1  0.53850000  0.42106000  0.16194000  1.0
  C  C204  1  0.45040000  0.92112000  0.33809000  1.0
  C  C205  1  0.70972000  0.07886000  0.66179000  1.0
  C  C206  1  0.21136000  0.33814000  0.07907000  1.0
  C  C207  1  0.62848000  0.66191000  0.92109000  1.0
  C  C208  1  0.29548000  0.14302000  0.65402000  1.0
  C  C209  1  0.05048000  0.65422000  0.85693000  1.0
  C  C210  1  0.09265000  0.85687000  0.34599000  1.0
  C  C211  1  0.56141000  0.34593000  0.14314000  1.0
  C  C212  1  0.45452000  0.84600000  0.35686000  1.0
  C  C213  1  0.65747000  0.15399000  0.64302000  1.0
  C  C214  1  0.18837000  0.35692000  0.15422000  1.0
  C  C215  1  0.69950000  0.64314000  0.84595000  1.0
  C  C216  1  0.27430000  0.07848000  0.68923000  1.0
  C  C217  1  0.03633000  0.68942000  0.92153000  1.0
  C  C218  1  0.04216000  0.92141000  0.31074000  1.0
  C  C219  1  0.64705000  0.31071000  0.07854000  1.0
  C  C220  1  0.47566000  0.81074000  0.42141000  1.0
  C  C221  1  0.70795000  0.18922000  0.57846000  1.0
  C  C222  1  0.10271000  0.42152000  0.18944000  1.0
  C  C223  1  0.71365000  0.57855000  0.81072000  1.0
  C  C224  1  0.25657000  0.03382000  0.65089000  1.0
  C  C225  1  0.09222000  0.65098000  0.96630000  1.0
  C  C226  1  0.94145000  0.96607000  0.34913000  1.0
  C  C227  1  0.70935000  0.34910000  0.03381000  1.0
  C  C228  1  0.49328000  0.84912000  0.46612000  1.0
  C  C229  1  0.80870000  0.15087000  0.53378000  1.0
  C  C230  1  0.04046000  0.46630000  0.15102000  1.0
  C  C231  1  0.65771000  0.53380000  0.84908000  1.0
  C  C232  1  0.31589000  0.18945000  0.69533000  1.0
  C  C233  1  0.98885000  0.69550000  0.81045000  1.0
  C  C234  1  0.20079000  0.81041000  0.30465000  1.0
  C  C235  1  0.49456000  0.30464000  0.18958000  1.0
  C  C236  1  0.43421000  0.80464000  0.31040000  1.0
  C  C237  1  0.54932000  0.19532000  0.68948000  1.0
  C  C238  1  0.25516000  0.31044000  0.19553000  1.0
  C  C239  1  0.76119000  0.68958000  0.80463000  1.0
  C  C240  1  0.72678000  0.01785000  0.89528000  1.0
  C  C241  1  0.37793000  0.89521000  0.98200000  1.0
  C  C242  1  0.63988000  0.98212000  0.10479000  1.0
  C  C243  1  0.25528000  0.10478000  0.01787000  1.0
  C  C244  1  0.02321000  0.60478000  0.48211000  1.0
  C  C245  1  0.11007000  0.39529000  0.51785000  1.0
  C  C246  1  0.49487000  0.48209000  0.39519000  1.0
  C  C247  1  0.37212000  0.51788000  0.60479000  1.0
  C  C248  1  0.67625000  0.98425000  0.96134000  1.0
  C  C249  1  0.36228000  0.96131000  0.01562000  1.0
  C  C250  1  0.62182000  0.01569000  0.03871000  1.0
  C  C251  1  0.33933000  0.03868000  0.98422000  1.0
  C  C252  1  0.07378000  0.53871000  0.51568000  1.0
  C  C253  1  0.12817000  0.46134000  0.48425000  1.0
  C  C254  1  0.41083000  0.51568000  0.46130000  1.0
  C  C255  1  0.38782000  0.48427000  0.53867000  1.0
  C  C256  1  0.68991000  0.91289000  0.93703000  1.0
  C  C257  1  0.37282000  0.93705000  0.08702000  1.0
  C  C258  1  0.53986000  0.08708000  0.06297000  1.0
  C  C259  1  0.39702000  0.06297000  0.91285000  1.0
  C  C260  1  0.06006000  0.56297000  0.58709000  1.0
  C  C261  1  0.21017000  0.43702000  0.41290000  1.0
  C  C262  1  0.35309000  0.58708000  0.43707000  1.0
  C  C263  1  0.37717000  0.41290000  0.56292000  1.0
  C  C264  1  0.65097000  0.85433000  0.98406000  1.0
  C  C265  1  0.36486000  0.98405000  0.14556000  1.0
  C  C266  1  0.48943000  0.14562000  0.01590000  1.0
  C  C267  1  0.49461000  0.01596000  0.85433000  1.0
  C  C268  1  0.09905000  0.51591000  0.64562000  1.0
  C  C269  1  0.26067000  0.48404000  0.35434000  1.0
  C  C270  1  0.25556000  0.64564000  0.48411000  1.0
  C  C271  1  0.38528000  0.35433000  0.51586000  1.0
  C  C272  1  0.74386000  0.09061000  0.88320000  1.0
  C  C273  1  0.37308000  0.88306000  0.90921000  1.0
  C  C274  1  0.71760000  0.90935000  0.11688000  1.0
  C  C275  1  0.16547000  0.11692000  0.09065000  1.0
  C  C276  1  0.00618000  0.61687000  0.40934000  1.0
  C  C277  1  0.03229000  0.38323000  0.59061000  1.0
  C  C278  1  0.58468000  0.40930000  0.38300000  1.0
  C  C279  1  0.37696000  0.59065000  0.61701000  1.0
  N  N280  1  0.74511000  0.90391000  0.86150000  1.0
  N  N281  1  0.39318000  0.86152000  0.09602000  1.0
  N  N282  1  0.51056000  0.09611000  0.13850000  1.0
  N  N283  1  0.35087000  0.13851000  0.90390000  1.0
  N  N284  1  0.00479000  0.63849000  0.59612000  1.0
  N  N285  1  0.23947000  0.36150000  0.40391000  1.0
  N  N286  1  0.39923000  0.59609000  0.36154000  1.0
  N  N287  1  0.35671000  0.40391000  0.63847000  1.0
  N  N288  1  0.76549000  0.96784000  0.83769000  1.0
  N  N289  1  0.39675000  0.83766000  0.03204000  1.0
  N  N290  1  0.57099000  0.03216000  0.16236000  1.0
  N  N291  1  0.26659000  0.16236000  0.96787000  1.0
  N  N292  1  0.98445000  0.66234000  0.53217000  1.0
  N  N293  1  0.17894000  0.33770000  0.46785000  1.0
  N  N294  1  0.48351000  0.53214000  0.33765000  1.0
  N  N295  1  0.35317000  0.46786000  0.66235000  1.0
  O  O296  1  0.90726000  0.87729000  0.71760000  1.0
  O  O297  1  0.37535000  0.71745000  0.12252000  1.0
  O  O298  1  0.50228000  0.12267000  0.28244000  1.0
  O  O299  1  0.21538000  0.28253000  0.87740000  1.0
  O  O300  1  0.84259000  0.78246000  0.62263000  1.0
  O  O301  1  0.24777000  0.21758000  0.37738000  1.0
  O  O302  1  0.53465000  0.62262000  0.21748000  1.0
  O  O303  1  0.37485000  0.37737000  0.78247000  1.0
  O  O304  1  0.01883000  0.78152000  0.63376000  1.0
  O  O305  1  0.34721000  0.63391000  0.21849000  1.0
  O  O306  1  0.43429000  0.21855000  0.36613000  1.0
  O  O307  1  0.19954000  0.36605000  0.78144000  1.0
  O  O308  1  0.73108000  0.86608000  0.71859000  1.0
  O  O309  1  0.31588000  0.13380000  0.28155000  1.0
  O  O310  1  0.55046000  0.71848000  0.13379000  1.0
  O  O311  1  0.40288000  0.28145000  0.86609000  1.0
  O  O312  1  0.24791000  0.01047000  0.53319000  1.0
  O  O313  1  0.21853000  0.53326000  0.98963000  1.0
  O  O314  1  0.79178000  0.98946000  0.46680000  1.0
  O  O315  1  0.74139000  0.46676000  0.01045000  1.0
  O  O316  1  0.50191000  0.96680000  0.48953000  1.0
  O  O317  1  0.95842000  0.03316000  0.51043000  1.0
  O  O318  1  0.00859000  0.48967000  0.03327000  1.0
  O  O319  1  0.53139000  0.51042000  0.96677000  1.0
  O  O320  1  0.32464000  0.25209000  0.66424000  1.0
  O  O321  1  0.01131000  0.66450000  0.74772000  1.0
  O  O322  1  0.24107000  0.74770000  0.33564000  1.0
  O  O323  1  0.42324000  0.33565000  0.25228000  1.0
  O  O324  1  0.42571000  0.83558000  0.24765000  1.0
  O  O325  1  0.50890000  0.16439000  0.75219000  1.0
  O  O326  1  0.32643000  0.24771000  0.16455000  1.0
  O  O327  1  0.73884000  0.75227000  0.83564000  1.0
  O  O328  1  0.32450000  0.16480000  0.75931000  1.0
  O  O329  1  0.91616000  0.75940000  0.83521000  1.0
  O  O330  1  0.24869000  0.83513000  0.24073000  1.0
  O  O331  1  0.51059000  0.24070000  0.16485000  1.0
  O  O332  1  0.42546000  0.74074000  0.33519000  1.0
  O  O333  1  0.50153000  0.25925000  0.66468000  1.0
  O  O334  1  0.23914000  0.33522000  0.25944000  1.0
  O  O335  1  0.83379000  0.66484000  0.74068000  1.0
