# generated using pymatgen
data_ZnH9C16NO8
_symmetry_space_group_name_H-M   'P 1'
_cell_length_a   4.66561000
_cell_length_b   16.15590000
_cell_length_c   20.75320000
_cell_angle_alpha   84.27600000
_cell_angle_beta   83.52420000
_cell_angle_gamma   81.69600000
_symmetry_Int_Tables_number   1
_chemical_formula_structural   ZnH9C16NO8
_chemical_formula_sum   'Zn4 H36 C64 N4 O32'
_cell_volume   1532.48987471
_cell_formula_units_Z   4
loop_
 _symmetry_equiv_pos_site_id
 _symmetry_equiv_pos_as_xyz
  1  'x, y, z'
loop_
 _atom_site_type_symbol
 _atom_site_label
 _atom_site_symmetry_multiplicity
 _atom_site_fract_x
 _atom_site_fract_y
 _atom_site_fract_z
 _atom_site_occupancy
  Zn  Zn0  1  0.60704000  0.11661000  0.53730000  1.0
  Zn  Zn1  1  0.26103000  0.38338000  0.96271000  1.0
  Zn  Zn2  1  0.39297000  0.88339000  0.46270000  1.0
  Zn  Zn3  1  0.73897000  0.61662000  0.03729000  1.0
  H  H4  1  0.80351000  0.75767000  0.85424000  1.0
  H  H5  1  0.41555000  0.74237000  0.64576000  1.0
  H  H6  1  0.19649000  0.24233000  0.14576000  1.0
  H  H7  1  0.58445000  0.25763000  0.35425000  1.0
  H  H8  1  0.93465000  0.21421000  0.80054000  1.0
  H  H9  1  0.94930000  0.28582000  0.69946000  1.0
  H  H10  1  0.06535000  0.78579000  0.19946000  1.0
  H  H11  1  0.05070000  0.71418000  0.30054000  1.0
  H  H12  1  0.61804000  0.82467000  0.70485000  1.0
  H  H13  1  0.14780000  0.67539000  0.79513000  1.0
  H  H14  1  0.38196000  0.17533000  0.29515000  1.0
  H  H15  1  0.85220000  0.32461000  0.20487000  1.0
  H  H16  1  0.32318000  0.02786000  0.82419000  1.0
  H  H17  1  0.17517000  0.47220000  0.67581000  1.0
  H  H18  1  0.67682000  0.97214000  0.17581000  1.0
  H  H19  1  0.82483000  0.52780000  0.32419000  1.0
  H  H20  1  0.01059000  0.21214000  0.45742000  1.0
  H  H21  1  0.67993000  0.28782000  0.04258000  1.0
  H  H22  1  0.98941000  0.78786000  0.54258000  1.0
  H  H23  1  0.32007000  0.71218000  0.95742000  1.0
  H  H24  1  0.15122000  0.35405000  0.44563000  1.0
  H  H25  1  0.95076000  0.14593000  0.05435000  1.0
  H  H26  1  0.84878000  0.64595000  0.55438000  1.0
  H  H27  1  0.04924000  0.85407000  0.94565000  1.0
  H  H28  1  0.48770000  0.41754000  0.60284000  1.0
  H  H29  1  0.50823000  0.08243000  0.89716000  1.0
  H  H30  1  0.51230000  0.58246000  0.39716000  1.0
  H  H31  1  0.49177000  0.91757000  0.10284000  1.0
  H  H32  1  0.36949000  0.27009000  0.60802000  1.0
  H  H33  1  0.24765000  0.22989000  0.89200000  1.0
  H  H34  1  0.63050000  0.72991000  0.39198000  1.0
  H  H35  1  0.75235000  0.77011000  0.10800000  1.0
  H  H36  1  0.76136000  0.52390000  0.55568000  1.0
  H  H37  1  0.84100000  0.97608000  0.94434000  1.0
  H  H38  1  0.23864000  0.47610000  0.44432000  1.0
  H  H39  1  0.15899000  0.02392000  0.05566000  1.0
  C  C40  1  0.49879000  0.88679000  0.71104000  1.0
  C  C41  1  0.09702000  0.61324000  0.78895000  1.0
  C  C42  1  0.50121000  0.11321000  0.28896000  1.0
  C  C43  1  0.90298000  0.38676000  0.21105000  1.0
  C  C44  1  0.36568000  0.93135000  0.65875000  1.0
  C  C45  1  0.95623000  0.56867000  0.84126000  1.0
  C  C46  1  0.63431000  0.06865000  0.34125000  1.0
  C  C47  1  0.04377000  0.43133000  0.15874000  1.0
  C  C48  1  0.21902000  0.01313000  0.66532000  1.0
  C  C49  1  0.89778000  0.48690000  0.83471000  1.0
  C  C50  1  0.78098000  0.98687000  0.33468000  1.0
  C  C51  1  0.10222000  0.51310000  0.16529000  1.0
  C  C52  1  0.20276000  0.04778000  0.72584000  1.0
  C  C53  1  0.97652000  0.45224000  0.77418000  1.0
  C  C54  1  0.79724000  0.95222000  0.27416000  1.0
  C  C55  1  0.02348000  0.54776000  0.22582000  1.0
  C  C56  1  0.33660000  0.00127000  0.77767000  1.0
  C  C57  1  0.11564000  0.49877000  0.72234000  1.0
  C  C58  1  0.66340000  0.99873000  0.22233000  1.0
  C  C59  1  0.88436000  0.50123000  0.27767000  1.0
  C  C60  1  0.48696000  0.92117000  0.77048000  1.0
  C  C61  1  0.17896000  0.57884000  0.72952000  1.0
  C  C62  1  0.51305000  0.07883000  0.22952000  1.0
  C  C63  1  0.82104000  0.42116000  0.27048000  1.0
  C  C64  1  0.63541000  0.87358000  0.82572000  1.0
  C  C65  1  0.33507000  0.62642000  0.67427000  1.0
  C  C66  1  0.36459000  0.12642000  0.17428000  1.0
  C  C67  1  0.66493000  0.37358000  0.32573000  1.0
  C  C68  1  0.39983000  0.88964000  0.59618000  1.0
  C  C69  1  0.88585000  0.61041000  0.90382000  1.0
  C  C70  1  0.60017000  0.11036000  0.40382000  1.0
  C  C71  1  0.11415000  0.38959000  0.09618000  1.0
  C  C72  1  0.06891000  0.06107000  0.60954000  1.0
  C  C73  1  0.73970000  0.43900000  0.89052000  1.0
  C  C74  1  0.93109000  0.93893000  0.39046000  1.0
  C  C75  1  0.26030000  0.56100000  0.10948000  1.0
  C  C76  1  0.05662000  0.13442000  0.73574000  1.0
  C  C77  1  0.92711000  0.36558000  0.76427000  1.0
  C  C78  1  0.94338000  0.86558000  0.26426000  1.0
  C  C79  1  0.07289000  0.63442000  0.23573000  1.0
  C  C80  1  0.89646000  0.25957000  0.48828000  1.0
  C  C81  1  0.64414000  0.24040000  0.01172000  1.0
  C  C82  1  0.10354000  0.74043000  0.51172000  1.0
  C  C83  1  0.35586000  0.75960000  0.98828000  1.0
  C  C84  1  0.97509000  0.33933000  0.48221000  1.0
  C  C85  1  0.79651000  0.16064000  0.01778000  1.0
  C  C86  1  0.02491000  0.66067000  0.51779000  1.0
  C  C87  1  0.20348000  0.83936000  0.98222000  1.0
  C  C88  1  0.82775000  0.39912000  0.52355000  1.0
  C  C89  1  0.75038000  0.10086000  0.97644000  1.0
  C  C90  1  0.17225000  0.60088000  0.47645000  1.0
  C  C91  1  0.24962000  0.89914000  0.02356000  1.0
  C  C92  1  0.60616000  0.37341000  0.56972000  1.0
  C  C93  1  0.54934000  0.12656000  0.93028000  1.0
  C  C94  1  0.39384000  0.62659000  0.43028000  1.0
  C  C95  1  0.45066000  0.87343000  0.06972000  1.0
  C  C96  1  0.53973000  0.29206000  0.57286000  1.0
  C  C97  1  0.40466000  0.20791000  0.92714000  1.0
  C  C98  1  0.46027000  0.70794000  0.42714000  1.0
  C  C99  1  0.59534000  0.79209000  0.07286000  1.0
  C  C100  1  0.89473000  0.48444000  0.52085000  1.0
  C  C101  1  0.90002000  0.01555000  0.97916000  1.0
  C  C102  1  0.10527000  0.51556000  0.47915000  1.0
  C  C103  1  0.09998000  0.98445000  0.02084000  1.0
  N  N104  1  0.68235000  0.23595000  0.53267000  1.0
  N  N105  1  0.45088000  0.26401000  0.96734000  1.0
  N  N106  1  0.31766000  0.76405000  0.46733000  1.0
  N  N107  1  0.54912000  0.73599000  0.03266000  1.0
  O  O108  1  0.70666000  0.79246000  0.81666000  1.0
  O  O109  1  0.31611000  0.70753000  0.68334000  1.0
  O  O110  1  0.29334000  0.20754000  0.18334000  1.0
  O  O111  1  0.68390000  0.29247000  0.31666000  1.0
  O  O112  1  0.68373000  0.90698000  0.87351000  1.0
  O  O113  1  0.46455000  0.59302000  0.62646000  1.0
  O  O114  1  0.31627000  0.09302000  0.12649000  1.0
  O  O115  1  0.53545000  0.40698000  0.37354000  1.0
  O  O116  1  0.51667000  0.81416000  0.59483000  1.0
  O  O117  1  0.92561000  0.68592000  0.90516000  1.0
  O  O118  1  0.48333000  0.18584000  0.40517000  1.0
  O  O119  1  0.07439000  0.31408000  0.09484000  1.0
  O  O120  1  0.31087000  0.93506000  0.54597000  1.0
  O  O121  1  0.79194000  0.56500000  0.95402000  1.0
  O  O122  1  0.68913000  0.06494000  0.45403000  1.0
  O  O123  1  0.20806000  0.43500000  0.04598000  1.0
  O  O124  1  0.19449000  0.10945000  0.56726000  1.0
  O  O125  1  0.87116000  0.39067000  0.93284000  1.0
  O  O126  1  0.80551000  0.89055000  0.43274000  1.0
  O  O127  1  0.12884000  0.60933000  0.06716000  1.0
  O  O128  1  0.80433000  0.05038000  0.60958000  1.0
  O  O129  1  0.46449000  0.44967000  0.89044000  1.0
  O  O130  1  0.19567000  0.94962000  0.39042000  1.0
  O  O131  1  0.53551000  0.55033000  0.10956000  1.0
  O  O132  1  0.98116000  0.18648000  0.69027000  1.0
  O  O133  1  0.85877000  0.31348000  0.80976000  1.0
  O  O134  1  0.01884000  0.81352000  0.30972000  1.0
  O  O135  1  0.14123000  0.68652000  0.19024000  1.0
  O  O136  1  0.01883000  0.15251000  0.79757000  1.0
  O  O137  1  0.96892000  0.34751000  0.70243000  1.0
  O  O138  1  0.98117000  0.84749000  0.20243000  1.0
  O  O139  1  0.03108000  0.65249000  0.29757000  1.0
