# generated using pymatgen
data_NiH12(C4O3)2
_symmetry_space_group_name_H-M   'P 1'
_cell_length_a   7.01035000
_cell_length_b   8.28362000
_cell_length_c   10.47940000
_cell_angle_alpha   109.61200000
_cell_angle_beta   109.50800000
_cell_angle_gamma   90.01730000
_symmetry_Int_Tables_number   1
_chemical_formula_structural   NiH12(C4O3)2
_chemical_formula_sum   'Ni2 H24 C16 O12'
_cell_volume   535.99307935
_cell_formula_units_Z   2
loop_
 _symmetry_equiv_pos_site_id
 _symmetry_equiv_pos_as_xyz
  1  'x, y, z'
loop_
 _atom_site_type_symbol
 _atom_site_label
 _atom_site_symmetry_multiplicity
 _atom_site_fract_x
 _atom_site_fract_y
 _atom_site_fract_z
 _atom_site_occupancy
  Ni  Ni0  1  0.50000000  0.00000000  0.50000000  1.0
  Ni  Ni1  1  0.00000000  0.50000000  0.50000000  1.0
  H  H2  1  0.26612000  0.98903000  0.20177000  1.0
  H  H3  1  0.06416000  0.51100000  0.79802000  1.0
  H  H4  1  0.73388000  0.01097000  0.79823000  1.0
  H  H5  1  0.93583000  0.48901000  0.20199000  1.0
  H  H6  1  0.88059000  0.14289000  0.06834000  1.0
  H  H7  1  0.81192000  0.35732000  0.93180000  1.0
  H  H8  1  0.11941000  0.85711000  0.93165000  1.0
  H  H9  1  0.18807000  0.64267000  0.06820000  1.0
  H  H10  1  0.70446000  0.15031000  0.41705000  1.0
  H  H11  1  0.28732000  0.34966000  0.58278000  1.0
  H  H12  1  0.29554000  0.84969000  0.58294000  1.0
  H  H13  1  0.71269000  0.65033000  0.41722000  1.0
  H  H14  1  0.87215000  0.90935000  0.35488000  1.0
  H  H15  1  0.51703000  0.59051000  0.64482000  1.0
  H  H16  1  0.12785000  0.09065000  0.64512000  1.0
  H  H17  1  0.48298000  0.40949000  0.35518000  1.0
  H  H18  1  0.73799000  0.94884000  0.19168000  1.0
  H  H19  1  0.54607000  0.55119000  0.80810000  1.0
  H  H20  1  0.26201000  0.05117000  0.80832000  1.0
  H  H21  1  0.45394000  0.44882000  0.19190000  1.0
  H  H22  1  0.63166000  0.78624000  0.23532000  1.0
  H  H23  1  0.39627000  0.71376000  0.76448000  1.0
  H  H24  1  0.36834000  0.21376000  0.76468000  1.0
  H  H25  1  0.60372000  0.28624000  0.23552000  1.0
  C  C26  1  0.14662000  0.19226000  0.33714000  1.0
  C  C27  1  0.80899000  0.30786000  0.66280000  1.0
  C  C28  1  0.85339000  0.80774000  0.66286000  1.0
  C  C29  1  0.19101000  0.69214000  0.33720000  1.0
  C  C30  1  0.14420000  0.07065000  0.19650000  1.0
  C  C31  1  0.94739000  0.42940000  0.80338000  1.0
  C  C32  1  0.85579000  0.92933000  0.80350000  1.0
  C  C33  1  0.05260000  0.57060000  0.19663000  1.0
  C  C34  1  0.00123000  0.05920000  0.06852000  1.0
  C  C35  1  0.93253000  0.44087000  0.93148000  1.0
  C  C36  1  0.99877000  0.94080000  0.93148000  1.0
  C  C37  1  0.06747000  0.55912000  0.06853000  1.0
  C  C38  1  0.72058000  0.91402000  0.28006000  1.0
  C  C39  1  0.44030000  0.58592000  0.71973000  1.0
  C  C40  1  0.27942000  0.08598000  0.71994000  1.0
  C  C41  1  0.55970000  0.41408000  0.28027000  1.0
  O  O42  1  0.28107000  0.18651000  0.45354000  1.0
  O  O43  1  0.82672000  0.31386000  0.54632000  1.0
  O  O44  1  0.71893000  0.81349000  0.54646000  1.0
  O  O45  1  0.17329000  0.68614000  0.45368000  1.0
  O  O46  1  0.01553000  0.29991000  0.33665000  1.0
  O  O47  1  0.67873000  0.19995000  0.66342000  1.0
  O  O48  1  0.98447000  0.70009000  0.66335000  1.0
  O  O49  1  0.32126000  0.80005000  0.33658000  1.0
  O  O50  1  0.61184000  0.03672000  0.35228000  1.0
  O  O51  1  0.25941000  0.46317000  0.64770000  1.0
  O  O52  1  0.38817000  0.96329000  0.64772000  1.0
  O  O53  1  0.74060000  0.53683000  0.35230000  1.0
