# generated using pymatgen
data_CdH22C28(NO)4
_symmetry_space_group_name_H-M   'P 1'
_cell_length_a   11.01530000
_cell_length_b   13.85199971
_cell_length_c   19.48519757
_cell_angle_alpha   72.71852338
_cell_angle_beta   73.66064615
_cell_angle_gamma   66.59232124
_symmetry_Int_Tables_number   1
_chemical_formula_structural   CdH22C28(NO)4
_chemical_formula_sum   'Cd4 H88 C112 N16 O16'
_cell_volume   2559.62851028
_cell_formula_units_Z   4
loop_
 _symmetry_equiv_pos_site_id
 _symmetry_equiv_pos_as_xyz
  1  'x, y, z'
loop_
 _atom_site_type_symbol
 _atom_site_label
 _atom_site_symmetry_multiplicity
 _atom_site_fract_x
 _atom_site_fract_y
 _atom_site_fract_z
 _atom_site_occupancy
  Cd  Cd0  1  0.54077000  0.59031000  0.87599000  1.0
  Cd  Cd1  1  0.00712000  0.90963000  0.62404000  1.0
  Cd  Cd2  1  0.45923000  0.40969000  0.12400000  1.0
  Cd  Cd3  1  0.99293000  0.09035000  0.37596000  1.0
  H  H4  1  0.38578000  0.86350000  0.84453000  1.0
  H  H5  1  0.09374000  0.63651000  0.65552000  1.0
  H  H6  1  0.61421000  0.13651000  0.15546000  1.0
  H  H7  1  0.90628000  0.36349000  0.34447000  1.0
  H  H8  1  0.38447000  0.25898000  0.08708000  1.0
  H  H9  1  0.73115000  0.24150000  0.41258000  1.0
  H  H10  1  0.61550000  0.74103000  0.91292000  1.0
  H  H11  1  0.26890000  0.75847000  0.58743000  1.0
  H  H12  1  0.40065000  0.07345000  0.10631000  1.0
  H  H13  1  0.58061000  0.42688000  0.39352000  1.0
  H  H14  1  0.59931000  0.92656000  0.89369000  1.0
  H  H15  1  0.41944000  0.57309000  0.60649000  1.0
  H  H16  1  0.59428000  0.07173000  0.87990000  1.0
  H  H17  1  0.54556000  0.42785000  0.62026000  1.0
  H  H18  1  0.40573000  0.92825000  0.12012000  1.0
  H  H19  1  0.45445000  0.57210000  0.37976000  1.0
  H  H20  1  0.74105000  0.33333000  0.89083000  1.0
  H  H21  1  0.96543000  0.16650000  0.60934000  1.0
  H  H22  1  0.25893000  0.66668000  0.10916000  1.0
  H  H23  1  0.03458000  0.83350000  0.39066000  1.0
  H  H24  1  0.27590000  0.02512000  0.92649000  1.0
  H  H25  1  0.22716000  0.47500000  0.57377000  1.0
  H  H26  1  0.72409000  0.97488000  0.07351000  1.0
  H  H27  1  0.77284000  0.52500000  0.42623000  1.0
  H  H28  1  0.86149000  0.19492000  0.82173000  1.0
  H  H29  1  0.87854000  0.30473000  0.67837000  1.0
  H  H30  1  0.13850000  0.80509000  0.17827000  1.0
  H  H31  1  0.12146000  0.69528000  0.32162000  1.0
  H  H32  1  0.22005000  0.63306000  0.98675000  1.0
  H  H33  1  0.83946000  0.86671000  0.51316000  1.0
  H  H34  1  0.77996000  0.36693000  0.01324000  1.0
  H  H35  1  0.16055000  0.13329000  0.48686000  1.0
  H  H36  1  0.57226000  0.26148000  0.86151000  1.0
  H  H37  1  0.69550000  0.23829000  0.63844000  1.0
  H  H38  1  0.42775000  0.73851000  0.13850000  1.0
  H  H39  1  0.30451000  0.76165000  0.36158000  1.0
  H  H40  1  0.09705000  0.40562000  0.78402000  1.0
  H  H41  1  0.28697000  0.09433000  0.71639000  1.0
  H  H42  1  0.90295000  0.59439000  0.21597000  1.0
  H  H43  1  0.71304000  0.90568000  0.28361000  1.0
  H  H44  1  0.00952000  0.90403000  0.83495000  1.0
  H  H45  1  0.74853000  0.59581000  0.66484000  1.0
  H  H46  1  0.99047000  0.09598000  0.16504000  1.0
  H  H47  1  0.25147000  0.40419000  0.33516000  1.0
  H  H48  1  0.87805000  0.02302000  0.80757000  1.0
  H  H49  1  0.70872000  0.47683000  0.69210000  1.0
  H  H50  1  0.12193000  0.97700000  0.19242000  1.0
  H  H51  1  0.29128000  0.52317000  0.30790000  1.0
  H  H52  1  0.86767000  0.95491000  0.90071000  1.0
  H  H53  1  0.72385000  0.54469000  0.59891000  1.0
  H  H54  1  0.13232000  0.04511000  0.09928000  1.0
  H  H55  1  0.27615000  0.45532000  0.40108000  1.0
  H  H56  1  0.87570000  0.59507000  0.78555000  1.0
  H  H57  1  0.25669000  0.90479000  0.71473000  1.0
  H  H58  1  0.12430000  0.40494000  0.21444000  1.0
  H  H59  1  0.74334000  0.09521000  0.28527000  1.0
  H  H60  1  0.45447000  0.73011000  0.63833000  1.0
  H  H61  1  0.82231000  0.76981000  0.86163000  1.0
  H  H62  1  0.54553000  0.26990000  0.36167000  1.0
  H  H63  1  0.17767000  0.23019000  0.13838000  1.0
  H  H64  1  0.63654000  0.91589000  0.68911000  1.0
  H  H65  1  0.24060000  0.58419000  0.81092000  1.0
  H  H66  1  0.36341000  0.08415000  0.31090000  1.0
  H  H67  1  0.75938000  0.41582000  0.18908000  1.0
  H  H68  1  0.25837000  0.27493000  0.85428000  1.0
  H  H69  1  0.38772000  0.22509000  0.64597000  1.0
  H  H70  1  0.74161000  0.72508000  0.14572000  1.0
  H  H71  1  0.61226000  0.77493000  0.35403000  1.0
  H  H72  1  0.25693000  0.19455000  0.94364000  1.0
  H  H73  1  0.39472000  0.30573000  0.55668000  1.0
  H  H74  1  0.74306000  0.80546000  0.05636000  1.0
  H  H75  1  0.60528000  0.69428000  0.44332000  1.0
  H  H76  1  0.11670000  0.31243000  0.92360000  1.0
  H  H77  1  0.35245000  0.18780000  0.57658000  1.0
  H  H78  1  0.88329000  0.68757000  0.07640000  1.0
  H  H79  1  0.64755000  0.81221000  0.42342000  1.0
  H  H80  1  0.42218000  0.85679000  0.52010000  1.0
  H  H81  1  0.79900000  0.64316000  0.97993000  1.0
  H  H82  1  0.57781000  0.14322000  0.47990000  1.0
  H  H83  1  0.20099000  0.35683000  0.02007000  1.0
  H  H84  1  0.02446000  0.83807000  0.98733000  1.0
  H  H85  1  0.84962000  0.66157000  0.51261000  1.0
  H  H86  1  0.97553000  0.16193000  0.01267000  1.0
  H  H87  1  0.15037000  0.33845000  0.48739000  1.0
  H  H88  1  0.60498000  0.04395000  0.57174000  1.0
  H  H89  1  0.22015000  0.45604000  0.92829000  1.0
  H  H90  1  0.39496000  0.95608000  0.42827000  1.0
  H  H91  1  0.77984000  0.54395000  0.07172000  1.0
  C  C92  1  0.45774000  0.39124000  0.95924000  1.0
  C  C93  1  0.80890000  0.10899000  0.54053000  1.0
  C  C94  1  0.54225000  0.60876000  0.04076000  1.0
  C  C95  1  0.19113000  0.89098000  0.45947000  1.0
  C  C96  1  0.51053000  0.96166000  0.53539000  1.0
  C  C97  1  0.00735000  0.53832000  0.96460000  1.0
  C  C98  1  0.48947000  0.03835000  0.46460000  1.0
  C  C99  1  0.99264000  0.46167000  0.03541000  1.0
  C  C100  1  0.49674000  0.05616000  0.99443000  1.0
  C  C101  1  0.54741000  0.44385000  0.50554000  1.0
  C  C102  1  0.50324000  0.94384000  0.00558000  1.0
  C  C103  1  0.45264000  0.55612000  0.49447000  1.0
  C  C104  1  0.01254000  0.22193000  0.85582000  1.0
  C  C105  1  0.09047000  0.27795000  0.64448000  1.0
  C  C106  1  0.98745000  0.77808000  0.14417000  1.0
  C  C107  1  0.90953000  0.72206000  0.35552000  1.0
  C  C108  1  0.47545000  0.27414000  0.97230000  1.0
  C  C109  1  0.72265000  0.22605000  0.52745000  1.0
  C  C110  1  0.52454000  0.72587000  0.02770000  1.0
  C  C111  1  0.27740000  0.77392000  0.47255000  1.0
  C  C112  1  0.31514000  0.82776000  0.88346000  1.0
  C  C113  1  0.02623000  0.67221000  0.61655000  1.0
  C  C114  1  0.68485000  0.17225000  0.11653000  1.0
  C  C115  1  0.97380000  0.32778000  0.38345000  1.0
  C  C116  1  0.42920000  0.21881000  0.04111000  1.0
  C  C117  1  0.68967000  0.28151000  0.45864000  1.0
  C  C118  1  0.57078000  0.78119000  0.95890000  1.0
  C  C119  1  0.31037000  0.71847000  0.54136000  1.0
  C  C120  1  0.55720000  0.73853000  0.74409000  1.0
  C  C121  1  0.03880000  0.76158000  0.75598000  1.0
  C  C122  1  0.44279000  0.26148000  0.25591000  1.0
  C  C123  1  0.96118000  0.23842000  0.24403000  1.0
  C  C124  1  0.43932000  0.11233000  0.05185000  1.0
  C  C125  1  0.60382000  0.38789000  0.44800000  1.0
  C  C126  1  0.56065000  0.88767000  0.94816000  1.0
  C  C127  1  0.39623000  0.61208000  0.55201000  1.0
  C  C128  1  0.00428000  0.04463000  0.86415000  1.0
  C  C129  1  0.91317000  0.45515000  0.63599000  1.0
  C  C130  1  0.99571000  0.95538000  0.13584000  1.0
  C  C131  1  0.08684000  0.54485000  0.36400000  1.0
  C  C132  1  0.12361000  0.99925000  0.89273000  1.0
  C  C133  1  0.01551000  0.50064000  0.60745000  1.0
  C  C134  1  0.87639000  0.00075000  0.10726000  1.0
  C  C135  1  0.98449000  0.49937000  0.39254000  1.0
  C  C136  1  0.54713000  0.11169000  0.92594000  1.0
  C  C137  1  0.58473000  0.38811000  0.57410000  1.0
  C  C138  1  0.45285000  0.88831000  0.07407000  1.0
  C  C139  1  0.41530000  0.61185000  0.42592000  1.0
  C  C140  1  0.80583000  0.37993000  0.86114000  1.0
  C  C141  1  0.04729000  0.11988000  0.63899000  1.0
  C  C142  1  0.19417000  0.62007000  0.13885000  1.0
  C  C143  1  0.95272000  0.88012000  0.36101000  1.0
  C  C144  1  0.54683000  0.81471000  0.67129000  1.0
  C  C145  1  0.03201000  0.68525000  0.82869000  1.0
  C  C146  1  0.45316000  0.18531000  0.32870000  1.0
  C  C147  1  0.96798000  0.31474000  0.17132000  1.0
  C  C148  1  0.18537000  0.06386000  0.90236000  1.0
  C  C149  1  0.15145000  0.43614000  0.59794000  1.0
  C  C150  1  0.81463000  0.93614000  0.09763000  1.0
  C  C151  1  0.84856000  0.56385000  0.40206000  1.0
  C  C152  1  0.13142000  0.17654000  0.88493000  1.0
  C  C153  1  0.19287000  0.32348000  0.61541000  1.0
  C  C154  1  0.86858000  0.82346000  0.11507000  1.0
  C  C155  1  0.80714000  0.67653000  0.38458000  1.0
  C  C156  1  0.95210000  0.15676000  0.84565000  1.0
  C  C157  1  0.95475000  0.34301000  0.65456000  1.0
  C  C158  1  0.04790000  0.84325000  0.15434000  1.0
  C  C159  1  0.04525000  0.65700000  0.34543000  1.0
  C  C160  1  0.22438000  0.71198000  0.95776000  1.0
  C  C161  1  0.89380000  0.78785000  0.54218000  1.0
  C  C162  1  0.77561000  0.28804000  0.04222000  1.0
  C  C163  1  0.10622000  0.21216000  0.45782000  1.0
  C  C164  1  0.53613000  0.21844000  0.91510000  1.0
  C  C165  1  0.66995000  0.28148000  0.58482000  1.0
  C  C166  1  0.46386000  0.78156000  0.08491000  1.0
  C  C167  1  0.33009000  0.71848000  0.41519000  1.0
  C  C168  1  0.99143000  0.41930000  0.80659000  1.0
  C  C169  1  0.21754000  0.08060000  0.69381000  1.0
  C  C170  1  0.00857000  0.58071000  0.19340000  1.0
  C  C171  1  0.78247000  0.91941000  0.30619000  1.0
  C  C172  1  0.93672000  0.97835000  0.85118000  1.0
  C  C173  1  0.76646000  0.52141000  0.64862000  1.0
  C  C174  1  0.06327000  0.02167000  0.14881000  1.0
  C  C175  1  0.23354000  0.47860000  0.35137000  1.0
  C  C176  1  0.88115000  0.51205000  0.80695000  1.0
  C  C177  1  0.20044000  0.98781000  0.69335000  1.0
  C  C178  1  0.11886000  0.48795000  0.19304000  1.0
  C  C179  1  0.79957000  0.01219000  0.30665000  1.0
  C  C180  1  0.48858000  0.79882000  0.62212000  1.0
  C  C181  1  0.90891000  0.70109000  0.87786000  1.0
  C  C182  1  0.51143000  0.20118000  0.37788000  1.0
  C  C183  1  0.09107000  0.29890000  0.12215000  1.0
  C  C184  1  0.58859000  0.90406000  0.65179000  1.0
  C  C185  1  0.14366000  0.59594000  0.84821000  1.0
  C  C186  1  0.41139000  0.09597000  0.34821000  1.0
  C  C187  1  0.85632000  0.40406000  0.15180000  1.0
  C  C188  1  0.19379000  0.24302000  0.90247000  1.0
  C  C189  1  0.33914000  0.25713000  0.59781000  1.0
  C  C190  1  0.80619000  0.75699000  0.09753000  1.0
  C  C191  1  0.66086000  0.74288000  0.40219000  1.0
  C  C192  1  0.47073000  0.87074000  0.55581000  1.0
  C  C193  1  0.89699000  0.62920000  0.94418000  1.0
  C  C194  1  0.52928000  0.12927000  0.44418000  1.0
  C  C195  1  0.10300000  0.37079000  0.05583000  1.0
  C  C196  1  0.12721000  0.81183000  0.95819000  1.0
  C  C197  1  0.89688000  0.68793000  0.54181000  1.0
  C  C198  1  0.87281000  0.18816000  0.04180000  1.0
  C  C199  1  0.10312000  0.31208000  0.45819000  1.0
  C  C200  1  0.57038000  0.97603000  0.58513000  1.0
  C  C201  1  0.13104000  0.52395000  0.91486000  1.0
  C  C202  1  0.42960000  0.02399000  0.41487000  1.0
  C  C203  1  0.86895000  0.47604000  0.08515000  1.0
  N  N204  1  0.76682000  0.48603000  0.84145000  1.0
  N  N205  1  0.09465000  0.01380000  0.65871000  1.0
  N  N206  1  0.23318000  0.51397000  0.15854000  1.0
  N  N207  1  0.90536000  0.98621000  0.34129000  1.0
  N  N208  1  0.18600000  0.88509000  0.91088000  1.0
  N  N209  1  0.98175000  0.61478000  0.58917000  1.0
  N  N210  1  0.81399000  0.11491000  0.08911000  1.0
  N  N211  1  0.01825000  0.38522000  0.41083000  1.0
  N  N212  1  0.34034000  0.72331000  0.91096000  1.0
  N  N213  1  0.97440000  0.77663000  0.58900000  1.0
  N  N214  1  0.65966000  0.27669000  0.08903000  1.0
  N  N215  1  0.02563000  0.22336000  0.41100000  1.0
  N  N216  1  0.94257000  0.33500000  0.84136000  1.0
  N  N217  1  0.11922000  0.16486000  0.65890000  1.0
  N  N218  1  0.05743000  0.66501000  0.15863000  1.0
  N  N219  1  0.88079000  0.83514000  0.34110000  1.0
  O  O220  1  0.39894000  0.44089000  0.01123000  1.0
  O  O221  1  0.85124000  0.05919000  0.48861000  1.0
  O  O222  1  0.60104000  0.55911000  0.98877000  1.0
  O  O223  1  0.14880000  0.94078000  0.51139000  1.0
  O  O224  1  0.50105000  0.43447000  0.89400000  1.0
  O  O225  1  0.83033000  0.06577000  0.60578000  1.0
  O  O226  1  0.49896000  0.56553000  0.10600000  1.0
  O  O227  1  0.16969000  0.93419000  0.39422000  1.0
  O  O228  1  0.60138000  0.75612000  0.79130000  1.0
  O  O229  1  0.14777000  0.74415000  0.70890000  1.0
  O  O230  1  0.39859000  0.24390000  0.20870000  1.0
  O  O231  1  0.85222000  0.25584000  0.29111000  1.0
  O  O232  1  0.51654000  0.65922000  0.75566000  1.0
  O  O233  1  0.93048000  0.84087000  0.74431000  1.0
  O  O234  1  0.48346000  0.34079000  0.24433000  1.0
  O  O235  1  0.06950000  0.15913000  0.25569000  1.0
