# generated using pymatgen
data_AlH5C11Cl2O5
_symmetry_space_group_name_H-M   'P 1'
_cell_length_a   6.87068000
_cell_length_b   10.90640000
_cell_length_c   11.02621212
_cell_angle_alpha   94.52716973
_cell_angle_beta   106.50242349
_cell_angle_gamma   105.17210000
_symmetry_Int_Tables_number   1
_chemical_formula_structural   AlH5C11Cl2O5
_chemical_formula_sum   'Al2 H10 C22 Cl4 O10'
_cell_volume   754.03347116
_cell_formula_units_Z   2
loop_
 _symmetry_equiv_pos_site_id
 _symmetry_equiv_pos_as_xyz
  1  'x, y, z'
loop_
 _atom_site_type_symbol
 _atom_site_label
 _atom_site_symmetry_multiplicity
 _atom_site_fract_x
 _atom_site_fract_y
 _atom_site_fract_z
 _atom_site_occupancy
  Al  Al0  1  0.99913000  0.49349000  0.49762000  1.0
  Al  Al1  1  0.49909000  0.49398000  0.49646000  1.0
  H  H2  1  0.64077000  0.40804000  0.33839000  1.0
  H  H3  1  0.37064000  0.61346000  0.63960000  1.0
  H  H4  1  0.37326000  0.09028000  0.51292000  1.0
  H  H5  1  0.23673000  0.85700000  0.52665000  1.0
  H  H6  1  0.54550000  0.93487000  0.58704000  1.0
  H  H7  1  0.45011000  0.89473000  0.41570000  1.0
  H  H8  1  0.58851000  0.13116000  0.40117000  1.0
  H  H9  1  0.68238000  0.16911000  0.57122000  1.0
  H  H10  1  0.46488000  0.67459000  0.24686000  1.0
  H  H11  1  0.19216000  0.66713000  0.77671000  1.0
  C  C12  1  0.14142000  0.50410000  0.27391000  1.0
  C  C13  1  0.15497000  0.26779000  0.48395000  1.0
  C  C14  1  0.85282000  0.48355000  0.71937000  1.0
  C  C15  1  0.84932000  0.72242000  0.51780000  1.0
  C  C16  1  0.92425000  0.86173000  0.51371000  1.0
  C  C17  1  0.08049000  0.13002000  0.49478000  1.0
  C  C18  1  0.79819000  0.94350000  0.50199000  1.0
  C  C19  1  0.21054000  0.04852000  0.50911000  1.0
  C  C20  1  0.87411000  0.07308000  0.49294000  1.0
  C  C21  1  0.13505000  0.91902000  0.51783000  1.0
  C  C22  1  0.58306000  0.95298000  0.49858000  1.0
  C  C23  1  0.66958000  0.10023000  0.48894000  1.0
  C  C24  1  0.07024000  0.49984000  0.13118000  1.0
  C  C25  1  0.20022000  0.58349000  0.07247000  1.0
  C  C26  1  0.87717000  0.41323000  0.05652000  1.0
  C  C27  1  0.40216000  0.67056000  0.14373000  1.0
  C  C28  1  0.52622000  0.74848000  0.08406000  1.0
  C  C29  1  0.92493000  0.49001000  0.86233000  1.0
  C  C30  1  0.80451000  0.40739000  0.92097000  1.0
  C  C31  1  0.12433000  0.57957000  0.93653000  1.0
  C  C32  1  0.25053000  0.66509000  0.87885000  1.0
  C  C33  1  0.44845000  0.74606000  0.94947000  1.0
  Cl  Cl34  1  0.57216000  0.29293000  0.83034000  1.0
  Cl  Cl35  1  0.72639000  0.30400000  0.12398000  1.0
  Cl  Cl36  1  0.77445000  0.84799000  0.17294000  1.0
  Cl  Cl37  1  0.59966000  0.84227000  0.87224000  1.0
  O  O38  1  0.01598000  0.52682000  0.33175000  1.0
  O  O39  1  0.35090000  0.31854000  0.49704000  1.0
  O  O40  1  0.67775000  0.50582000  0.66888000  1.0
  O  O41  1  0.99192000  0.66413000  0.54155000  1.0
  O  O42  1  0.97903000  0.45968000  0.66245000  1.0
  O  O43  1  0.65056000  0.67133000  0.49738000  1.0
  O  O44  1  0.31969000  0.48436000  0.32340000  1.0
  O  O45  1  0.01077000  0.32459000  0.46047000  1.0
  O  O46  1  0.69562000  0.43982000  0.43003000  1.0
  O  O47  1  0.30336000  0.55050000  0.56158000  1.0
