# generated using pymatgen
data_MnH14C14N2O5
_symmetry_space_group_name_H-M   'P 1'
_cell_length_a   8.47064000
_cell_length_b   11.65970000
_cell_length_c   17.87860000
_cell_angle_alpha   89.99830000
_cell_angle_beta   89.99910000
_cell_angle_gamma   72.35300000
_symmetry_Int_Tables_number   1
_chemical_formula_structural   MnH14C14N2O5
_chemical_formula_sum   'Mn4 H56 C56 N8 O20'
_cell_volume   1682.68847170
_cell_formula_units_Z   4
loop_
 _symmetry_equiv_pos_site_id
 _symmetry_equiv_pos_as_xyz
  1  'x, y, z'
loop_
 _atom_site_type_symbol
 _atom_site_label
 _atom_site_symmetry_multiplicity
 _atom_site_fract_x
 _atom_site_fract_y
 _atom_site_fract_z
 _atom_site_occupancy
  Mn  Mn0  1  0.21281000  0.37334000  0.82787000  1.0
  Mn  Mn1  1  0.28718000  0.62666000  0.32787000  1.0
  Mn  Mn2  1  0.78719000  0.62665000  0.17212000  1.0
  Mn  Mn3  1  0.71283000  0.37333000  0.67214000  1.0
  H  H4  1  0.56466000  0.34055000  0.83403000  1.0
  H  H5  1  0.48007000  0.29858000  0.90883000  1.0
  H  H6  1  0.01724000  0.21081000  0.75411000  1.0
  H  H7  1  0.00308000  0.00382000  0.75216000  1.0
  H  H8  1  0.39937000  0.91353000  0.91603000  1.0
  H  H9  1  0.39106000  0.12794000  0.91283000  1.0
  H  H10  1  0.02544000  0.82894000  0.74034000  1.0
  H  H11  1  0.03050000  0.61554000  0.74448000  1.0
  H  H12  1  0.37218000  0.53872000  0.91663000  1.0
  H  H13  1  0.38065000  0.74567000  0.92385000  1.0
  H  H14  1  0.30205000  0.34882000  0.12193000  1.0
  H  H15  1  0.09380000  0.40105000  0.08787000  1.0
  H  H16  1  0.12251000  0.59257000  0.05021000  1.0
  H  H17  1  0.33869000  0.54779000  0.07208000  1.0
  H  H18  1  0.93537000  0.65943000  0.33402000  1.0
  H  H19  1  0.01993000  0.70142000  0.40882000  1.0
  H  H20  1  0.48276000  0.78921000  0.25409000  1.0
  H  H21  1  0.49692000  0.99620000  0.25214000  1.0
  H  H22  1  0.10064000  0.08647000  0.41602000  1.0
  H  H23  1  0.10895000  0.87207000  0.41281000  1.0
  H  H24  1  0.47458000  0.17107000  0.24033000  1.0
  H  H25  1  0.46952000  0.38448000  0.24447000  1.0
  H  H26  1  0.12783000  0.46129000  0.41662000  1.0
  H  H27  1  0.11936000  0.25433000  0.42384000  1.0
  H  H28  1  0.19790000  0.65118000  0.62192000  1.0
  H  H29  1  0.40615000  0.59898000  0.58787000  1.0
  H  H30  1  0.37753000  0.40744000  0.55022000  1.0
  H  H31  1  0.16135000  0.45218000  0.57208000  1.0
  H  H32  1  0.43536000  0.65944000  0.16597000  1.0
  H  H33  1  0.51994000  0.70144000  0.09117000  1.0
  H  H34  1  0.98273000  0.78920000  0.24590000  1.0
  H  H35  1  0.99688000  0.99619000  0.24786000  1.0
  H  H36  1  0.60065000  0.08647000  0.08396000  1.0
  H  H37  1  0.60897000  0.87206000  0.08716000  1.0
  H  H38  1  0.97457000  0.17104000  0.25966000  1.0
  H  H39  1  0.96953000  0.38444000  0.25552000  1.0
  H  H40  1  0.62784000  0.46129000  0.08337000  1.0
  H  H41  1  0.61934000  0.25434000  0.07615000  1.0
  H  H42  1  0.69786000  0.65115000  0.87806000  1.0
  H  H43  1  0.90612000  0.59897000  0.91210000  1.0
  H  H44  1  0.87753000  0.40743000  0.94979000  1.0
  H  H45  1  0.66134000  0.45214000  0.92792000  1.0
  H  H46  1  0.06465000  0.34057000  0.66597000  1.0
  H  H47  1  0.98007000  0.29858000  0.59118000  1.0
  H  H48  1  0.51723000  0.21080000  0.74591000  1.0
  H  H49  1  0.50306000  0.00381000  0.74786000  1.0
  H  H50  1  0.89935000  0.91353000  0.58398000  1.0
  H  H51  1  0.89104000  0.12794000  0.58719000  1.0
  H  H52  1  0.52544000  0.82893000  0.75969000  1.0
  H  H53  1  0.53049000  0.61552000  0.75555000  1.0
  H  H54  1  0.87217000  0.53872000  0.58339000  1.0
  H  H55  1  0.88063000  0.74568000  0.57616000  1.0
  H  H56  1  0.80211000  0.34884000  0.37807000  1.0
  H  H57  1  0.59385000  0.40103000  0.41212000  1.0
  H  H58  1  0.62245000  0.59257000  0.44978000  1.0
  H  H59  1  0.83864000  0.54784000  0.42793000  1.0
  C  C60  1  0.09918000  0.14277000  0.78977000  1.0
  C  C61  1  0.09350000  0.02492000  0.78854000  1.0
  C  C62  1  0.20197000  0.93696000  0.83340000  1.0
  C  C63  1  0.31141000  0.97571000  0.87911000  1.0
  C  C64  1  0.30815000  0.09576000  0.87756000  1.0
  C  C65  1  0.20154000  0.81006000  0.83224000  1.0
  C  C66  1  0.10405000  0.76905000  0.78128000  1.0
  C  C67  1  0.10701000  0.64924000  0.78249000  1.0
  C  C68  1  0.29633000  0.60638000  0.87866000  1.0
  C  C69  1  0.29967000  0.72466000  0.88201000  1.0
  C  C70  1  0.28151000  0.35723000  0.00225000  1.0
  C  C71  1  0.22037000  0.40486000  0.07950000  1.0
  C  C72  1  0.21867000  0.53688000  0.08764000  1.0
  C  C73  1  0.17524000  0.58060000  0.16725000  1.0
  C  C74  1  0.40083000  0.85724000  0.28976000  1.0
  C  C75  1  0.40651000  0.97509000  0.28852000  1.0
  C  C76  1  0.29804000  0.06305000  0.33333333  1.0
  C  C77  1  0.18860000  0.02430000  0.37910000  1.0
  C  C78  1  0.19185000  0.90424000  0.37755000  1.0
  C  C79  1  0.29847000  0.18994000  0.33223000  1.0
  C  C80  1  0.39597000  0.23097000  0.28127000  1.0
  C  C81  1  0.39301000  0.35077000  0.28248000  1.0
  C  C82  1  0.20368000  0.39363000  0.37865000  1.0
  C  C83  1  0.20035000  0.27535000  0.38201000  1.0
  C  C84  1  0.21846000  0.64277000  0.50224000  1.0
  C  C85  1  0.27961000  0.59515000  0.57950000  1.0
  C  C86  1  0.28135000  0.46312000  0.58765000  1.0
  C  C87  1  0.32477000  0.41940000  0.66726000  1.0
  C  C88  1  0.90080000  0.85723000  0.21023000  1.0
  C  C89  1  0.90648000  0.97508000  0.21147000  1.0
  C  C90  1  0.79802000  0.06304000  0.16660000  1.0
  C  C91  1  0.68859000  0.02429000  0.12088000  1.0
  C  C92  1  0.69185000  0.90424000  0.12243000  1.0
  C  C93  1  0.79846000  0.18993000  0.16776000  1.0
  C  C94  1  0.89596000  0.23095000  0.21872000  1.0
  C  C95  1  0.89302000  0.35075000  0.21751000  1.0
  C  C96  1  0.70368000  0.39362000  0.12134000  1.0
  C  C97  1  0.70034000  0.27535000  0.11799000  1.0
  C  C98  1  0.71846000  0.64277000  0.99775000  1.0
  C  C99  1  0.77958000  0.59513000  0.92049000  1.0
  C  C100  1  0.78134000  0.46309000  0.91236000  1.0
  C  C101  1  0.82477000  0.41938000  0.83275000  1.0
  C  C102  1  0.59916000  0.14276000  0.71024000  1.0
  C  C103  1  0.59348000  0.02492000  0.71148000  1.0
  C  C104  1  0.70195000  0.93695000  0.66662000  1.0
  C  C105  1  0.81140000  0.97571000  0.62090000  1.0
  C  C106  1  0.80814000  0.09576000  0.62245000  1.0
  C  C107  1  0.70153000  0.81006000  0.66778000  1.0
  C  C108  1  0.60405000  0.76904000  0.71874000  1.0
  C  C109  1  0.60700000  0.64923000  0.71753000  1.0
  C  C110  1  0.79632000  0.60638000  0.62136000  1.0
  C  C111  1  0.79965000  0.72466000  0.61801000  1.0
  C  C112  1  0.78154000  0.35724000  0.49776000  1.0
  C  C113  1  0.72040000  0.40486000  0.42050000  1.0
  C  C114  1  0.71864000  0.53690000  0.41235000  1.0
  C  C115  1  0.67524000  0.58060000  0.33274000  1.0
  N  N116  1  0.20498000  0.17883000  0.83323000  1.0
  N  N117  1  0.20205000  0.56815000  0.83018000  1.0
  N  N118  1  0.29503000  0.82118000  0.33321000  1.0
  N  N119  1  0.29796000  0.43186000  0.33017000  1.0
  N  N120  1  0.79503000  0.82117000  0.16676000  1.0
  N  N121  1  0.79798000  0.43184000  0.16982000  1.0
  N  N122  1  0.70496000  0.17883000  0.66679000  1.0
  N  N123  1  0.70205000  0.56814000  0.66984000  1.0
  O  O124  1  0.17766000  0.38532000  0.94864000  1.0
  O  O125  1  0.43372000  0.29537000  0.99515000  1.0
  O  O126  1  0.04503000  0.56886000  0.19665000  1.0
  O  O127  1  0.27411000  0.62528000  0.20317000  1.0
  O  O128  1  0.47428000  0.30890000  0.85248000  1.0
  O  O129  1  0.32232000  0.61469000  0.44863000  1.0
  O  O130  1  0.06625000  0.70461000  0.49514000  1.0
  O  O131  1  0.45499000  0.43115000  0.69665000  1.0
  O  O132  1  0.22590000  0.37473000  0.70319000  1.0
  O  O133  1  0.02572000  0.69110000  0.35246000  1.0
  O  O134  1  0.82234000  0.61467000  0.05135000  1.0
  O  O135  1  0.56626000  0.70465000  0.00484000  1.0
  O  O136  1  0.95498000  0.43114000  0.80335000  1.0
  O  O137  1  0.72591000  0.37470000  0.79682000  1.0
  O  O138  1  0.52574000  0.69109000  0.14752000  1.0
  O  O139  1  0.67766000  0.38534000  0.55136000  1.0
  O  O140  1  0.93372000  0.29537000  0.50485000  1.0
  O  O141  1  0.54501000  0.56886000  0.30334000  1.0
  O  O142  1  0.77414000  0.62526000  0.29681000  1.0
  O  O143  1  0.97429000  0.30890000  0.64753000  1.0
