# generated using pymatgen
data_NiH14C20N2O5
_symmetry_space_group_name_H-M   'P 1'
_cell_length_a   7.95171000
_cell_length_b   10.47680000
_cell_length_c   11.18410000
_cell_angle_alpha   67.61200000
_cell_angle_beta   87.14490000
_cell_angle_gamma   89.28680000
_symmetry_Int_Tables_number   1
_chemical_formula_structural   NiH14C20N2O5
_chemical_formula_sum   'Ni2 H28 C40 N4 O10'
_cell_volume   860.41105706
_cell_formula_units_Z   2
loop_
 _symmetry_equiv_pos_site_id
 _symmetry_equiv_pos_as_xyz
  1  'x, y, z'
loop_
 _atom_site_type_symbol
 _atom_site_label
 _atom_site_symmetry_multiplicity
 _atom_site_fract_x
 _atom_site_fract_y
 _atom_site_fract_z
 _atom_site_occupancy
  Ni  Ni0  1  0.75010000  0.22691000  0.99555000  1.0
  Ni  Ni1  1  0.24986000  0.77310000  0.00450000  1.0
  H  H2  1  0.85583000  0.53083000  0.88421000  1.0
  H  H3  1  0.14418000  0.46915000  0.11579000  1.0
  H  H4  1  0.80382000  0.71862000  0.96553000  1.0
  H  H5  1  0.19618000  0.28139000  0.03445000  1.0
  H  H6  1  0.61398000  0.67315000  0.16674000  1.0
  H  H7  1  0.38601000  0.32686000  0.83325000  1.0
  H  H8  1  0.34056000  0.24949000  0.46485000  1.0
  H  H9  1  0.65944000  0.75051000  0.53516000  1.0
  H  H10  1  0.45056000  0.48909000  0.35998000  1.0
  H  H11  1  0.54945000  0.51091000  0.64003000  1.0
  H  H12  1  0.31709000  0.00347000  0.45848000  1.0
  H  H13  1  0.68290000  0.99652000  0.54153000  1.0
  H  H14  1  0.39477000  0.85133000  0.33597000  1.0
  H  H15  1  0.60523000  0.14865000  0.66405000  1.0
  H  H16  1  0.57848000  0.94248000  0.13619000  1.0
  H  H17  1  0.42151000  0.05752000  0.86382000  1.0
  H  H18  1  0.13173000  0.43846000  0.71147000  1.0
  H  H19  1  0.86827000  0.56157000  0.28852000  1.0
  H  H20  1  0.70674000  0.42371000  0.49540000  1.0
  H  H21  1  0.29329000  0.57632000  0.50458000  1.0
  H  H22  1  0.99531000  0.80261000  0.42818000  1.0
  H  H23  1  0.00466000  0.19739000  0.57182000  1.0
  H  H24  1  0.98221000  0.23920000  0.33625000  1.0
  H  H25  1  0.01778000  0.76080000  0.66374000  1.0
  H  H26  1  0.86462000  0.00560000  0.06232000  1.0
  H  H27  1  0.13538000  0.99441000  0.93768000  1.0
  H  H28  1  0.88168000  0.06401000  0.90620000  1.0
  H  H29  1  0.11832000  0.93599000  0.09379000  1.0
  C  C30  1  0.77777000  0.51289000  0.97190000  1.0
  C  C31  1  0.22224000  0.48709000  0.02811000  1.0
  C  C32  1  0.74520000  0.61808000  0.01895000  1.0
  C  C33  1  0.25480000  0.38191000  0.98104000  1.0
  C  C34  1  0.64489000  0.59213000  0.13076000  1.0
  C  C35  1  0.35511000  0.40786000  0.86925000  1.0
  C  C36  1  0.58096000  0.45711000  0.19912000  1.0
  C  C37  1  0.41906000  0.54287000  0.80088000  1.0
  C  C38  1  0.61898000  0.35836000  0.14478000  1.0
  C  C39  1  0.38104000  0.64162000  0.85522000  1.0
  C  C40  1  0.55781000  0.22160000  0.20473000  1.0
  C  C41  1  0.44221000  0.77839000  0.79526000  1.0
  C  C42  1  0.45526000  0.17983000  0.31979000  1.0
  C  C43  1  0.54476000  0.82017000  0.68020000  1.0
  C  C44  1  0.41910000  0.28043000  0.37551000  1.0
  C  C45  1  0.58091000  0.71956000  0.62449000  1.0
  C  C46  1  0.48031000  0.41272000  0.31813000  1.0
  C  C47  1  0.51970000  0.58727000  0.68187000  1.0
  C  C48  1  0.39692000  0.04179000  0.36991000  1.0
  C  C49  1  0.60309000  0.95820000  0.63010000  1.0
  C  C50  1  0.44061000  0.95724000  0.30387000  1.0
  C  C51  1  0.55940000  0.04276000  0.69613000  1.0
  C  C52  1  0.54386000  0.00733000  0.18968000  1.0
  C  C53  1  0.45615000  0.99268000  0.81032000  1.0
  C  C54  1  0.80819000  0.34255000  0.73779000  1.0
  C  C55  1  0.19182000  0.65748000  0.26218000  1.0
  C  C56  1  0.90904000  0.42403000  0.61590000  1.0
  C  C57  1  0.09096000  0.57599000  0.38408000  1.0
  C  C58  1  0.07489000  0.46622000  0.61850000  1.0
  C  C59  1  0.92508000  0.53378000  0.38151000  1.0
  C  C60  1  0.83511000  0.45836000  0.49641000  1.0
  C  C61  1  0.16488000  0.54164000  0.50360000  1.0
  C  C62  1  0.99693000  0.88824000  0.46068000  1.0
  C  C63  1  0.00305000  0.11176000  0.53932000  1.0
  C  C64  1  0.98935000  0.13482000  0.40916000  1.0
  C  C65  1  0.01064000  0.86517000  0.59084000  1.0
  C  C66  1  0.98678000  0.02344000  0.36862000  1.0
  C  C67  1  0.01321000  0.97657000  0.63138000  1.0
  C  C68  1  0.98132000  0.05172000  0.22674000  1.0
  C  C69  1  0.01867000  0.94828000  0.77326000  1.0
  N  N70  1  0.71300000  0.38574000  0.03192000  1.0
  N  N71  1  0.28701000  0.61425000  0.96809000  1.0
  N  N72  1  0.60361000  0.13685000  0.14149000  1.0
  N  N73  1  0.39640000  0.86314000  0.85851000  1.0
  O  O74  1  0.66469000  0.29847000  0.73240000  1.0
  O  O75  1  0.33532000  0.70153000  0.26760000  1.0
  O  O76  1  0.88052000  0.32595000  0.84506000  1.0
  O  O77  1  0.11947000  0.67405000  0.15493000  1.0
  O  O78  1  0.99119000  0.17503000  0.14803000  1.0
  O  O79  1  0.00881000  0.82497000  0.85197000  1.0
  O  O80  1  0.96496000  0.94633000  0.19374000  1.0
  O  O81  1  0.03505000  0.05369000  0.80625000  1.0
  O  O82  1  0.79828000  0.05496000  0.98069000  1.0
  O  O83  1  0.20172000  0.94503000  0.01931000  1.0
