# generated using pymatgen
data_CuH14C13SN3
_symmetry_space_group_name_H-M   'P 1'
_cell_length_a   5.73865000
_cell_length_b   8.34779000
_cell_length_c   14.16370000
_cell_angle_alpha   73.34600000
_cell_angle_beta   89.99810000
_cell_angle_gamma   89.99870000
_symmetry_Int_Tables_number   1
_chemical_formula_structural   CuH14C13SN3
_chemical_formula_sum   'Cu2 H28 C26 S2 N6'
_cell_volume   650.05104298
_cell_formula_units_Z   2
loop_
 _symmetry_equiv_pos_site_id
 _symmetry_equiv_pos_as_xyz
  1  'x, y, z'
loop_
 _atom_site_type_symbol
 _atom_site_label
 _atom_site_symmetry_multiplicity
 _atom_site_fract_x
 _atom_site_fract_y
 _atom_site_fract_z
 _atom_site_occupancy
  Cu  Cu0  1  0.54374000  0.49074000  0.22770000  1.0
  Cu  Cu1  1  0.04377000  0.50924000  0.77231000  1.0
  H  H2  1  0.32573000  0.54545000  0.40546000  1.0
  H  H3  1  0.82577000  0.45457000  0.59455000  1.0
  H  H4  1  0.42010000  0.68694000  0.53427000  1.0
  H  H5  1  0.92010000  0.31306000  0.46575000  1.0
  H  H6  1  0.05350000  0.86430000  0.37419000  1.0
  H  H7  1  0.55357000  0.13573000  0.62577000  1.0
  H  H8  1  0.93805000  0.70974000  0.25465000  1.0
  H  H9  1  0.43815000  0.29032000  0.74530000  1.0
  H  H10  1  0.67260000  0.87063000  0.59280000  1.0
  H  H11  1  0.17258000  0.12935000  0.40720000  1.0
  H  H12  1  0.97146000  0.82875000  0.57743000  1.0
  H  H13  1  0.47145000  0.17117000  0.42258000  1.0
  H  H14  1  0.84221000  0.01292000  0.50031000  1.0
  H  H15  1  0.34214000  0.98704000  0.49971000  1.0
  H  H16  1  0.94244000  0.50869000  0.08298000  1.0
  H  H17  1  0.44247000  0.49129000  0.91703000  1.0
  H  H18  1  0.06296000  0.69839000  0.92029000  1.0
  H  H19  1  0.56294000  0.30157000  0.07972000  1.0
  H  H20  1  0.43287000  0.97957000  0.92144000  1.0
  H  H21  1  0.93280000  0.02044000  0.07857000  1.0
  H  H22  1  0.33656000  0.77847000  0.08343000  1.0
  H  H23  1  0.83656000  0.22156000  0.91658000  1.0
  H  H24  1  0.79102000  0.91064000  0.75099000  1.0
  H  H25  1  0.29096000  0.08934000  0.24903000  1.0
  H  H26  1  0.72843000  0.08969000  0.79072000  1.0
  H  H27  1  0.22838000  0.91029000  0.20928000  1.0
  H  H28  1  0.01378000  0.00100000  0.80484000  1.0
  H  H29  1  0.51373000  0.99900000  0.19517000  1.0
  C  C30  1  0.04235000  0.35602000  0.25448000  1.0
  C  C31  1  0.54236000  0.64398000  0.74550000  1.0
  C  C32  1  0.48603000  0.61725000  0.40161000  1.0
  C  C33  1  0.98608000  0.38278000  0.59839000  1.0
  C  C34  1  0.53927000  0.69714000  0.47268000  1.0
  C  C35  1  0.03927000  0.30286000  0.52732000  1.0
  C  C36  1  0.74564000  0.78985000  0.46484000  1.0
  C  C37  1  0.24567000  0.21016000  0.53515000  1.0
  C  C38  1  0.89046000  0.79467000  0.38431000  1.0
  C  C39  1  0.39051000  0.20536000  0.61566000  1.0
  C  C40  1  0.82643000  0.71024000  0.31700000  1.0
  C  C41  1  0.32652000  0.28981000  0.68297000  1.0
  C  C42  1  0.81051000  0.88030000  0.53807000  1.0
  C  C43  1  0.31048000  0.11966000  0.46194000  1.0
  C  C44  1  0.83441000  0.61519000  0.04500000  1.0
  C  C45  1  0.33442000  0.38479000  0.95500000  1.0
  C  C46  1  0.90140000  0.72181000  0.95456000  1.0
  C  C47  1  0.40140000  0.27817000  0.04544000  1.0
  C  C48  1  0.75989000  0.85780000  0.90681000  1.0
  C  C49  1  0.25984000  0.14220000  0.09320000  1.0
  C  C50  1  0.55278000  0.87762000  0.95462000  1.0
  C  C51  1  0.05275000  0.12239000  0.04539000  1.0
  C  C52  1  0.49762000  0.76584000  0.04532000  1.0
  C  C53  1  0.99761000  0.23416000  0.95469000  1.0
  C  C54  1  0.82676000  0.97233000  0.80843000  1.0
  C  C55  1  0.32670000  0.02767000  0.19158000  1.0
  S  S56  1  0.79141000  0.25921000  0.26712000  1.0
  S  S57  1  0.29143000  0.74080000  0.73286000  1.0
  N  N58  1  0.22698000  0.42260000  0.24522000  1.0
  N  N59  1  0.72699000  0.57739000  0.75477000  1.0
  N  N60  1  0.62622000  0.62262000  0.32434000  1.0
  N  N61  1  0.12628000  0.37741000  0.67565000  1.0
  N  N62  1  0.63543000  0.63575000  0.09136000  1.0
  N  N63  1  0.13546000  0.36425000  0.90864000  1.0
