# generated using pymatgen
data_CdP4H16C10(NO7)2
_symmetry_space_group_name_H-M   'P 1'
_cell_length_a   8.52229000
_cell_length_b   9.34107000
_cell_length_c   11.80110000
_cell_angle_alpha   96.64020000
_cell_angle_beta   89.99990000
_cell_angle_gamma   89.99990000
_symmetry_Int_Tables_number   1
_chemical_formula_structural   CdP4H16C10(NO7)2
_chemical_formula_sum   'Cd2 P8 H32 C20 N4 O28'
_cell_volume   933.15182586
_cell_formula_units_Z   2
loop_
 _symmetry_equiv_pos_site_id
 _symmetry_equiv_pos_as_xyz
  1  'x, y, z'
loop_
 _atom_site_type_symbol
 _atom_site_label
 _atom_site_symmetry_multiplicity
 _atom_site_fract_x
 _atom_site_fract_y
 _atom_site_fract_z
 _atom_site_occupancy
  Cd  Cd0  1  0.00000000  0.00000000  0.00000000  1.0
  Cd  Cd1  1  0.50000000  0.50000000  0.50000000  1.0
  P  P2  1  0.08986000  0.24349000  0.80837000  1.0
  P  P3  1  0.58986000  0.25651000  0.69163000  1.0
  P  P4  1  0.91014000  0.75651000  0.19163000  1.0
  P  P5  1  0.41014000  0.74349000  0.30837000  1.0
  P  P6  1  0.48559000  0.72232000  0.77874000  1.0
  P  P7  1  0.98559000  0.77768000  0.72126000  1.0
  P  P8  1  0.51441000  0.27768000  0.22126000  1.0
  P  P9  1  0.01440000  0.22232000  0.27874000  1.0
  H  H10  1  0.27162000  0.58205000  0.12835000  1.0
  H  H11  1  0.77162000  0.91795000  0.37165000  1.0
  H  H12  1  0.72838000  0.41795000  0.87165000  1.0
  H  H13  1  0.22838000  0.08205000  0.62835000  1.0
  H  H14  1  0.12545000  0.37619000  0.04772000  1.0
  H  H15  1  0.62545000  0.12381000  0.45228000  1.0
  H  H16  1  0.87455000  0.62381000  0.95228000  1.0
  H  H17  1  0.37455000  0.87619000  0.54772000  1.0
  H  H18  1  0.28299000  0.46341000  0.71389000  1.0
  H  H19  1  0.78299000  0.03659000  0.78611000  1.0
  H  H20  1  0.71701000  0.53659000  0.28611000  1.0
  H  H21  1  0.21701000  0.96341000  0.21389000  1.0
  H  H22  1  0.41721000  0.72680000  0.02548000  1.0
  H  H23  1  0.91721000  0.77320000  0.47452000  1.0
  H  H24  1  0.58279000  0.27320000  0.97452000  1.0
  H  H25  1  0.08279000  0.22680000  0.52548000  1.0
  H  H26  1  0.88729000  0.32618000  0.71680000  1.0
  H  H27  1  0.38729000  0.17383000  0.78320000  1.0
  H  H28  1  0.11271000  0.67382000  0.28320000  1.0
  H  H29  1  0.61271000  0.82618000  0.21680000  1.0
  H  H30  1  0.28141000  0.83961000  0.73909000  1.0
  H  H31  1  0.78141000  0.66039000  0.76091000  1.0
  H  H32  1  0.71859000  0.16039000  0.26091000  1.0
  H  H33  1  0.21859000  0.33961000  0.23909000  1.0
  H  H34  1  0.31894000  0.09836000  0.05277000  1.0
  H  H35  1  0.81894000  0.40164000  0.44723000  1.0
  H  H36  1  0.68106000  0.90164000  0.94723000  1.0
  H  H37  1  0.18107000  0.59836000  0.55277000  1.0
  H  H38  1  0.32464000  0.99585000  0.93228000  1.0
  H  H39  1  0.82464000  0.50415000  0.56772000  1.0
  H  H40  1  0.67536000  0.00415000  0.06771000  1.0
  H  H41  1  0.17536000  0.49585000  0.43228000  1.0
  C  C42  1  0.18998000  0.43843000  0.99058000  1.0
  C  C43  1  0.68998000  0.06157000  0.50942000  1.0
  C  C44  1  0.81002000  0.56157000  0.00942000  1.0
  C  C45  1  0.31002000  0.93843000  0.49058000  1.0
  C  C46  1  0.19189000  0.40341000  0.87296000  1.0
  C  C47  1  0.69189000  0.09659000  0.62704000  1.0
  C  C48  1  0.80811000  0.59659000  0.12703000  1.0
  C  C49  1  0.30811000  0.90341000  0.37297000  1.0
  C  C50  1  0.27968000  0.48964000  0.80632000  1.0
  C  C51  1  0.77969000  0.01036000  0.69368000  1.0
  C  C52  1  0.72031000  0.51036000  0.19368000  1.0
  C  C53  1  0.22031000  0.98964000  0.30632000  1.0
  C  C54  1  0.36537000  0.60691000  0.85825000  1.0
  C  C55  1  0.86537000  0.89309000  0.64175000  1.0
  C  C56  1  0.63463000  0.39309000  0.14176000  1.0
  C  C57  1  0.13463000  0.10691000  0.35824000  1.0
  C  C58  1  0.35715000  0.63719000  0.97643000  1.0
  C  C59  1  0.85715000  0.86281000  0.52357000  1.0
  C  C60  1  0.64285000  0.36280000  0.02358000  1.0
  C  C61  1  0.14285000  0.13720000  0.47642000  1.0
  N  N62  1  0.27148000  0.55361000  0.03815000  1.0
  N  N63  1  0.77148000  0.94639000  0.46185000  1.0
  N  N64  1  0.72851000  0.44639000  0.96186000  1.0
  N  N65  1  0.22851000  0.05361000  0.53815000  1.0
  O  O66  1  0.97846000  0.19536000  0.89563000  1.0
  O  O67  1  0.47846000  0.30464000  0.60437000  1.0
  O  O68  1  0.02154000  0.80464000  0.10437000  1.0
  O  O69  1  0.52154000  0.69536000  0.39563000  1.0
  O  O70  1  0.21761000  0.13782000  0.76089000  1.0
  O  O71  1  0.71760000  0.36218000  0.73911000  1.0
  O  O72  1  0.78239000  0.86218000  0.23911000  1.0
  O  O73  1  0.28239000  0.63782000  0.26089000  1.0
  O  O74  1  0.00224000  0.29397000  0.70168000  1.0
  O  O75  1  0.50224000  0.20603000  0.79832000  1.0
  O  O76  1  0.99775000  0.70603000  0.29832000  1.0
  O  O77  1  0.49775000  0.79397000  0.20168000  1.0
  O  O78  1  0.50526000  0.65564000  0.65787000  1.0
  O  O79  1  0.00526000  0.84436000  0.84213000  1.0
  O  O80  1  0.49474000  0.34436000  0.34213000  1.0
  O  O81  1  0.99474000  0.15563000  0.15787000  1.0
  O  O82  1  0.63465000  0.75682000  0.84663000  1.0
  O  O83  1  0.13465000  0.74318000  0.65337000  1.0
  O  O84  1  0.36535000  0.24318000  0.15336000  1.0
  O  O85  1  0.86535000  0.25682000  0.34663000  1.0
  O  O86  1  0.38090000  0.86603000  0.78258000  1.0
  O  O87  1  0.88090000  0.63397000  0.71742000  1.0
  O  O88  1  0.61910000  0.13397000  0.21742000  1.0
  O  O89  1  0.11910000  0.36603000  0.28258000  1.0
  O  O90  1  0.27630000  0.00979000  0.00806000  1.0
  O  O91  1  0.77631000  0.49021000  0.49194000  1.0
  O  O92  1  0.72370000  0.99020000  0.99193000  1.0
  O  O93  1  0.22370000  0.50979000  0.50806000  1.0
