# generated using pymatgen
data_TbH11C8NO10
_symmetry_space_group_name_H-M   'P 1'
_cell_length_a   8.47796000
_cell_length_b   10.88500000
_cell_length_c   15.10680000
_cell_angle_alpha   89.99990000
_cell_angle_beta   78.22100000
_cell_angle_gamma   89.99990000
_symmetry_Int_Tables_number   1
_chemical_formula_structural   TbH11C8NO10
_chemical_formula_sum   'Tb4 H44 C32 N4 O40'
_cell_volume   1364.73823690
_cell_formula_units_Z   4
loop_
 _symmetry_equiv_pos_site_id
 _symmetry_equiv_pos_as_xyz
  1  'x, y, z'
loop_
 _atom_site_type_symbol
 _atom_site_label
 _atom_site_symmetry_multiplicity
 _atom_site_fract_x
 _atom_site_fract_y
 _atom_site_fract_z
 _atom_site_occupancy
  Tb  Tb0  1  0.49144000  0.56152000  0.70472000  1.0
  Tb  Tb1  1  0.00856000  0.06152000  0.29528000  1.0
  Tb  Tb2  1  0.50856000  0.43848000  0.29528000  1.0
  Tb  Tb3  1  0.99144000  0.93848000  0.70472000  1.0
  H  H4  1  0.60295000  0.77249000  0.56786000  1.0
  H  H5  1  0.89706000  0.27249000  0.43213000  1.0
  H  H6  1  0.39706000  0.22751000  0.43213000  1.0
  H  H7  1  0.10295000  0.72751000  0.56786000  1.0
  H  H8  1  0.64897000  0.80090000  0.66146000  1.0
  H  H9  1  0.85104000  0.30090000  0.33854000  1.0
  H  H10  1  0.35103000  0.19910000  0.33854000  1.0
  H  H11  1  0.14897000  0.69910000  0.66146000  1.0
  H  H12  1  0.22638000  0.35790000  0.76034000  1.0
  H  H13  1  0.27362000  0.85790000  0.23966000  1.0
  H  H14  1  0.77361000  0.64210000  0.23966000  1.0
  H  H15  1  0.72639000  0.14211000  0.76034000  1.0
  H  H16  1  0.35942000  0.32009000  0.67284000  1.0
  H  H17  1  0.14058000  0.82009000  0.32717000  1.0
  H  H18  1  0.64058000  0.67992000  0.32716000  1.0
  H  H19  1  0.85942000  0.17992000  0.67283000  1.0
  H  H20  1  0.58589000  0.33074000  0.80025000  1.0
  H  H21  1  0.91411000  0.83074000  0.19975000  1.0
  H  H22  1  0.41410000  0.66926000  0.19975000  1.0
  H  H23  1  0.08590000  0.16926000  0.80025000  1.0
  H  H24  1  0.72758000  0.42862000  0.79017000  1.0
  H  H25  1  0.77242000  0.92862000  0.20983000  1.0
  H  H26  1  0.27242000  0.57138000  0.20983000  1.0
  H  H27  1  0.22759000  0.07138000  0.79017000  1.0
  H  H28  1  0.84878000  0.50627000  0.66758000  1.0
  H  H29  1  0.65123000  0.00627000  0.33242000  1.0
  H  H30  1  0.15122000  0.49373000  0.33242000  1.0
  H  H31  1  0.34878000  0.99373000  0.66758000  1.0
  H  H32  1  0.86501000  0.64707000  0.65382000  1.0
  H  H33  1  0.63499000  0.14708000  0.34618000  1.0
  H  H34  1  0.13499000  0.35293000  0.34618000  1.0
  H  H35  1  0.36501000  0.85293000  0.65382000  1.0
  H  H36  1  0.00907000  0.73595000  0.98981000  1.0
  H  H37  1  0.49093000  0.23595000  0.01019000  1.0
  H  H38  1  0.99093000  0.26405000  0.01019000  1.0
  H  H39  1  0.50906000  0.76405000  0.98981000  1.0
  H  H40  1  0.27331000  0.44556000  0.08920000  1.0
  H  H41  1  0.22669000  0.94556000  0.91081000  1.0
  H  H42  1  0.72667000  0.55444000  0.91081000  1.0
  H  H43  1  0.77332000  0.05444000  0.08920000  1.0
  H  H44  1  0.42021000  0.41209000  0.92958000  1.0
  H  H45  1  0.07979000  0.91209000  0.07042000  1.0
  H  H46  1  0.57979000  0.58791000  0.07042000  1.0
  H  H47  1  0.92022000  0.08791000  0.92958000  1.0
  C  C48  1  0.19089000  0.64052000  0.89368000  1.0
  C  C49  1  0.30911000  0.14052000  0.10632000  1.0
  C  C50  1  0.80912000  0.35948000  0.10632000  1.0
  C  C51  1  0.69088000  0.85948000  0.89368000  1.0
  C  C52  1  0.10140000  0.66494000  0.97995000  1.0
  C  C53  1  0.39860000  0.16494000  0.02005000  1.0
  C  C54  1  0.89860000  0.33506000  0.02005000  1.0
  C  C55  1  0.60140000  0.83507000  0.97995000  1.0
  C  C56  1  0.13086000  0.59560000  0.05278000  1.0
  C  C57  1  0.36915000  0.09560000  0.94722000  1.0
  C  C58  1  0.86914000  0.40440000  0.94722000  1.0
  C  C59  1  0.63086000  0.90440000  0.05279000  1.0
  C  C60  1  0.24687000  0.50269000  0.03484000  1.0
  C  C61  1  0.25313000  0.00270000  0.96515000  1.0
  C  C62  1  0.75312000  0.49730000  0.96516000  1.0
  C  C63  1  0.74688000  0.99730000  0.03485000  1.0
  C  C64  1  0.32891000  0.48355000  0.94595000  1.0
  C  C65  1  0.17109000  0.98355000  0.05405000  1.0
  C  C66  1  0.67108000  0.51645000  0.05405000  1.0
  C  C67  1  0.82892000  0.01645000  0.94595000  1.0
  C  C68  1  0.16736000  0.71136000  0.81214000  1.0
  C  C69  1  0.33264000  0.21136000  0.18786000  1.0
  C  C70  1  0.83264000  0.28865000  0.18787000  1.0
  C  C71  1  0.66736000  0.78864000  0.81213000  1.0
  C  C72  1  0.03707000  0.61927000  0.14772000  1.0
  C  C73  1  0.46293000  0.11927000  0.85228000  1.0
  C  C74  1  0.96292000  0.38073000  0.85228000  1.0
  C  C75  1  0.53707000  0.88073000  0.14772000  1.0
  C  C76  1  0.43801000  0.55154000  0.49707000  1.0
  C  C77  1  0.06198000  0.05155000  0.50292000  1.0
  C  C78  1  0.56199000  0.44844000  0.50292000  1.0
  C  C79  1  0.93800000  0.94844000  0.49707000  1.0
  N  N80  1  0.30324000  0.55118000  0.87633000  1.0
  N  N81  1  0.19676000  0.05118000  0.12367000  1.0
  N  N82  1  0.69676000  0.44882000  0.12368000  1.0
  N  N83  1  0.80324000  0.94882000  0.87633000  1.0
  O  O84  1  0.25498000  0.67644000  0.73688000  1.0
  O  O85  1  0.24503000  0.17644000  0.26312000  1.0
  O  O86  1  0.74503000  0.32356000  0.26312000  1.0
  O  O87  1  0.75497000  0.82356000  0.73688000  1.0
  O  O88  1  0.06604000  0.79734000  0.81959000  1.0
  O  O89  1  0.43397000  0.29734000  0.18041000  1.0
  O  O90  1  0.93398000  0.20266000  0.18041000  1.0
  O  O91  1  0.56603000  0.70266000  0.81959000  1.0
  O  O92  1  0.91208000  0.68721000  0.15488000  1.0
  O  O93  1  0.58791000  0.18722000  0.84511000  1.0
  O  O94  1  0.08791000  0.31279000  0.84512000  1.0
  O  O95  1  0.41209000  0.81279000  0.15488000  1.0
  O  O96  1  0.08541000  0.57040000  0.21329000  1.0
  O  O97  1  0.41459000  0.07039000  0.78671000  1.0
  O  O98  1  0.91458000  0.42960000  0.78671000  1.0
  O  O99  1  0.58541000  0.92960000  0.21329000  1.0
  O  O100  1  0.37698000  0.60426000  0.57054000  1.0
  O  O101  1  0.12301000  0.10426000  0.42947000  1.0
  O  O102  1  0.62301000  0.39573000  0.42948000  1.0
  O  O103  1  0.87697000  0.89574000  0.57053000  1.0
  O  O104  1  0.40926000  0.57485000  0.41964000  1.0
  O  O105  1  0.09073000  0.07485000  0.58037000  1.0
  O  O106  1  0.59074000  0.42513000  0.58038000  1.0
  O  O107  1  0.90926000  0.92513000  0.41963000  1.0
  O  O108  1  0.56087000  0.76679000  0.63266000  1.0
  O  O109  1  0.93914000  0.26680000  0.36733000  1.0
  O  O110  1  0.43913000  0.23320000  0.36733000  1.0
  O  O111  1  0.06087000  0.73321000  0.63266000  1.0
  O  O112  1  0.31841000  0.38853000  0.71205000  1.0
  O  O113  1  0.18160000  0.88853000  0.28795000  1.0
  O  O114  1  0.68160000  0.61147000  0.28795000  1.0
  O  O115  1  0.81841000  0.11148000  0.71205000  1.0
  O  O116  1  0.61222000  0.41769000  0.78362000  1.0
  O  O117  1  0.88778000  0.91769000  0.21638000  1.0
  O  O118  1  0.38778000  0.58231000  0.21638000  1.0
  O  O119  1  0.11223000  0.08231000  0.78362000  1.0
  O  O120  1  0.78869000  0.57826000  0.65469000  1.0
  O  O121  1  0.71132000  0.07826000  0.34530000  1.0
  O  O122  1  0.21132000  0.42174000  0.34531000  1.0
  O  O123  1  0.28869000  0.92174000  0.65469000  1.0
