# generated using pymatgen
data_CdH8C4(BrN)2
_symmetry_space_group_name_H-M   'P 1'
_cell_length_a   7.58198000
_cell_length_b   7.60285000
_cell_length_c   7.79534000
_cell_angle_alpha   90.31970000
_cell_angle_beta   90.35640000
_cell_angle_gamma   109.54500000
_symmetry_Int_Tables_number   1
_chemical_formula_structural   CdH8C4(BrN)2
_chemical_formula_sum   'Cd2 H16 C8 Br4 N4'
_cell_volume   423.44497047
_cell_formula_units_Z   2
loop_
 _symmetry_equiv_pos_site_id
 _symmetry_equiv_pos_as_xyz
  1  'x, y, z'
loop_
 _atom_site_type_symbol
 _atom_site_label
 _atom_site_symmetry_multiplicity
 _atom_site_fract_x
 _atom_site_fract_y
 _atom_site_fract_z
 _atom_site_occupancy
  Cd  Cd0  1  0.08619000  0.93330000  0.25332000  1.0
  Cd  Cd1  1  0.93312000  0.08621000  0.75357000  1.0
  H  H2  1  0.20154000  0.43980000  0.08795000  1.0
  H  H3  1  0.55863000  0.77530000  0.39907000  1.0
  H  H4  1  0.77590000  0.55890000  0.89733000  1.0
  H  H5  1  0.44093000  0.20285000  0.58532000  1.0
  H  H6  1  0.31418000  0.68297000  0.04611000  1.0
  H  H7  1  0.30017000  0.64735000  0.37444000  1.0
  H  H8  1  0.64676000  0.30136000  0.87253000  1.0
  H  H9  1  0.68523000  0.31316000  0.54422000  1.0
  H  H10  1  0.21140000  0.51422000  0.77835000  1.0
  H  H11  1  0.51258000  0.81488000  0.80232000  1.0
  H  H12  1  0.81219000  0.51537000  0.30033000  1.0
  H  H13  1  0.51635000  0.20951000  0.27623000  1.0
  H  H14  1  0.08438000  0.67171000  0.81501000  1.0
  H  H15  1  0.33439000  0.89767000  0.69008000  1.0
  H  H16  1  0.89497000  0.33607000  0.19089000  1.0
  H  H17  1  0.67335000  0.08222000  0.31498000  1.0
  C  C18  1  0.17921000  0.56872000  0.04553000  1.0
  C  C19  1  0.41730000  0.77922000  0.37372000  1.0
  C  C20  1  0.77930000  0.41771000  0.87259000  1.0
  C  C21  1  0.56986000  0.17914000  0.54410000  1.0
  C  C22  1  0.10564000  0.54303000  0.85887000  1.0
  C  C23  1  0.48097000  0.91534000  0.71815000  1.0
  C  C24  1  0.91334000  0.48261000  0.21779000  1.0
  C  C25  1  0.54439000  0.10434000  0.35785000  1.0
  Br  Br26  1  0.89407000  0.76667000  0.55790000  1.0
  Br  Br27  1  0.25891000  0.12401000  0.95376000  1.0
  Br  Br28  1  0.12332000  0.25836000  0.45315000  1.0
  Br  Br29  1  0.76573000  0.89210000  0.05721000  1.0
  N  N30  1  0.05039000  0.61729000  0.15917000  1.0
  N  N31  1  0.38629000  0.93177000  0.34433000  1.0
  N  N32  1  0.93208000  0.38588000  0.84457000  1.0
  N  N33  1  0.61696000  0.05095000  0.65926000  1.0
