# generated using pymatgen
data_BiH12C36S3(N2F5)3
_symmetry_space_group_name_H-M   'P 1'
_cell_length_a   7.60343000
_cell_length_b   14.13180000
_cell_length_c   17.93100000
_cell_angle_alpha   73.21500000
_cell_angle_beta   78.68230000
_cell_angle_gamma   75.11890000
_symmetry_Int_Tables_number   1
_chemical_formula_structural   BiH12C36S3(N2F5)3
_chemical_formula_sum   'Bi2 H24 C72 S6 N12 F30'
_cell_volume   1767.14974693
_cell_formula_units_Z   2
loop_
 _symmetry_equiv_pos_site_id
 _symmetry_equiv_pos_as_xyz
  1  'x, y, z'
loop_
 _atom_site_type_symbol
 _atom_site_label
 _atom_site_symmetry_multiplicity
 _atom_site_fract_x
 _atom_site_fract_y
 _atom_site_fract_z
 _atom_site_occupancy
  Bi  Bi0  1  0.27744000  0.29985000  0.29411000  1.0
  Bi  Bi1  1  0.72256000  0.70015000  0.70589000  1.0
  H  H2  1  0.31129000  0.54794000  0.27992000  1.0
  H  H3  1  0.68871000  0.45207000  0.72008000  1.0
  H  H4  1  0.16823000  0.73409000  0.24906000  1.0
  H  H5  1  0.83177000  0.26591000  0.75093000  1.0
  H  H6  1  0.69766000  0.66179000  0.19544000  1.0
  H  H7  1  0.30234000  0.33822000  0.80456000  1.0
  H  H8  1  0.85347000  0.47893000  0.23245000  1.0
  H  H9  1  0.14653000  0.52107000  0.76755000  1.0
  H  H10  1  0.12725000  0.91855000  0.03915000  1.0
  H  H11  1  0.87275000  0.08145000  0.96085000  1.0
  H  H12  1  0.39973000  0.84391000  0.11470000  1.0
  H  H13  1  0.60026000  0.15609000  0.88530000  1.0
  H  H14  1  0.45197000  0.14863000  0.08877000  1.0
  H  H15  1  0.54802000  0.85137000  0.91123000  1.0
  H  H16  1  0.18393000  0.20940000  0.01347000  1.0
  H  H17  1  0.81606000  0.79060000  0.98653000  1.0
  H  H18  1  0.94402000  0.30138000  0.17874000  1.0
  H  H19  1  0.05598000  0.69862000  0.82126000  1.0
  H  H20  1  0.78437000  0.19072000  0.14207000  1.0
  H  H21  1  0.21563000  0.80929000  0.85793000  1.0
  H  H22  1  0.10223000  0.93417000  0.29105000  1.0
  H  H23  1  0.89777000  0.06583000  0.70894000  1.0
  H  H24  1  0.24586000  0.05545000  0.32394000  1.0
  H  H25  1  0.75414000  0.94455000  0.67605000  1.0
  C  C26  1  0.54091000  0.37561000  0.41042000  1.0
  C  C27  1  0.45909000  0.62439000  0.58958000  1.0
  C  C28  1  0.70086000  0.36484000  0.44334000  1.0
  C  C29  1  0.29915000  0.63515000  0.55666000  1.0
  C  C30  1  0.69797000  0.36322000  0.52158000  1.0
  C  C31  1  0.30204000  0.63678000  0.47842000  1.0
  C  C32  1  0.53105000  0.37245000  0.57082000  1.0
  C  C33  1  0.46895000  0.62754000  0.42918000  1.0
  C  C34  1  0.36924000  0.38368000  0.54057000  1.0
  C  C35  1  0.63076000  0.61632000  0.45943000  1.0
  C  C36  1  0.37623000  0.38512000  0.46204000  1.0
  C  C37  1  0.62377000  0.61488000  0.53796000  1.0
  C  C38  1  0.38601000  0.44887000  0.11002000  1.0
  C  C39  1  0.61399000  0.55113000  0.88998000  1.0
  C  C40  1  0.21881000  0.49664000  0.08055000  1.0
  C  C41  1  0.78119000  0.50336000  0.91945000  1.0
  C  C42  1  0.17603000  0.59987000  0.04569000  1.0
  C  C43  1  0.82397000  0.40013000  0.95431000  1.0
  C  C44  1  0.30163000  0.65917000  0.03973000  1.0
  C  C45  1  0.69837000  0.34083000  0.96027000  1.0
  C  C46  1  0.46951000  0.61415000  0.06818000  1.0
  C  C47  1  0.53049000  0.38585000  0.93182000  1.0
  C  C48  1  0.51064000  0.51037000  0.10194000  1.0
  C  C49  1  0.48936000  0.48963000  0.89806000  1.0
  C  C50  1  0.50056000  0.12571000  0.43025000  1.0
  C  C51  1  0.49944000  0.87429000  0.56975000  1.0
  C  C52  1  0.66131000  0.11870000  0.46082000  1.0
  C  C53  1  0.33869000  0.88130000  0.53918000  1.0
  C  C54  1  0.65878000  0.12074000  0.53818000  1.0
  C  C55  1  0.34122000  0.87926000  0.46182000  1.0
  C  C56  1  0.49287000  0.13025000  0.58781000  1.0
  C  C57  1  0.50713000  0.86975000  0.41219000  1.0
  C  C58  1  0.33023000  0.13713000  0.55978000  1.0
  C  C59  1  0.66977000  0.86287000  0.44022000  1.0
  C  C60  1  0.33635000  0.13412000  0.48239000  1.0
  C  C61  1  0.66364000  0.86588000  0.51761000  1.0
  C  C62  1  0.17499000  0.57653000  0.26121000  1.0
  C  C63  1  0.82501000  0.42347000  0.73879000  1.0
  C  C64  1  0.09635000  0.67942000  0.24367000  1.0
  C  C65  1  0.90365000  0.32058000  0.75633000  1.0
  C  C66  1  0.92214000  0.71228000  0.21885000  1.0
  C  C67  1  0.07786000  0.28772000  0.78115000  1.0
  C  C68  1  0.83320000  0.63915000  0.21426000  1.0
  C  C69  1  0.16680000  0.36085000  0.78574000  1.0
  C  C70  1  0.92112000  0.53752000  0.23416000  1.0
  C  C71  1  0.07888000  0.46248000  0.76584000  1.0
  C  C72  1  0.20352000  0.96661000  0.05180000  1.0
  C  C73  1  0.79648000  0.03339000  0.94820000  1.0
  C  C74  1  0.35331000  0.92539000  0.09382000  1.0
  C  C75  1  0.64669000  0.07461000  0.90618000  1.0
  C  C76  1  0.44655000  0.99086000  0.10767000  1.0
  C  C77  1  0.55344000  0.00913000  0.89233000  1.0
  C  C78  1  0.38320000  0.09523000  0.07924000  1.0
  C  C79  1  0.61679000  0.90477000  0.92076000  1.0
  C  C80  1  0.23352000  0.12873000  0.03742000  1.0
  C  C81  1  0.76647000  0.87127000  0.96258000  1.0
  C  C82  1  0.97533000  0.21966000  0.20284000  1.0
  C  C83  1  0.02467000  0.78034000  0.79716000  1.0
  C  C84  1  0.88714000  0.15798000  0.18203000  1.0
  C  C85  1  0.11286000  0.84202000  0.81797000  1.0
  C  C86  1  0.93273000  0.05323000  0.21328000  1.0
  C  C87  1  0.06727000  0.94677000  0.78672000  1.0
  C  C88  1  0.06443000  0.01500000  0.26494000  1.0
  C  C89  1  0.93557000  0.98501000  0.73505000  1.0
  C  C90  1  0.14369000  0.08202000  0.28348000  1.0
  C  C91  1  0.85631000  0.91798000  0.71652000  1.0
  C  C92  1  0.84393000  0.98287000  0.19430000  1.0
  C  C93  1  0.15607000  0.01713000  0.80570000  1.0
  C  C94  1  0.61246000  0.95215000  0.14783000  1.0
  C  C95  1  0.38754000  0.04785000  0.85217000  1.0
  C  C96  1  0.83643000  0.82188000  0.19847000  1.0
  C  C97  1  0.16357000  0.17812000  0.80153000  1.0
  S  S98  1  0.55764000  0.37737000  0.31156000  1.0
  S  S99  1  0.44236000  0.62263000  0.68844000  1.0
  S  S100  1  0.43966000  0.31794000  0.15058000  1.0
  S  S101  1  0.56034000  0.68206000  0.84942000  1.0
  S  S102  1  0.51103000  0.12206000  0.33273000  1.0
  S  S103  1  0.48897000  0.87794000  0.66727000  1.0
  N  N104  1  0.10215000  0.18254000  0.25271000  1.0
  N  N105  1  0.89785000  0.81746000  0.74729000  1.0
  N  N106  1  0.14408000  0.06654000  0.02317000  1.0
  N  N107  1  0.85592000  0.93346000  0.97683000  1.0
  N  N108  1  0.09015000  0.50630000  0.25632000  1.0
  N  N109  1  0.90985000  0.49370000  0.74368000  1.0
  N  N110  1  0.92520000  0.88425000  0.21254000  1.0
  N  N111  1  0.07480000  0.11575000  0.78746000  1.0
  N  N112  1  0.68889000  0.02076000  0.16123000  1.0
  N  N113  1  0.31111000  0.97924000  0.83877000  1.0
  N  N114  1  0.67869000  0.85151000  0.16717000  1.0
  N  N115  1  0.32131000  0.14849000  0.83283000  1.0
  F  F116  1  0.86642000  0.35473000  0.39787000  1.0
  F  F117  1  0.13359000  0.64527000  0.60213000  1.0
  F  F118  1  0.85484000  0.35290000  0.55035000  1.0
  F  F119  1  0.14517000  0.64710000  0.44965000  1.0
  F  F120  1  0.52649000  0.37023000  0.64702000  1.0
  F  F121  1  0.47352000  0.62977000  0.35298000  1.0
  F  F122  1  0.20690000  0.39308000  0.58751000  1.0
  F  F123  1  0.79311000  0.60692000  0.41249000  1.0
  F  F124  1  0.21487000  0.39461000  0.43564000  1.0
  F  F125  1  0.78513000  0.60539000  0.56436000  1.0
  F  F126  1  0.09188000  0.44238000  0.08692000  1.0
  F  F127  1  0.90811000  0.55762000  0.91309000  1.0
  F  F128  1  0.01380000  0.64292000  0.01832000  1.0
  F  F129  1  0.98619000  0.35708000  0.98168000  1.0
  F  F130  1  0.26113000  0.75910000  0.00653000  1.0
  F  F131  1  0.73887000  0.24090000  0.99347000  1.0
  F  F132  1  0.59119000  0.67158000  0.06223000  1.0
  F  F133  1  0.40881000  0.32842000  0.93777000  1.0
  F  F134  1  0.67722000  0.46961000  0.12640000  1.0
  F  F135  1  0.32278000  0.53039000  0.87360000  1.0
  F  F136  1  0.82456000  0.11068000  0.41467000  1.0
  F  F137  1  0.17544000  0.88932000  0.58533000  1.0
  F  F138  1  0.81547000  0.11582000  0.56517000  1.0
  F  F139  1  0.18452000  0.88417000  0.43483000  1.0
  F  F140  1  0.48984000  0.13446000  0.66230000  1.0
  F  F141  1  0.51015000  0.86554000  0.33770000  1.0
  F  F142  1  0.16957000  0.14691000  0.60754000  1.0
  F  F143  1  0.83043000  0.85309000  0.39246000  1.0
  F  F144  1  0.17541000  0.14093000  0.45704000  1.0
  F  F145  1  0.82459000  0.85907000  0.54295000  1.0
