# generated using pymatgen
data_Zn2H8(CO)9
_symmetry_space_group_name_H-M   'P 1'
_cell_length_a   6.62952000
_cell_length_b   8.83841000
_cell_length_c   11.00680000
_cell_angle_alpha   109.81300000
_cell_angle_beta   92.87120000
_cell_angle_gamma   95.95050000
_symmetry_Int_Tables_number   1
_chemical_formula_structural   Zn2H8(CO)9
_chemical_formula_sum   'Zn4 H16 C18 O18'
_cell_volume   600.98139328
_cell_formula_units_Z   2
loop_
 _symmetry_equiv_pos_site_id
 _symmetry_equiv_pos_as_xyz
  1  'x, y, z'
loop_
 _atom_site_type_symbol
 _atom_site_label
 _atom_site_symmetry_multiplicity
 _atom_site_fract_x
 _atom_site_fract_y
 _atom_site_fract_z
 _atom_site_occupancy
  Zn  Zn0  1  0.26330000  0.67986000  0.92608000  1.0
  Zn  Zn1  1  0.73670000  0.32014000  0.07392000  1.0
  Zn  Zn2  1  0.41222000  0.03348000  0.87332000  1.0
  Zn  Zn3  1  0.58778000  0.96652000  0.12668000  1.0
  H  H4  1  0.99775000  0.40800000  0.86556000  1.0
  H  H5  1  0.00225000  0.59200000  0.13443000  1.0
  H  H6  1  0.11418000  0.43796000  0.75204000  1.0
  H  H7  1  0.88582000  0.56204000  0.24795000  1.0
  H  H8  1  0.40922000  0.82415000  0.46437000  1.0
  H  H9  1  0.59078000  0.17586000  0.53563000  1.0
  H  H10  1  0.15972000  0.23369000  0.30720000  1.0
  H  H11  1  0.84029000  0.76631000  0.69280000  1.0
  H  H12  1  0.19039000  0.39408000  0.54265000  1.0
  H  H13  1  0.80962000  0.60591000  0.45735000  1.0
  H  H14  1  0.08790000  0.15255000  0.91525000  1.0
  H  H15  1  0.91210000  0.84745000  0.08475000  1.0
  H  H16  1  0.14094000  0.14483000  0.77703000  1.0
  H  H17  1  0.85906000  0.85517000  0.22297000  1.0
  H  H18  1  0.20369000  0.96980000  0.05785000  1.0
  H  H19  1  0.79631000  0.03019000  0.94215000  1.0
  C  C20  1  0.30235000  0.61890000  0.51879000  1.0
  C  C21  1  0.69765000  0.38110000  0.48121000  1.0
  C  C22  1  0.33418000  0.60611000  0.29684000  1.0
  C  C23  1  0.66582000  0.39389000  0.70316000  1.0
  C  C24  1  0.26611000  0.43856000  0.25264000  1.0
  C  C25  1  0.73389000  0.56145000  0.74736000  1.0
  C  C26  1  0.36768000  0.69190000  0.20169000  1.0
  C  C27  1  0.63227000  0.30807000  0.79830000  1.0
  C  C28  1  0.35483000  0.69479000  0.42994000  1.0
  C  C29  1  0.64517000  0.30521000  0.57006000  1.0
  C  C30  1  0.21346000  0.36312000  0.34171000  1.0
  C  C31  1  0.78655000  0.63688000  0.65829000  1.0
  C  C32  1  0.23036000  0.45304000  0.47343000  1.0
  C  C33  1  0.76966000  0.54696000  0.52657000  1.0
  C  C34  1  0.25015000  0.33266000  0.11235000  1.0
  C  C35  1  0.74985000  0.66734000  0.88765000  1.0
  C  C36  1  0.32426000  0.71189000  0.66154000  1.0
  C  C37  1  0.67576000  0.28813000  0.33846000  1.0
  O  O38  1  0.31875000  0.92876000  0.01105000  1.0
  O  O39  1  0.68124000  0.07124000  0.98895000  1.0
  O  O40  1  0.24184000  0.63971000  0.73264000  1.0
  O  O41  1  0.75816000  0.36028000  0.26736000  1.0
  O  O42  1  0.41025000  0.30242000  0.05469000  1.0
  O  O43  1  0.58975000  0.69759000  0.94531000  1.0
  O  O44  1  0.13624000  0.42305000  0.83573000  1.0
  O  O45  1  0.86375000  0.57694000  0.16426000  1.0
  O  O46  1  0.42273000  0.85323000  0.70156000  1.0
  O  O47  1  0.57726000  0.14676000  0.29844000  1.0
  O  O48  1  0.50469000  0.81084000  0.22988000  1.0
  O  O49  1  0.49533000  0.18919000  0.77013000  1.0
  O  O50  1  0.24308000  0.63666000  0.09781000  1.0
  O  O51  1  0.75693000  0.36334000  0.90219000  1.0
  O  O52  1  0.11184000  0.07318000  0.82687000  1.0
  O  O53  1  0.88816000  0.92682000  0.17313000  1.0
  O  O54  1  0.07236000  0.26606000  0.05887000  1.0
  O  O55  1  0.92765000  0.73394000  0.94113000  1.0
