# generated using pymatgen
data_CdH7C10S2N5
_symmetry_space_group_name_H-M   'P 1'
_cell_length_a   8.47805000
_cell_length_b   9.26223000
_cell_length_c   16.26150000
_cell_angle_alpha   90.00000000
_cell_angle_beta   97.54520000
_cell_angle_gamma   89.99970000
_symmetry_Int_Tables_number   1
_chemical_formula_structural   CdH7C10S2N5
_chemical_formula_sum   'Cd4 H28 C40 S8 N20'
_cell_volume   1265.88852011
_cell_formula_units_Z   4
loop_
 _symmetry_equiv_pos_site_id
 _symmetry_equiv_pos_as_xyz
  1  'x, y, z'
loop_
 _atom_site_type_symbol
 _atom_site_label
 _atom_site_symmetry_multiplicity
 _atom_site_fract_x
 _atom_site_fract_y
 _atom_site_fract_z
 _atom_site_occupancy
  Cd  Cd0  1  0.01013000  0.19982000  0.36957000  1.0
  Cd  Cd1  1  0.98987000  0.69981000  0.13042000  1.0
  Cd  Cd2  1  0.98987000  0.80018000  0.63043000  1.0
  Cd  Cd3  1  0.01013000  0.30019000  0.86958000  1.0
  H  H4  1  0.55104000  0.89450000  0.19356000  1.0
  H  H5  1  0.44896000  0.39450000  0.30644000  1.0
  H  H6  1  0.44896000  0.10550000  0.80644000  1.0
  H  H7  1  0.55104000  0.60550000  0.69356000  1.0
  H  H8  1  0.72683000  0.33658000  0.20286000  1.0
  H  H9  1  0.27316000  0.83658000  0.29714000  1.0
  H  H10  1  0.27317000  0.66342000  0.79714000  1.0
  H  H11  1  0.72683000  0.16341000  0.70286000  1.0
  H  H12  1  0.52130000  0.40123000  0.09943000  1.0
  H  H13  1  0.47870000  0.90123000  0.40057000  1.0
  H  H14  1  0.47870000  0.59877000  0.90057000  1.0
  H  H15  1  0.52130000  0.09877000  0.59943000  1.0
  H  H16  1  0.31058000  0.45903000  0.98404000  1.0
  H  H17  1  0.68941000  0.95903000  0.51596000  1.0
  H  H18  1  0.68942000  0.54097000  0.01596000  1.0
  H  H19  1  0.31059000  0.04097000  0.48404000  1.0
  H  H20  1  0.16563000  0.03122000  0.96111000  1.0
  H  H21  1  0.83438000  0.53122000  0.53889000  1.0
  H  H22  1  0.83438000  0.96878000  0.03888000  1.0
  H  H23  1  0.16563000  0.46878000  0.46111000  1.0
  H  H24  1  0.37114000  0.95496000  0.07490000  1.0
  H  H25  1  0.62886000  0.45496000  0.42510000  1.0
  H  H26  1  0.62886000  0.04504000  0.92509000  1.0
  H  H27  1  0.37115000  0.54504000  0.57490000  1.0
  H  H28  1  0.79056000  0.93765000  0.30624000  1.0
  H  H29  1  0.20944000  0.43765000  0.19376000  1.0
  H  H30  1  0.20943000  0.06235000  0.69376000  1.0
  H  H31  1  0.79056000  0.56234000  0.80624000  1.0
  C  C32  1  0.61077000  0.99734000  0.20542000  1.0
  C  C33  1  0.38923000  0.49734000  0.29458000  1.0
  C  C34  1  0.38923000  0.00266000  0.79457000  1.0
  C  C35  1  0.61077000  0.50266000  0.70542000  1.0
  C  C36  1  0.58574000  0.13258000  0.16708000  1.0
  C  C37  1  0.41425000  0.63258000  0.33292000  1.0
  C  C38  1  0.41426000  0.86742000  0.83292000  1.0
  C  C39  1  0.58575000  0.36742000  0.66708000  1.0
  C  C40  1  0.70155000  0.22316000  0.21168000  1.0
  C  C41  1  0.29844000  0.72316000  0.28832000  1.0
  C  C42  1  0.29845000  0.77684000  0.78832000  1.0
  C  C43  1  0.70155000  0.27684000  0.71168000  1.0
  C  C44  1  0.46592000  0.17149000  0.09834000  1.0
  C  C45  1  0.53408000  0.67148000  0.40167000  1.0
  C  C46  1  0.53409000  0.82851000  0.90166000  1.0
  C  C47  1  0.46592000  0.32851000  0.59833000  1.0
  C  C48  1  0.44641000  0.31490000  0.07032000  1.0
  C  C49  1  0.55359000  0.81490000  0.42968000  1.0
  C  C50  1  0.55359000  0.68510000  0.92968000  1.0
  C  C51  1  0.44641000  0.18510000  0.57032000  1.0
  C  C52  1  0.32870000  0.34801000  0.00548000  1.0
  C  C53  1  0.67129000  0.84801000  0.49453000  1.0
  C  C54  1  0.67129000  0.65199000  0.99452000  1.0
  C  C55  1  0.32871000  0.15198000  0.50548000  1.0
  C  C56  1  0.24774000  0.10976000  0.99311000  1.0
  C  C57  1  0.75225000  0.60976000  0.50689000  1.0
  C  C58  1  0.75226000  0.89024000  0.00689000  1.0
  C  C59  1  0.24775000  0.39024000  0.49310000  1.0
  C  C60  1  0.36305000  0.06817000  0.05711000  1.0
  C  C61  1  0.63694000  0.56817000  0.44290000  1.0
  C  C62  1  0.63695000  0.93183000  0.94289000  1.0
  C  C63  1  0.36305000  0.43183000  0.55710000  1.0
  C  C64  1  0.06846000  0.86852000  0.43892000  1.0
  C  C65  1  0.93154000  0.36853000  0.06109000  1.0
  C  C66  1  0.93154000  0.13148000  0.56108000  1.0
  C  C67  1  0.06846000  0.63147000  0.93891000  1.0
  C  C68  1  0.88849000  0.52754000  0.29685000  1.0
  C  C69  1  0.11150000  0.02753000  0.20314000  1.0
  C  C70  1  0.11151000  0.47245000  0.70315000  1.0
  C  C71  1  0.88850000  0.97247000  0.79686000  1.0
  S  S72  1  0.17569000  0.76398000  0.50413000  1.0
  S  S73  1  0.82431000  0.26399000  0.99587000  1.0
  S  S74  1  0.82431000  0.23602000  0.49587000  1.0
  S  S75  1  0.17569000  0.73601000  0.00413000  1.0
  S  S76  1  0.77856000  0.64282000  0.23895000  1.0
  S  S77  1  0.22143000  0.14282000  0.26104000  1.0
  S  S78  1  0.22145000  0.35717000  0.76105000  1.0
  S  S79  1  0.77857000  0.85719000  0.73896000  1.0
  N  N80  1  0.78828000  0.14894000  0.27199000  1.0
  N  N81  1  0.21172000  0.64894000  0.22801000  1.0
  N  N82  1  0.21172000  0.85106000  0.72801000  1.0
  N  N83  1  0.78828000  0.35106000  0.77199000  1.0
  N  N84  1  0.73122000  0.01283000  0.26723000  1.0
  N  N85  1  0.26878000  0.51284000  0.23277000  1.0
  N  N86  1  0.26878000  0.98716000  0.73277000  1.0
  N  N87  1  0.73122000  0.48717000  0.76723000  1.0
  N  N88  1  0.23010000  0.24758000  0.96714000  1.0
  N  N89  1  0.76990000  0.74758000  0.53287000  1.0
  N  N90  1  0.76990000  0.75242000  0.03286000  1.0
  N  N91  1  0.23011000  0.25242000  0.46713000  1.0
  N  N92  1  0.99094000  0.94562000  0.39112000  1.0
  N  N93  1  0.00906000  0.44562000  0.10888000  1.0
  N  N94  1  0.00906000  0.05438000  0.60888000  1.0
  N  N95  1  0.99094000  0.55438000  0.89113000  1.0
  N  N96  1  0.96673000  0.44219000  0.33822000  1.0
  N  N97  1  0.03326000  0.94218000  0.16178000  1.0
  N  N98  1  0.03328000  0.55781000  0.66178000  1.0
  N  N99  1  0.96674000  0.05782000  0.83822000  1.0
