# generated using pymatgen
data_NiH7C7NO6
_symmetry_space_group_name_H-M   'P 1'
_cell_length_a   7.30752000
_cell_length_b   8.05583000
_cell_length_c   9.00828000
_cell_angle_alpha   97.98680000
_cell_angle_beta   100.79000000
_cell_angle_gamma   116.01600000
_symmetry_Int_Tables_number   1
_chemical_formula_structural   NiH7C7NO6
_chemical_formula_sum   'Ni2 H14 C14 N2 O12'
_cell_volume   453.22520216
_cell_formula_units_Z   2
loop_
 _symmetry_equiv_pos_site_id
 _symmetry_equiv_pos_as_xyz
  1  'x, y, z'
loop_
 _atom_site_type_symbol
 _atom_site_label
 _atom_site_symmetry_multiplicity
 _atom_site_fract_x
 _atom_site_fract_y
 _atom_site_fract_z
 _atom_site_occupancy
  Ni  Ni0  1  0.60977000  0.82118000  0.67836000  1.0
  Ni  Ni1  1  0.39023000  0.17882000  0.32164000  1.0
  H  H2  1  0.23931000  0.70829000  0.53418000  1.0
  H  H3  1  0.76069000  0.29171000  0.46582000  1.0
  H  H4  1  0.33104000  0.60143000  0.41957000  1.0
  H  H5  1  0.66896000  0.39857000  0.58043000  1.0
  H  H6  1  0.52954000  0.08760000  0.79682000  1.0
  H  H7  1  0.47045000  0.91240000  0.20318000  1.0
  H  H8  1  0.62701000  0.15270000  0.65564000  1.0
  H  H9  1  0.37299000  0.84730000  0.34436000  1.0
  H  H10  1  0.66252000  0.49061000  0.01889000  1.0
  H  H11  1  0.33748000  0.50939000  0.98111000  1.0
  H  H12  1  0.01067000  0.17309000  0.74801000  1.0
  H  H13  1  0.98932000  0.82691000  0.25198000  1.0
  H  H14  1  0.68751000  0.69115000  0.37499000  1.0
  H  H15  1  0.31248000  0.30885000  0.62501000  1.0
  C  C16  1  0.80509000  0.67216000  0.80820000  1.0
  C  C17  1  0.19492000  0.32784000  0.19180000  1.0
  C  C18  1  0.90917000  0.58154000  0.90180000  1.0
  C  C19  1  0.09084000  0.41847000  0.09820000  1.0
  C  C20  1  0.81150000  0.49557000  0.00976000  1.0
  C  C21  1  0.18852000  0.50445000  0.99025000  1.0
  C  C22  1  0.10062000  0.58615000  0.89150000  1.0
  C  C23  1  0.89938000  0.41386000  0.10850000  1.0
  C  C24  1  0.21332000  0.67317000  0.77647000  1.0
  C  C25  1  0.78668000  0.32683000  0.22353000  1.0
  C  C26  1  0.00678000  0.09669000  0.63679000  1.0
  C  C27  1  0.99321000  0.90331000  0.36321000  1.0
  C  C28  1  0.82689000  0.83005000  0.42995000  1.0
  C  C29  1  0.17310000  0.16994000  0.57005000  1.0
  N  N30  1  0.83328000  0.92744000  0.56645000  1.0
  N  N31  1  0.16671000  0.07256000  0.43355000  1.0
  O  O32  1  0.65629000  0.57199000  0.67985000  1.0
  O  O33  1  0.34371000  0.42801000  0.32014000  1.0
  O  O34  1  0.85031000  0.84262000  0.86268000  1.0
  O  O35  1  0.14968000  0.15738000  0.13732000  1.0
  O  O36  1  0.41061000  0.71976000  0.81014000  1.0
  O  O37  1  0.58939000  0.28024000  0.18986000  1.0
  O  O38  1  0.10873000  0.69088000  0.65597000  1.0
  O  O39  1  0.89127000  0.30911000  0.34403000  1.0
  O  O40  1  0.35611000  0.72940000  0.47900000  1.0
  O  O41  1  0.64389000  0.27060000  0.52100000  1.0
  O  O42  1  0.63234000  0.08650000  0.74260000  1.0
  O  O43  1  0.36765000  0.91350000  0.25740000  1.0
