# generated using pymatgen
data_Zn6H34C58O27
_symmetry_space_group_name_H-M   'P 1'
_cell_length_a   18.59310000
_cell_length_b   18.78150000
_cell_length_c   18.84838020
_cell_angle_alpha   109.65245161
_cell_angle_beta   109.24450457
_cell_angle_gamma   109.11200000
_symmetry_Int_Tables_number   1
_chemical_formula_structural   Zn6H34C58O27
_chemical_formula_sum   'Zn6 H34 C58 O27'
_cell_volume   5091.86231699
_cell_formula_units_Z   1
loop_
 _symmetry_equiv_pos_site_id
 _symmetry_equiv_pos_as_xyz
  1  'x, y, z'
loop_
 _atom_site_type_symbol
 _atom_site_label
 _atom_site_symmetry_multiplicity
 _atom_site_fract_x
 _atom_site_fract_y
 _atom_site_fract_z
 _atom_site_occupancy
  Zn  Zn0  1  0.43464000  0.00033000  0.93964000  1.0
  Zn  Zn1  1  0.55978000  0.99893000  0.06269000  1.0
  Zn  Zn2  1  0.44098000  0.44055000  0.50320000  1.0
  Zn  Zn3  1  0.56253000  0.56450000  0.50023000  1.0
  Zn  Zn4  1  0.99544000  0.56412000  0.06051000  1.0
  Zn  Zn5  1  0.99767000  0.43837000  0.93929000  1.0
  H  H6  1  0.43421000  0.18986000  0.33953000  1.0
  H  H7  1  0.09518000  0.81505000  0.99491000  1.0
  H  H8  1  0.50536000  0.32083000  0.28300000  1.0
  H  H9  1  0.15957000  0.87490000  0.11030000  1.0
  H  H10  1  0.21752000  0.91191000  0.98483000  1.0
  H  H11  1  0.28014000  0.97407000  0.10014000  1.0
  H  H12  1  0.79669000  0.52105000  0.61752000  1.0
  H  H13  1  0.89272000  0.49128000  0.71625000  1.0
  H  H14  1  0.68076000  0.43492000  0.84757000  1.0
  H  H15  1  0.74773000  0.55002000  0.91877000  1.0
  H  H16  1  0.57831000  0.45782000  0.74367000  1.0
  H  H17  1  0.44105000  0.72421000  0.85217000  1.0
  H  H18  1  0.64537000  0.57277000  0.81324000  1.0
  H  H19  1  0.39171000  0.64543000  0.34511000  1.0
  H  H20  1  0.48939000  0.11528000  0.24375000  1.0
  H  H21  1  0.26659000  0.62951000  0.22705000  1.0
  H  H22  1  0.08708000  0.29240000  0.12321000  1.0
  H  H23  1  0.13726000  0.28357000  0.05685000  1.0
  H  H24  1  0.21294000  0.30374000  0.23927000  1.0
  H  H25  1  0.40555000  0.18741000  0.13629000  1.0
  H  H26  1  0.81351000  0.24035000  0.16007000  1.0
  H  H27  1  0.91677000  0.36594000  0.16324000  1.0
  H  H28  1  0.43412000  0.59980000  0.74257000  1.0
  H  H29  1  0.66048000  0.32452000  0.88904000  1.0
  H  H30  1  0.55715000  0.21417000  0.90054000  1.0
  H  H31  1  0.58887000  0.08040000  0.82562000  1.0
  H  H32  1  0.30268000  0.32427000  0.12842000  1.0
  H  H33  1  0.71279000  0.18876000  0.80984000  1.0
  H  H34  1  0.55211000  0.79844000  0.61531000  1.0
  H  H35  1  0.43716000  0.74933000  0.54591000  1.0
  H  H36  1  0.54919000  0.92057000  0.71989000  1.0
  H  H37  1  0.43407000  0.87213000  0.65145000  1.0
  H  H38  1  0.38648000  0.73718000  0.03877000  1.0
  H  H39  1  0.25835000  0.63244000  0.03242000  1.0
  C  C40  1  0.63895000  0.12310000  0.03458000  1.0
  C  C41  1  0.46086000  0.80354000  0.79251000  1.0
  C  C42  1  0.44832000  0.72776000  0.79817000  1.0
  C  C43  1  0.45730000  0.10235000  0.09036000  1.0
  C  C44  1  0.44529000  0.65782000  0.73682000  1.0
  C  C45  1  0.45992000  0.66178000  0.66909000  1.0
  C  C46  1  0.47172000  0.73671000  0.66395000  1.0
  C  C47  1  0.48899000  0.78211000  0.61359000  1.0
  C  C48  1  0.48678000  0.85908000  0.67971000  1.0
  C  C49  1  0.27286000  0.84518000  0.04380000  1.0
  C  C50  1  0.33968000  0.82857000  0.04031000  1.0
  C  C51  1  0.70430000  0.19842000  0.03899000  1.0
  C  C52  1  0.33487000  0.75211000  0.04025000  1.0
  C  C53  1  0.26336000  0.69371000  0.03783000  1.0
  C  C54  1  0.19583000  0.71106000  0.04134000  1.0
  C  C55  1  0.40864000  0.88664000  0.03158000  1.0
  C  C56  1  0.20441000  0.78969000  0.04749000  1.0
  C  C57  1  0.16103000  0.84566000  0.04995000  1.0
  C  C58  1  0.23791000  0.90778000  0.04436000  1.0
  C  C59  1  0.64729000  0.52874000  0.61276000  1.0
  C  C60  1  0.47748000  0.36074000  0.38754000  1.0
  C  C61  1  0.40674000  0.51761000  0.37744000  1.0
  C  C62  1  0.79149000  0.25357000  0.10713000  1.0
  C  C63  1  0.46769000  0.59333000  0.60896000  1.0
  C  C64  1  0.11916000  0.48225000  0.09280000  1.0
  C  C65  1  0.88806000  0.41109000  0.03388000  1.0
  C  C66  1  0.88804000  0.48049000  0.85880000  1.0
  C  C67  1  0.46957000  0.87952000  0.86177000  1.0
  C  C68  1  0.11845000  0.64398000  0.03251000  1.0
  C  C69  1  0.70260000  0.51223000  0.74213000  1.0
  C  C70  1  0.71357000  0.52066000  0.67518000  1.0
  C  C71  1  0.78510000  0.51469000  0.66872000  1.0
  C  C72  1  0.83975000  0.49823000  0.72488000  1.0
  C  C73  1  0.85001000  0.32475000  0.10877000  1.0
  C  C74  1  0.82885000  0.49178000  0.79353000  1.0
  C  C75  1  0.75975000  0.50074000  0.80081000  1.0
  C  C76  1  0.71073000  0.49785000  0.85091000  1.0
  C  C77  1  0.64608000  0.51162000  0.78461000  1.0
  C  C78  1  0.26600000  0.42759000  0.23460000  1.0
  C  C79  1  0.45466000  0.21302000  0.29974000  1.0
  C  C80  1  0.33728000  0.50841000  0.30146000  1.0
  C  C81  1  0.33678000  0.58084000  0.29501000  1.0
  C  C82  1  0.26663000  0.57176000  0.22790000  1.0
  C  C83  1  0.19502000  0.48952000  0.16066000  1.0
  C  C84  1  0.82539000  0.34301000  0.04076000  1.0
  C  C85  1  0.19813000  0.41815000  0.16538000  1.0
  C  C86  1  0.14866000  0.32010000  0.12252000  1.0
  C  C87  1  0.22874000  0.33002000  0.19919000  1.0
  C  C88  1  0.47799000  0.29551000  0.31787000  1.0
  C  C89  1  0.46279000  0.15668000  0.23162000  1.0
  C  C90  1  0.44027000  0.15406000  0.15459000  1.0
  C  C91  1  0.68016000  0.21933000  0.97352000  1.0
  C  C92  1  0.27934000  0.29471000  0.16468000  1.0
  C  C93  1  0.69572000  0.24160000  0.81599000  1.0
  C  C94  1  0.73906000  0.28800000  0.97382000  1.0
  C  C95  1  0.67526000  0.27219000  0.88768000  1.0
  C  C96  1  0.60455000  0.19553000  0.88993000  1.0
  C  C97  1  0.46966000  0.80447000  0.72228000  1.0
  O  O98  1  0.55997000  0.09111000  0.97796000  1.0
  O  O99  1  0.08632000  0.42349000  0.01362000  1.0
  O  O100  1  0.91561000  0.49127000  0.08479000  1.0
  O  O101  1  0.66465000  0.09468000  0.08599000  1.0
  O  O102  1  0.90741000  0.38243000  0.97582000  1.0
  O  O103  1  0.90299000  0.52124000  0.93603000  1.0
  O  O104  1  0.92015000  0.43138000  0.83542000  1.0
  O  O105  1  0.08247000  0.66913000  0.07668000  1.0
  O  O106  1  0.09253000  0.56529000  0.98163000  1.0
  O  O107  1  0.41115000  0.08142000  0.01060000  1.0
  O  O108  1  0.51559000  0.08167000  0.11633000  1.0
  O  O109  1  0.67081000  0.57814000  0.58167000  1.0
  O  O110  1  0.38230000  0.91035000  0.97709000  1.0
  O  O111  1  0.48917000  0.90979000  0.07946000  1.0
  O  O112  1  0.42105000  0.91192000  0.83785000  1.0
  O  O113  1  0.52481000  0.90717000  0.93930000  1.0
  O  O114  1  0.56882000  0.48503000  0.59466000  1.0
  O  O115  1  0.55579000  0.11066000  0.81824000  1.0
  O  O116  1  0.29391000  0.23819000  0.17238000  1.0
  O  O117  1  0.69491000  0.27107000  0.76731000  1.0
  O  O118  1  0.42997000  0.33647000  0.42070000  1.0
  O  O119  1  0.52558000  0.43943000  0.41018000  1.0
  O  O120  1  0.38125000  0.46652000  0.40493000  1.0
  O  O121  1  0.48628000  0.57584000  0.40917000  1.0
  O  O122  1  0.42123000  0.51354000  0.58726000  1.0
  O  O123  1  0.52050000  0.61911000  0.58258000  1.0
  O  O124  1  0.09205000  0.53429000  0.11815000  1.0
