# generated using pymatgen
data_Co5H38C48(N2O5)4
_symmetry_space_group_name_H-M   'P 1'
_cell_length_a   10.96380000
_cell_length_b   11.94340000
_cell_length_c   13.57370000
_cell_angle_alpha   68.36270000
_cell_angle_beta   80.75610000
_cell_angle_gamma   69.54490000
_symmetry_Int_Tables_number   1
_chemical_formula_structural   Co5H38C48(N2O5)4
_chemical_formula_sum   'Co5 H38 C48 N8 O20'
_cell_volume   1546.96077291
_cell_formula_units_Z   1
loop_
 _symmetry_equiv_pos_site_id
 _symmetry_equiv_pos_as_xyz
  1  'x, y, z'
loop_
 _atom_site_type_symbol
 _atom_site_label
 _atom_site_symmetry_multiplicity
 _atom_site_fract_x
 _atom_site_fract_y
 _atom_site_fract_z
 _atom_site_occupancy
  Co  Co0  1  0.00000000  0.50000000  0.99999000  1.0
  Co  Co1  1  0.96079000  0.59158000  0.18860000  1.0
  Co  Co2  1  0.03921000  0.40842000  0.81140000  1.0
  Co  Co3  1  0.87034000  0.32752000  0.18784000  1.0
  Co  Co4  1  0.12967000  0.67249000  0.81215000  1.0
  H  H5  1  0.78255000  0.57118000  0.11327000  1.0
  H  H6  1  0.21744000  0.42883000  0.88674000  1.0
  H  H7  1  0.13303000  0.30473000  0.48747000  1.0
  H  H8  1  0.86698000  0.69526000  0.51255000  1.0
  H  H9  1  0.05042000  0.08869000  0.47542000  1.0
  H  H10  1  0.94959000  0.91130000  0.52459000  1.0
  H  H11  1  0.21051000  0.18743000  0.65035000  1.0
  H  H12  1  0.78949000  0.81256000  0.34964000  1.0
  H  H13  1  0.26948000  0.04430000  0.83491000  1.0
  H  H14  1  0.73052000  0.95569000  0.16508000  1.0
  H  H15  1  0.22964000  0.83250000  0.90298000  1.0
  H  H16  1  0.77036000  0.16750000  0.09702000  1.0
  H  H17  1  0.07525000  0.90235000  0.62080000  1.0
  H  H18  1  0.92474000  0.09765000  0.37920000  1.0
  H  H19  1  0.40768000  0.57633000  0.06759000  1.0
  H  H20  1  0.59231000  0.42368000  0.93241000  1.0
  H  H21  1  0.25684000  0.43149000  0.25349000  1.0
  H  H22  1  0.74315000  0.56851000  0.74651000  1.0
  H  H23  1  0.35613000  0.40791000  0.42954000  1.0
  H  H24  1  0.64387000  0.59210000  0.57047000  1.0
  H  H25  1  0.55997000  0.34664000  0.51947000  1.0
  H  H26  1  0.44003000  0.65338000  0.48053000  1.0
  H  H27  1  0.77337000  0.32464000  0.41260000  1.0
  H  H28  1  0.22663000  0.67537000  0.58740000  1.0
  H  H29  1  0.58886000  0.41904000  0.13817000  1.0
  H  H30  1  0.41114000  0.58095000  0.86183000  1.0
  H  H31  1  0.86052000  0.91473000  0.79236000  1.0
  H  H32  1  0.13948000  0.08527000  0.20764000  1.0
  H  H33  1  0.87572000  0.99679000  0.97909000  1.0
  H  H34  1  0.12429000  0.00321000  0.02091000  1.0
  H  H35  1  0.75168000  0.13382000  0.69675000  1.0
  H  H36  1  0.24832000  0.86617000  0.30325000  1.0
  H  H37  1  0.78362000  0.33735000  0.56676000  1.0
  H  H38  1  0.21639000  0.66265000  0.43324000  1.0
  H  H39  1  0.91237000  0.44030000  0.61832000  1.0
  H  H40  1  0.08763000  0.55970000  0.38168000  1.0
  H  H41  1  0.96143000  0.17258000  0.91952000  1.0
  H  H42  1  0.03857000  0.82742000  0.08047000  1.0
  C  C43  1  0.03210000  0.32491000  0.35256000  1.0
  C  C44  1  0.96791000  0.67508000  0.64745000  1.0
  C  C45  1  0.09316000  0.25261000  0.45671000  1.0
  C  C46  1  0.90685000  0.74738000  0.54330000  1.0
  C  C47  1  0.09295000  0.13303000  0.51240000  1.0
  C  C48  1  0.90705000  0.86696000  0.48760000  1.0
  C  C49  1  0.13779000  0.05678000  0.61913000  1.0
  C  C50  1  0.86221000  0.94321000  0.38087000  1.0
  C  C51  1  0.19442000  0.09553000  0.68152000  1.0
  C  C52  1  0.80557000  0.90446000  0.31848000  1.0
  C  C53  1  0.22729000  0.01551000  0.78446000  1.0
  C  C54  1  0.77271000  0.98449000  0.21555000  1.0
  C  C55  1  0.20397000  0.89878000  0.82333000  1.0
  C  C56  1  0.79602000  0.10122000  0.17667000  1.0
  C  C57  1  0.11857000  0.93764000  0.66524000  1.0
  C  C58  1  0.88143000  0.06235000  0.33476000  1.0
  C  C59  1  0.22019000  0.56786000  0.04446000  1.0
  C  C60  1  0.77981000  0.43214000  0.95553000  1.0
  C  C61  1  0.33035000  0.53682000  0.10961000  1.0
  C  C62  1  0.66964000  0.46319000  0.89039000  1.0
  C  C63  1  0.33931000  0.46378000  0.21297000  1.0
  C  C64  1  0.66068000  0.53623000  0.78702000  1.0
  C  C65  1  0.45423000  0.42521000  0.27377000  1.0
  C  C66  1  0.54575000  0.57479000  0.72623000  1.0
  C  C67  1  0.44846000  0.39924000  0.38382000  1.0
  C  C68  1  0.55152000  0.60076000  0.61619000  1.0
  C  C69  1  0.56345000  0.36437000  0.43465000  1.0
  C  C70  1  0.43654000  0.63564000  0.56535000  1.0
  C  C71  1  0.68088000  0.35260000  0.37620000  1.0
  C  C72  1  0.31911000  0.64740000  0.62380000  1.0
  C  C73  1  0.57750000  0.40865000  0.22197000  1.0
  C  C74  1  0.42249000  0.59134000  0.77804000  1.0
  C  C75  1  0.89803000  0.77961000  0.95316000  1.0
  C  C76  1  0.10198000  0.22040000  0.04684000  1.0
  C  C77  1  0.86568000  0.90910000  0.87376000  1.0
  C  C78  1  0.13433000  0.09090000  0.12624000  1.0
  C  C79  1  0.86210000  0.01056000  0.89683000  1.0
  C  C80  1  0.13790000  0.98944000  0.10317000  1.0
  C  C81  1  0.85838000  0.13405000  0.81843000  1.0
  C  C82  1  0.14162000  0.86596000  0.18157000  1.0
  C  C83  1  0.80582000  0.18277000  0.71747000  1.0
  C  C84  1  0.19417000  0.81723000  0.28254000  1.0
  C  C85  1  0.82325000  0.29455000  0.64550000  1.0
  C  C86  1  0.17675000  0.70545000  0.35450000  1.0
  C  C87  1  0.89367000  0.35464000  0.67367000  1.0
  C  C88  1  0.10633000  0.64536000  0.32633000  1.0
  C  C89  1  0.92086000  0.20500000  0.84193000  1.0
  C  C90  1  0.07914000  0.79500000  0.15807000  1.0
  N  N91  1  0.72863000  0.63440000  0.34338000  1.0
  N  N92  1  0.27138000  0.36561000  0.65662000  1.0
  N  N93  1  0.14989000  0.85979000  0.76459000  1.0
  N  N94  1  0.85011000  0.14021000  0.23541000  1.0
  N  N95  1  0.68848000  0.37265000  0.27117000  1.0
  N  N96  1  0.31151000  0.62734000  0.72883000  1.0
  N  N97  1  0.94086000  0.31110000  0.77144000  1.0
  N  N98  1  0.05913000  0.68890000  0.22856000  1.0
  O  O99  1  0.97241000  0.27405000  0.31643000  1.0
  O  O100  1  0.02759000  0.72595000  0.68358000  1.0
  O  O101  1  0.04047000  0.43657000  0.30805000  1.0
  O  O102  1  0.95955000  0.56341000  0.69195000  1.0
  O  O103  1  0.22880000  0.63502000  0.94707000  1.0
  O  O104  1  0.77121000  0.36498000  0.05292000  1.0
  O  O105  1  0.12515000  0.52409000  0.08676000  1.0
  O  O106  1  0.87485000  0.47589000  0.91322000  1.0
  O  O107  1  0.88610000  0.76323000  0.05123000  1.0
  O  O108  1  0.11390000  0.23677000  0.94877000  1.0
  O  O109  1  0.94261000  0.68956000  0.91240000  1.0
  O  O110  1  0.05742000  0.31044000  0.08759000  1.0
  O  O111  1  0.87030000  0.51120000  0.12567000  1.0
  O  O112  1  0.12970000  0.48882000  0.87432000  1.0
  O  O113  1  0.80660000  0.57674000  0.41859000  1.0
  O  O114  1  0.19342000  0.42325000  0.58141000  1.0
  O  O115  1  0.77399000  0.66703000  0.24592000  1.0
  O  O116  1  0.22601000  0.33300000  0.75408000  1.0
  O  O117  1  0.60775000  0.66436000  0.35842000  1.0
  O  O118  1  0.39226000  0.33564000  0.64159000  1.0
