# generated using pymatgen
data_CuH9(CN)7
_symmetry_space_group_name_H-M   'P 1'
_cell_length_a   5.74120000
_cell_length_b   9.80272000
_cell_length_c   10.25190000
_cell_angle_alpha   109.74500000
_cell_angle_beta   106.08500000
_cell_angle_gamma   90.13680000
_symmetry_Int_Tables_number   1
_chemical_formula_structural   CuH9(CN)7
_chemical_formula_sum   'Cu2 H18 C14 N14'
_cell_volume   518.84094499
_cell_formula_units_Z   2
loop_
 _symmetry_equiv_pos_site_id
 _symmetry_equiv_pos_as_xyz
  1  'x, y, z'
loop_
 _atom_site_type_symbol
 _atom_site_label
 _atom_site_symmetry_multiplicity
 _atom_site_fract_x
 _atom_site_fract_y
 _atom_site_fract_z
 _atom_site_occupancy
  Cu  Cu0  1  0.21270000  0.02432000  0.93614000  1.0
  Cu  Cu1  1  0.78729000  0.97568000  0.06386000  1.0
  H  H2  1  0.96328000  0.26068000  0.55766000  1.0
  H  H3  1  0.03673000  0.73933000  0.44234000  1.0
  H  H4  1  0.66034000  0.43574000  0.87904000  1.0
  H  H5  1  0.33967000  0.56424000  0.12096000  1.0
  H  H6  1  0.57827000  0.26493000  0.99878000  1.0
  H  H7  1  0.42172000  0.73506000  0.00122000  1.0
  H  H8  1  0.71737000  0.07940000  0.58049000  1.0
  H  H9  1  0.28262000  0.92061000  0.41951000  1.0
  H  H10  1  0.77927000  0.06459000  0.75546000  1.0
  H  H11  1  0.22072000  0.93542000  0.24454000  1.0
  H  H12  1  0.90378000  0.94753000  0.62430000  1.0
  H  H13  1  0.09619000  0.05248000  0.37569000  1.0
  H  H14  1  0.33927000  0.57511000  0.69656000  1.0
  H  H15  1  0.66075000  0.42489000  0.30344000  1.0
  H  H16  1  0.21863000  0.43587000  0.52380000  1.0
  H  H17  1  0.78139000  0.56413000  0.47621000  1.0
  H  H18  1  0.53721000  0.46129000  0.61586000  1.0
  H  H19  1  0.46282000  0.53871000  0.38414000  1.0
  C  C20  1  0.07727000  0.16741000  0.72301000  1.0
  C  C21  1  0.92273000  0.83259000  0.27699000  1.0
  C  C22  1  0.10888000  0.26293000  0.65316000  1.0
  C  C23  1  0.89113000  0.73707000  0.34684000  1.0
  C  C24  1  0.31904000  0.36073000  0.70478000  1.0
  C  C25  1  0.68097000  0.63926000  0.29522000  1.0
  C  C26  1  0.49317000  0.36135000  0.83180000  1.0
  C  C27  1  0.50684000  0.63864000  0.16820000  1.0
  C  C28  1  0.45111000  0.26619000  0.89853000  1.0
  C  C29  1  0.54888000  0.73381000  0.10147000  1.0
  C  C30  1  0.85688000  0.05937000  0.66751000  1.0
  C  C31  1  0.14311000  0.94064000  0.33249000  1.0
  C  C32  1  0.35473000  0.46298000  0.63018000  1.0
  C  C33  1  0.64529000  0.53701000  0.36982000  1.0
  N  N34  1  0.43632000  0.89048000  0.85582000  1.0
  N  N35  1  0.56368000  0.10952000  0.14418000  1.0
  N  N36  1  0.43391000  0.85097000  0.73008000  1.0
  N  N37  1  0.56608000  0.14903000  0.26991000  1.0
  N  N38  1  0.43776000  0.80879000  0.60990000  1.0
  N  N39  1  0.56223000  0.19122000  0.39011000  1.0
  N  N40  1  0.00361000  0.86320000  0.94908000  1.0
  N  N41  1  0.99637000  0.13680000  0.05092000  1.0
  N  N42  1  0.98329000  0.73159000  0.89093000  1.0
  N  N43  1  0.01670000  0.26842000  0.10907000  1.0
  N  N44  1  0.96561000  0.60553000  0.83713000  1.0
  N  N45  1  0.03438000  0.39448000  0.16287000  1.0
  N  N46  1  0.25024000  0.16978000  0.84471000  1.0
  N  N47  1  0.74975000  0.83021000  0.15529000  1.0
