# generated using pymatgen
data_Zn2H13C27N8Cl
_symmetry_space_group_name_H-M   'P 1'
_cell_length_a   18.52960000
_cell_length_b   18.85880000
_cell_length_c   18.85560000
_cell_angle_alpha   103.16300000
_cell_angle_beta   110.15700000
_cell_angle_gamma   110.14600000
_symmetry_Int_Tables_number   1
_chemical_formula_structural   Zn2H13C27N8Cl
_chemical_formula_sum   'Zn4 H26 C54 N16 Cl2'
_cell_volume   5339.63786240
_cell_formula_units_Z   2
loop_
 _symmetry_equiv_pos_site_id
 _symmetry_equiv_pos_as_xyz
  1  'x, y, z'
loop_
 _atom_site_type_symbol
 _atom_site_label
 _atom_site_symmetry_multiplicity
 _atom_site_fract_x
 _atom_site_fract_y
 _atom_site_fract_z
 _atom_site_occupancy
  Zn  Zn0  1  0.90181000  0.50642000  0.38818000  1.0
  Zn  Zn1  1  0.90178000  0.38812000  0.50641000  1.0
  Zn  Zn2  1  0.11449000  0.48518000  0.59522000  1.0
  Zn  Zn3  1  0.11452000  0.59523000  0.48521000  1.0
  H  H4  1  0.61153000  0.97182000  0.05385000  1.0
  H  H5  1  0.43181000  0.85263000  0.99789000  1.0
  H  H6  1  0.42892000  0.99944000  0.85330000  1.0
  H  H7  1  0.46403000  0.04400000  0.10598000  1.0
  H  H8  1  0.46279000  0.10425000  0.04692000  1.0
  H  H9  1  0.34332000  0.93069000  0.99257000  1.0
  H  H10  1  0.34219000  0.99102000  0.93341000  1.0
  H  H11  1  0.60983000  0.05691000  0.97035000  1.0
  H  H12  1  0.15846000  0.36219000  0.48962000  1.0
  H  H13  1  0.15845000  0.48953000  0.36232000  1.0
  H  H14  1  0.31652000  0.65078000  0.50410000  1.0
  H  H15  1  0.31649000  0.50403000  0.65074000  1.0
  H  H16  1  0.74279000  0.21599000  0.36202000  1.0
  H  H17  1  0.74286000  0.36204000  0.21599000  1.0
  H  H18  1  0.85489000  0.63015000  0.48350000  1.0
  H  H19  1  0.85486000  0.48335000  0.63012000  1.0
  H  H20  1  0.17555000  0.61928000  0.76590000  1.0
  H  H21  1  0.17544000  0.76582000  0.61921000  1.0
  H  H22  1  0.16006000  0.77316000  0.46527000  1.0
  H  H23  1  0.16004000  0.46523000  0.77317000  1.0
  H  H24  1  0.88108000  0.36192000  0.67468000  1.0
  H  H25  1  0.88109000  0.67471000  0.36199000  1.0
  H  H26  1  0.49062000  0.85807000  0.94122000  1.0
  H  H27  1  0.55001000  0.11255000  0.96640000  1.0
  H  H28  1  0.48902000  0.94411000  0.85672000  1.0
  H  H29  1  0.55311000  0.96559000  0.11089000  1.0
  C  C30  1  0.95829000  0.45460000  0.25756000  1.0
  C  C31  1  0.94789000  0.68530000  0.38761000  1.0
  C  C32  1  0.71880000  0.25695000  0.25692000  1.0
  C  C33  1  0.86210000  0.58817000  0.51308000  1.0
  C  C34  1  0.86208000  0.51298000  0.58819000  1.0
  C  C35  1  0.16604000  0.64269000  0.71766000  1.0
  C  C36  1  0.16597000  0.71761000  0.64266000  1.0
  C  C37  1  0.94788000  0.38754000  0.68530000  1.0
  C  C38  1  0.83356000  0.57025000  0.57032000  1.0
  C  C39  1  0.20361000  0.72430000  0.72430000  1.0
  C  C40  1  0.02400000  0.75850000  0.41444000  1.0
  C  C41  1  0.02400000  0.41437000  0.75851000  1.0
  C  C42  1  0.95828000  0.25753000  0.45466000  1.0
  C  C43  1  0.55110000  0.96940000  0.05301000  1.0
  C  C44  1  0.54934000  0.05475000  0.96911000  1.0
  C  C45  1  0.46918000  0.97972000  0.89385000  1.0
  C  C46  1  0.47087000  0.89414000  0.97800000  1.0
  C  C47  1  0.27183000  0.79441000  0.79434000  1.0
  C  C48  1  0.54869000  0.04992000  0.04979000  1.0
  C  C49  1  0.41317000  0.92240000  0.92223000  1.0
  C  C50  1  0.09185000  0.33594000  0.47947000  1.0
  C  C51  1  0.09183000  0.47938000  0.33602000  1.0
  C  C52  1  0.38366000  0.97174000  0.97330000  1.0
  C  C53  1  0.46311000  0.04636000  0.04801000  1.0
  C  C54  1  0.33716000  0.85231000  0.85216000  1.0
  C  C55  1  0.61894000  0.12228000  0.12216000  1.0
  C  C56  1  0.66521000  0.18469000  0.18463000  1.0
  C  C57  1  0.04453000  0.18256000  0.44272000  1.0
  C  C58  1  0.09065000  0.73575000  0.44024000  1.0
  C  C59  1  0.04451000  0.44254000  0.18260000  1.0
  C  C60  1  0.04591000  0.11644000  0.43437000  1.0
  C  C61  1  0.04586000  0.43411000  0.11646000  1.0
  C  C62  1  0.04584000  0.04414000  0.42741000  1.0
  C  C63  1  0.04576000  0.42717000  0.04414000  1.0
  C  C64  1  0.09063000  0.44020000  0.73577000  1.0
  C  C65  1  0.04273000  0.97657000  0.42284000  1.0
  C  C66  1  0.04265000  0.42264000  0.97657000  1.0
  C  C67  1  0.03751000  0.90301000  0.41882000  1.0
  C  C68  1  0.03747000  0.41869000  0.90302000  1.0
  C  C69  1  0.30196000  0.61265000  0.53758000  1.0
  C  C70  1  0.30194000  0.53754000  0.61264000  1.0
  C  C71  1  0.03146000  0.83526000  0.41610000  1.0
  C  C72  1  0.03146000  0.41600000  0.83527000  1.0
  C  C73  1  0.77816000  0.59331000  0.59342000  1.0
  C  C74  1  0.72013000  0.60399000  0.60410000  1.0
  C  C75  1  0.65150000  0.60905000  0.60914000  1.0
  C  C76  1  0.58419000  0.60831000  0.60837000  1.0
  C  C77  1  0.50841000  0.60313000  0.60319000  1.0
  C  C78  1  0.43693000  0.59520000  0.59523000  1.0
  C  C79  1  0.75217000  0.26430000  0.33891000  1.0
  C  C80  1  0.75220000  0.33894000  0.26429000  1.0
  C  C81  1  0.03375000  0.45598000  0.25336000  1.0
  C  C82  1  0.03375000  0.25331000  0.45609000  1.0
  C  C83  1  0.35417000  0.58339000  0.58341000  1.0
  N  N84  1  0.97055000  0.47391000  0.33506000  1.0
  N  N85  1  0.22593000  0.53975000  0.58631000  1.0
  N  N86  1  0.22594000  0.58632000  0.53978000  1.0
  N  N87  1  0.80229000  0.34380000  0.39058000  1.0
  N  N88  1  0.80231000  0.39060000  0.34380000  1.0
  N  N89  1  0.90150000  0.54309000  0.49702000  1.0
  N  N90  1  0.90150000  0.49696000  0.54311000  1.0
  N  N91  1  0.97055000  0.33503000  0.47391000  1.0
  N  N92  1  0.11275000  0.59173000  0.63794000  1.0
  N  N93  1  0.11272000  0.63787000  0.59175000  1.0
  N  N94  1  0.05675000  0.65636000  0.42944000  1.0
  N  N95  1  0.05673000  0.42942000  0.65637000  1.0
  N  N96  1  0.96801000  0.39685000  0.62510000  1.0
  N  N97  1  0.96802000  0.62510000  0.39689000  1.0
  N  N98  1  0.05352000  0.38393000  0.49059000  1.0
  N  N99  1  0.05350000  0.49056000  0.38399000  1.0
  Cl  Cl100  1  0.86654000  0.43826000  0.17866000  1.0
  Cl  Cl101  1  0.86648000  0.17863000  0.43829000  1.0
