# generated using pymatgen
data_LiH14C14S2NO3
_symmetry_space_group_name_H-M   'P 1'
_cell_length_a   7.11594000
_cell_length_b   10.51370000
_cell_length_c   12.10960000
_cell_angle_alpha   103.96800000
_cell_angle_beta   97.30200000
_cell_angle_gamma   98.48980000
_symmetry_Int_Tables_number   1
_chemical_formula_structural   LiH14C14S2NO3
_chemical_formula_sum   'Li2 H28 C28 S4 N2 O6'
_cell_volume   856.96486121
_cell_formula_units_Z   2
loop_
 _symmetry_equiv_pos_site_id
 _symmetry_equiv_pos_as_xyz
  1  'x, y, z'
loop_
 _atom_site_type_symbol
 _atom_site_label
 _atom_site_symmetry_multiplicity
 _atom_site_fract_x
 _atom_site_fract_y
 _atom_site_fract_z
 _atom_site_occupancy
  Li  Li0  1  0.80017000  0.55216000  0.06478000  1.0
  Li  Li1  1  0.19983000  0.44784000  0.93521000  1.0
  H  H2  1  0.29312000  0.92211000  0.92702000  1.0
  H  H3  1  0.70688000  0.07789000  0.07298000  1.0
  H  H4  1  0.32485000  0.16995000  0.97011000  1.0
  H  H5  1  0.67515000  0.83005000  0.02989000  1.0
  H  H6  1  0.25537000  0.29731000  0.15633000  1.0
  H  H7  1  0.74462000  0.70269000  0.84366000  1.0
  H  H8  1  0.14533000  0.17742000  0.29878000  1.0
  H  H9  1  0.85467000  0.82258000  0.70122000  1.0
  H  H10  1  0.12129000  0.93062000  0.25663000  1.0
  H  H11  1  0.87871000  0.06938000  0.74336000  1.0
  H  H12  1  0.68208000  0.66943000  0.39335000  1.0
  H  H13  1  0.31792000  0.33056000  0.60664000  1.0
  H  H14  1  0.60151000  0.69341000  0.59131000  1.0
  H  H15  1  0.39850000  0.30658000  0.40869000  1.0
  H  H16  1  0.99776000  0.60048000  0.44837000  1.0
  H  H17  1  0.00224000  0.39952000  0.55164000  1.0
  H  H18  1  0.07652000  0.57229000  0.25104000  1.0
  H  H19  1  0.92347000  0.42771000  0.74896000  1.0
  H  H20  1  0.05968000  0.66100000  0.87042000  1.0
  H  H21  1  0.94031000  0.33900000  0.12958000  1.0
  H  H22  1  0.32578000  0.68039000  0.89730000  1.0
  H  H23  1  0.67421000  0.31962000  0.10270000  1.0
  H  H24  1  0.29142000  0.59092000  0.69230000  1.0
  H  H25  1  0.70859000  0.40909000  0.30770000  1.0
  H  H26  1  0.32624000  0.76512000  0.71111000  1.0
  H  H27  1  0.67377000  0.23489000  0.28889000  1.0
  H  H28  1  0.09328000  0.66511000  0.65403000  1.0
  H  H29  1  0.90673000  0.33490000  0.34597000  1.0
  C  C30  1  0.18938000  0.65470000  0.92631000  1.0
  C  C31  1  0.81062000  0.34530000  0.07369000  1.0
  C  C32  1  0.21019000  0.91508000  0.09074000  1.0
  C  C33  1  0.78981000  0.08492000  0.90925000  1.0
  C  C34  1  0.26419000  0.97964000  0.00881000  1.0
  C  C35  1  0.73580000  0.02036000  0.99119000  1.0
  C  C36  1  0.28089000  0.11814000  0.03323000  1.0
  C  C37  1  0.71911000  0.88186000  0.96677000  1.0
  C  C38  1  0.24095000  0.18928000  0.13816000  1.0
  C  C39  1  0.75904000  0.81072000  0.86184000  1.0
  C  C40  1  0.18168000  0.12223000  0.21819000  1.0
  C  C41  1  0.81832000  0.87777000  0.78181000  1.0
  C  C42  1  0.16705000  0.98450000  0.19541000  1.0
  C  C43  1  0.83295000  0.01550000  0.80458000  1.0
  C  C44  1  0.38433000  0.61929000  0.31135000  1.0
  C  C45  1  0.61566000  0.38071000  0.68865000  1.0
  C  C46  1  0.53271000  0.65386000  0.40663000  1.0
  C  C47  1  0.46728000  0.34614000  0.59336000  1.0
  C  C48  1  0.48657000  0.66793000  0.51674000  1.0
  C  C49  1  0.51344000  0.33207000  0.48326000  1.0
  C  C50  1  0.29428000  0.65050000  0.53401000  1.0
  C  C51  1  0.70573000  0.34951000  0.46599000  1.0
  C  C52  1  0.14830000  0.61503000  0.43676000  1.0
  C  C53  1  0.85170000  0.38497000  0.56325000  1.0
  C  C54  1  0.19139000  0.59838000  0.32562000  1.0
  C  C55  1  0.80861000  0.40162000  0.67438000  1.0
  C  C56  1  0.24810000  0.66908000  0.65378000  1.0
  C  C57  1  0.75191000  0.33093000  0.34622000  1.0
  S  S58  1  0.19424000  0.73799000  0.06155000  1.0
  S  S59  1  0.80576000  0.26201000  0.93845000  1.0
  S  S60  1  0.44214000  0.60771000  0.17126000  1.0
  S  S61  1  0.55786000  0.39229000  0.82873000  1.0
  N  N62  1  0.39573000  0.73839000  0.13760000  1.0
  N  N63  1  0.60427000  0.26161000  0.86240000  1.0
  O  O64  1  0.01818000  0.69308000  0.10492000  1.0
  O  O65  1  0.98182000  0.30692000  0.89509000  1.0
  O  O66  1  0.32593000  0.48270000  0.09508000  1.0
  O  O67  1  0.67407000  0.51730000  0.90492000  1.0
  O  O68  1  0.65050000  0.61542000  0.18429000  1.0
  O  O69  1  0.34950000  0.38458000  0.81571000  1.0
