# generated using pymatgen
data_Fe2H18(C4O3)3
_symmetry_space_group_name_H-M   'P 1'
_cell_length_a   7.44871000
_cell_length_b   8.94424000
_cell_length_c   11.36447339
_cell_angle_alpha   107.59905389
_cell_angle_beta   108.91675561
_cell_angle_gamma   90.25180000
_symmetry_Int_Tables_number   1
_chemical_formula_structural   Fe2H18(C4O3)3
_chemical_formula_sum   'Fe4 H36 C24 O18'
_cell_volume   678.30218264
_cell_formula_units_Z   2
loop_
 _symmetry_equiv_pos_site_id
 _symmetry_equiv_pos_as_xyz
  1  'x, y, z'
loop_
 _atom_site_type_symbol
 _atom_site_label
 _atom_site_symmetry_multiplicity
 _atom_site_fract_x
 _atom_site_fract_y
 _atom_site_fract_z
 _atom_site_occupancy
  Fe  Fe0  1  0.77345000  0.03945000  0.95472000  1.0
  Fe  Fe1  1  0.82056000  0.46117000  0.04638000  1.0
  Fe  Fe2  1  0.22315000  0.95958000  0.04435000  1.0
  Fe  Fe3  1  0.18153000  0.54126000  0.95339000  1.0
  H  H4  1  0.03766000  0.28120000  0.69303000  1.0
  H  H5  1  0.34439000  0.21870000  0.30696000  1.0
  H  H6  1  0.96243000  0.71895000  0.30638000  1.0
  H  H7  1  0.65436000  0.78102000  0.69287000  1.0
  H  H8  1  0.81875000  0.35583000  0.67246000  1.0
  H  H9  1  0.14473000  0.14437000  0.32727000  1.0
  H  H10  1  0.18118000  0.64388000  0.32761000  1.0
  H  H11  1  0.85300000  0.85613000  0.67190000  1.0
  H  H12  1  0.65376000  0.06729000  0.55954000  1.0
  H  H13  1  0.09457000  0.43228000  0.44076000  1.0
  H  H14  1  0.34645000  0.93268000  0.44048000  1.0
  H  H15  1  0.90471000  0.56811000  0.55929000  1.0
  H  H16  1  0.87903000  0.00752000  0.56294000  1.0
  H  H17  1  0.31672000  0.49275000  0.43724000  1.0
  H  H18  1  0.12117000  0.99229000  0.43709000  1.0
  H  H19  1  0.68263000  0.50734000  0.56268000  1.0
  H  H20  1  0.90646000  0.19245000  0.43523000  1.0
  H  H21  1  0.47032000  0.30859000  0.56516000  1.0
  H  H22  1  0.09390000  0.80784000  0.56503000  1.0
  H  H23  1  0.52900000  0.69127000  0.43435000  1.0
  H  H24  1  0.67423000  0.23841000  0.42665000  1.0
  H  H25  1  0.24641000  0.26098000  0.57338000  1.0
  H  H26  1  0.32568000  0.76101000  0.57302000  1.0
  H  H27  1  0.75306000  0.73867000  0.42622000  1.0
  H  H28  1  0.78162000  0.90794000  0.31018000  1.0
  H  H29  1  0.46897000  0.59285000  0.68970000  1.0
  H  H30  1  0.22034000  0.09217000  0.68994000  1.0
  H  H31  1  0.53050000  0.40686000  0.31024000  1.0
  H  H32  1  0.54753000  0.95078000  0.30847000  1.0
  H  H33  1  0.23718000  0.54800000  0.69216000  1.0
  H  H34  1  0.45427000  0.04816000  0.69185000  1.0
  H  H35  1  0.76245000  0.45161000  0.30785000  1.0
  H  H36  1  0.54899000  0.21360000  0.06026000  1.0
  H  H37  1  0.48903000  0.28689000  0.94090000  1.0
  H  H38  1  0.45100000  0.78741000  0.94179000  1.0
  H  H39  1  0.51219000  0.71282000  0.06086000  1.0
  C  C40  1  0.88680000  0.23645000  0.81000000  1.0
  C  C41  1  0.07866000  0.26431000  0.18993000  1.0
  C  C42  1  0.11505000  0.76400000  0.19043000  1.0
  C  C43  1  0.92076000  0.73600000  0.80898000  1.0
  C  C44  1  0.88843000  0.24940000  0.68104000  1.0
  C  C45  1  0.20738000  0.25083000  0.31891000  1.0
  C  C46  1  0.11201000  0.75050000  0.31891000  1.0
  C  C47  1  0.79124000  0.74946000  0.68047000  1.0
  C  C48  1  0.79376000  0.10737000  0.55963000  1.0
  C  C49  1  0.23421000  0.39261000  0.44055000  1.0
  C  C50  1  0.20652000  0.89249000  0.44042000  1.0
  C  C51  1  0.76486000  0.60750000  0.55918000  1.0
  C  C52  1  0.76839000  0.14447000  0.43290000  1.0
  C  C53  1  0.33449000  0.35562000  0.56729000  1.0
  C  C54  1  0.23204000  0.85533000  0.56708000  1.0
  C  C55  1  0.66485000  0.64416000  0.43236000  1.0
  C  C56  1  0.64770000  0.04257000  0.18615000  1.0
  C  C57  1  0.46077000  0.45826000  0.81424000  1.0
  C  C58  1  0.35193000  0.95663000  0.81360000  1.0
  C  C59  1  0.53905000  0.54187000  0.18597000  1.0
  C  C60  1  0.68435000  0.99949000  0.30996000  1.0
  C  C61  1  0.37249000  0.50047000  0.69030000  1.0
  C  C62  1  0.31697000  0.00008000  0.69013000  1.0
  C  C63  1  0.62710000  0.49915000  0.30963000  1.0
  O  O64  1  0.76962000  0.01492000  0.12806000  1.0
  O  O65  1  0.64034000  0.48515000  0.87066000  1.0
  O  O66  1  0.22875000  0.98350000  0.87046000  1.0
  O  O67  1  0.35960000  0.51468000  0.12946000  1.0
  O  O68  1  0.59953000  0.25060000  0.00034000  1.0
  O  O69  1  0.40129000  0.74975000  0.00180000  1.0
  O  O70  1  0.49718000  0.11007000  0.14806000  1.0
  O  O71  1  0.34858000  0.39135000  0.85433000  1.0
  O  O72  1  0.50233000  0.88893000  0.85249000  1.0
  O  O73  1  0.65137000  0.60962000  0.14653000  1.0
  O  O74  1  0.97757000  0.34978000  0.91529000  1.0
  O  O75  1  0.06448000  0.15083000  0.08480000  1.0
  O  O76  1  0.02500000  0.65079000  0.08470000  1.0
  O  O77  1  0.93720000  0.85013000  0.91448000  1.0
  O  O78  1  0.78897000  0.11897000  0.80892000  1.0
  O  O79  1  0.98251000  0.38143000  0.19087000  1.0
  O  O80  1  0.21283000  0.88187000  0.19210000  1.0
  O  O81  1  0.01568000  0.61851000  0.80798000  1.0
