# generated using pymatgen
data_Zn2H46C65N7(ClO4)3
_symmetry_space_group_name_H-M   'P 1'
_cell_length_a   14.64690000
_cell_length_b   16.02530000
_cell_length_c   28.06320000
_cell_angle_alpha   90.04110000
_cell_angle_beta   89.54750000
_cell_angle_gamma   89.99490000
_symmetry_Int_Tables_number   1
_chemical_formula_structural   Zn2H46C65N7(ClO4)3
_chemical_formula_sum   'Zn2 H46 C65 N7 Cl3 O12'
_cell_volume   6586.81428202
_cell_formula_units_Z   1
loop_
 _symmetry_equiv_pos_site_id
 _symmetry_equiv_pos_as_xyz
  1  'x, y, z'
loop_
 _atom_site_type_symbol
 _atom_site_label
 _atom_site_symmetry_multiplicity
 _atom_site_fract_x
 _atom_site_fract_y
 _atom_site_fract_z
 _atom_site_occupancy
  Zn  Zn0  1  0.59412000  0.49876000  0.49850000  1.0
  Zn  Zn1  1  0.40525000  0.50019000  0.49749000  1.0
  H  H2  1  0.64925000  0.51785000  0.34826000  1.0
  H  H3  1  0.54444000  0.92588000  0.56934000  1.0
  H  H4  1  0.38617000  0.92789000  0.54321000  1.0
  H  H5  1  0.35473000  0.92189000  0.48326000  1.0
  H  H6  1  0.63556000  0.92908000  0.52744000  1.0
  H  H7  1  0.65432000  0.52208000  0.25872000  1.0
  H  H8  1  0.35802000  0.06877000  0.47635000  1.0
  H  H9  1  0.63207000  0.07483000  0.53001000  1.0
  H  H10  1  0.60436000  0.07388000  0.44209000  1.0
  H  H11  1  0.49259000  0.07261000  0.41938000  1.0
  H  H12  1  0.91492000  0.63111000  0.52411000  1.0
  H  H13  1  0.36178000  0.50197000  0.25545000  1.0
  H  H14  1  0.07275000  0.62339000  0.53486000  1.0
  H  H15  1  0.07002000  0.38922000  0.54505000  1.0
  H  H16  1  0.91706000  0.39981000  0.55478000  1.0
  H  H17  1  0.07523000  0.48603000  0.42658000  1.0
  H  H18  1  0.91663000  0.46719000  0.42820000  1.0
  H  H19  1  0.08478000  0.39066000  0.45765000  1.0
  H  H20  1  0.92588000  0.38106000  0.46702000  1.0
  H  H21  1  0.08422000  0.62520000  0.47205000  1.0
  H  H22  1  0.92553000  0.61403000  0.46203000  1.0
  H  H23  1  0.62841000  0.55181000  0.64507000  1.0
  H  H24  1  0.57885000  0.31563000  0.12230000  1.0
  H  H25  1  0.63678000  0.56094000  0.73407000  1.0
  H  H26  1  0.47063000  0.71405000  0.87371000  1.0
  H  H27  1  0.46987000  0.71947000  0.96163000  1.0
  H  H28  1  0.46491000  0.71908000  0.03039000  1.0
  H  H29  1  0.35774000  0.49643000  0.34494000  1.0
  H  H30  1  0.62365000  0.85602000  0.43094000  1.0
  H  H31  1  0.75038000  0.91652000  0.40046000  1.0
  H  H32  1  0.72452000  0.01462000  0.42564000  1.0
  H  H33  1  0.66880000  0.98224000  0.37260000  1.0
  H  H34  1  0.40739000  0.93219000  0.41843000  1.0
  H  H35  1  0.55670000  0.30339000  0.96587000  1.0
  H  H36  1  0.43542000  0.91133000  0.33869000  1.0
  H  H37  1  0.55397000  0.90158000  0.34848000  1.0
  H  H38  1  0.50146000  0.00199000  0.35194000  1.0
  H  H39  1  0.45561000  0.78759000  0.09214000  1.0
  H  H40  1  0.49302000  0.84826000  0.16106000  1.0
  H  H41  1  0.58892000  0.77979000  0.15554000  1.0
  H  H42  1  0.49315000  0.75100000  0.19214000  1.0
  H  H43  1  0.55201000  0.30211000  0.87781000  1.0
  H  H44  1  0.37409000  0.44110000  0.74398000  1.0
  H  H45  1  0.57356000  0.30833000  0.03415000  1.0
  H  H46  1  0.53940000  0.07208000  0.57057000  1.0
  H  H47  1  0.37525000  0.07327000  0.53847000  1.0
  C  C48  1  0.50272000  0.66135000  0.49930000  1.0
  C  C49  1  0.49660000  0.58792000  0.97155000  1.0
  C  C50  1  0.53130000  0.43565000  0.97304000  1.0
  C  C51  1  0.50085000  0.50366000  0.40509000  1.0
  C  C52  1  0.51334000  0.51085000  0.94740000  1.0
  C  C53  1  0.48179000  0.65965000  0.94427000  1.0
  C  C54  1  0.48200000  0.65763000  0.89452000  1.0
  C  C55  1  0.49658000  0.58312000  0.87036000  1.0
  C  C56  1  0.51213000  0.50891000  0.89639000  1.0
  C  C57  1  0.52645000  0.43271000  0.87186000  1.0
  C  C58  1  0.52484000  0.42878000  0.81924000  1.0
  C  C59  1  0.58955000  0.51728000  0.27791000  1.0
  C  C60  1  0.49515000  0.58289000  0.81762000  1.0
  C  C61  1  0.57762000  0.53347000  0.71677000  1.0
  C  C62  1  0.57260000  0.52885000  0.66738000  1.0
  C  C63  1  0.49992000  0.33744000  0.49613000  1.0
  C  C64  1  0.42462000  0.46378000  0.67280000  1.0
  C  C65  1  0.42938000  0.46698000  0.72245000  1.0
  C  C66  1  0.50540000  0.50221000  0.74401000  1.0
  C  C67  1  0.49597000  0.58907000  0.02382000  1.0
  C  C68  1  0.51708000  0.51427000  0.04947000  1.0
  C  C69  1  0.53571000  0.43814000  0.02511000  1.0
  C  C70  1  0.50829000  0.51252000  0.25244000  1.0
  C  C71  1  0.47866000  0.66111000  0.04939000  1.0
  C  C72  1  0.56097000  0.37025000  0.10123000  1.0
  C  C73  1  0.54434000  0.36178000  0.94723000  1.0
  C  C74  1  0.54181000  0.36007000  0.89749000  1.0
  C  C75  1  0.49652000  0.49540000  0.59072000  1.0
  C  C76  1  0.55794000  0.36713000  0.05181000  1.0
  C  C77  1  0.56649000  0.95207000  0.53497000  1.0
  C  C78  1  0.40458000  0.95030000  0.50740000  1.0
  C  C79  1  0.40230000  0.04653000  0.50517000  1.0
  C  C80  1  0.56370000  0.04842000  0.53596000  1.0
  C  C81  1  0.51816000  0.51747000  0.10045000  1.0
  C  C82  1  0.49934000  0.24727000  0.49573000  1.0
  C  C83  1  0.50208000  0.91773000  0.49608000  1.0
  C  C84  1  0.49977000  0.08085000  0.49637000  1.0
  C  C85  1  0.53591000  0.04796000  0.44792000  1.0
  C  C86  1  0.53617000  0.95074000  0.44573000  1.0
  C  C87  1  0.49928000  0.17144000  0.49595000  1.0
  C  C88  1  0.50310000  0.82717000  0.49660000  1.0
  C  C89  1  0.48010000  0.58651000  0.17771000  1.0
  C  C90  1  0.50366000  0.75143000  0.49866000  1.0
  C  C91  1  0.05195000  0.59198000  0.50192000  1.0
  C  C92  1  0.49639000  0.59215000  0.12611000  1.0
  C  C93  1  0.94701000  0.59113000  0.49706000  1.0
  C  C94  1  0.05243000  0.45557000  0.54829000  1.0
  C  C95  1  0.94562000  0.46269000  0.55067000  1.0
  C  C96  1  0.08790000  0.50122000  0.50289000  1.0
  C  C97  1  0.91161000  0.50068000  0.50301000  1.0
  C  C98  1  0.94795000  0.44585000  0.46144000  1.0
  C  C99  1  0.05296000  0.45268000  0.45878000  1.0
  C  C100  1  0.81258000  0.49982000  0.50222000  1.0
  C  C101  1  0.18698000  0.50103000  0.50173000  1.0
  C  C102  1  0.54443000  0.44188000  0.17808000  1.0
  C  C103  1  0.48120000  0.66666667  0.09999000  1.0
  C  C104  1  0.42448000  0.50505000  0.27599000  1.0
  C  C105  1  0.42219000  0.50225000  0.32558000  1.0
  C  C106  1  0.58687000  0.51455000  0.32747000  1.0
  C  C107  1  0.69424000  0.96043000  0.40746000  1.0
  C  C108  1  0.49215000  0.93475000  0.36027000  1.0
  C  C109  1  0.51389000  0.78261000  0.15921000  1.0
  C  C110  1  0.54071000  0.44370000  0.12565000  1.0
  C  C111  1  0.50324000  0.50692000  0.35164000  1.0
  C  C112  1  0.49634000  0.49499000  0.64436000  1.0
  N  N113  1  0.51255000  0.51417000  0.20107000  1.0
  N  N114  1  0.50889000  0.50489000  0.79535000  1.0
  N  N115  1  0.73378000  0.49854000  0.49965000  1.0
  N  N116  1  0.26576000  0.50104000  0.49836000  1.0
  N  N117  1  0.62793000  0.91827000  0.43790000  1.0
  N  N118  1  0.47289000  0.91596000  0.41011000  1.0
  N  N119  1  0.46932000  0.74548000  0.11809000  1.0
  Cl  Cl120  1  0.32919000  0.41662000  0.64872000  1.0
  Cl  Cl121  1  0.10991000  0.49064000  0.59994000  1.0
  Cl  Cl122  1  0.90145000  0.52088000  0.59970000  1.0
  O  O123  1  0.57874000  0.62508000  0.50708000  1.0
  O  O124  1  0.48227000  0.64630000  0.79392000  1.0
  O  O125  1  0.57101000  0.38096000  0.20090000  1.0
  O  O126  1  0.53662000  0.36366000  0.79681000  1.0
  O  O127  1  0.42597000  0.62639000  0.49180000  1.0
  O  O128  1  0.57652000  0.51416000  0.42641000  1.0
  O  O129  1  0.42360000  0.49068000  0.42492000  1.0
  O  O130  1  0.57709000  0.37254000  0.48956000  1.0
  O  O131  1  0.42329000  0.37330000  0.50313000  1.0
  O  O132  1  0.57360000  0.48282000  0.57067000  1.0
  O  O133  1  0.42148000  0.51028000  0.57010000  1.0
  O  O134  1  0.43838000  0.63976000  0.20121000  1.0
