# generated using pymatgen
data_ZnH5C6(N2O)2
_symmetry_space_group_name_H-M   'P 1'
_cell_length_a   11.86450000
_cell_length_b   11.86450000
_cell_length_c   25.82810000
_cell_angle_alpha   90.00000000
_cell_angle_beta   90.00010000
_cell_angle_gamma   60.00000000
_symmetry_Int_Tables_number   1
_chemical_formula_structural   ZnH5C6(N2O)2
_chemical_formula_sum   'Zn12 H60 C72 N48 O24'
_cell_volume   3148.63248810
_cell_formula_units_Z   12
loop_
 _symmetry_equiv_pos_site_id
 _symmetry_equiv_pos_as_xyz
  1  'x, y, z'
loop_
 _atom_site_type_symbol
 _atom_site_label
 _atom_site_symmetry_multiplicity
 _atom_site_fract_x
 _atom_site_fract_y
 _atom_site_fract_z
 _atom_site_occupancy
  Zn  Zn0  1  0.98867000  0.42807000  0.06158000  1.0
  Zn  Zn1  1  0.58326000  0.98866000  0.06158000  1.0
  Zn  Zn2  1  0.42808000  0.58325000  0.06158000  1.0
  Zn  Zn3  1  0.98867000  0.58325000  0.43842000  1.0
  Zn  Zn4  1  0.42808000  0.98866000  0.43842000  1.0
  Zn  Zn5  1  0.58326000  0.42807000  0.43842000  1.0
  Zn  Zn6  1  0.01133000  0.57193000  0.93842000  1.0
  Zn  Zn7  1  0.41674000  0.01134000  0.93842000  1.0
  Zn  Zn8  1  0.57192000  0.41675000  0.93842000  1.0
  Zn  Zn9  1  0.01133000  0.41675000  0.56158000  1.0
  Zn  Zn10  1  0.57193000  0.01133000  0.56158000  1.0
  Zn  Zn11  1  0.41674000  0.57193000  0.56158000  1.0
  H  H12  1  0.99184000  0.40674000  0.26352000  1.0
  H  H13  1  0.60142000  0.99184000  0.26352000  1.0
  H  H14  1  0.40674000  0.60143000  0.26352000  1.0
  H  H15  1  0.99184000  0.60142000  0.23648000  1.0
  H  H16  1  0.40674000  0.99184000  0.23648000  1.0
  H  H17  1  0.60142000  0.40674000  0.23648000  1.0
  H  H18  1  0.00816000  0.59326000  0.73648000  1.0
  H  H19  1  0.39858000  0.00816000  0.73648000  1.0
  H  H20  1  0.59326000  0.39857000  0.73648000  1.0
  H  H21  1  0.00816000  0.39858000  0.76352000  1.0
  H  H22  1  0.59326000  0.00816000  0.76352000  1.0
  H  H23  1  0.39858000  0.59326000  0.76352000  1.0
  H  H24  1  0.84496000  0.38777000  0.96708000  1.0
  H  H25  1  0.76726000  0.84496000  0.96708000  1.0
  H  H26  1  0.38778000  0.76726000  0.96708000  1.0
  H  H27  1  0.84496000  0.76726000  0.53292000  1.0
  H  H28  1  0.38778000  0.84496000  0.53292000  1.0
  H  H29  1  0.76727000  0.38777000  0.53292000  1.0
  H  H30  1  0.15504000  0.61223000  0.03292000  1.0
  H  H31  1  0.23274000  0.15504000  0.03292000  1.0
  H  H32  1  0.61222000  0.23274000  0.03292000  1.0
  H  H33  1  0.15504000  0.23274000  0.46708000  1.0
  H  H34  1  0.61222000  0.15504000  0.46708000  1.0
  H  H35  1  0.23273000  0.61223000  0.46708000  1.0
  H  H36  1  0.27742000  0.12335000  0.16037000  1.0
  H  H37  1  0.59923000  0.27743000  0.16037000  1.0
  H  H38  1  0.12335000  0.59923000  0.16037000  1.0
  H  H39  1  0.27743000  0.59923000  0.33963000  1.0
  H  H40  1  0.12334000  0.27743000  0.33963000  1.0
  H  H41  1  0.59923000  0.12334000  0.33963000  1.0
  H  H42  1  0.72257000  0.87666000  0.83963000  1.0
  H  H43  1  0.40077000  0.72258000  0.83963000  1.0
  H  H44  1  0.87665000  0.40077000  0.83962000  1.0
  H  H45  1  0.72257000  0.40077000  0.66037000  1.0
  H  H46  1  0.87666000  0.72257000  0.66038000  1.0
  H  H47  1  0.40078000  0.87665000  0.66037000  1.0
  H  H48  1  0.79479000  0.45908000  0.15014000  1.0
  H  H49  1  0.74613000  0.79479000  0.15014000  1.0
  H  H50  1  0.45908000  0.74613000  0.15014000  1.0
  H  H51  1  0.79479000  0.74613000  0.34986000  1.0
  H  H52  1  0.45908000  0.79479000  0.34986000  1.0
  H  H53  1  0.74614000  0.45907000  0.34986000  1.0
  H  H54  1  0.20521000  0.54092000  0.84986000  1.0
  H  H55  1  0.25387000  0.20521000  0.84986000  1.0
  H  H56  1  0.54092000  0.25387000  0.84986000  1.0
  H  H57  1  0.20521000  0.25387000  0.65014000  1.0
  H  H58  1  0.54092000  0.20521000  0.65014000  1.0
  H  H59  1  0.25386000  0.54093000  0.65014000  1.0
  H  H60  1  0.62847000  0.50198000  0.15040000  1.0
  H  H61  1  0.86956000  0.62847000  0.15040000  1.0
  H  H62  1  0.50197000  0.86956000  0.15040000  1.0
  H  H63  1  0.62847000  0.86956000  0.34960000  1.0
  H  H64  1  0.50197000  0.62848000  0.34960000  1.0
  H  H65  1  0.86956000  0.50197000  0.34960000  1.0
  H  H66  1  0.37153000  0.49802000  0.84960000  1.0
  H  H67  1  0.13044000  0.37153000  0.84960000  1.0
  H  H68  1  0.49803000  0.13044000  0.84960000  1.0
  H  H69  1  0.37153000  0.13044000  0.65040000  1.0
  H  H70  1  0.49803000  0.37152000  0.65040000  1.0
  H  H71  1  0.13044000  0.49803000  0.65040000  1.0
  C  C72  1  0.05180000  0.35621000  0.16281000  1.0
  C  C73  1  0.59199000  0.05180000  0.16281000  1.0
  C  C74  1  0.35620000  0.59200000  0.16281000  1.0
  C  C75  1  0.05181000  0.59199000  0.33719000  1.0
  C  C76  1  0.35620000  0.05181000  0.33719000  1.0
  C  C77  1  0.59199000  0.35621000  0.33719000  1.0
  C  C78  1  0.94819000  0.64380000  0.83719000  1.0
  C  C79  1  0.40801000  0.94820000  0.83719000  1.0
  C  C80  1  0.64380000  0.40800000  0.83719000  1.0
  C  C81  1  0.94819000  0.40801000  0.66281000  1.0
  C  C82  1  0.64380000  0.94819000  0.66281000  1.0
  C  C83  1  0.40801000  0.64379000  0.66281000  1.0
  C  C84  1  0.12787000  0.27388000  0.20753000  1.0
  C  C85  1  0.59825000  0.12788000  0.20753000  1.0
  C  C86  1  0.27388000  0.59825000  0.20753000  1.0
  C  C87  1  0.12788000  0.59825000  0.29247000  1.0
  C  C88  1  0.27387000  0.12788000  0.29247000  1.0
  C  C89  1  0.59825000  0.27387000  0.29247000  1.0
  C  C90  1  0.87212000  0.72613000  0.79247000  1.0
  C  C91  1  0.40175000  0.87212000  0.79247000  1.0
  C  C92  1  0.72612000  0.40175000  0.79247000  1.0
  C  C93  1  0.87212000  0.40175000  0.70753000  1.0
  C  C94  1  0.72613000  0.87212000  0.70753000  1.0
  C  C95  1  0.40175000  0.72612000  0.70753000  1.0
  C  C96  1  0.08304000  0.31604000  0.25802000  1.0
  C  C97  1  0.60092000  0.08305000  0.25802000  1.0
  C  C98  1  0.31604000  0.60092000  0.25802000  1.0
  C  C99  1  0.08305000  0.60092000  0.24198000  1.0
  C  C100  1  0.31604000  0.08304000  0.24198000  1.0
  C  C101  1  0.60092000  0.31604000  0.24198000  1.0
  C  C102  1  0.91696000  0.68396000  0.74198000  1.0
  C  C103  1  0.39908000  0.91695000  0.74198000  1.0
  C  C104  1  0.68396000  0.39908000  0.74198000  1.0
  C  C105  1  0.91695000  0.39909000  0.75802000  1.0
  C  C106  1  0.68396000  0.91696000  0.75802000  1.0
  C  C107  1  0.39908000  0.68397000  0.75802000  1.0
  C  C108  1  0.71992000  0.44668000  0.08081000  1.0
  C  C109  1  0.83340000  0.71992000  0.08081000  1.0
  C  C110  1  0.44668000  0.83340000  0.08081000  1.0
  C  C111  1  0.71992000  0.83339000  0.41919000  1.0
  C  C112  1  0.44668000  0.71992000  0.41919000  1.0
  C  C113  1  0.83340000  0.44668000  0.41919000  1.0
  C  C114  1  0.28008000  0.55332000  0.91919000  1.0
  C  C115  1  0.16660000  0.28008000  0.91919000  1.0
  C  C116  1  0.55332000  0.16660000  0.91919000  1.0
  C  C117  1  0.28008000  0.16661000  0.58081000  1.0
  C  C118  1  0.55332000  0.28008000  0.58081000  1.0
  C  C119  1  0.16660000  0.55332000  0.58081000  1.0
  C  C120  1  0.78526000  0.41030000  0.00161000  1.0
  C  C121  1  0.80444000  0.78526000  0.00161000  1.0
  C  C122  1  0.41030000  0.80444000  0.00161000  1.0
  C  C123  1  0.78527000  0.80443000  0.49839000  1.0
  C  C124  1  0.41030000  0.78526000  0.49839000  1.0
  C  C125  1  0.80443000  0.41030000  0.49839000  1.0
  C  C126  1  0.21474000  0.58970000  0.99839000  1.0
  C  C127  1  0.19556000  0.21474000  0.99839000  1.0
  C  C128  1  0.58970000  0.19557000  0.99839000  1.0
  C  C129  1  0.21474000  0.19556000  0.50161000  1.0
  C  C130  1  0.58970000  0.21474000  0.50161000  1.0
  C  C131  1  0.19556000  0.58970000  0.50161000  1.0
  C  C132  1  0.24420000  0.15614000  0.19973000  1.0
  C  C133  1  0.59966000  0.24420000  0.19973000  1.0
  C  C134  1  0.15614000  0.59966000  0.19973000  1.0
  C  C135  1  0.24421000  0.59966000  0.30027000  1.0
  C  C136  1  0.15613000  0.24421000  0.30027000  1.0
  C  C137  1  0.59966000  0.15614000  0.30027000  1.0
  C  C138  1  0.75579000  0.84387000  0.80027000  1.0
  C  C139  1  0.40034000  0.75579000  0.80027000  1.0
  C  C140  1  0.84386000  0.40034000  0.80027000  1.0
  C  C141  1  0.75579000  0.40034000  0.69973000  1.0
  C  C142  1  0.84387000  0.75579000  0.69973000  1.0
  C  C143  1  0.40034000  0.84386000  0.69973000  1.0
  N  N144  1  0.61914000  0.45919000  0.05173000  1.0
  N  N145  1  0.92167000  0.61915000  0.05173000  1.0
  N  N146  1  0.45918000  0.92168000  0.05173000  1.0
  N  N147  1  0.61915000  0.92167000  0.44827000  1.0
  N  N148  1  0.45918000  0.61915000  0.44827000  1.0
  N  N149  1  0.92167000  0.45919000  0.44827000  1.0
  N  N150  1  0.38086000  0.54081000  0.94827000  1.0
  N  N151  1  0.07833000  0.38085000  0.94827000  1.0
  N  N152  1  0.54082000  0.07832000  0.94827000  1.0
  N  N153  1  0.38086000  0.07832000  0.55173000  1.0
  N  N154  1  0.54082000  0.38085000  0.55173000  1.0
  N  N155  1  0.07833000  0.54081000  0.55173000  1.0
  N  N156  1  0.82596000  0.41556000  0.05015000  1.0
  N  N157  1  0.75848000  0.82596000  0.05015000  1.0
  N  N158  1  0.41556000  0.75848000  0.05015000  1.0
  N  N159  1  0.82596000  0.75848000  0.44985000  1.0
  N  N160  1  0.41556000  0.82596000  0.44985000  1.0
  N  N161  1  0.75848000  0.41556000  0.44985000  1.0
  N  N162  1  0.17404000  0.58445000  0.94985000  1.0
  N  N163  1  0.24152000  0.17404000  0.94985000  1.0
  N  N164  1  0.58444000  0.24152000  0.94985000  1.0
  N  N165  1  0.17404000  0.24152000  0.55015000  1.0
  N  N166  1  0.58444000  0.17404000  0.55015000  1.0
  N  N167  1  0.24151000  0.58445000  0.55015000  1.0
  N  N168  1  0.71739000  0.45920000  0.13238000  1.0
  N  N169  1  0.82341000  0.71739000  0.13238000  1.0
  N  N170  1  0.45920000  0.82341000  0.13238000  1.0
  N  N171  1  0.71739000  0.82341000  0.36762000  1.0
  N  N172  1  0.45920000  0.71739000  0.36762000  1.0
  N  N173  1  0.82341000  0.45920000  0.36762000  1.0
  N  N174  1  0.28261000  0.54080000  0.86762000  1.0
  N  N175  1  0.17659000  0.28261000  0.86762000  1.0
  N  N176  1  0.54080000  0.17659000  0.86761000  1.0
  N  N177  1  0.28261000  0.17659000  0.63238000  1.0
  N  N178  1  0.54080000  0.28261000  0.63238000  1.0
  N  N179  1  0.17659000  0.54080000  0.63238000  1.0
  N  N180  1  0.66335000  0.43621000  0.00068000  1.0
  N  N181  1  0.90043000  0.66336000  0.00068000  1.0
  N  N182  1  0.43621000  0.90043000  0.00068000  1.0
  N  N183  1  0.66336000  0.90043000  0.49932000  1.0
  N  N184  1  0.43621000  0.66336000  0.49932000  1.0
  N  N185  1  0.90043000  0.43622000  0.49932000  1.0
  N  N186  1  0.33665000  0.56379000  0.99932000  1.0
  N  N187  1  0.09957000  0.33664000  0.99932000  1.0
  N  N188  1  0.56379000  0.09956000  0.99932000  1.0
  N  N189  1  0.33665000  0.09956000  0.50068000  1.0
  N  N190  1  0.56379000  0.33664000  0.50068000  1.0
  N  N191  1  0.09957000  0.56378000  0.50068000  1.0
  O  O192  1  0.10247000  0.31884000  0.11729000  1.0
  O  O193  1  0.57869000  0.10246000  0.11729000  1.0
  O  O194  1  0.31884000  0.57869000  0.11728000  1.0
  O  O195  1  0.10247000  0.57870000  0.38272000  1.0
  O  O196  1  0.31884000  0.10247000  0.38271000  1.0
  O  O197  1  0.57869000  0.31884000  0.38271000  1.0
  O  O198  1  0.89753000  0.68116000  0.88272000  1.0
  O  O199  1  0.42131000  0.89754000  0.88271000  1.0
  O  O200  1  0.68116000  0.42131000  0.88271000  1.0
  O  O201  1  0.89753000  0.42131000  0.61729000  1.0
  O  O202  1  0.68116000  0.89754000  0.61728000  1.0
  O  O203  1  0.42131000  0.68116000  0.61729000  1.0
  O  O204  1  0.94288000  0.45785000  0.17036000  1.0
  O  O205  1  0.59927000  0.94288000  0.17036000  1.0
  O  O206  1  0.45785000  0.59927000  0.17035000  1.0
  O  O207  1  0.94289000  0.59927000  0.32964000  1.0
  O  O208  1  0.45785000  0.94288000  0.32964000  1.0
  O  O209  1  0.59927000  0.45785000  0.32964000  1.0
  O  O210  1  0.05712000  0.54215000  0.82965000  1.0
  O  O211  1  0.40073000  0.05712000  0.82964000  1.0
  O  O212  1  0.54215000  0.40073000  0.82964000  1.0
  O  O213  1  0.05711000  0.40074000  0.67036000  1.0
  O  O214  1  0.54215000  0.05712000  0.67036000  1.0
  O  O215  1  0.40073000  0.54215000  0.67036000  1.0
