# generated using pymatgen
data_MgH10(CO2)4
_symmetry_space_group_name_H-M   'P 1'
_cell_length_a   5.30462000
_cell_length_b   6.91181000
_cell_length_c   12.55150000
_cell_angle_alpha   89.68080000
_cell_angle_beta   89.14290000
_cell_angle_gamma   67.45440000
_symmetry_Int_Tables_number   1
_chemical_formula_structural   MgH10(CO2)4
_chemical_formula_sum   'Mg2 H20 C8 O16'
_cell_volume   424.97669396
_cell_formula_units_Z   2
loop_
 _symmetry_equiv_pos_site_id
 _symmetry_equiv_pos_as_xyz
  1  'x, y, z'
loop_
 _atom_site_type_symbol
 _atom_site_label
 _atom_site_symmetry_multiplicity
 _atom_site_fract_x
 _atom_site_fract_y
 _atom_site_fract_z
 _atom_site_occupancy
  Mg  Mg0  1  0.46762000  0.06474000  0.25006000  1.0
  Mg  Mg1  1  0.53238000  0.93525000  0.74995000  1.0
  H  H2  1  0.21328000  0.61458000  0.45283000  1.0
  H  H3  1  0.82805000  0.38565000  0.95237000  1.0
  H  H4  1  0.78666000  0.38541000  0.54716000  1.0
  H  H5  1  0.17198000  0.61436000  0.04763000  1.0
  H  H6  1  0.90980000  0.11320000  0.34905000  1.0
  H  H7  1  0.02271000  0.88693000  0.84901000  1.0
  H  H8  1  0.09019000  0.88680000  0.65095000  1.0
  H  H9  1  0.97730000  0.11308000  0.15099000  1.0
  H  H10  1  0.80648000  0.93957000  0.40031000  1.0
  H  H11  1  0.74587000  0.06035000  0.90038000  1.0
  H  H12  1  0.19352000  0.06042000  0.59969000  1.0
  H  H13  1  0.25415000  0.93966000  0.09962000  1.0
  H  H14  1  0.04311000  0.43075000  0.31641000  1.0
  H  H15  1  0.47394000  0.56952000  0.81633000  1.0
  H  H16  1  0.95690000  0.56927000  0.68359000  1.0
  H  H17  1  0.52607000  0.43048000  0.18367000  1.0
  H  H18  1  0.18020000  0.29239000  0.41798000  1.0
  H  H19  1  0.47239000  0.70789000  0.91797000  1.0
  H  H20  1  0.81978000  0.70761000  0.58201000  1.0
  H  H21  1  0.52763000  0.29211000  0.08203000  1.0
  C  C22  1  0.53882000  0.72974000  0.42272000  1.0
  C  C23  1  0.26864000  0.27057000  0.92264000  1.0
  C  C24  1  0.46116000  0.27030000  0.57726000  1.0
  C  C25  1  0.73139000  0.72944000  0.07737000  1.0
  C  C26  1  0.42589000  0.58297000  0.47067000  1.0
  C  C27  1  0.00895000  0.41716000  0.97048000  1.0
  C  C28  1  0.57408000  0.41695000  0.52934000  1.0
  C  C29  1  0.99107000  0.58285000  0.02952000  1.0
  O  O30  1  0.40843000  0.83999000  0.34519000  1.0
  O  O31  1  0.24866000  0.16055000  0.84493000  1.0
  O  O32  1  0.59146000  0.16006000  0.65478000  1.0
  O  O33  1  0.75135000  0.83944000  0.15508000  1.0
  O  O34  1  0.76126000  0.73582000  0.45904000  1.0
  O  O35  1  0.49717000  0.26401000  0.95910000  1.0
  O  O36  1  0.23876000  0.26415000  0.54098000  1.0
  O  O37  1  0.50286000  0.73600000  0.04090000  1.0
  O  O38  1  0.75319000  0.07243000  0.35826000  1.0
  O  O39  1  0.82541000  0.92759000  0.85823000  1.0
  O  O40  1  0.24680000  0.92757000  0.64175000  1.0
  O  O41  1  0.17461000  0.07242000  0.14177000  1.0
  O  O42  1  0.14127000  0.28660000  0.33878000  1.0
  O  O43  1  0.42751000  0.71370000  0.83878000  1.0
  O  O44  1  0.85873000  0.71340000  0.66121000  1.0
  O  O45  1  0.57251000  0.28630000  0.16123000  1.0
