# generated using pymatgen
data_CdH24C26(N2O3)2
_symmetry_space_group_name_H-M   'P 1'
_cell_length_a   10.09060000
_cell_length_b   10.14880000
_cell_length_c   13.20410000
_cell_angle_alpha   99.98050000
_cell_angle_beta   100.05200000
_cell_angle_gamma   108.93900000
_symmetry_Int_Tables_number   1
_chemical_formula_structural   CdH24C26(N2O3)2
_chemical_formula_sum   'Cd2 H48 C52 N8 O12'
_cell_volume   1220.37066366
_cell_formula_units_Z   2
loop_
 _symmetry_equiv_pos_site_id
 _symmetry_equiv_pos_as_xyz
  1  'x, y, z'
loop_
 _atom_site_type_symbol
 _atom_site_label
 _atom_site_symmetry_multiplicity
 _atom_site_fract_x
 _atom_site_fract_y
 _atom_site_fract_z
 _atom_site_occupancy
  Cd  Cd0  1  0.36304000  0.08114000  0.93833000  1.0
  Cd  Cd1  1  0.63696000  0.91886000  0.06167000  1.0
  H  H2  1  0.34378000  0.22677000  0.76042000  1.0
  H  H3  1  0.65622000  0.77323000  0.23958000  1.0
  H  H4  1  0.43758000  0.28702000  0.60742000  1.0
  H  H5  1  0.56242000  0.71298000  0.39258000  1.0
  H  H6  1  0.51654000  0.30931000  0.49254000  1.0
  H  H7  1  0.48346000  0.69069000  0.50746000  1.0
  H  H8  1  0.36644000  0.26977000  0.20986000  1.0
  H  H9  1  0.63356000  0.73023000  0.79014000  1.0
  H  H10  1  0.68638000  0.01672000  0.64968000  1.0
  H  H11  1  0.31363000  0.98329000  0.35032000  1.0
  H  H12  1  0.57302000  0.96034000  0.80102000  1.0
  H  H13  1  0.42698000  0.03966000  0.19898000  1.0
  H  H14  1  0.64641000  0.23136000  0.32906000  1.0
  H  H15  1  0.35359000  0.76864000  0.67094000  1.0
  H  H16  1  0.81635000  0.52125000  0.48807000  1.0
  H  H17  1  0.18365000  0.47875000  0.51193000  1.0
  H  H18  1  0.87644000  0.37572000  0.46170000  1.0
  H  H19  1  0.12355000  0.62428000  0.53830000  1.0
  H  H20  1  0.97893000  0.56289000  0.36441000  1.0
  H  H21  1  0.02107000  0.43711000  0.63559000  1.0
  H  H22  1  0.86553000  0.39711000  0.27433000  1.0
  H  H23  1  0.13447000  0.60289000  0.72567000  1.0
  H  H24  1  0.80530000  0.59780000  0.21666000  1.0
  H  H25  1  0.19470000  0.40220000  0.78334000  1.0
  H  H26  1  0.77953000  0.65596000  0.34343000  1.0
  H  H27  1  0.22046000  0.34404000  0.65657000  1.0
  H  H28  1  0.54333000  0.50967000  0.21075000  1.0
  H  H29  1  0.45667000  0.49033000  0.78925000  1.0
  H  H30  1  0.60352000  0.36513000  0.18321000  1.0
  H  H31  1  0.39648000  0.63487000  0.81679000  1.0
  H  H32  1  0.55624000  0.48574000  0.39800000  1.0
  H  H33  1  0.44376000  0.51426000  0.60200000  1.0
  H  H34  1  0.06274000  0.26650000  0.41071000  1.0
  H  H35  1  0.93726000  0.73349000  0.58929000  1.0
  H  H36  1  0.80862000  0.11281000  0.31111000  1.0
  H  H37  1  0.19138000  0.88718000  0.68889000  1.0
  H  H38  1  0.94886000  0.91276000  0.07254000  1.0
  H  H39  1  0.05114000  0.08724000  0.92746000  1.0
  H  H40  1  0.20420000  0.05329000  0.16097000  1.0
  H  H41  1  0.79580000  0.94671000  0.83903000  1.0
  H  H42  1  0.10599000  0.74969000  0.12268000  1.0
  H  H43  1  0.89401000  0.25031000  0.87732000  1.0
  H  H44  1  0.03123000  0.53079000  0.19235000  1.0
  H  H45  1  0.96877000  0.46921000  0.80765000  1.0
  H  H46  1  0.12686000  0.33692000  0.14364000  1.0
  H  H47  1  0.87314000  0.66308000  0.85636000  1.0
  H  H48  1  0.37338000  0.58230000  0.96023000  1.0
  H  H49  1  0.62662000  0.41771000  0.03977000  1.0
  C  C50  1  0.41885000  0.18129000  0.73276000  1.0
  C  C51  1  0.58115000  0.81871000  0.26724000  1.0
  C  C52  1  0.47477000  0.21611000  0.64800000  1.0
  C  C53  1  0.52523000  0.78389000  0.35200000  1.0
  C  C54  1  0.57404000  0.15804000  0.61712000  1.0
  C  C55  1  0.42596000  0.84197000  0.38288000  1.0
  C  C56  1  0.60991000  0.06385000  0.67250000  1.0
  C  C57  1  0.39009000  0.93615000  0.32750000  1.0
  C  C58  1  0.54776000  0.03306000  0.75590000  1.0
  C  C59  1  0.45224000  0.96694000  0.24410000  1.0
  C  C60  1  0.64417000  0.19186000  0.52776000  1.0
  C  C61  1  0.35583000  0.80814000  0.47224000  1.0
  C  C62  1  0.65305000  0.32657000  0.38782000  1.0
  C  C63  1  0.34695000  0.67343000  0.61218000  1.0
  C  C64  1  0.81108000  0.43118000  0.42544000  1.0
  C  C65  1  0.18892000  0.56882000  0.57457000  1.0
  C  C66  1  0.86609000  0.48745000  0.33476000  1.0
  C  C67  1  0.13391000  0.51255000  0.66524000  1.0
  C  C68  1  0.77014000  0.56010000  0.28421000  1.0
  C  C69  1  0.22986000  0.43990000  0.71579000  1.0
  C  C70  1  0.61253000  0.45687000  0.24613000  1.0
  C  C71  1  0.38747000  0.54313000  0.75387000  1.0
  C  C72  1  0.55521000  0.39791000  0.33532000  1.0
  C  C73  1  0.44478000  0.60209000  0.66468000  1.0
  C  C74  1  0.30693000  0.27401000  0.35085000  1.0
  C  C75  1  0.69307000  0.72599000  0.64915000  1.0
  C  C76  1  0.15507000  0.17739000  0.29272000  1.0
  C  C77  1  0.84492000  0.82261000  0.70728000  1.0
  C  C78  1  0.04097000  0.19007000  0.33541000  1.0
  C  C79  1  0.95903000  0.80993000  0.66459000  1.0
  C  C80  1  0.89970000  0.10469000  0.27988000  1.0
  C  C81  1  0.10030000  0.89530000  0.72012000  1.0
  C  C82  1  0.97790000  0.99209000  0.14789000  1.0
  C  C83  1  0.02210000  0.00791000  0.85211000  1.0
  C  C84  1  0.12218000  0.07295000  0.19815000  1.0
  C  C85  1  0.87782000  0.92705000  0.80185000  1.0
  C  C86  1  0.29143000  0.81425000  0.99843000  1.0
  C  C87  1  0.70857000  0.18575000  0.00157000  1.0
  C  C88  1  0.24458000  0.68048000  0.03711000  1.0
  C  C89  1  0.75542000  0.31952000  0.96289000  1.0
  C  C90  1  0.14764000  0.66467000  0.10272000  1.0
  C  C91  1  0.85236000  0.33533000  0.89728000  1.0
  C  C92  1  0.10668000  0.54250000  0.14181000  1.0
  C  C93  1  0.89333000  0.45750000  0.85819000  1.0
  C  C94  1  0.16067000  0.43423000  0.11522000  1.0
  C  C95  1  0.83933000  0.56577000  0.88478000  1.0
  C  C96  1  0.25579000  0.44792000  0.04860000  1.0
  C  C97  1  0.74421000  0.55208000  0.95140000  1.0
  C  C98  1  0.29779000  0.57156000  0.01034000  1.0
  C  C99  1  0.70221000  0.42844000  0.98965000  1.0
  C  C100  1  0.30822000  0.32966000  0.01365000  1.0
  C  C101  1  0.69178000  0.67034000  0.98635000  1.0
  N  N102  1  0.45508000  0.09202000  0.78670000  1.0
  N  N103  1  0.54492000  0.90798000  0.21330000  1.0
  N  N104  1  0.86829000  0.00892000  0.18667000  1.0
  N  N105  1  0.13171000  0.99108000  0.81333000  1.0
  N  N106  1  0.59977000  0.27961000  0.47604000  1.0
  N  N107  1  0.40023000  0.72039000  0.52396000  1.0
  N  N108  1  0.40456000  0.29848000  0.29187000  1.0
  N  N109  1  0.59544000  0.70152000  0.70813000  1.0
  O  O110  1  0.22641000  0.90158000  0.01257000  1.0
  O  O111  1  0.77359000  0.09842000  0.98743000  1.0
  O  O112  1  0.39763000  0.83992000  0.95309000  1.0
  O  O113  1  0.60237000  0.16008000  0.04691000  1.0
  O  O114  1  0.30332000  0.23525000  0.06839000  1.0
  O  O115  1  0.69668000  0.76475000  0.93161000  1.0
  O  O116  1  0.35149000  0.32234000  0.92922000  1.0
  O  O117  1  0.64851000  0.67766000  0.07078000  1.0
  O  O118  1  0.73576000  0.14151000  0.50579000  1.0
  O  O119  1  0.26424000  0.85849000  0.49421000  1.0
  O  O120  1  0.33644000  0.32571000  0.44909000  1.0
  O  O121  1  0.66356000  0.67429000  0.55092000  1.0
