# generated using pymatgen
data_ZnH22C26(NO3)2
_symmetry_space_group_name_H-M   'P 1'
_cell_length_a   9.07574000
_cell_length_b   9.95174000
_cell_length_c   14.72764911
_cell_angle_alpha   70.32662600
_cell_angle_beta   81.44101680
_cell_angle_gamma   63.77450000
_symmetry_Int_Tables_number   1
_chemical_formula_structural   ZnH22C26(NO3)2
_chemical_formula_sum   'Zn2 H44 C52 N4 O12'
_cell_volume   1123.61052102
_cell_formula_units_Z   2
loop_
 _symmetry_equiv_pos_site_id
 _symmetry_equiv_pos_as_xyz
  1  'x, y, z'
loop_
 _atom_site_type_symbol
 _atom_site_label
 _atom_site_symmetry_multiplicity
 _atom_site_fract_x
 _atom_site_fract_y
 _atom_site_fract_z
 _atom_site_occupancy
  Zn  Zn0  1  0.25005000  0.22401000  0.55242000  1.0
  Zn  Zn1  1  0.74995000  0.77599000  0.44758000  1.0
  H  H2  1  0.11661000  0.18077000  0.39008000  1.0
  H  H3  1  0.38297000  0.42977000  0.39017000  1.0
  H  H4  1  0.88339000  0.81922000  0.60992000  1.0
  H  H5  1  0.61703000  0.57022000  0.60983000  1.0
  H  H6  1  0.52219000  0.21734000  0.57998000  1.0
  H  H7  1  0.97795000  0.20325000  0.58001000  1.0
  H  H8  1  0.47781000  0.78266000  0.42002000  1.0
  H  H9  1  0.02205000  0.79675000  0.41999000  1.0
  H  H10  1  0.10685000  0.26722000  0.21319000  1.0
  H  H11  1  0.39293000  0.51954000  0.21332000  1.0
  H  H12  1  0.89315000  0.73278000  0.78681000  1.0
  H  H13  1  0.60708000  0.48046000  0.78668000  1.0
  H  H14  1  0.31175000  0.64967000  0.07345000  1.0
  H  H15  1  0.18816000  0.27699000  0.07306000  1.0
  H  H16  1  0.68825000  0.35033000  0.92655000  1.0
  H  H17  1  0.81184000  0.72301000  0.92694000  1.0
  H  H18  1  0.31259000  0.73626000  0.89628000  1.0
  H  H19  1  0.18684000  0.36790000  0.89589000  1.0
  H  H20  1  0.68741000  0.26374000  0.10372000  1.0
  H  H21  1  0.81316000  0.63210000  0.10411000  1.0
  H  H22  1  0.24944000  0.59765000  0.80532000  1.0
  H  H23  1  0.75056000  0.40235000  0.19468000  1.0
  H  H24  1  0.47168000  0.95271000  0.71419000  1.0
  H  H25  1  0.02857000  0.33269000  0.71425000  1.0
  H  H26  1  0.52833000  0.04728000  0.28581000  1.0
  H  H27  1  0.97143000  0.66731000  0.28575000  1.0
  H  H28  1  0.48257000  0.85423000  0.89290000  1.0
  H  H29  1  0.01727000  0.25266000  0.89296000  1.0
  H  H30  1  0.51744000  0.14576000  0.10710000  1.0
  H  H31  1  0.98274000  0.74733000  0.10704000  1.0
  H  H32  1  0.50996000  0.83676000  0.03155000  1.0
  H  H33  1  0.98996000  0.13170000  0.03151000  1.0
  H  H34  1  0.49004000  0.16324000  0.96845000  1.0
  H  H35  1  0.01004000  0.86831000  0.96849000  1.0
  H  H36  1  0.50745000  0.74624000  0.20980000  1.0
  H  H37  1  0.99218000  0.04431000  0.20976000  1.0
  H  H38  1  0.49254000  0.25376000  0.79020000  1.0
  H  H39  1  0.00781000  0.95569000  0.79024000  1.0
  H  H40  1  0.24975000  0.85060000  0.29928000  1.0
  H  H41  1  0.75024000  0.14940000  0.70072000  1.0
  H  H42  1  0.58476000  0.09683000  0.51491000  1.0
  H  H43  1  0.91549000  0.38848000  0.51473000  1.0
  H  H44  1  0.41524000  0.90317000  0.48509000  1.0
  H  H45  1  0.08451000  0.61152000  0.48527000  1.0
  C  C46  1  0.17532000  0.25738000  0.34848000  1.0
  C  C47  1  0.32426000  0.39467000  0.34856000  1.0
  C  C48  1  0.82467000  0.74262000  0.65152000  1.0
  C  C49  1  0.67574000  0.60532000  0.65145000  1.0
  C  C50  1  0.17168000  0.30580000  0.24833000  1.0
  C  C51  1  0.32799000  0.44604000  0.24840000  1.0
  C  C52  1  0.82832000  0.69420000  0.75167000  1.0
  C  C53  1  0.67201000  0.55396000  0.75160000  1.0
  C  C54  1  0.24989000  0.40262000  0.19477000  1.0
  C  C55  1  0.75012000  0.59738000  0.80523000  1.0
  C  C56  1  0.24987000  0.45602000  0.08794000  1.0
  C  C57  1  0.75014000  0.54398000  0.91206000  1.0
  C  C58  1  0.28530000  0.58555000  0.03569000  1.0
  C  C59  1  0.21436000  0.37892000  0.03546000  1.0
  C  C60  1  0.71470000  0.41445000  0.96431000  1.0
  C  C61  1  0.78564000  0.62107000  0.96454000  1.0
  C  C62  1  0.28524000  0.63554000  0.93515000  1.0
  C  C63  1  0.21412000  0.42969000  0.93492000  1.0
  C  C64  1  0.71476000  0.36445000  0.06486000  1.0
  C  C65  1  0.78588000  0.57031000  0.06508000  1.0
  C  C66  1  0.24950000  0.55825000  0.88404000  1.0
  C  C67  1  0.75050000  0.44175000  0.11596000  1.0
  C  C68  1  0.37350000  0.01440000  0.75737000  1.0
  C  C69  1  0.12664000  0.22781000  0.75742000  1.0
  C  C70  1  0.62651000  0.98559000  0.24263000  1.0
  C  C71  1  0.87336000  0.77219000  0.24258000  1.0
  C  C72  1  0.37829000  0.96128000  0.85739000  1.0
  C  C73  1  0.12164000  0.18105000  0.85743000  1.0
  C  C74  1  0.62171000  0.03871000  0.14262000  1.0
  C  C75  1  0.87836000  0.81896000  0.14256000  1.0
  C  C76  1  0.24995000  0.04444000  0.91095000  1.0
  C  C77  1  0.75005000  0.95556000  0.08905000  1.0
  C  C78  1  0.24996000  0.99124000  0.01735000  1.0
  C  C79  1  0.75005000  0.00876000  0.98265000  1.0
  C  C80  1  0.39497000  0.88179000  0.06955000  1.0
  C  C81  1  0.10488000  0.04867000  0.06954000  1.0
  C  C82  1  0.60504000  0.11821000  0.93045000  1.0
  C  C83  1  0.89512000  0.95133000  0.93046000  1.0
  C  C84  1  0.39463000  0.83111000  0.17000000  1.0
  C  C85  1  0.10506000  0.99913000  0.16997000  1.0
  C  C86  1  0.60537000  0.16889000  0.83000000  1.0
  C  C87  1  0.89494000  0.00088000  0.83002000  1.0
  C  C88  1  0.24981000  0.88973000  0.22081000  1.0
  C  C89  1  0.75019000  0.11027000  0.77919000  1.0
  C  C90  1  0.33390000  0.47733000  0.58767000  1.0
  C  C91  1  0.16578000  0.93600000  0.58747000  1.0
  C  C92  1  0.66609000  0.52267000  0.41233000  1.0
  C  C93  1  0.83420000  0.06401000  0.41253000  1.0
  C  C94  1  0.27522000  0.63575000  0.59390000  1.0
  C  C95  1  0.22442000  0.77135000  0.59384000  1.0
  C  C96  1  0.72477000  0.36427000  0.40609000  1.0
  C  C97  1  0.77557000  0.22866000  0.40615000  1.0
  N  N98  1  0.24982000  0.30099000  0.39865000  1.0
  N  N99  1  0.75018000  0.69901000  0.60135000  1.0
  N  N100  1  0.25013000  0.14602000  0.70759000  1.0
  N  N101  1  0.74988000  0.85398000  0.29241000  1.0
  O  O102  1  0.50636000  0.13317000  0.56595000  1.0
  O  O103  1  0.99374000  0.30146000  0.56590000  1.0
  O  O104  1  0.49364000  0.86682000  0.43406000  1.0
  O  O105  1  0.00626000  0.69854000  0.43410000  1.0
  O  O106  1  0.22845000  0.45165000  0.55465000  1.0
  O  O107  1  0.27123000  0.99454000  0.55421000  1.0
  O  O108  1  0.77154000  0.54836000  0.44534000  1.0
  O  O109  1  0.72877000  0.00545000  0.44580000  1.0
  O  O110  1  0.47886000  0.38121000  0.61341000  1.0
  O  O111  1  0.02091000  0.00654000  0.61332000  1.0
  O  O112  1  0.52113000  0.61880000  0.38659000  1.0
  O  O113  1  0.97908000  0.99347000  0.38668000  1.0
