# generated using pymatgen
data_ZnH8C16N3O5
_symmetry_space_group_name_H-M   'P 1'
_cell_length_a   14.36430000
_cell_length_b   15.91920000
_cell_length_c   17.09300000
_cell_angle_alpha   87.63380000
_cell_angle_beta   88.60870000
_cell_angle_gamma   87.94250000
_symmetry_Int_Tables_number   1
_chemical_formula_structural   ZnH8C16N3O5
_chemical_formula_sum   'Zn2 H16 C32 N6 O10'
_cell_volume   3901.75712678
_cell_formula_units_Z   2
loop_
 _symmetry_equiv_pos_site_id
 _symmetry_equiv_pos_as_xyz
  1  'x, y, z'
loop_
 _atom_site_type_symbol
 _atom_site_label
 _atom_site_symmetry_multiplicity
 _atom_site_fract_x
 _atom_site_fract_y
 _atom_site_fract_z
 _atom_site_occupancy
  Zn  Zn0  1  0.49840000  0.58907000  0.50360000  1.0
  Zn  Zn1  1  0.50160000  0.41094000  0.49639000  1.0
  H  H2  1  0.55848000  0.60599000  0.74399000  1.0
  H  H3  1  0.40283000  0.11276000  0.57087000  1.0
  H  H4  1  0.61406000  0.12779000  0.38738000  1.0
  H  H5  1  0.38592000  0.87221000  0.61265000  1.0
  H  H6  1  0.60495000  0.28638000  0.39769000  1.0
  H  H7  1  0.39505000  0.71361000  0.60233000  1.0
  H  H8  1  0.53503000  0.60465000  0.95326000  1.0
  H  H9  1  0.46498000  0.39536000  0.04675000  1.0
  H  H10  1  0.44153000  0.39405000  0.25602000  1.0
  H  H11  1  0.51872000  0.65889000  0.10709000  1.0
  H  H12  1  0.48131000  0.34113000  0.89290000  1.0
  H  H13  1  0.50140000  0.65717000  0.25412000  1.0
  H  H14  1  0.49864000  0.34286000  0.74587000  1.0
  H  H15  1  0.59978000  0.72828000  0.42833000  1.0
  H  H16  1  0.40021000  0.27174000  0.57167000  1.0
  H  H17  1  0.59714000  0.88726000  0.42914000  1.0
  C  C18  1  0.47172000  0.52052000  0.35093000  1.0
  C  C19  1  0.55159000  0.85057000  0.46792000  1.0
  C  C20  1  0.51028000  0.10936000  0.47964000  1.0
  C  C21  1  0.48968000  0.89066000  0.52038000  1.0
  C  C22  1  0.56671000  0.15809000  0.42914000  1.0
  C  C23  1  0.43327000  0.84193000  0.57088000  1.0
  C  C24  1  0.56159000  0.24512000  0.43438000  1.0
  C  C25  1  0.43840000  0.75488000  0.56563000  1.0
  C  C26  1  0.68063000  0.49991000  0.47283000  1.0
  C  C27  1  0.31938000  0.50007000  0.52715000  1.0
  C  C28  1  0.78115000  0.49839000  0.47424000  1.0
  C  C29  1  0.52829000  0.47952000  0.64907000  1.0
  C  C30  1  0.21885000  0.50155000  0.52572000  1.0
  C  C31  1  0.86570000  0.49869000  0.48305000  1.0
  C  C32  1  0.13430000  0.50122000  0.51693000  1.0
  C  C33  1  0.95777000  0.49941000  0.49418000  1.0
  C  C34  1  0.04223000  0.50048000  0.50580000  1.0
  C  C35  1  0.47174000  0.52503000  0.26310000  1.0
  C  C36  1  0.52828000  0.47499000  0.73690000  1.0
  C  C37  1  0.45743000  0.45211000  0.22332000  1.0
  C  C38  1  0.54259000  0.54791000  0.77668000  1.0
  C  C39  1  0.46539000  0.45204000  0.14160000  1.0
  C  C40  1  0.50112000  0.60172000  0.14087000  1.0
  C  C41  1  0.53462000  0.54798000  0.85841000  1.0
  C  C42  1  0.48974000  0.52793000  0.09937000  1.0
  C  C43  1  0.51028000  0.47208000  0.90063000  1.0
  C  C44  1  0.49891000  0.39829000  0.85913000  1.0
  C  C45  1  0.49177000  0.60091000  0.22155000  1.0
  C  C46  1  0.50826000  0.39911000  0.77845000  1.0
  C  C47  1  0.44694000  0.23652000  0.53281000  1.0
  C  C48  1  0.55304000  0.76350000  0.46720000  1.0
  C  C49  1  0.44838000  0.14946000  0.53210000  1.0
  N  N50  1  0.50478000  0.53385000  0.01910000  1.0
  N  N51  1  0.49524000  0.46617000  0.98089000  1.0
  N  N52  1  0.50304000  0.28319000  0.48539000  1.0
  N  N53  1  0.49695000  0.71681000  0.51461000  1.0
  N  N54  1  0.51958000  0.02092000  0.47249000  1.0
  N  N55  1  0.48039000  0.97907000  0.52753000  1.0
  O  O56  1  0.47420000  0.58940000  0.38599000  1.0
  O  O57  1  0.45214000  0.38071000  0.10464000  1.0
  O  O58  1  0.52585000  0.41062000  0.61400000  1.0
  O  O59  1  0.47168000  0.44715000  0.38379000  1.0
  O  O60  1  0.52827000  0.55287000  0.61621000  1.0
  O  O61  1  0.64010000  0.57224000  0.47467000  1.0
  O  O62  1  0.35992000  0.42773000  0.52536000  1.0
  O  O63  1  0.64252000  0.42893000  0.47172000  1.0
  O  O64  1  0.35746000  0.57105000  0.52822000  1.0
  O  O65  1  0.54788000  0.61932000  0.89536000  1.0
