# generated using pymatgen
data_Cu2H34C27N6O7
_symmetry_space_group_name_H-M   'P 1'
_cell_length_a   12.77580000
_cell_length_b   14.35860000
_cell_length_c   16.26820000
_cell_angle_alpha   90.00010000
_cell_angle_beta   90.00000000
_cell_angle_gamma   90.00000000
_symmetry_Int_Tables_number   1
_chemical_formula_structural   Cu2H34C27N6O7
_chemical_formula_sum   'Cu8 H136 C108 N24 O28'
_cell_volume   2984.28093590
_cell_formula_units_Z   4
loop_
 _symmetry_equiv_pos_site_id
 _symmetry_equiv_pos_as_xyz
  1  'x, y, z'
loop_
 _atom_site_type_symbol
 _atom_site_label
 _atom_site_symmetry_multiplicity
 _atom_site_fract_x
 _atom_site_fract_y
 _atom_site_fract_z
 _atom_site_occupancy
  Cu  Cu0  1  0.05162000  0.02612000  0.91287000  1.0
  Cu  Cu1  1  0.44838000  0.97388000  0.41287000  1.0
  Cu  Cu2  1  0.55162000  0.47388000  0.08713000  1.0
  Cu  Cu3  1  0.94838000  0.52612000  0.58713000  1.0
  Cu  Cu4  1  0.78138000  0.29479000  0.84306000  1.0
  Cu  Cu5  1  0.71861000  0.70521000  0.34306000  1.0
  Cu  Cu6  1  0.28138000  0.20521000  0.15694000  1.0
  Cu  Cu7  1  0.21862000  0.79479000  0.65694000  1.0
  H  H8  1  0.36377000  0.95716000  0.58309000  1.0
  H  H9  1  0.13623000  0.04284000  0.08309000  1.0
  H  H10  1  0.86377000  0.54284000  0.41691000  1.0
  H  H11  1  0.63622000  0.45716000  0.91691000  1.0
  H  H12  1  0.78262000  0.37764000  0.67459000  1.0
  H  H13  1  0.71739000  0.62236000  0.17459000  1.0
  H  H14  1  0.28262000  0.12236000  0.32541000  1.0
  H  H15  1  0.21739000  0.87764000  0.82541000  1.0
  H  H16  1  0.94030000  0.02519000  0.70867000  1.0
  H  H17  1  0.55970000  0.97481000  0.20867000  1.0
  H  H18  1  0.44030000  0.47481000  0.29133000  1.0
  H  H19  1  0.05970000  0.52519000  0.79133000  1.0
  H  H20  1  0.01371000  0.18149000  0.67526000  1.0
  H  H21  1  0.48629000  0.81851000  0.17526000  1.0
  H  H22  1  0.51371000  0.31851000  0.32474000  1.0
  H  H23  1  0.98629000  0.68149000  0.82475000  1.0
  H  H24  1  0.08325000  0.09079000  0.62293000  1.0
  H  H25  1  0.41675000  0.90921000  0.12293000  1.0
  H  H26  1  0.58325000  0.40921000  0.37707000  1.0
  H  H27  1  0.91675000  0.59079000  0.87707000  1.0
  H  H28  1  0.13951000  0.14561000  0.71057000  1.0
  H  H29  1  0.36049000  0.85439000  0.21057000  1.0
  H  H30  1  0.63951000  0.35439000  0.28943000  1.0
  H  H31  1  0.86049000  0.64561000  0.78943000  1.0
  H  H32  1  0.85016000  0.25571000  0.06428000  1.0
  H  H33  1  0.64984000  0.74429000  0.56428000  1.0
  H  H34  1  0.35016000  0.24428000  0.93572000  1.0
  H  H35  1  0.14984000  0.75571000  0.43572000  1.0
  H  H36  1  0.01432000  0.34208000  0.02392000  1.0
  H  H37  1  0.48568000  0.65793000  0.52392000  1.0
  H  H38  1  0.51432000  0.15792000  0.97607000  1.0
  H  H39  1  0.98568000  0.84208000  0.47607000  1.0
  H  H40  1  0.92587000  0.41709000  0.07761000  1.0
  H  H41  1  0.57412000  0.58291000  0.57761000  1.0
  H  H42  1  0.42587000  0.08291000  0.92239000  1.0
  H  H43  1  0.07413000  0.91709000  0.42238000  1.0
  H  H44  1  0.93748000  0.42349000  0.96781000  1.0
  H  H45  1  0.56251000  0.57651000  0.46781000  1.0
  H  H46  1  0.43749000  0.07651000  0.03219000  1.0
  H  H47  1  0.06252000  0.92349000  0.53219000  1.0
  H  H48  1  0.28848000  0.02460000  0.72196000  1.0
  H  H49  1  0.21151000  0.97540000  0.22196000  1.0
  H  H50  1  0.78848000  0.47540000  0.27804000  1.0
  H  H51  1  0.71151000  0.52460000  0.77804000  1.0
  H  H52  1  0.32569000  0.13876000  0.75261000  1.0
  H  H53  1  0.17430000  0.86124000  0.25261000  1.0
  H  H54  1  0.82569000  0.36124000  0.24739000  1.0
  H  H55  1  0.67431000  0.63876000  0.74739000  1.0
  H  H56  1  0.41587000  0.04531000  0.76041000  1.0
  H  H57  1  0.08412000  0.95469000  0.26041000  1.0
  H  H58  1  0.91587000  0.45469000  0.23959000  1.0
  H  H59  1  0.58413000  0.54531000  0.73959000  1.0
  H  H60  1  0.47555000  0.17734000  0.39011000  1.0
  H  H61  1  0.02445000  0.82266000  0.89011000  1.0
  H  H62  1  0.97555000  0.32266000  0.60989000  1.0
  H  H63  1  0.52444000  0.67734000  0.10989000  1.0
  H  H64  1  0.58869000  0.19300000  0.45181000  1.0
  H  H65  1  0.91131000  0.80700000  0.95181000  1.0
  H  H66  1  0.08869000  0.30700000  0.54819000  1.0
  H  H67  1  0.41131000  0.69301000  0.04820000  1.0
  H  H68  1  0.48474000  0.27487000  0.45736000  1.0
  H  H69  1  0.01526000  0.72513000  0.95735000  1.0
  H  H70  1  0.98474000  0.22513000  0.54265000  1.0
  H  H71  1  0.51525000  0.77487000  0.04265000  1.0
  H  H72  1  0.55729000  0.26469000  0.87565000  1.0
  H  H73  1  0.94271000  0.73532000  0.37565000  1.0
  H  H74  1  0.05729000  0.23531000  0.12435000  1.0
  H  H75  1  0.44271000  0.76469000  0.62435000  1.0
  H  H76  1  0.53453000  0.16148000  0.81762000  1.0
  H  H77  1  0.96547000  0.83852000  0.31762000  1.0
  H  H78  1  0.03453000  0.33852000  0.18238000  1.0
  H  H79  1  0.46547000  0.66148000  0.68238000  1.0
  H  H80  1  0.44241000  0.25374000  0.81479000  1.0
  H  H81  1  0.05758000  0.74626000  0.31479000  1.0
  H  H82  1  0.94241000  0.24626000  0.18521000  1.0
  H  H83  1  0.55759000  0.75374000  0.68521000  1.0
  H  H84  1  0.38260000  0.28146000  0.68173000  1.0
  H  H85  1  0.11740000  0.71855000  0.18173000  1.0
  H  H86  1  0.88261000  0.21854000  0.31827000  1.0
  H  H87  1  0.61740000  0.78146000  0.81827000  1.0
  H  H88  1  0.41899000  0.32135000  0.58439000  1.0
  H  H89  1  0.08101000  0.67865000  0.08439000  1.0
  H  H90  1  0.91900000  0.17865000  0.41561000  1.0
  H  H91  1  0.58101000  0.82135000  0.91561000  1.0
  H  H92  1  0.70000000  0.43676000  0.54203000  1.0
  H  H93  1  0.80000000  0.56324000  0.04203000  1.0
  H  H94  1  0.20000000  0.06324000  0.45797000  1.0
  H  H95  1  0.30000000  0.93676000  0.95797000  1.0
  H  H96  1  0.57064000  0.40224000  0.51616000  1.0
  H  H97  1  0.92936000  0.59776000  0.01616000  1.0
  H  H98  1  0.07064000  0.09776000  0.48383000  1.0
  H  H99  1  0.42936000  0.90224000  0.98384000  1.0
  H  H100  1  0.67697000  0.32546000  0.49832000  1.0
  H  H101  1  0.82303000  0.67453000  0.99832000  1.0
  H  H102  1  0.17698000  0.17453000  0.50168000  1.0
  H  H103  1  0.32302000  0.82546000  0.00168000  1.0
  H  H104  1  0.80973000  0.93266000  0.24396000  1.0
  H  H105  1  0.69027000  0.06734000  0.74396000  1.0
  H  H106  1  0.30973000  0.56734000  0.75604000  1.0
  H  H107  1  0.19027000  0.43266000  0.25604000  1.0
  H  H108  1  0.74789000  0.03916000  0.35503000  1.0
  H  H109  1  0.75211000  0.96084000  0.85503000  1.0
  H  H110  1  0.24788000  0.46084000  0.64497000  1.0
  H  H111  1  0.25212000  0.53916000  0.14497000  1.0
  H  H112  1  0.66359000  0.18953000  0.31841000  1.0
  H  H113  1  0.83642000  0.81047000  0.81841000  1.0
  H  H114  1  0.16358000  0.31047000  0.68159000  1.0
  H  H115  1  0.33642000  0.68953000  0.18159000  1.0
  H  H116  1  0.64090000  0.23373000  0.17124000  1.0
  H  H117  1  0.85910000  0.76627000  0.67124000  1.0
  H  H118  1  0.14090000  0.26627000  0.82876000  1.0
  H  H119  1  0.35911000  0.73373000  0.32876000  1.0
  H  H120  1  0.69995000  0.12511000  0.06082000  1.0
  H  H121  1  0.80006000  0.87489000  0.56082000  1.0
  H  H122  1  0.19995000  0.37489000  0.93918000  1.0
  H  H123  1  0.30006000  0.62511000  0.43918000  1.0
  H  H124  1  0.86305000  0.91776000  0.09947000  1.0
  H  H125  1  0.63695000  0.08224000  0.59947000  1.0
  H  H126  1  0.36306000  0.58224000  0.90053000  1.0
  H  H127  1  0.13695000  0.41776000  0.40053000  1.0
  H  H128  1  0.73000000  0.82853000  0.02079000  1.0
  H  H129  1  0.77000000  0.17147000  0.52079000  1.0
  H  H130  1  0.23000000  0.67147000  0.97921000  1.0
  H  H131  1  0.27000000  0.32853000  0.47921000  1.0
  H  H132  1  0.63335000  0.91380000  0.04590000  1.0
  H  H133  1  0.86665000  0.08620000  0.54590000  1.0
  H  H134  1  0.13335000  0.58620000  0.95410000  1.0
  H  H135  1  0.36665000  0.41380000  0.45410000  1.0
  H  H136  1  0.68907000  0.84344000  0.12518000  1.0
  H  H137  1  0.81093000  0.15656000  0.62518000  1.0
  H  H138  1  0.18907000  0.65656000  0.87482000  1.0
  H  H139  1  0.31093000  0.34344000  0.37482000  1.0
  H  H140  1  0.86601000  0.03965000  0.00487000  1.0
  H  H141  1  0.63399000  0.96035000  0.50487000  1.0
  H  H142  1  0.36601000  0.46035000  0.99513000  1.0
  H  H143  1  0.13399000  0.53965000  0.49513000  1.0
  C  C144  1  0.08430000  0.96477000  0.74861000  1.0
  C  C145  1  0.41570000  0.03523000  0.24861000  1.0
  C  C146  1  0.58430000  0.53523000  0.25139000  1.0
  C  C147  1  0.91570000  0.46477000  0.75139000  1.0
  C  C148  1  0.01329000  0.04940000  0.73813000  1.0
  C  C149  1  0.48671000  0.95060000  0.23812000  1.0
  C  C150  1  0.51329000  0.45059000  0.26188000  1.0
  C  C151  1  0.98671000  0.54940000  0.76188000  1.0
  C  C152  1  0.06590000  0.12177000  0.68290000  1.0
  C  C153  1  0.43410000  0.87823000  0.18289000  1.0
  C  C154  1  0.56590000  0.37822000  0.31710000  1.0
  C  C155  1  0.93410000  0.62178000  0.81710000  1.0
  C  C156  1  0.92412000  0.15264000  0.83330000  1.0
  C  C157  1  0.57588000  0.84736000  0.33333333  1.0
  C  C158  1  0.42412000  0.34736000  0.16670000  1.0
  C  C159  1  0.07588000  0.65264000  0.66666667  1.0
  C  C160  1  0.91935000  0.17957000  0.92306000  1.0
  C  C161  1  0.58065000  0.82043000  0.42306000  1.0
  C  C162  1  0.41935000  0.32043000  0.07694000  1.0
  C  C163  1  0.08065000  0.67958000  0.57694000  1.0
  C  C164  1  0.85063000  0.30369000  0.01149000  1.0
  C  C165  1  0.64937000  0.69631000  0.51148000  1.0
  C  C166  1  0.35064000  0.19631000  0.98852000  1.0
  C  C167  1  0.14936000  0.80369000  0.48852000  1.0
  C  C168  1  0.93798000  0.37672000  0.02119000  1.0
  C  C169  1  0.56201000  0.62328000  0.52119000  1.0
  C  C170  1  0.43799000  0.12327000  0.97881000  1.0
  C  C171  1  0.06202000  0.87672000  0.47881000  1.0
  C  C172  1  0.74517000  0.35468000  0.00739000  1.0
  C  C173  1  0.75483000  0.64532000  0.50739000  1.0
  C  C174  1  0.24517000  0.14532000  0.99261000  1.0
  C  C175  1  0.25483000  0.85468000  0.49261000  1.0
  C  C176  1  0.35296000  0.07503000  0.72235000  1.0
  C  C177  1  0.14704000  0.92497000  0.22235000  1.0
  C  C178  1  0.85296000  0.42497000  0.27765000  1.0
  C  C179  1  0.64704000  0.57503000  0.77765000  1.0
  C  C180  1  0.39034000  0.09391000  0.63722000  1.0
  C  C181  1  0.10966000  0.90609000  0.13722000  1.0
  C  C182  1  0.89034000  0.40609000  0.36278000  1.0
  C  C183  1  0.60966000  0.59391000  0.86278000  1.0
  C  C184  1  0.42925000  0.17416000  0.59850000  1.0
  C  C185  1  0.07075000  0.82584000  0.09850000  1.0
  C  C186  1  0.92926000  0.32584000  0.40150000  1.0
  C  C187  1  0.57074000  0.67416000  0.90150000  1.0
  C  C188  1  0.45416000  0.14598000  0.51752000  1.0
  C  C189  1  0.04584000  0.85401000  0.01752000  1.0
  C  C190  1  0.95417000  0.35402000  0.48248000  1.0
  C  C191  1  0.54583000  0.64599000  0.98248000  1.0
  C  C192  1  0.50301000  0.20087000  0.45044000  1.0
  C  C193  1  0.99699000  0.79913000  0.95044000  1.0
  C  C194  1  0.00301000  0.29913000  0.54956000  1.0
  C  C195  1  0.49699000  0.70087000  0.04956000  1.0
  C  C196  1  0.52634000  0.23773000  0.81743000  1.0
  C  C197  1  0.97366000  0.76227000  0.31744000  1.0
  C  C198  1  0.02634000  0.26227000  0.18257000  1.0
  C  C199  1  0.47366000  0.73773000  0.68256000  1.0
  C  C200  1  0.58224000  0.28023000  0.74672000  1.0
  C  C201  1  0.91776000  0.71977000  0.24673000  1.0
  C  C202  1  0.08225000  0.21977000  0.25328000  1.0
  C  C203  1  0.41776000  0.78023000  0.75327000  1.0
  C  C204  1  0.54705000  0.29587000  0.66552000  1.0
  C  C205  1  0.95295000  0.70412000  0.16552000  1.0
  C  C206  1  0.04705000  0.20412000  0.33448000  1.0
  C  C207  1  0.45295000  0.79588000  0.83448000  1.0
  C  C208  1  0.44062000  0.27119000  0.63263000  1.0
  C  C209  1  0.05938000  0.72881000  0.13263000  1.0
  C  C210  1  0.94062000  0.22881000  0.36737000  1.0
  C  C211  1  0.55938000  0.77120000  0.86737000  1.0
  C  C212  1  0.63118000  0.33921000  0.62532000  1.0
  C  C213  1  0.86882000  0.66078000  0.12532000  1.0
  C  C214  1  0.13118000  0.16078000  0.37468000  1.0
  C  C215  1  0.36882000  0.83922000  0.87468000  1.0
  C  C216  1  0.64543000  0.37771000  0.54107000  1.0
  C  C217  1  0.85457000  0.62229000  0.04107000  1.0
  C  C218  1  0.14543000  0.12229000  0.45893000  1.0
  C  C219  1  0.35457000  0.87771000  0.95893000  1.0
  C  C220  1  0.77331000  0.99917000  0.22827000  1.0
  C  C221  1  0.72669000  0.00083000  0.72827000  1.0
  C  C222  1  0.27330000  0.50083000  0.77173000  1.0
  C  C223  1  0.22670000  0.49917000  0.27173000  1.0
  C  C224  1  0.73888000  0.05861000  0.29054000  1.0
  C  C225  1  0.76112000  0.94139000  0.79054000  1.0
  C  C226  1  0.23888000  0.44139000  0.70946000  1.0
  C  C227  1  0.26113000  0.55861000  0.20946000  1.0
  C  C228  1  0.69090000  0.14309000  0.26996000  1.0
  C  C229  1  0.80911000  0.85692000  0.76996000  1.0
  C  C230  1  0.19089000  0.35692000  0.73004000  1.0
  C  C231  1  0.30911000  0.64308000  0.23004000  1.0
  C  C232  1  0.67758000  0.16760000  0.18752000  1.0
  C  C233  1  0.82243000  0.83240000  0.68751000  1.0
  C  C234  1  0.17757000  0.33240000  0.81249000  1.0
  C  C235  1  0.32243000  0.66760000  0.31249000  1.0
  C  C236  1  0.71111000  0.10719000  0.12542000  1.0
  C  C237  1  0.78889000  0.89282000  0.62541000  1.0
  C  C238  1  0.21111000  0.39281000  0.87458000  1.0
  C  C239  1  0.28889000  0.60718000  0.37458000  1.0
  C  C240  1  0.75903000  0.02238000  0.14523000  1.0
  C  C241  1  0.74098000  0.97762000  0.64523000  1.0
  C  C242  1  0.25902000  0.47762000  0.85477000  1.0
  C  C243  1  0.24098000  0.52238000  0.35477000  1.0
  C  C244  1  0.79060000  0.95314000  0.07901000  1.0
  C  C245  1  0.70940000  0.04686000  0.57901000  1.0
  C  C246  1  0.29060000  0.54686000  0.92099000  1.0
  C  C247  1  0.20940000  0.45314000  0.42099000  1.0
  C  C248  1  0.70555000  0.87969000  0.06722000  1.0
  C  C249  1  0.79445000  0.12031000  0.56722000  1.0
  C  C250  1  0.20555000  0.62031000  0.93278000  1.0
  C  C251  1  0.29445000  0.37969000  0.43278000  1.0
  N  N252  1  0.99116000  0.08558000  0.81913000  1.0
  N  N253  1  0.50884000  0.91442000  0.31913000  1.0
  N  N254  1  0.49116000  0.41442000  0.18087000  1.0
  N  N255  1  0.00884000  0.58558000  0.68087000  1.0
  N  N256  1  0.86383000  0.25474000  0.93476000  1.0
  N  N257  1  0.63617000  0.74526000  0.43476000  1.0
  N  N258  1  0.36383000  0.24526000  0.06524000  1.0
  N  N259  1  0.13617000  0.75474000  0.56524000  1.0
  N  N260  1  0.43064000  0.05526000  0.50766000  1.0
  N  N261  1  0.06936000  0.94474000  0.00766000  1.0
  N  N262  1  0.93064000  0.44474000  0.49234000  1.0
  N  N263  1  0.56935000  0.55526000  0.99234000  1.0
  N  N264  1  0.39346000  0.02484000  0.58065000  1.0
  N  N265  1  0.10654000  0.97516000  0.08065000  1.0
  N  N266  1  0.89346000  0.47516000  0.41935000  1.0
  N  N267  1  0.60654000  0.52484000  0.91935000  1.0
  N  N268  1  0.70966000  0.34544000  0.68074000  1.0
  N  N269  1  0.79034000  0.65455000  0.18074000  1.0
  N  N270  1  0.20966000  0.15455000  0.31926000  1.0
  N  N271  1  0.29034000  0.84545000  0.81926000  1.0
  N  N272  1  0.68127000  0.31110000  0.75463000  1.0
  N  N273  1  0.81873000  0.68890000  0.25464000  1.0
  N  N274  1  0.18127000  0.18890000  0.24536000  1.0
  N  N275  1  0.31873000  0.81110000  0.74537000  1.0
  O  O276  1  0.10629000  0.93939000  0.82365000  1.0
  O  O277  1  0.39371000  0.06061000  0.32365000  1.0
  O  O278  1  0.60629000  0.56061000  0.17635000  1.0
  O  O279  1  0.89371000  0.43939000  0.67635000  1.0
  O  O280  1  0.12039000  0.92539000  0.68644000  1.0
  O  O281  1  0.37960000  0.07461000  0.18643000  1.0
  O  O282  1  0.62040000  0.57461000  0.31357000  1.0
  O  O283  1  0.87960000  0.42539000  0.81357000  1.0
  O  O284  1  0.96818000  0.12985000  0.97692000  1.0
  O  O285  1  0.53182000  0.87015000  0.47692000  1.0
  O  O286  1  0.46818000  0.37015000  0.02308000  1.0
  O  O287  1  0.03182000  0.62985000  0.52308000  1.0
  O  O288  1  0.86742000  0.19639000  0.78081000  1.0
  O  O289  1  0.63258000  0.80361000  0.28081000  1.0
  O  O290  1  0.36742000  0.30361000  0.21919000  1.0
  O  O291  1  0.13258000  0.69639000  0.71919000  1.0
  O  O292  1  0.71043000  0.39419000  0.07009000  1.0
  O  O293  1  0.78957000  0.60581000  0.57009000  1.0
  O  O294  1  0.21044000  0.10581000  0.92991000  1.0
  O  O295  1  0.28957000  0.89419000  0.42991000  1.0
  O  O296  1  0.69969000  0.35699000  0.93571000  1.0
  O  O297  1  0.80031000  0.64301000  0.43570000  1.0
  O  O298  1  0.19969000  0.14301000  0.06429000  1.0
  O  O299  1  0.30031000  0.85699000  0.56429000  1.0
  O  O300  1  0.80733000  0.99549000  0.00060000  1.0
  O  O301  1  0.69267000  0.00451000  0.50060000  1.0
  O  O302  1  0.30733000  0.50452000  0.99940000  1.0
  O  O303  1  0.19267000  0.49549000  0.49940000  1.0
