# generated using pymatgen
data_KPH12PtC2N2(ClO2)2
_symmetry_space_group_name_H-M   'P 1'
_cell_length_a   7.94201000
_cell_length_b   8.67595000
_cell_length_c   8.77673000
_cell_angle_alpha   84.04120000
_cell_angle_beta   67.84130000
_cell_angle_gamma   85.69160000
_symmetry_Int_Tables_number   1
_chemical_formula_structural   KPH12PtC2N2(ClO2)2
_chemical_formula_sum   'K2 P2 H24 Pt2 C4 N4 Cl4 O8'
_cell_volume   556.63923520
_cell_formula_units_Z   2
loop_
 _symmetry_equiv_pos_site_id
 _symmetry_equiv_pos_as_xyz
  1  'x, y, z'
loop_
 _atom_site_type_symbol
 _atom_site_label
 _atom_site_symmetry_multiplicity
 _atom_site_fract_x
 _atom_site_fract_y
 _atom_site_fract_z
 _atom_site_occupancy
  K  K0  1  0.57236000  0.78371000  0.43235000  1.0
  K  K1  1  0.42765000  0.21628000  0.56764000  1.0
  P  P2  1  0.80705000  0.21301000  0.74536000  1.0
  P  P3  1  0.19293000  0.78699000  0.25464000  1.0
  H  H4  1  0.77453000  0.45359000  0.59622000  1.0
  H  H5  1  0.22547000  0.54641000  0.40378000  1.0
  H  H6  1  0.59253000  0.43426000  0.79242000  1.0
  H  H7  1  0.40747000  0.56574000  0.20758000  1.0
  H  H8  1  0.58028000  0.18831000  0.02346000  1.0
  H  H9  1  0.41972000  0.81169000  0.97654000  1.0
  H  H10  1  0.75078000  0.03550000  0.98622000  1.0
  H  H11  1  0.24922000  0.96450000  0.01378000  1.0
  H  H12  1  0.97375000  0.49917000  0.74054000  1.0
  H  H13  1  0.02625000  0.50083000  0.25946000  1.0
  H  H14  1  0.80416000  0.63110000  0.76859000  1.0
  H  H15  1  0.19584000  0.36890000  0.23141000  1.0
  H  H16  1  0.86759000  0.97356000  0.31932000  1.0
  H  H17  1  0.13241000  0.02644000  0.68068000  1.0
  H  H18  1  0.96473000  0.22985000  0.98269000  1.0
  H  H19  1  0.03527000  0.77015000  0.01731000  1.0
  H  H20  1  0.79887000  0.19803000  0.16400000  1.0
  H  H21  1  0.20113000  0.80196000  0.83600000  1.0
  H  H22  1  0.86001000  0.79959000  0.53388000  1.0
  H  H23  1  0.13998000  0.20041000  0.46612000  1.0
  H  H24  1  0.74295000  0.90709000  0.67329000  1.0
  H  H25  1  0.25704000  0.09291000  0.32671000  1.0
  H  H26  1  0.77925000  0.09782000  0.44653000  1.0
  H  H27  1  0.22076000  0.90218000  0.55348000  1.0
  Pt  Pt28  1  0.77872000  0.48370000  0.04740000  1.0
  Pt  Pt29  1  0.22128000  0.51629000  0.95260000  1.0
  C  C30  1  0.74063000  0.41786000  0.72831000  1.0
  C  C31  1  0.25938000  0.58214000  0.27169000  1.0
  C  C32  1  0.72712000  0.16167000  0.96727000  1.0
  C  C33  1  0.27289000  0.83834000  0.03273000  1.0
  N  N34  1  0.83454000  0.51521000  0.79798000  1.0
  N  N35  1  0.16546000  0.48479000  0.20202000  1.0
  N  N36  1  0.82595000  0.24671000  0.04374000  1.0
  N  N37  1  0.17405000  0.75328000  0.95626000  1.0
  Cl  Cl38  1  0.72975000  0.75146000  0.05240000  1.0
  Cl  Cl39  1  0.27026000  0.24853000  0.94760000  1.0
  Cl  Cl40  1  0.71905000  0.45268000  0.32980000  1.0
  Cl  Cl41  1  0.28095000  0.54732000  0.67020000  1.0
  O  O42  1  0.71104000  0.12003000  0.66657000  1.0
  O  O43  1  0.28897000  0.87998000  0.33343000  1.0
  O  O44  1  0.01512000  0.20006000  0.67891000  1.0
  O  O45  1  0.98489000  0.79995000  0.32109000  1.0
  O  O46  1  0.75908000  0.79845000  0.64374000  1.0
  O  O47  1  0.24092000  0.20154000  0.35626000  1.0
  O  O48  1  0.77389000  0.06043000  0.34562000  1.0
  O  O49  1  0.22611000  0.93958000  0.65439000  1.0
