# generated using pymatgen
data_SrCuH16C14N2O13
_symmetry_space_group_name_H-M   'P 1'
_cell_length_a   6.86902000
_cell_length_b   8.19605000
_cell_length_c   17.30330000
_cell_angle_alpha   93.31120000
_cell_angle_beta   98.28580000
_cell_angle_gamma   112.35700000
_symmetry_Int_Tables_number   1
_chemical_formula_structural   SrCuH16C14N2O13
_chemical_formula_sum   'Sr2 Cu2 H32 C28 N4 O26'
_cell_volume   884.75498799
_cell_formula_units_Z   2
loop_
 _symmetry_equiv_pos_site_id
 _symmetry_equiv_pos_as_xyz
  1  'x, y, z'
loop_
 _atom_site_type_symbol
 _atom_site_label
 _atom_site_symmetry_multiplicity
 _atom_site_fract_x
 _atom_site_fract_y
 _atom_site_fract_z
 _atom_site_occupancy
  Sr  Sr0  1  0.64146000  0.30764000  0.46247000  1.0
  Sr  Sr1  1  0.35854000  0.69235000  0.53752000  1.0
  Cu  Cu2  1  0.74521000  0.68304000  0.99054000  1.0
  Cu  Cu3  1  0.25479000  0.31696000  0.00946000  1.0
  H  H4  1  0.24088000  0.07741000  0.54376000  1.0
  H  H5  1  0.75912000  0.92260000  0.45624000  1.0
  H  H6  1  0.17756000  0.99491000  0.45693000  1.0
  H  H7  1  0.82244000  0.00509000  0.54307000  1.0
  H  H8  1  0.42609000  0.04776000  0.29022000  1.0
  H  H9  1  0.57392000  0.95224000  0.70978000  1.0
  H  H10  1  0.38996000  0.92219000  0.35836000  1.0
  H  H11  1  0.61003000  0.07780000  0.64164000  1.0
  H  H12  1  0.89415000  0.31421000  0.33478000  1.0
  H  H13  1  0.10584000  0.68578000  0.66522000  1.0
  H  H14  1  0.78467000  0.40478000  0.27740000  1.0
  H  H15  1  0.21532000  0.59522000  0.72260000  1.0
  H  H16  1  0.93150000  0.72467000  0.54404000  1.0
  H  H17  1  0.06850000  0.27533000  0.45596000  1.0
  H  H18  1  0.92739000  0.71455000  0.45219000  1.0
  H  H19  1  0.07261000  0.28545000  0.54780000  1.0
  H  H20  1  0.69700000  0.23791000  0.76175000  1.0
  H  H21  1  0.30299000  0.76209000  0.23825000  1.0
  H  H22  1  0.63517000  0.72351000  0.70527000  1.0
  H  H23  1  0.36483000  0.27649000  0.29473000  1.0
  H  H24  1  0.74144000  0.34290000  0.90251000  1.0
  H  H25  1  0.25857000  0.65709000  0.09749000  1.0
  H  H26  1  0.18229000  0.70753000  0.98360000  1.0
  H  H27  1  0.81771000  0.29247000  0.01641000  1.0
  H  H28  1  0.20194000  0.89465000  0.02955000  1.0
  H  H29  1  0.79806000  0.10535000  0.97045000  1.0
  H  H30  1  0.71785000  0.01629000  0.07354000  1.0
  H  H31  1  0.28214000  0.98371000  0.92646000  1.0
  H  H32  1  0.81960000  0.15223000  0.21234000  1.0
  H  H33  1  0.18040000  0.84777000  0.78766000  1.0
  H  H34  1  0.90126000  0.67821000  0.27722000  1.0
  H  H35  1  0.09875000  0.32180000  0.72278000  1.0
  C  C36  1  0.63128000  0.41464000  0.63490000  1.0
  C  C37  1  0.36873000  0.58536000  0.36510000  1.0
  C  C38  1  0.65705000  0.47124000  0.72146000  1.0
  C  C39  1  0.34295000  0.52876000  0.27854000  1.0
  C  C40  1  0.68881000  0.36475000  0.77789000  1.0
  C  C41  1  0.31119000  0.63525000  0.22211000  1.0
  C  C42  1  0.65388000  0.63472000  0.74718000  1.0
  C  C43  1  0.34612000  0.36527000  0.25282000  1.0
  C  C44  1  0.71235000  0.42197000  0.85723000  1.0
  C  C45  1  0.28765000  0.57803000  0.14277000  1.0
  C  C46  1  0.67838000  0.68399000  0.82720000  1.0
  C  C47  1  0.32163000  0.31601000  0.17280000  1.0
  C  C48  1  0.67352000  0.85549000  0.86022000  1.0
  C  C49  1  0.32648000  0.14451000  0.13978000  1.0
  C  C50  1  0.76119000  0.94597000  0.11984000  1.0
  C  C51  1  0.23880000  0.05403000  0.88016000  1.0
  C  C52  1  0.80623000  0.69032000  0.15367000  1.0
  C  C53  1  0.19377000  0.30968000  0.84633000  1.0
  C  C54  1  0.78168000  0.50719000  0.12289000  1.0
  C  C55  1  0.21833000  0.49281000  0.87711000  1.0
  C  C56  1  0.81832000  0.02095000  0.19823000  1.0
  C  C57  1  0.18168000  0.97905000  0.80176000  1.0
  C  C58  1  0.86284000  0.75589000  0.23301000  1.0
  C  C59  1  0.13715000  0.24412000  0.76699000  1.0
  C  C60  1  0.87285000  0.92592000  0.25578000  1.0
  C  C61  1  0.12715000  0.07409000  0.74422000  1.0
  C  C62  1  0.94006000  0.00157000  0.34130000  1.0
  C  C63  1  0.05994000  0.99843000  0.65870000  1.0
  N  N64  1  0.70600000  0.57815000  0.88120000  1.0
  N  N65  1  0.29400000  0.42185000  0.11881000  1.0
  N  N66  1  0.76069000  0.78629000  0.09804000  1.0
  N  N67  1  0.23932000  0.21371000  0.90196000  1.0
  O  O68  1  0.44240000  0.50452000  0.41419000  1.0
  O  O69  1  0.55761000  0.49547000  0.58581000  1.0
  O  O70  1  0.30394000  0.04850000  0.49965000  1.0
  O  O71  1  0.69606000  0.95150000  0.50035000  1.0
  O  O72  1  0.44992000  0.04802000  0.34784000  1.0
  O  O73  1  0.55007000  0.95197000  0.65216000  1.0
  O  O74  1  0.81334000  0.39209000  0.33364000  1.0
  O  O75  1  0.18666000  0.60791000  0.66636000  1.0
  O  O76  1  0.94520000  0.65307000  0.49818000  1.0
  O  O77  1  0.05481000  0.34693000  0.50182000  1.0
  O  O78  1  0.68832000  0.28991000  0.61510000  1.0
  O  O79  1  0.31169000  0.71009000  0.38491000  1.0
  O  O80  1  0.69979000  0.87979000  0.93677000  1.0
  O  O81  1  0.30022000  0.12021000  0.06323000  1.0
  O  O82  1  0.64786000  0.96428000  0.81677000  1.0
  O  O83  1  0.35213000  0.03571000  0.18322000  1.0
  O  O84  1  0.26175000  0.52964000  0.95333000  1.0
  O  O85  1  0.73825000  0.47036000  0.04667000  1.0
  O  O86  1  0.10692000  0.76942000  0.01004000  1.0
  O  O87  1  0.89308000  0.23058000  0.98996000  1.0
  O  O88  1  0.79696000  0.39974000  0.16916000  1.0
  O  O89  1  0.20305000  0.60027000  0.83085000  1.0
  O  O90  1  0.00993000  0.16836000  0.35853000  1.0
  O  O91  1  0.99007000  0.83164000  0.64147000  1.0
  O  O92  1  0.92451000  0.89077000  0.39127000  1.0
  O  O93  1  0.07549000  0.10924000  0.60873000  1.0
