# generated using pymatgen
data_Zn3H40C50(N2O9)2
_symmetry_space_group_name_H-M   'P 1'
_cell_length_a   11.72550000
_cell_length_b   11.88740000
_cell_length_c   12.04100000
_cell_angle_alpha   102.81900000
_cell_angle_beta   108.48000000
_cell_angle_gamma   115.00800000
_symmetry_Int_Tables_number   1
_chemical_formula_structural   Zn3H40C50(N2O9)2
_chemical_formula_sum   'Zn3 H40 C50 N4 O18'
_cell_volume   1313.11059847
_cell_formula_units_Z   1
loop_
 _symmetry_equiv_pos_site_id
 _symmetry_equiv_pos_as_xyz
  1  'x, y, z'
loop_
 _atom_site_type_symbol
 _atom_site_label
 _atom_site_symmetry_multiplicity
 _atom_site_fract_x
 _atom_site_fract_y
 _atom_site_fract_z
 _atom_site_occupancy
  Zn  Zn0  1  0.50000000  0.00000000  0.00000000  1.0
  Zn  Zn1  1  0.21965000  0.03486000  0.88127000  1.0
  Zn  Zn2  1  0.78035000  0.96514000  0.11872000  1.0
  H  H3  1  0.45408000  0.86708000  0.73674000  1.0
  H  H4  1  0.54593000  0.13293000  0.26325000  1.0
  H  H5  1  0.28898000  0.70838000  0.66813000  1.0
  H  H6  1  0.71103000  0.29162000  0.33187000  1.0
  H  H7  1  0.46525000  0.61790000  0.71002000  1.0
  H  H8  1  0.53475000  0.38210000  0.28998000  1.0
  H  H9  1  0.47315000  0.54146000  0.82030000  1.0
  H  H10  1  0.52684000  0.45854000  0.17970000  1.0
  H  H11  1  0.64464000  0.23872000  0.66377000  1.0
  H  H12  1  0.35536000  0.76128000  0.33622000  1.0
  H  H13  1  0.25627000  0.39478000  0.05149000  1.0
  H  H14  1  0.74373000  0.60523000  0.94851000  1.0
  H  H15  1  0.49546000  0.05425000  0.70980000  1.0
  H  H16  1  0.50453000  0.94576000  0.29019000  1.0
  H  H17  1  0.78888000  0.17540000  0.81125000  1.0
  H  H18  1  0.21112000  0.82460000  0.18876000  1.0
  H  H19  1  0.81809000  0.31295000  0.93738000  1.0
  H  H20  1  0.18190000  0.68705000  0.06262000  1.0
  H  H21  1  0.93060000  0.87991000  0.87361000  1.0
  H  H22  1  0.06940000  0.12009000  0.12639000  1.0
  H  H23  1  0.40143000  0.51746000  0.95808000  1.0
  H  H24  1  0.59858000  0.48255000  0.04193000  1.0
  H  H25  1  0.88252000  0.33308000  0.75678000  1.0
  H  H26  1  0.11747000  0.66692000  0.24322000  1.0
  H  H27  1  0.85385000  0.07463000  0.55586000  1.0
  H  H28  1  0.14615000  0.92536000  0.44415000  1.0
  H  H29  1  0.46748000  0.23814000  0.83849000  1.0
  H  H30  1  0.53251000  0.76186000  0.16151000  1.0
  H  H31  1  0.03026000  0.18301000  0.53464000  1.0
  H  H32  1  0.96973000  0.81699000  0.46535000  1.0
  H  H33  1  0.02509000  0.44604000  0.65866000  1.0
  H  H34  1  0.97491000  0.55396000  0.34134000  1.0
  H  H35  1  0.68691000  0.83329000  0.75033000  1.0
  H  H36  1  0.31309000  0.16671000  0.24968000  1.0
  H  H37  1  0.47971000  0.34439000  0.68062000  1.0
  H  H38  1  0.52029000  0.65560000  0.31938000  1.0
  H  H39  1  0.25445000  0.31495000  0.52631000  1.0
  H  H40  1  0.74554000  0.68504000  0.47369000  1.0
  H  H41  1  0.64842000  0.92774000  0.58281000  1.0
  H  H42  1  0.35158000  0.07226000  0.41720000  1.0
  C  C43  1  0.34104000  0.80880000  0.66600000  1.0
  C  C44  1  0.65897000  0.19120000  0.33400000  1.0
  C  C45  1  0.43838000  0.60648000  0.78812000  1.0
  C  C46  1  0.56162000  0.39352000  0.21189000  1.0
  C  C47  1  0.00171000  0.05518000  0.70125000  1.0
  C  C48  1  0.99828000  0.94482000  0.29875000  1.0
  C  C49  1  0.06051000  0.35634000  0.91221000  1.0
  C  C50  1  0.93949000  0.64366000  0.08779000  1.0
  C  C51  1  0.58163000  0.13329000  0.59265000  1.0
  C  C52  1  0.41836000  0.86670000  0.40734000  1.0
  C  C53  1  0.41152000  0.89406000  0.52347000  1.0
  C  C54  1  0.58847000  0.10593000  0.47652000  1.0
  C  C55  1  0.20708000  0.40990000  0.96733000  1.0
  C  C56  1  0.79292000  0.59011000  0.03268000  1.0
  C  C57  1  0.22189000  0.48915000  0.80080000  1.0
  C  C58  1  0.77811000  0.51085000  0.19920000  1.0
  C  C59  1  0.26919000  0.88120000  0.70292000  1.0
  C  C60  1  0.73082000  0.11880000  0.29708000  1.0
  C  C61  1  0.52368000  0.74766000  0.89877000  1.0
  C  C62  1  0.47633000  0.25234000  0.10124000  1.0
  C  C63  1  0.49435000  0.02901000  0.61678000  1.0
  C  C64  1  0.50565000  0.97099000  0.38321000  1.0
  C  C65  1  0.77374000  0.13115000  0.96949000  1.0
  C  C66  1  0.22627000  0.86885000  0.03051000  1.0
  C  C67  1  0.84118000  0.23190000  0.91648000  1.0
  C  C68  1  0.15883000  0.76811000  0.08353000  1.0
  C  C69  1  0.13065000  0.13963000  0.69111000  1.0
  C  C70  1  0.86934000  0.86037000  0.30889000  1.0
  C  C71  1  0.90829000  0.92153000  0.80306000  1.0
  C  C72  1  0.09170000  0.07847000  0.19694000  1.0
  C  C73  1  0.28777000  0.47700000  0.91296000  1.0
  C  C74  1  0.71223000  0.52300000  0.08704000  1.0
  C  C75  1  0.99581000  0.37267000  0.80218000  1.0
  C  C76  1  0.00419000  0.62733000  0.19781000  1.0
  C  C77  1  0.86850000  0.03137000  0.62632000  1.0
  C  C78  1  0.13150000  0.96863000  0.37369000  1.0
  C  C79  1  0.37340000  0.22897000  0.76971000  1.0
  C  C80  1  0.62660000  0.77102000  0.23029000  1.0
  C  C81  1  0.12826000  0.19693000  0.60125000  1.0
  C  C82  1  0.87173000  0.80306000  0.39874000  1.0
  C  C83  1  0.07614000  0.43739000  0.74658000  1.0
  C  C84  1  0.92386000  0.56261000  0.25342000  1.0
  C  C85  1  0.77301000  0.89467000  0.73231000  1.0
  C  C86  1  0.22698000  0.10533000  0.26769000  1.0
  C  C87  1  0.37933000  0.28795000  0.68212000  1.0
  C  C88  1  0.62066000  0.71204000  0.31788000  1.0
  C  C89  1  0.25452000  0.27106000  0.59669000  1.0
  C  C90  1  0.74548000  0.72893000  0.40330000  1.0
  C  C91  1  0.75323000  0.94916000  0.64177000  1.0
  C  C92  1  0.24677000  0.05084000  0.35823000  1.0
  N  N93  1  0.25194000  0.15626000  0.77299000  1.0
  N  N94  1  0.74805000  0.84374000  0.22701000  1.0
  N  N95  1  0.01883000  0.99882000  0.78658000  1.0
  N  N96  1  0.98117000  0.00118000  0.21343000  1.0
  O  O97  1  0.28903000  0.54388000  0.73339000  1.0
  O  O98  1  0.71097000  0.45612000  0.26661000  1.0
  O  O99  1  0.64000000  0.07706000  0.92512000  1.0
  O  O100  1  0.36000000  0.92293000  0.07488000  1.0
  O  O101  1  0.32511000  0.78373000  0.53874000  1.0
  O  O102  1  0.67489000  0.21627000  0.46126000  1.0
  O  O103  1  0.45835000  0.79828000  0.93179000  1.0
  O  O104  1  0.54166000  0.20172000  0.06822000  1.0
  O  O105  1  0.99031000  0.28806000  0.97055000  1.0
  O  O106  1  0.00969000  0.71196000  0.02946000  1.0
  O  O107  1  0.85292000  0.10837000  0.04779000  1.0
  O  O108  1  0.14708000  0.89162000  0.95220000  1.0
  O  O109  1  0.32431000  0.95061000  0.82669000  1.0
  O  O110  1  0.67570000  0.04939000  0.17331000  1.0
  O  O111  1  0.65800000  0.80106000  0.94695000  1.0
  O  O112  1  0.34201000  0.19895000  0.05305000  1.0
  O  O113  1  0.16487000  0.87025000  0.62063000  1.0
  O  O114  1  0.83513000  0.12975000  0.37937000  1.0
