# generated using pymatgen
data_Zn4H36C36O13
_symmetry_space_group_name_H-M   'P 1'
_cell_length_a   18.32850000
_cell_length_b   18.32982607
_cell_length_c   18.33015022
_cell_angle_alpha   119.99763967
_cell_angle_beta   119.99106692
_cell_angle_gamma   90.00435133
_symmetry_Int_Tables_number   1
_chemical_formula_structural   Zn4H36C36O13
_chemical_formula_sum   'Zn8 H72 C72 O26'
_cell_volume   4355.05783406
_cell_formula_units_Z   2
loop_
 _symmetry_equiv_pos_site_id
 _symmetry_equiv_pos_as_xyz
  1  'x, y, z'
loop_
 _atom_site_type_symbol
 _atom_site_label
 _atom_site_symmetry_multiplicity
 _atom_site_fract_x
 _atom_site_fract_y
 _atom_site_fract_z
 _atom_site_occupancy
  Zn  Zn0  1  0.29346000  0.70652000  0.41209000  1.0
  Zn  Zn1  1  0.29318000  0.88082000  0.58709000  1.0
  Zn  Zn2  1  0.11869000  0.70568000  0.41265000  1.0
  Zn  Zn3  1  0.29454000  0.70647000  0.58770000  1.0
  Zn  Zn4  1  0.70560000  0.11848000  0.41206000  1.0
  Zn  Zn5  1  0.70609000  0.29414000  0.58713000  1.0
  Zn  Zn6  1  0.88109000  0.29310000  0.58754000  1.0
  Zn  Zn7  1  0.70708000  0.29398000  0.41282000  1.0
  H  H8  1  0.28172000  0.37440000  0.28105000  1.0
  H  H9  1  0.27236000  0.46916000  0.36932000  1.0
  H  H10  1  0.28258000  0.37816000  0.37986000  1.0
  H  H11  1  0.00044000  0.90848000  0.62806000  1.0
  H  H12  1  0.10148000  0.00011000  0.71934000  1.0
  H  H13  1  0.09416000  0.89639000  0.62388000  1.0
  H  H14  1  0.10865000  0.99783000  0.38821000  1.0
  H  H15  1  0.00197000  0.91546000  0.28218000  1.0
  H  H16  1  0.08638000  0.88931000  0.35931000  1.0
  H  H17  1  0.53889000  0.72445000  0.59523000  1.0
  H  H18  1  0.64746000  0.72228000  0.66590000  1.0
  H  H19  1  0.57520000  0.72251000  0.70362000  1.0
  H  H20  1  0.01982000  0.72218000  0.07399000  1.0
  H  H21  1  0.12912000  0.72301000  0.15033000  1.0
  H  H22  1  0.05325000  0.72388000  0.18351000  1.0
  H  H23  1  0.27249000  0.89865000  0.80227000  1.0
  H  H24  1  0.28018000  0.99971000  0.90115000  1.0
  H  H25  1  0.28123000  0.90563000  0.90630000  1.0
  H  H26  1  0.63354000  0.99851000  0.91405000  1.0
  H  H27  1  0.53021000  0.91434000  0.80315000  1.0
  H  H28  1  0.60962000  0.89151000  0.88892000  1.0
  H  H29  1  0.99929000  0.38041000  0.09876000  1.0
  H  H30  1  0.10291000  0.46878000  0.19636000  1.0
  H  H31  1  0.09065000  0.37197000  0.08899000  1.0
  H  H32  1  0.52984000  0.90375000  0.63124000  1.0
  H  H33  1  0.62592000  0.99975000  0.71916000  1.0
  H  H34  1  0.62011000  0.90063000  0.61934000  1.0
  H  H35  1  0.01338000  0.72155000  0.59590000  1.0
  H  H36  1  0.12585000  0.72518000  0.66178000  1.0
  H  H37  1  0.06169000  0.72165000  0.70724000  1.0
  H  H38  1  0.11009000  0.46884000  0.38288000  1.0
  H  H39  1  0.00061000  0.39045000  0.28195000  1.0
  H  H40  1  0.08228000  0.36546000  0.36351000  1.0
  H  H41  1  0.27900000  0.88681000  0.28346000  1.0
  H  H42  1  0.28002000  0.99630000  0.35924000  1.0
  H  H43  1  0.27338000  0.91967000  0.38882000  1.0
  H  H44  1  0.72357000  0.13109000  0.16441000  1.0
  H  H45  1  0.71976000  0.03038000  0.06801000  1.0
  H  H46  1  0.72250000  0.03692000  0.16909000  1.0
  H  H47  1  0.97077000  0.65042000  0.92809000  1.0
  H  H48  1  0.86833000  0.56041000  0.83665000  1.0
  H  H49  1  0.95929000  0.54901000  0.82624000  1.0
  H  H50  1  0.99935000  0.28141000  0.89135000  1.0
  H  H51  1  0.88956000  0.27267000  0.80498000  1.0
  H  H52  1  0.91897000  0.28291000  0.91836000  1.0
  H  H53  1  0.34990000  0.04994000  0.06870000  1.0
  H  H54  1  0.45627000  0.12885000  0.18075000  1.0
  H  H55  1  0.42599000  0.01950000  0.14771000  1.0
  H  H56  1  0.87141000  0.05249000  0.59611000  1.0
  H  H57  1  0.98075000  0.12893000  0.70206000  1.0
  H  H58  1  0.95066000  0.01990000  0.66985000  1.0
  H  H59  1  0.72246000  0.65064000  0.68513000  1.0
  H  H60  1  0.72411000  0.55218000  0.59207000  1.0
  H  H61  1  0.72204000  0.55653000  0.68970000  1.0
  H  H62  1  0.46755000  0.27285000  0.35561000  1.0
  H  H63  1  0.36318000  0.28253000  0.28425000  1.0
  H  H64  1  0.39254000  0.28150000  0.39144000  1.0
  H  H65  1  0.97276000  0.13187000  0.41014000  1.0
  H  H66  1  0.86945000  0.04324000  0.31907000  1.0
  H  H67  1  0.96037000  0.02881000  0.30890000  1.0
  H  H68  1  0.44775000  0.13113000  0.40694000  1.0
  H  H69  1  0.34863000  0.03729000  0.31690000  1.0
  H  H70  1  0.44063000  0.03005000  0.30821000  1.0
  H  H71  1  0.87004000  0.57215000  0.59134000  1.0
  H  H72  1  0.97836000  0.64879000  0.70017000  1.0
  H  H73  1  0.94549000  0.54143000  0.67033000  1.0
  H  H74  1  0.99509000  0.28148000  0.35509000  1.0
  H  H75  1  0.88489000  0.28094000  0.28426000  1.0
  H  H76  1  0.92223000  0.27326000  0.38925000  1.0
  H  H77  1  0.72523000  0.12614000  0.66618000  1.0
  H  H78  1  0.72091000  0.01407000  0.59497000  1.0
  H  H79  1  0.71867000  0.05587000  0.70408000  1.0
  C  C80  1  0.38974000  0.61116000  0.49988000  1.0
  C  C81  1  0.44760000  0.55328000  0.49952000  1.0
  C  C82  1  0.11028000  0.88870000  0.49940000  1.0
  C  C83  1  0.05219000  0.94631000  0.49919000  1.0
  C  C84  1  0.11044000  0.61106000  0.22131000  1.0
  C  C85  1  0.05240000  0.55324000  0.10558000  1.0
  C  C86  1  0.38925000  0.88935000  0.77849000  1.0
  C  C87  1  0.44716000  0.94751000  0.89416000  1.0
  C  C88  1  0.38916000  0.88948000  0.50013000  1.0
  C  C89  1  0.44698000  0.94781000  0.50056000  1.0
  C  C90  1  0.11144000  0.61094000  0.50097000  1.0
  C  C91  1  0.05412000  0.55309000  0.50156000  1.0
  C  C92  1  0.61066000  0.11085000  0.22122000  1.0
  C  C93  1  0.55278000  0.05326000  0.10543000  1.0
  C  C94  1  0.88913000  0.38978000  0.77859000  1.0
  C  C95  1  0.94684000  0.44765000  0.89435000  1.0
  C  C96  1  0.88879000  0.10999000  0.49926000  1.0
  C  C97  1  0.94644000  0.05184000  0.49906000  1.0
  C  C98  1  0.61121000  0.38993000  0.50002000  1.0
  C  C99  1  0.55323000  0.44771000  0.49957000  1.0
  C  C100  1  0.61047000  0.11108000  0.50024000  1.0
  C  C101  1  0.55263000  0.05360000  0.50073000  1.0
  C  C102  1  0.89014000  0.38971000  0.50114000  1.0
  C  C103  1  0.94857000  0.44756000  0.50165000  1.0
  C  C104  1  0.40605000  0.46045000  0.43261000  1.0
  C  C105  1  0.30572000  0.41884000  0.36243000  1.0
  C  C106  1  0.02657000  0.97209000  0.56669000  1.0
  C  C107  1  0.05724000  0.94275000  0.63791000  1.0
  C  C108  1  0.02646000  0.97195000  0.43164000  1.0
  C  C109  1  0.05736000  0.94214000  0.36189000  1.0
  C  C110  1  0.54102000  0.59535000  0.56713000  1.0
  C  C111  1  0.57799000  0.69617000  0.63663000  1.0
  C  C112  1  0.02644000  0.59529000  0.05420000  1.0
  C  C113  1  0.05845000  0.69613000  0.11814000  1.0
  C  C114  1  0.40544000  0.97307000  0.94554000  1.0
  C  C115  1  0.30488000  0.94265000  0.88573000  1.0
  C  C116  1  0.54035000  0.97345000  0.94554000  1.0
  C  C117  1  0.58037000  0.94298000  0.88490000  1.0
  C  C118  1  0.02701000  0.46042000  0.05427000  1.0
  C  C119  1  0.05668000  0.41870000  0.11286000  1.0
  C  C120  1  0.54003000  0.97337000  0.56782000  1.0
  C  C121  1  0.58080000  0.94275000  0.63771000  1.0
  C  C122  1  0.02849000  0.59512000  0.56925000  1.0
  C  C123  1  0.05879000  0.69586000  0.63718000  1.0
  C  C124  1  0.02830000  0.46015000  0.43408000  1.0
  C  C125  1  0.05691000  0.41944000  0.36226000  1.0
  C  C126  1  0.40513000  0.97378000  0.43330000  1.0
  C  C127  1  0.30445000  0.94269000  0.36278000  1.0
  C  C128  1  0.59452000  0.02727000  0.05402000  1.0
  C  C129  1  0.69523000  0.05774000  0.11651000  1.0
  C  C130  1  0.97286000  0.54109000  0.94581000  1.0
  C  C131  1  0.94152000  0.57774000  0.88163000  1.0
  C  C132  1  0.97228000  0.40611000  0.94562000  1.0
  C  C133  1  0.94330000  0.30580000  0.88686000  1.0
  C  C134  1  0.45974000  0.02777000  0.05404000  1.0
  C  C135  1  0.42062000  0.05802000  0.11556000  1.0
  C  C136  1  0.97213000  0.02620000  0.56646000  1.0
  C  C137  1  0.94226000  0.05814000  0.63724000  1.0
  C  C138  1  0.59522000  0.54112000  0.56752000  1.0
  C  C139  1  0.69603000  0.57764000  0.63734000  1.0
  C  C140  1  0.46041000  0.40613000  0.43235000  1.0
  C  C141  1  0.41914000  0.30579000  0.36243000  1.0
  C  C142  1  0.97242000  0.02642000  0.43190000  1.0
  C  C143  1  0.94238000  0.05887000  0.36366000  1.0
  C  C144  1  0.45944000  0.02767000  0.43300000  1.0
  C  C145  1  0.42162000  0.05792000  0.36253000  1.0
  C  C146  1  0.97409000  0.54087000  0.56911000  1.0
  C  C147  1  0.94075000  0.57815000  0.63651000  1.0
  C  C148  1  0.97408000  0.40586000  0.43422000  1.0
  C  C149  1  0.94263000  0.30543000  0.36241000  1.0
  C  C150  1  0.59427000  0.02801000  0.56813000  1.0
  C  C151  1  0.69485000  0.05759000  0.63713000  1.0
  O  O152  1  0.24988000  0.74963000  0.49970000  1.0
  O  O153  1  0.74988000  0.24966000  0.49971000  1.0
  O  O154  1  0.36649000  0.63249000  0.43695000  1.0
  O  O155  1  0.19438000  0.92902000  0.56112000  1.0
  O  O156  1  0.07042000  0.80446000  0.43776000  1.0
  O  O157  1  0.36891000  0.63387000  0.56312000  1.0
  O  O158  1  0.19454000  0.63418000  0.26510000  1.0
  O  O159  1  0.36812000  0.80524000  0.73473000  1.0
  O  O160  1  0.36620000  0.92918000  0.73410000  1.0
  O  O161  1  0.07053000  0.63190000  0.26562000  1.0
  O  O162  1  0.36685000  0.80540000  0.43731000  1.0
  O  O163  1  0.07073000  0.63320000  0.43921000  1.0
  O  O164  1  0.19575000  0.63265000  0.56218000  1.0
  O  O165  1  0.36746000  0.92916000  0.56269000  1.0
  O  O166  1  0.63143000  0.07045000  0.26493000  1.0
  O  O167  1  0.80491000  0.36860000  0.73431000  1.0
  O  O168  1  0.92935000  0.36683000  0.73467000  1.0
  O  O169  1  0.63394000  0.19507000  0.26563000  1.0
  O  O170  1  0.80454000  0.07019000  0.43670000  1.0
  O  O171  1  0.63390000  0.36803000  0.43843000  1.0
  O  O172  1  0.63262000  0.36776000  0.56192000  1.0
  O  O173  1  0.92919000  0.19409000  0.56198000  1.0
  O  O174  1  0.63282000  0.07055000  0.43849000  1.0
  O  O175  1  0.92962000  0.36722000  0.56297000  1.0
  O  O176  1  0.80610000  0.36807000  0.43883000  1.0
  O  O177  1  0.63213000  0.19534000  0.56158000  1.0
