# generated using pymatgen
data_CuH4C3NCl
_symmetry_space_group_name_H-M   'P 1'
_cell_length_a   3.68551000
_cell_length_b   8.19206000
_cell_length_c   28.45930000
_cell_angle_alpha   89.99940000
_cell_angle_beta   92.04890000
_cell_angle_gamma   89.99860000
_symmetry_Int_Tables_number   1
_chemical_formula_structural   CuH4C3NCl
_chemical_formula_sum   'Cu8 H32 C24 N8 Cl8'
_cell_volume   858.69154950
_cell_formula_units_Z   8
loop_
 _symmetry_equiv_pos_site_id
 _symmetry_equiv_pos_as_xyz
  1  'x, y, z'
loop_
 _atom_site_type_symbol
 _atom_site_label
 _atom_site_symmetry_multiplicity
 _atom_site_fract_x
 _atom_site_fract_y
 _atom_site_fract_z
 _atom_site_occupancy
  Cu  Cu0  1  0.67498000  0.59737000  0.86790000  1.0
  Cu  Cu1  1  0.67496000  0.90264000  0.36790000  1.0
  Cu  Cu2  1  0.32499000  0.40263000  0.13210000  1.0
  Cu  Cu3  1  0.32507000  0.09737000  0.63210000  1.0
  Cu  Cu4  1  0.99215000  0.82160000  0.92805000  1.0
  Cu  Cu5  1  0.99216000  0.67839000  0.42804000  1.0
  Cu  Cu6  1  0.00783000  0.17840000  0.07195000  1.0
  Cu  Cu7  1  0.00787000  0.32162000  0.57195000  1.0
  H  H8  1  0.69377000  0.98551000  0.84436000  1.0
  H  H9  1  0.69377000  0.51447000  0.34435000  1.0
  H  H10  1  0.30622000  0.01448000  0.15564000  1.0
  H  H11  1  0.30624000  0.48551000  0.65565000  1.0
  H  H12  1  0.12434000  0.14386000  0.97375000  1.0
  H  H13  1  0.12435000  0.35615000  0.47375000  1.0
  H  H14  1  0.87563000  0.85614000  0.02625000  1.0
  H  H15  1  0.87570000  0.64387000  0.52626000  1.0
  H  H16  1  0.96689000  0.43083000  0.95252000  1.0
  H  H17  1  0.96684000  0.06919000  0.45252000  1.0
  H  H18  1  0.03310000  0.56918000  0.04748000  1.0
  H  H19  1  0.03318000  0.93083000  0.54748000  1.0
  H  H20  1  0.70913000  0.37102000  0.79029000  1.0
  H  H21  1  0.70912000  0.12894000  0.29028000  1.0
  H  H22  1  0.29085000  0.62895000  0.20971000  1.0
  H  H23  1  0.29090000  0.87103000  0.70971000  1.0
  H  H24  1  0.28100000  0.37160000  0.81402000  1.0
  H  H25  1  0.28089000  0.12837000  0.31402000  1.0
  H  H26  1  0.71906000  0.62839000  0.18598000  1.0
  H  H27  1  0.71903000  0.87160000  0.68598000  1.0
  H  H28  1  0.26500000  0.19446000  0.74382000  1.0
  H  H29  1  0.26493000  0.30555000  0.24382000  1.0
  H  H30  1  0.73499000  0.80554000  0.25618000  1.0
  H  H31  1  0.73505000  0.69446000  0.75619000  1.0
  H  H32  1  0.22775000  0.06267000  0.79318000  1.0
  H  H33  1  0.22773000  0.43729000  0.29318000  1.0
  H  H34  1  0.77223000  0.93731000  0.20682000  1.0
  H  H35  1  0.77229000  0.56267000  0.70682000  1.0
  H  H36  1  0.64553000  0.08134000  0.76459000  1.0
  H  H37  1  0.64538000  0.41862000  0.26459000  1.0
  H  H38  1  0.35451000  0.91864000  0.23540000  1.0
  H  H39  1  0.35452000  0.58135000  0.73541000  1.0
  C  C40  1  0.67791000  0.24659000  0.85515000  1.0
  C  C41  1  0.67792000  0.25343000  0.35515000  1.0
  C  C42  1  0.32208000  0.75342000  0.14484000  1.0
  C  C43  1  0.32214000  0.74660000  0.64486000  1.0
  C  C44  1  0.75751000  0.08652000  0.86801000  1.0
  C  C45  1  0.75750000  0.41348000  0.36800000  1.0
  C  C46  1  0.24248000  0.91348000  0.13199000  1.0
  C  C47  1  0.24251000  0.58652000  0.63199000  1.0
  C  C48  1  0.99168000  0.17171000  0.93991000  1.0
  C  C49  1  0.99164000  0.32829000  0.43990000  1.0
  C  C50  1  0.00833000  0.82830000  0.06009000  1.0
  C  C51  1  0.00838000  0.67171000  0.56010000  1.0
  C  C52  1  0.90753000  0.33149000  0.92803000  1.0
  C  C53  1  0.90750000  0.16850000  0.42803000  1.0
  C  C54  1  0.09244000  0.66850000  0.07197000  1.0
  C  C55  1  0.09253000  0.83150000  0.57197000  1.0
  C  C56  1  0.51455000  0.29126000  0.80789000  1.0
  C  C57  1  0.51452000  0.20878000  0.30789000  1.0
  C  C58  1  0.48545000  0.70876000  0.19211000  1.0
  C  C59  1  0.48549000  0.79126000  0.69212000  1.0
  C  C60  1  0.40688000  0.14919000  0.77577000  1.0
  C  C61  1  0.40677000  0.35085000  0.27576000  1.0
  C  C62  1  0.59314000  0.85083000  0.22423000  1.0
  C  C63  1  0.59317000  0.64920000  0.72424000  1.0
  N  N64  1  0.75147000  0.37118000  0.88587000  1.0
  N  N65  1  0.75144000  0.12882000  0.38586000  1.0
  N  N66  1  0.24853000  0.62882000  0.11413000  1.0
  N  N67  1  0.24858000  0.87118000  0.61414000  1.0
  N  N68  1  0.91637000  0.04679000  0.91010000  1.0
  N  N69  1  0.91632000  0.45320000  0.41008000  1.0
  N  N70  1  0.08364000  0.95321000  0.08990000  1.0
  N  N71  1  0.08366000  0.54680000  0.58991000  1.0
  Cl  Cl72  1  0.16700000  0.72710000  0.83760000  1.0
  Cl  Cl73  1  0.16699000  0.77290000  0.33760000  1.0
  Cl  Cl74  1  0.83298000  0.27290000  0.16240000  1.0
  Cl  Cl75  1  0.83303000  0.22711000  0.66240000  1.0
  Cl  Cl76  1  0.49562000  0.69298000  0.95787000  1.0
  Cl  Cl77  1  0.49562000  0.80700000  0.45787000  1.0
  Cl  Cl78  1  0.50436000  0.30702000  0.04213000  1.0
  Cl  Cl79  1  0.50442000  0.19300000  0.54213000  1.0
