# generated using pymatgen
data_AlH24(C5O)6
_symmetry_space_group_name_H-M   'P 1'
_cell_length_a   3.94474000
_cell_length_b   29.06240000
_cell_length_c   29.06043564
_cell_angle_alpha   119.99070665
_cell_angle_beta   89.99919966
_cell_angle_gamma   89.99810000
_symmetry_Int_Tables_number   1
_chemical_formula_structural   AlH24(C5O)6
_chemical_formula_sum   'Al2 H48 C60 O12'
_cell_volume   2885.51458443
_cell_formula_units_Z   2
loop_
 _symmetry_equiv_pos_site_id
 _symmetry_equiv_pos_as_xyz
  1  'x, y, z'
loop_
 _atom_site_type_symbol
 _atom_site_label
 _atom_site_symmetry_multiplicity
 _atom_site_fract_x
 _atom_site_fract_y
 _atom_site_fract_z
 _atom_site_occupancy
  Al  Al0  1  0.99961000  0.99999000  0.50000000  1.0
  Al  Al1  1  0.00094000  0.33334000  0.16665000  1.0
  H  H2  1  0.45454000  0.57999000  0.36373000  1.0
  H  H3  1  0.54571000  0.58002000  0.21624000  1.0
  H  H4  1  0.54437000  0.75330000  0.45041000  1.0
  H  H5  1  0.45532000  0.75331000  0.30292000  1.0
  H  H6  1  0.45460000  0.13627000  0.21626000  1.0
  H  H7  1  0.54580000  0.28376000  0.36377000  1.0
  H  H8  1  0.54448000  0.04960000  0.30291000  1.0
  H  H9  1  0.45533000  0.19708000  0.45040000  1.0
  H  H10  1  0.45461000  0.28374000  0.91999000  1.0
  H  H11  1  0.54560000  0.13623000  0.91998000  1.0
  H  H12  1  0.54446000  0.19707000  0.74668000  1.0
  H  H13  1  0.45519000  0.04958000  0.74668000  1.0
  H  H14  1  0.71186000  0.46202000  0.33070000  1.0
  H  H15  1  0.30782000  0.43728000  0.30360000  1.0
  H  H16  1  0.34500000  0.49943000  0.36362000  1.0
  H  H17  1  0.28921000  0.46205000  0.13134000  1.0
  H  H18  1  0.69332000  0.43731000  0.13362000  1.0
  H  H19  1  0.65584000  0.49948000  0.13575000  1.0
  H  H20  1  0.28767000  0.87133000  0.53538000  1.0
  H  H21  1  0.69173000  0.89604000  0.53301000  1.0
  H  H22  1  0.65437000  0.83388000  0.53092000  1.0
  H  H23  1  0.71203000  0.87132000  0.33599000  1.0
  H  H24  1  0.30786000  0.89604000  0.36303000  1.0
  H  H25  1  0.34534000  0.83388000  0.30299000  1.0
  H  H26  1  0.71191000  0.16929000  0.13131000  1.0
  H  H27  1  0.30790000  0.19640000  0.13368000  1.0
  H  H28  1  0.34507000  0.13637000  0.13582000  1.0
  H  H29  1  0.28926000  0.36867000  0.33071000  1.0
  H  H30  1  0.69334000  0.36639000  0.30368000  1.0
  H  H31  1  0.65594000  0.36424000  0.36371000  1.0
  H  H32  1  0.28766000  0.96463000  0.33596000  1.0
  H  H33  1  0.69171000  0.96698000  0.36303000  1.0
  H  H34  1  0.65436000  0.96909000  0.30297000  1.0
  H  H35  1  0.71210000  0.16402000  0.53535000  1.0
  H  H36  1  0.30788000  0.13698000  0.53302000  1.0
  H  H37  1  0.34535000  0.19701000  0.53090000  1.0
  H  H38  1  0.71197000  0.36869000  0.03796000  1.0
  H  H39  1  0.30798000  0.36633000  0.06270000  1.0
  H  H40  1  0.34512000  0.36419000  0.00053000  1.0
  H  H41  1  0.28917000  0.16931000  0.03795000  1.0
  H  H42  1  0.69329000  0.19632000  0.06270000  1.0
  H  H43  1  0.65583000  0.13629000  0.00053000  1.0
  H  H44  1  0.28779000  0.16404000  0.62867000  1.0
  H  H45  1  0.69188000  0.13695000  0.60395000  1.0
  H  H46  1  0.65448000  0.19701000  0.66611000  1.0
  H  H47  1  0.71200000  0.96463000  0.62867000  1.0
  H  H48  1  0.30782000  0.96698000  0.60396000  1.0
  H  H49  1  0.34529000  0.96908000  0.66611000  1.0
  C  C50  1  0.49973000  0.04122000  0.58245000  1.0
  C  C51  1  0.49962000  0.91754000  0.45878000  1.0
  C  C52  1  0.49962000  0.04122000  0.45878000  1.0
  C  C53  1  0.50068000  0.41579000  0.20789000  1.0
  C  C54  1  0.50078000  0.29210000  0.20788000  1.0
  C  C55  1  0.50083000  0.29211000  0.08420000  1.0
  C  C56  1  0.50093000  0.47509000  0.23753000  1.0
  C  C57  1  0.48082000  0.50259000  0.29353000  1.0
  C  C58  1  0.47629000  0.55792000  0.32051000  1.0
  C  C59  1  0.50033000  0.58632000  0.29314000  1.0
  C  C60  1  0.52425000  0.55793000  0.23737000  1.0
  C  C61  1  0.52067000  0.50259000  0.20902000  1.0
  C  C62  1  0.49969000  0.64244000  0.32121000  1.0
  C  C63  1  0.49941000  0.69091000  0.34547000  1.0
  C  C64  1  0.49954000  0.74701000  0.37352000  1.0
  C  C65  1  0.52321000  0.77540000  0.42929000  1.0
  C  C66  1  0.51918000  0.83073000  0.45764000  1.0
  C  C67  1  0.49966000  0.85824000  0.42913000  1.0
  C  C68  1  0.48021000  0.83073000  0.37312000  1.0
  C  C69  1  0.47606000  0.77540000  0.34614000  1.0
  C  C70  1  0.50102000  0.26246000  0.23754000  1.0
  C  C71  1  0.48093000  0.20647000  0.20905000  1.0
  C  C72  1  0.47648000  0.17949000  0.23741000  1.0
  C  C73  1  0.50045000  0.20686000  0.29318000  1.0
  C  C74  1  0.52431000  0.26263000  0.32055000  1.0
  C  C75  1  0.52075000  0.29098000  0.29355000  1.0
  C  C76  1  0.49985000  0.17879000  0.32123000  1.0
  C  C77  1  0.49959000  0.15454000  0.34545000  1.0
  C  C78  1  0.49971000  0.12648000  0.37350000  1.0
  C  C79  1  0.52325000  0.07072000  0.34613000  1.0
  C  C80  1  0.51919000  0.04236000  0.37311000  1.0
  C  C81  1  0.49974000  0.07087000  0.42912000  1.0
  C  C82  1  0.48029000  0.12688000  0.45762000  1.0
  C  C83  1  0.47612000  0.15387000  0.42927000  1.0
  C  C84  1  0.50100000  0.26245000  0.02491000  1.0
  C  C85  1  0.48090000  0.29096000  0.99741000  1.0
  C  C86  1  0.47646000  0.26260000  0.94207000  1.0
  C  C87  1  0.50039000  0.20683000  0.91367000  1.0
  C  C88  1  0.52434000  0.17946000  0.94207000  1.0
  C  C89  1  0.52074000  0.20644000  0.99741000  1.0
  C  C90  1  0.49983000  0.17878000  0.85756000  1.0
  C  C91  1  0.49951000  0.15453000  0.80909000  1.0
  C  C92  1  0.49959000  0.12647000  0.75298000  1.0
  C  C93  1  0.52332000  0.15385000  0.72459000  1.0
  C  C94  1  0.51923000  0.12688000  0.66926000  1.0
  C  C95  1  0.49975000  0.07087000  0.64175000  1.0
  C  C96  1  0.48027000  0.04237000  0.66926000  1.0
  C  C97  1  0.47605000  0.07071000  0.72459000  1.0
  C  C98  1  0.45873000  0.47377000  0.32443000  1.0
  C  C99  1  0.54244000  0.47381000  0.14930000  1.0
  C  C100  1  0.54081000  0.85954000  0.51736000  1.0
  C  C101  1  0.45882000  0.85955000  0.34221000  1.0
  C  C102  1  0.45881000  0.17556000  0.14934000  1.0
  C  C103  1  0.54249000  0.35070000  0.32449000  1.0
  C  C104  1  0.54080000  0.98264000  0.34219000  1.0
  C  C105  1  0.45888000  0.15780000  0.51735000  1.0
  C  C106  1  0.45887000  0.35067000  0.02621000  1.0
  C  C107  1  0.54244000  0.17552000  0.02621000  1.0
  C  C108  1  0.54092000  0.15780000  0.64045000  1.0
  C  C109  1  0.45882000  0.98264000  0.64045000  1.0
  O  O110  1  0.26434000  0.00722000  0.44859000  1.0
  O  O111  1  0.26438000  0.05140000  0.55864000  1.0
  O  O112  1  0.26429000  0.94134000  0.49277000  1.0
  O  O113  1  0.73501000  0.05140000  0.49276000  1.0
  O  O114  1  0.73496000  0.94135000  0.44860000  1.0
  O  O115  1  0.73509000  0.00723000  0.55865000  1.0
  O  O116  1  0.26554000  0.28194000  0.10802000  1.0
  O  O117  1  0.26544000  0.39198000  0.17389000  1.0
  O  O118  1  0.26547000  0.32609000  0.21805000  1.0
  O  O119  1  0.73597000  0.32612000  0.10802000  1.0
  O  O120  1  0.73597000  0.28192000  0.17387000  1.0
  O  O121  1  0.73589000  0.39197000  0.21807000  1.0
