# generated using pymatgen
data_ZnH6C25N6(O7F)2
_symmetry_space_group_name_H-M   'P 1'
_cell_length_a   9.58546000
_cell_length_b   10.84900000
_cell_length_c   28.20440000
_cell_angle_alpha   91.85010000
_cell_angle_beta   89.52270000
_cell_angle_gamma   89.88290000
_symmetry_Int_Tables_number   1
_chemical_formula_structural   ZnH6C25N6(O7F)2
_chemical_formula_sum   'Zn2 H12 C50 N12 O28 F4'
_cell_volume   2931.41192458
_cell_formula_units_Z   2
loop_
 _symmetry_equiv_pos_site_id
 _symmetry_equiv_pos_as_xyz
  1  'x, y, z'
loop_
 _atom_site_type_symbol
 _atom_site_label
 _atom_site_symmetry_multiplicity
 _atom_site_fract_x
 _atom_site_fract_y
 _atom_site_fract_z
 _atom_site_occupancy
  Zn  Zn0  1  0.36303000  0.49904000  0.50074000  1.0
  Zn  Zn1  1  0.65117000  0.49843000  0.49900000  1.0
  H  H2  1  0.42492000  0.20307000  0.87069000  1.0
  H  H3  1  0.43129000  0.80036000  0.12937000  1.0
  H  H4  1  0.48972000  0.18613000  0.02685000  1.0
  H  H5  1  0.49730000  0.81579000  0.97291000  1.0
  H  H6  1  0.72572000  0.11301000  0.48646000  1.0
  H  H7  1  0.28539000  0.88467000  0.51628000  1.0
  H  H8  1  0.72443000  0.88087000  0.48476000  1.0
  H  H9  1  0.28471000  0.11654000  0.51484000  1.0
  H  H10  1  0.87016000  0.63734000  0.55204000  1.0
  H  H11  1  0.14381000  0.35854000  0.44840000  1.0
  H  H12  1  0.87737000  0.36187000  0.44613000  1.0
  H  H13  1  0.13679000  0.63971000  0.55251000  1.0
  C  C14  1  0.50490000  0.26371000  0.50023000  1.0
  C  C15  1  0.50421000  0.73369000  0.50009000  1.0
  C  C16  1  0.50999000  0.48705000  0.40623000  1.0
  C  C17  1  0.51140000  0.51148000  0.59348000  1.0
  C  C18  1  0.48905000  0.37239000  0.17620000  1.0
  C  C19  1  0.49185000  0.62980000  0.82352000  1.0
  C  C20  1  0.45793000  0.60258000  0.18162000  1.0
  C  C21  1  0.45544000  0.40039000  0.81826000  1.0
  C  C22  1  0.59707000  0.54012000  0.27566000  1.0
  C  C23  1  0.59784000  0.46003000  0.72370000  1.0
  C  C24  1  0.60541000  0.53886000  0.32509000  1.0
  C  C25  1  0.60688000  0.46078000  0.67422000  1.0
  C  C26  1  0.39337000  0.42507000  0.32823000  1.0
  C  C27  1  0.39675000  0.57814000  0.67186000  1.0
  C  C28  1  0.38268000  0.42603000  0.27894000  1.0
  C  C29  1  0.38550000  0.57799000  0.72120000  1.0
  C  C30  1  0.48522000  0.48372000  0.25195000  1.0
  C  C31  1  0.48656000  0.51853000  0.74781000  1.0
  C  C32  1  0.46759000  0.49226000  0.10136000  1.0
  C  C33  1  0.46760000  0.51030000  0.89843000  1.0
  C  C34  1  0.48261000  0.37808000  0.12417000  1.0
  C  C35  1  0.48533000  0.62415000  0.87557000  1.0
  C  C36  1  0.49235000  0.27163000  0.09571000  1.0
  C  C37  1  0.49771000  0.73034000  0.90397000  1.0
  C  C38  1  0.45568000  0.60280000  0.12935000  1.0
  C  C39  1  0.45317000  0.40008000  0.87053000  1.0
  C  C40  1  0.50377000  0.48137000  0.35248000  1.0
  C  C41  1  0.50634000  0.51943000  0.64723000  1.0
  C  C42  1  0.45650000  0.38842000  0.97143000  1.0
  C  C43  1  0.45918000  0.61433000  0.02843000  1.0
  C  C44  1  0.47065000  0.61818000  0.97681000  1.0
  C  C45  1  0.46803000  0.38431000  0.02298000  1.0
  C  C46  1  0.46485000  0.50513000  0.94911000  1.0
  C  C47  1  0.46498000  0.49745000  0.05070000  1.0
  C  C48  1  0.43916000  0.28430000  0.94118000  1.0
  C  C49  1  0.44399000  0.71879000  0.05880000  1.0
  C  C50  1  0.43696000  0.28802000  0.89198000  1.0
  C  C51  1  0.44175000  0.71520000  0.10802000  1.0
  C  C52  1  0.48355000  0.27346000  0.04647000  1.0
  C  C53  1  0.48878000  0.72871000  0.95327000  1.0
  C  C54  1  0.62997000  0.06178000  0.49248000  1.0
  C  C55  1  0.38044000  0.93594000  0.50921000  1.0
  C  C56  1  0.62949000  0.93381000  0.49185000  1.0
  C  C57  1  0.38023000  0.06379000  0.50860000  1.0
  C  C58  1  0.50482000  0.87071000  0.50043000  1.0
  C  C59  1  0.50514000  0.12681000  0.50047000  1.0
  C  C60  1  0.93274000  0.57686000  0.52870000  1.0
  C  C61  1  0.08168000  0.42123000  0.47106000  1.0
  C  C62  1  0.93662000  0.42224000  0.47009000  1.0
  C  C63  1  0.07779000  0.57744000  0.52918000  1.0
  N  N64  1  0.47717000  0.48609000  0.20158000  1.0
  N  N65  1  0.47770000  0.51641000  0.79822000  1.0
  N  N66  1  0.15015000  0.49922000  0.50048000  1.0
  N  N67  1  0.86415000  0.49957000  0.49906000  1.0
  N  N68  1  0.28157000  0.36646000  0.35644000  1.0
  N  N69  1  0.28679000  0.63889000  0.64398000  1.0
  N  N70  1  0.26363000  0.36359000  0.25539000  1.0
  N  N71  1  0.26746000  0.64298000  0.74523000  1.0
  N  N72  1  0.51276000  0.14738000  0.11523000  1.0
  N  N73  1  0.52097000  0.85407000  0.88432000  1.0
  N  N74  1  0.70807000  0.39664000  0.75016000  1.0
  N  N75  1  0.70894000  0.60131000  0.24877000  1.0
  O  O76  1  0.38861000  0.31670000  0.49290000  1.0
  O  O77  1  0.61897000  0.67819000  0.49027000  1.0
  O  O78  1  0.38900000  0.68088000  0.50948000  1.0
  O  O79  1  0.62097000  0.31835000  0.50740000  1.0
  O  O80  1  0.39610000  0.51597000  0.42682000  1.0
  O  O81  1  0.62701000  0.53323000  0.57373000  1.0
  O  O82  1  0.39673000  0.48213000  0.57429000  1.0
  O  O83  1  0.62626000  0.46378000  0.42462000  1.0
  O  O84  1  0.50311000  0.27616000  0.19737000  1.0
  O  O85  1  0.50800000  0.72574000  0.80229000  1.0
  O  O86  1  0.44148000  0.30776000  0.79273000  1.0
  O  O87  1  0.44625000  0.69563000  0.20716000  1.0
  O  O88  1  0.16411000  0.41281000  0.35411000  1.0
  O  O89  1  0.31588000  0.27862000  0.38038000  1.0
  O  O90  1  0.16810000  0.59549000  0.64684000  1.0
  O  O91  1  0.32385000  0.72562000  0.61978000  1.0
  O  O92  1  0.23298000  0.26074000  0.26959000  1.0
  O  O93  1  0.20498000  0.41952000  0.22364000  1.0
  O  O94  1  0.23935000  0.74641000  0.73111000  1.0
  O  O95  1  0.20712000  0.58842000  0.77726000  1.0
  O  O96  1  0.63460000  0.11359000  0.11990000  1.0
  O  O97  1  0.40668000  0.08559000  0.12155000  1.0
  O  O98  1  0.64351000  0.88523000  0.87888000  1.0
  O  O99  1  0.41616000  0.91809000  0.87873000  1.0
  O  O100  1  0.73831000  0.29103000  0.73648000  1.0
  O  O101  1  0.76067000  0.45572000  0.78378000  1.0
  O  O102  1  0.74093000  0.70633000  0.26233000  1.0
  O  O103  1  0.76113000  0.54114000  0.21500000  1.0
  F  F104  1  0.71433000  0.40364000  0.65224000  1.0
  F  F105  1  0.71356000  0.59404000  0.34660000  1.0
  F  F106  1  0.42284000  0.17041000  0.95917000  1.0
  F  F107  1  0.42985000  0.83297000  0.04085000  1.0
