# generated using pymatgen
data_Co5H26(C8O9)2
_symmetry_space_group_name_H-M   'P 1'
_cell_length_a   11.16150000
_cell_length_b   17.38420000
_cell_length_c   17.38780000
_cell_angle_alpha   84.07910000
_cell_angle_beta   71.29300000
_cell_angle_gamma   71.28430000
_symmetry_Int_Tables_number   1
_chemical_formula_structural   Co5H26(C8O9)2
_chemical_formula_sum   'Co20 H104 C64 O72'
_cell_volume   3026.60980887
_cell_formula_units_Z   4
loop_
 _symmetry_equiv_pos_site_id
 _symmetry_equiv_pos_as_xyz
  1  'x, y, z'
loop_
 _atom_site_type_symbol
 _atom_site_label
 _atom_site_symmetry_multiplicity
 _atom_site_fract_x
 _atom_site_fract_y
 _atom_site_fract_z
 _atom_site_occupancy
  Co  Co0  1  0.74560000  0.77319000  0.66385000  1.0
  Co  Co1  1  0.87667000  0.59009000  0.66364000  1.0
  Co  Co2  1  0.18275000  0.72682000  0.83624000  1.0
  Co  Co3  1  0.13048000  0.90996000  0.83631000  1.0
  Co  Co4  1  0.01903000  0.66391000  0.72674000  1.0
  Co  Co5  1  0.96678000  0.66379000  0.90991000  1.0
  Co  Co6  1  0.40941000  0.83619000  0.77331000  1.0
  Co  Co7  1  0.54021000  0.83631000  0.59012000  1.0
  Co  Co8  1  0.25443000  0.22683000  0.33615000  1.0
  Co  Co9  1  0.12336000  0.40989000  0.33634000  1.0
  Co  Co10  1  0.81724000  0.27321000  0.16379000  1.0
  Co  Co11  1  0.86951000  0.09008000  0.16370000  1.0
  Co  Co12  1  0.98106000  0.33608000  0.27324000  1.0
  Co  Co13  1  0.03324000  0.33618000  0.09014000  1.0
  Co  Co14  1  0.59058000  0.16385000  0.22668000  1.0
  Co  Co15  1  0.45981000  0.16374000  0.40981000  1.0
  Co  Co16  1  0.00001000  0.49998000  0.49998000  1.0
  Co  Co17  1  0.00001000  0.00004000  0.00000000  1.0
  Co  Co18  1  0.00005000  0.49995000  0.00003000  1.0
  Co  Co19  1  0.50003000  0.00001000  0.49994000  1.0
  H  H20  1  0.99223000  0.70459000  0.59017000  1.0
  H  H21  1  0.60859000  0.61268000  0.91133000  1.0
  H  H22  1  0.50431000  0.59783000  0.85997000  1.0
  H  H23  1  0.68093000  0.55039000  0.82112000  1.0
  H  H24  1  0.35402000  0.43608000  0.56097000  1.0
  H  H25  1  0.28774000  0.47489000  0.47961000  1.0
  H  H26  1  0.37144000  0.52952000  0.51577000  1.0
  H  H27  1  0.69470000  0.70660000  0.42441000  1.0
  H  H28  1  0.84633000  0.72708000  0.40756000  1.0
  H  H29  1  0.85040000  0.62450000  0.39915000  1.0
  H  H30  1  0.66093000  0.39939000  0.72578000  1.0
  H  H31  1  0.81946000  0.32863000  0.71796000  1.0
  H  H32  1  0.75152000  0.33630000  0.63681000  1.0
  H  H33  1  0.28710000  0.79556000  0.90988000  1.0
  H  H34  1  0.13353000  0.88724000  0.58865000  1.0
  H  H35  1  0.96297000  0.90230000  0.63985000  1.0
  H  H36  1  0.05339000  0.94959000  0.67881000  1.0
  H  H37  1  0.35111000  0.06402000  0.93922000  1.0
  H  H38  1  0.24238000  0.02508000  0.02052000  1.0
  H  H39  1  0.41681000  0.97049000  0.98427000  1.0
  H  H40  1  0.82689000  0.79330000  0.07590000  1.0
  H  H41  1  0.98242000  0.77281000  0.09235000  1.0
  H  H42  1  0.87537000  0.87539000  0.10101000  1.0
  H  H43  1  0.78593000  0.10050000  0.77424000  1.0
  H  H44  1  0.86586000  0.17129000  0.78203000  1.0
  H  H45  1  0.72457000  0.16358000  0.86321000  1.0
  H  H46  1  0.19689000  0.59028000  0.79555000  1.0
  H  H47  1  0.72249000  0.91165000  0.88678000  1.0
  H  H48  1  0.60307000  0.86047000  0.90200000  1.0
  H  H49  1  0.73248000  0.82151000  0.94924000  1.0
  H  H50  1  0.29000000  0.56084000  0.06420000  1.0
  H  H51  1  0.26253000  0.47956000  0.02523000  1.0
  H  H52  1  0.40080000  0.51579000  0.97075000  1.0
  H  H53  1  0.90179000  0.42431000  0.79354000  1.0
  H  H54  1  0.07386000  0.40747000  0.77309000  1.0
  H  H55  1  0.97533000  0.39915000  0.87566000  1.0
  H  H56  1  0.56038000  0.72581000  0.10050000  1.0
  H  H57  1  0.64810000  0.71800000  0.17127000  1.0
  H  H58  1  0.58792000  0.63682000  0.16360000  1.0
  H  H59  1  0.58261000  0.90977000  0.70444000  1.0
  H  H60  1  0.52090000  0.58845000  0.61313000  1.0
  H  H61  1  0.36545000  0.63949000  0.59789000  1.0
  H  H62  1  0.50299000  0.67861000  0.55075000  1.0
  H  H63  1  0.91517000  0.93900000  0.43599000  1.0
  H  H64  1  0.76756000  0.02035000  0.47486000  1.0
  H  H65  1  0.88742000  0.98403000  0.52947000  1.0
  H  H66  1  0.11964000  0.07579000  0.70655000  1.0
  H  H67  1  0.25455000  0.09260000  0.72691000  1.0
  H  H68  1  0.25003000  0.10098000  0.62437000  1.0
  H  H69  1  0.38677000  0.77429000  0.39920000  1.0
  H  H70  1  0.53755000  0.78220000  0.32863000  1.0
  H  H71  1  0.38853000  0.86335000  0.33623000  1.0
  H  H72  1  0.00777000  0.29549000  0.40983000  1.0
  H  H73  1  0.39113000  0.38736000  0.08876000  1.0
  H  H74  1  0.49555000  0.40226000  0.13997000  1.0
  H  H75  1  0.31894000  0.44966000  0.17893000  1.0
  H  H76  1  0.64602000  0.56397000  0.43902000  1.0
  H  H77  1  0.71225000  0.52514000  0.52038000  1.0
  H  H78  1  0.62856000  0.47054000  0.48419000  1.0
  H  H79  1  0.30525000  0.29341000  0.57562000  1.0
  H  H80  1  0.15354000  0.27299000  0.59244000  1.0
  H  H81  1  0.14960000  0.37554000  0.60085000  1.0
  H  H82  1  0.33888000  0.60079000  0.27425000  1.0
  H  H83  1  0.18028000  0.67148000  0.28211000  1.0
  H  H84  1  0.24822000  0.66379000  0.36326000  1.0
  H  H85  1  0.71304000  0.20442000  0.09015000  1.0
  H  H86  1  0.86636000  0.11272000  0.41128000  1.0
  H  H87  1  0.03692000  0.09767000  0.36022000  1.0
  H  H88  1  0.94667000  0.05037000  0.32114000  1.0
  H  H89  1  0.64908000  0.93597000  0.06071000  1.0
  H  H90  1  0.75782000  0.97491000  0.97944000  1.0
  H  H91  1  0.58339000  0.02948000  0.01564000  1.0
  H  H92  1  0.17318000  0.20670000  0.92413000  1.0
  H  H93  1  0.01771000  0.22716000  0.90760000  1.0
  H  H94  1  0.12475000  0.12459000  0.89900000  1.0
  H  H95  1  0.21416000  0.89935000  0.22568000  1.0
  H  H96  1  0.13411000  0.82864000  0.21785000  1.0
  H  H97  1  0.27541000  0.83633000  0.13669000  1.0
  H  H98  1  0.80321000  0.40974000  0.20442000  1.0
  H  H99  1  0.27724000  0.08835000  0.11326000  1.0
  H  H100  1  0.39687000  0.13939000  0.09799000  1.0
  H  H101  1  0.26744000  0.17846000  0.05077000  1.0
  H  H102  1  0.71012000  0.43915000  0.93579000  1.0
  H  H103  1  0.73757000  0.52044000  0.97475000  1.0
  H  H104  1  0.59927000  0.48423000  0.02922000  1.0
  H  H105  1  0.09819000  0.57571000  0.20646000  1.0
  H  H106  1  0.92617000  0.59251000  0.22682000  1.0
  H  H107  1  0.02478000  0.60081000  0.12428000  1.0
  H  H108  1  0.43967000  0.27411000  0.89943000  1.0
  H  H109  1  0.35181000  0.28196000  0.82872000  1.0
  H  H110  1  0.41206000  0.36311000  0.83635000  1.0
  H  H111  1  0.41739000  0.09025000  0.29560000  1.0
  H  H112  1  0.47893000  0.41149000  0.38695000  1.0
  H  H113  1  0.63439000  0.36054000  0.40218000  1.0
  H  H114  1  0.49698000  0.32131000  0.44930000  1.0
  H  H115  1  0.08490000  0.06102000  0.56401000  1.0
  H  H116  1  0.23246000  0.97963000  0.52516000  1.0
  H  H117  1  0.11260000  0.01597000  0.47055000  1.0
  H  H118  1  0.88038000  0.92428000  0.29346000  1.0
  H  H119  1  0.74549000  0.90739000  0.27315000  1.0
  H  H120  1  0.75007000  0.89907000  0.37566000  1.0
  H  H121  1  0.61309000  0.22564000  0.60104000  1.0
  H  H122  1  0.46225000  0.21766000  0.67149000  1.0
  H  H123  1  0.61125000  0.13650000  0.66389000  1.0
  C  C124  1  0.60901000  0.67997000  0.80234000  1.0
  C  C125  1  0.60275000  0.60415000  0.85115000  1.0
  C  C126  1  0.17607000  0.53602000  0.59423000  1.0
  C  C127  1  0.30491000  0.49182000  0.53299000  1.0
  C  C128  1  0.78031000  0.67203000  0.52074000  1.0
  C  C129  1  0.79395000  0.68174000  0.43180000  1.0
  C  C130  1  0.82629000  0.43494000  0.64453000  1.0
  C  C131  1  0.75925000  0.37106000  0.68315000  1.0
  C  C132  1  0.09178000  0.82000000  0.69763000  1.0
  C  C133  1  0.05891000  0.89585000  0.64877000  1.0
  C  C134  1  0.30632000  0.96420000  0.90573000  1.0
  C  C135  1  0.32978000  0.00825000  0.96711000  1.0
  C  C136  1  0.97365000  0.82799000  0.97929000  1.0
  C  C137  1  0.90874000  0.81819000  0.06830000  1.0
  C  C138  1  0.90574000  0.06497000  0.85545000  1.0
  C  C139  1  0.81335000  0.12883000  0.81687000  1.0
  C  C140  1  0.78948000  0.80254000  0.81976000  1.0
  C  C141  1  0.70793000  0.85153000  0.89550000  1.0
  C  C142  1  0.21192000  0.59434000  0.96428000  1.0
  C  C143  1  0.29660000  0.53298000  0.00842000  1.0
  C  C144  1  0.95263000  0.52077000  0.82800000  1.0
  C  C145  1  0.97618000  0.43175000  0.81840000  1.0
  C  C146  1  0.76132000  0.64456000  0.06499000  1.0
  C  C147  1  0.63039000  0.68316000  0.12884000  1.0
  C  C148  1  0.41155000  0.69748000  0.68021000  1.0
  C  C149  1  0.45478000  0.64853000  0.60444000  1.0
  C  C150  1  0.77041000  0.90564000  0.53586000  1.0
  C  C151  1  0.83810000  0.96691000  0.49172000  1.0
  C  C152  1  0.30135000  0.97933000  0.67197000  1.0
  C  C153  1  0.22632000  0.06834000  0.68162000  1.0
  C  C154  1  0.47070000  0.85553000  0.43500000  1.0
  C  C155  1  0.44250000  0.81696000  0.37100000  1.0
  C  C156  1  0.39098000  0.32007000  0.19773000  1.0
  C  C157  1  0.39709000  0.39590000  0.14889000  1.0
  C  C158  1  0.82398000  0.46399000  0.40575000  1.0
  C  C159  1  0.69512000  0.50822000  0.46698000  1.0
  C  C160  1  0.21968000  0.32800000  0.47924000  1.0
  C  C161  1  0.20601000  0.31830000  0.56819000  1.0
  C  C162  1  0.17364000  0.56507000  0.35545000  1.0
  C  C163  1  0.24053000  0.62903000  0.31689000  1.0
  C  C164  1  0.90826000  0.17997000  0.30232000  1.0
  C  C165  1  0.94107000  0.10412000  0.35120000  1.0
  C  C166  1  0.69375000  0.03586000  0.09423000  1.0
  C  C167  1  0.67038000  0.99177000  0.03285000  1.0
  C  C168  1  0.02632000  0.17206000  0.02073000  1.0
  C  C169  1  0.09133000  0.18181000  0.93171000  1.0
  C  C170  1  0.09429000  0.93503000  0.14451000  1.0
  C  C171  1  0.18665000  0.87109000  0.18305000  1.0
  C  C172  1  0.21051000  0.19747000  0.18025000  1.0
  C  C173  1  0.29195000  0.14844000  0.10453000  1.0
  C  C174  1  0.78811000  0.40567000  0.03578000  1.0
  C  C175  1  0.70349000  0.46701000  0.99158000  1.0
  C  C176  1  0.04745000  0.47917000  0.17202000  1.0
  C  C177  1  0.02389000  0.56821000  0.18156000  1.0
  C  C178  1  0.23872000  0.35538000  0.93503000  1.0
  C  C179  1  0.36960000  0.31678000  0.87114000  1.0
  C  C180  1  0.58847000  0.30246000  0.31982000  1.0
  C  C181  1  0.54514000  0.35142000  0.39560000  1.0
  C  C182  1  0.22962000  0.09437000  0.46413000  1.0
  C  C183  1  0.16196000  0.03309000  0.50828000  1.0
  C  C184  1  0.69866000  0.02073000  0.32795000  1.0
  C  C185  1  0.77372000  0.93170000  0.31839000  1.0
  C  C186  1  0.52928000  0.14444000  0.56501000  1.0
  C  C187  1  0.55735000  0.18294000  0.62911000  1.0
  O  O188  1  0.92865000  0.69399000  0.64013000  1.0
  O  O189  1  0.69638000  0.67485000  0.73146000  1.0
  O  O190  1  0.17999000  0.58151000  0.64475000  1.0
  O  O191  1  0.06830000  0.52350000  0.59295000  1.0
  O  O192  1  0.70747000  0.73212000  0.56783000  1.0
  O  O193  1  0.84305000  0.60549000  0.54814000  1.0
  O  O194  1  0.80391000  0.49482000  0.68954000  1.0
  O  O195  1  0.90112000  0.42394000  0.57151000  1.0
  O  O196  1  0.52648000  0.74665000  0.83196000  1.0
  O  O197  1  0.26261000  0.80616000  0.86000000  1.0
  O  O198  1  0.10283000  0.82511000  0.76862000  1.0
  O  O199  1  0.40622000  0.91875000  0.85518000  1.0
  O  O200  1  0.18478000  0.97672000  0.90696000  1.0
  O  O201  1  0.00793000  0.76782000  0.93229000  1.0
  O  O202  1  0.99673000  0.89462000  0.95176000  1.0
  O  O203  1  0.98827000  0.00514000  0.81042000  1.0
  O  O204  1  0.89657000  0.07597000  0.92848000  1.0
  O  O205  1  0.10551000  0.75335000  0.66797000  1.0
  O  O206  1  0.12258000  0.64017000  0.80613000  1.0
  O  O207  1  0.87144000  0.73154000  0.82497000  1.0
  O  O208  1  0.26126000  0.64497000  0.91891000  1.0
  O  O209  1  0.09172000  0.59299000  0.97660000  1.0
  O  O210  1  0.94018000  0.56772000  0.76774000  1.0
  O  O211  1  0.94833000  0.54831000  0.89457000  1.0
  O  O212  1  0.79884000  0.68964000  0.00518000  1.0
  O  O213  1  0.82514000  0.57149000  0.07594000  1.0
  O  O214  1  0.77341000  0.83210000  0.75310000  1.0
  O  O215  1  0.56871000  0.85987000  0.69390000  1.0
  O  O216  1  0.42785000  0.76845000  0.67506000  1.0
  O  O217  1  0.82486000  0.85501000  0.58128000  1.0
  O  O218  1  0.66125000  0.90702000  0.52342000  1.0
  O  O219  1  0.27555000  0.93233000  0.73219000  1.0
  O  O220  1  0.39117000  0.95184000  0.60542000  1.0
  O  O221  1  0.49327000  0.81048000  0.49487000  1.0
  O  O222  1  0.47245000  0.92860000  0.42406000  1.0
  O  O223  1  0.35833000  0.66793000  0.74685000  1.0
  O  O224  1  0.07137000  0.30607000  0.35988000  1.0
  O  O225  1  0.30359000  0.32515000  0.26861000  1.0
  O  O226  1  0.82009000  0.41848000  0.35524000  1.0
  O  O227  1  0.93177000  0.47648000  0.40702000  1.0
  O  O228  1  0.29253000  0.26791000  0.43216000  1.0
  O  O229  1  0.15697000  0.39452000  0.45181000  1.0
  O  O230  1  0.19602000  0.50520000  0.31046000  1.0
  O  O231  1  0.09885000  0.57604000  0.42849000  1.0
  O  O232  1  0.47360000  0.25341000  0.16813000  1.0
  O  O233  1  0.73738000  0.19384000  0.14006000  1.0
  O  O234  1  0.89714000  0.17489000  0.23135000  1.0
  O  O235  1  0.59387000  0.08136000  0.14475000  1.0
  O  O236  1  0.81529000  0.02334000  0.09302000  1.0
  O  O237  1  0.99195000  0.23226000  0.06770000  1.0
  O  O238  1  0.00326000  0.10543000  0.04828000  1.0
  O  O239  1  0.01175000  0.99484000  0.18956000  1.0
  O  O240  1  0.10351000  0.92410000  0.07146000  1.0
  O  O241  1  0.89462000  0.24662000  0.33195000  1.0
  O  O242  1  0.87748000  0.35983000  0.19386000  1.0
  O  O243  1  0.12858000  0.26848000  0.17503000  1.0
  O  O244  1  0.73870000  0.35509000  0.08119000  1.0
  O  O245  1  0.90833000  0.40697000  0.02346000  1.0
  O  O246  1  0.05982000  0.43226000  0.23230000  1.0
  O  O247  1  0.05176000  0.45160000  0.10545000  1.0
  O  O248  1  0.20115000  0.31033000  0.99485000  1.0
  O  O249  1  0.17493000  0.42846000  0.92408000  1.0
  O  O250  1  0.22657000  0.16793000  0.24691000  1.0
  O  O251  1  0.43135000  0.14015000  0.30605000  1.0
  O  O252  1  0.57222000  0.23149000  0.32491000  1.0
  O  O253  1  0.17514000  0.14502000  0.41874000  1.0
  O  O254  1  0.33882000  0.09298000  0.47652000  1.0
  O  O255  1  0.72439000  0.06769000  0.26772000  1.0
  O  O256  1  0.60885000  0.04824000  0.39450000  1.0
  O  O257  1  0.50668000  0.18953000  0.50518000  1.0
  O  O258  1  0.52766000  0.07134000  0.57587000  1.0
  O  O259  1  0.64171000  0.33203000  0.25320000  1.0
