# generated using pymatgen
data_CuH12C7(NO2)2
_symmetry_space_group_name_H-M   'P 1'
_cell_length_a   5.86082000
_cell_length_b   9.19190000
_cell_length_c   17.71070000
_cell_angle_alpha   89.99970000
_cell_angle_beta   89.99980000
_cell_angle_gamma   72.49800000
_symmetry_Int_Tables_number   1
_chemical_formula_structural   CuH12C7(NO2)2
_chemical_formula_sum   'Cu4 H48 C28 N8 O16'
_cell_volume   909.94286164
_cell_formula_units_Z   4
loop_
 _symmetry_equiv_pos_site_id
 _symmetry_equiv_pos_as_xyz
  1  'x, y, z'
loop_
 _atom_site_type_symbol
 _atom_site_label
 _atom_site_symmetry_multiplicity
 _atom_site_fract_x
 _atom_site_fract_y
 _atom_site_fract_z
 _atom_site_occupancy
  Cu  Cu0  1  0.06338000  0.24304000  0.71168000  1.0
  Cu  Cu1  1  0.93662000  0.25696000  0.21167000  1.0
  Cu  Cu2  1  0.93663000  0.75696000  0.28833000  1.0
  Cu  Cu3  1  0.06338000  0.74304000  0.78833000  1.0
  H  H4  1  0.88046000  0.15598000  0.59815000  1.0
  H  H5  1  0.11955000  0.34402000  0.09814000  1.0
  H  H6  1  0.11955000  0.84402000  0.40185000  1.0
  H  H7  1  0.88045000  0.65598000  0.90185000  1.0
  H  H8  1  0.60649000  0.32941000  0.71060000  1.0
  H  H9  1  0.39351000  0.17058000  0.21059000  1.0
  H  H10  1  0.39351000  0.67058000  0.28940000  1.0
  H  H11  1  0.60649000  0.82941000  0.78941000  1.0
  H  H12  1  0.70755000  0.43312000  0.77219000  1.0
  H  H13  1  0.29244000  0.06687000  0.27218000  1.0
  H  H14  1  0.29245000  0.56687000  0.22781000  1.0
  H  H15  1  0.70756000  0.93313000  0.72782000  1.0
  H  H16  1  0.41546000  0.85010000  0.57874000  1.0
  H  H17  1  0.58455000  0.64991000  0.07874000  1.0
  H  H18  1  0.58454000  0.14991000  0.42126000  1.0
  H  H19  1  0.41544000  0.35008000  0.92126000  1.0
  H  H20  1  0.11154000  0.90186000  0.55271000  1.0
  H  H21  1  0.88848000  0.59815000  0.05270000  1.0
  H  H22  1  0.88847000  0.09814000  0.44729000  1.0
  H  H23  1  0.11152000  0.40186000  0.94730000  1.0
  H  H24  1  0.27144000  0.10101000  0.51595000  1.0
  H  H25  1  0.72858000  0.39900000  0.01594000  1.0
  H  H26  1  0.72858000  0.89899000  0.48405000  1.0
  H  H27  1  0.27142000  0.60100000  0.98406000  1.0
  H  H28  1  0.96009000  0.32679000  0.49812000  1.0
  H  H29  1  0.03992000  0.17322000  0.99812000  1.0
  H  H30  1  0.03991000  0.67321000  0.50188000  1.0
  H  H31  1  0.96008000  0.82678000  0.00188000  1.0
  H  H32  1  0.09569000  0.40578000  0.57110000  1.0
  H  H33  1  0.90430000  0.09422000  0.07109000  1.0
  H  H34  1  0.90430000  0.59422000  0.42890000  1.0
  H  H35  1  0.09569000  0.90577000  0.92891000  1.0
  H  H36  1  0.66617000  0.55429000  0.54438000  1.0
  H  H37  1  0.33382000  0.94571000  0.04438000  1.0
  H  H38  1  0.33383000  0.44571000  0.45562000  1.0
  H  H39  1  0.66617000  0.05429000  0.95562000  1.0
  H  H40  1  0.57570000  0.39600000  0.57178000  1.0
  H  H41  1  0.42431000  0.10400000  0.07177000  1.0
  H  H42  1  0.42431000  0.60400000  0.42822000  1.0
  H  H43  1  0.57569000  0.89600000  0.92823000  1.0
  H  H44  1  0.82223000  0.57384000  0.67400000  1.0
  H  H45  1  0.17776000  0.92616000  0.17399000  1.0
  H  H46  1  0.17777000  0.42616000  0.32600000  1.0
  H  H47  1  0.82224000  0.07383000  0.82601000  1.0
  H  H48  1  0.50946000  0.59392000  0.67147000  1.0
  H  H49  1  0.49053000  0.90607000  0.17147000  1.0
  H  H50  1  0.49054000  0.40607000  0.32853000  1.0
  H  H51  1  0.50947000  0.09393000  0.82853000  1.0
  C  C52  1  0.17111000  0.89735000  0.67150000  1.0
  C  C53  1  0.82889000  0.60265000  0.17149000  1.0
  C  C54  1  0.82889000  0.10265000  0.32850000  1.0
  C  C55  1  0.17108000  0.39735000  0.82851000  1.0
  C  C56  1  0.23802000  0.92955000  0.59162000  1.0
  C  C57  1  0.76199000  0.57046000  0.09162000  1.0
  C  C58  1  0.76199000  0.07046000  0.40838000  1.0
  C  C59  1  0.23800000  0.42954000  0.90838000  1.0
  C  C60  1  0.24495000  0.09244000  0.57729000  1.0
  C  C61  1  0.75507000  0.40757000  0.07728000  1.0
  C  C62  1  0.75507000  0.90757000  0.42271000  1.0
  C  C63  1  0.24493000  0.59243000  0.92272000  1.0
  C  C64  1  0.46002000  0.12152000  0.61733000  1.0
  C  C65  1  0.53999000  0.37848000  0.11733000  1.0
  C  C66  1  0.54000000  0.87848000  0.38267000  1.0
  C  C67  1  0.46001000  0.62151000  0.88267000  1.0
  C  C68  1  0.95710000  0.35006000  0.55944000  1.0
  C  C69  1  0.04291000  0.14994000  0.05943000  1.0
  C  C70  1  0.04290000  0.64994000  0.44056000  1.0
  C  C71  1  0.95709000  0.85006000  0.94057000  1.0
  C  C72  1  0.71125000  0.45475000  0.58214000  1.0
  C  C73  1  0.28875000  0.04525000  0.08214000  1.0
  C  C74  1  0.28874000  0.54525000  0.41786000  1.0
  C  C75  1  0.71125000  0.95475000  0.91786000  1.0
  C  C76  1  0.68943000  0.51355000  0.66318000  1.0
  C  C77  1  0.31056000  0.98645000  0.16317000  1.0
  C  C78  1  0.31057000  0.48644000  0.33682000  1.0
  C  C79  1  0.68944000  0.01355000  0.83683000  1.0
  N  N80  1  0.01921000  0.20506000  0.60143000  1.0
  N  N81  1  0.98079000  0.29495000  0.10143000  1.0
  N  N82  1  0.98079000  0.79495000  0.39857000  1.0
  N  N83  1  0.01921000  0.70505000  0.89857000  1.0
  N  N84  1  0.73007000  0.38814000  0.71887000  1.0
  N  N85  1  0.26992000  0.11186000  0.21886000  1.0
  N  N86  1  0.26993000  0.61186000  0.28113000  1.0
  N  N87  1  0.73007000  0.88814000  0.78114000  1.0
  O  O88  1  0.66585000  0.05486000  0.59203000  1.0
  O  O89  1  0.33417000  0.44514000  0.09202000  1.0
  O  O90  1  0.33417000  0.94514000  0.40797000  1.0
  O  O91  1  0.66583000  0.55486000  0.90798000  1.0
  O  O92  1  0.41560000  0.21112000  0.67454000  1.0
  O  O93  1  0.58440000  0.28888000  0.17453000  1.0
  O  O94  1  0.58440000  0.78888000  0.32546000  1.0
  O  O95  1  0.41560000  0.71110000  0.82546000  1.0
  O  O96  1  0.15628000  0.99172000  0.72440000  1.0
  O  O97  1  0.84372000  0.50828000  0.22439000  1.0
  O  O98  1  0.84373000  0.00828000  0.27560000  1.0
  O  O99  1  0.15622000  0.49173000  0.77561000  1.0
  O  O100  1  0.13540000  0.76703000  0.68081000  1.0
  O  O101  1  0.86463000  0.73298000  0.18081000  1.0
  O  O102  1  0.86460000  0.23298000  0.31919000  1.0
  O  O103  1  0.13538000  0.26702000  0.81920000  1.0
