# generated using pymatgen
data_Zn2H17C19NO9
_symmetry_space_group_name_H-M   'P 1'
_cell_length_a   7.70831000
_cell_length_b   10.86890000
_cell_length_c   12.47070000
_cell_angle_alpha   107.94700000
_cell_angle_beta   91.54340000
_cell_angle_gamma   101.25200000
_symmetry_Int_Tables_number   1
_chemical_formula_structural   Zn2H17C19NO9
_chemical_formula_sum   'Zn4 H34 C38 N2 O18'
_cell_volume   970.60925226
_cell_formula_units_Z   2
loop_
 _symmetry_equiv_pos_site_id
 _symmetry_equiv_pos_as_xyz
  1  'x, y, z'
loop_
 _atom_site_type_symbol
 _atom_site_label
 _atom_site_symmetry_multiplicity
 _atom_site_fract_x
 _atom_site_fract_y
 _atom_site_fract_z
 _atom_site_occupancy
  Zn  Zn0  1  0.14729000  0.50170000  0.10420000  1.0
  Zn  Zn1  1  0.85271000  0.49830000  0.89580000  1.0
  Zn  Zn2  1  0.51078000  0.65097000  0.04043000  1.0
  Zn  Zn3  1  0.48922000  0.34903000  0.95957000  1.0
  H  H4  1  0.25246000  0.47884000  0.91352000  1.0
  H  H5  1  0.74754000  0.52116000  0.08648000  1.0
  H  H6  1  0.78076000  0.80427000  0.38748000  1.0
  H  H7  1  0.21924000  0.19572000  0.61252000  1.0
  H  H8  1  0.85762000  0.93423000  0.59330000  1.0
  H  H9  1  0.14238000  0.06577000  0.40670000  1.0
  H  H10  1  0.62132000  0.98399000  0.71881000  1.0
  H  H11  1  0.37868000  0.01601000  0.28119000  1.0
  H  H12  1  0.22570000  0.76756000  0.43860000  1.0
  H  H13  1  0.77430000  0.23245000  0.56140000  1.0
  H  H14  1  0.37657000  0.08048000  0.76813000  1.0
  H  H15  1  0.62343000  0.91952000  0.23188000  1.0
  H  H16  1  0.38004000  0.93909000  0.81201000  1.0
  H  H17  1  0.61996000  0.06091000  0.18799000  1.0
  H  H18  1  0.06828000  0.78448000  0.80270000  1.0
  H  H19  1  0.93172000  0.21551000  0.19730000  1.0
  H  H20  1  0.67690000  0.00307000  0.94617000  1.0
  H  H21  1  0.32311000  0.99693000  0.05383000  1.0
  H  H22  1  0.14121000  0.19729000  0.83096000  1.0
  H  H23  1  0.85879000  0.80270000  0.16904000  1.0
  H  H24  1  0.02927000  0.57881000  0.34611000  1.0
  H  H25  1  0.97073000  0.42119000  0.65388000  1.0
  H  H26  1  0.50026000  0.46304000  0.29372000  1.0
  H  H27  1  0.49974000  0.53696000  0.70628000  1.0
  H  H28  1  0.55503000  0.32864000  0.33159000  1.0
  H  H29  1  0.44497000  0.67136000  0.66841000  1.0
  H  H30  1  0.62031000  0.35527000  0.20242000  1.0
  H  H31  1  0.37969000  0.64473000  0.79758000  1.0
  H  H32  1  0.91362000  0.59772000  0.50659000  1.0
  H  H33  1  0.08638000  0.40228000  0.49341000  1.0
  H  H34  1  0.75228000  0.45426000  0.50723000  1.0
  H  H35  1  0.24773000  0.54574000  0.49277000  1.0
  H  H36  1  0.68389000  0.59992000  0.50004000  1.0
  H  H37  1  0.31611000  0.40008000  0.49996000  1.0
  C  C38  1  0.44546000  0.69703000  0.27932000  1.0
  C  C39  1  0.55453000  0.30297000  0.72068000  1.0
  C  C40  1  0.49820000  0.77476000  0.40150000  1.0
  C  C41  1  0.50180000  0.22524000  0.59850000  1.0
  C  C42  1  0.67734000  0.82362000  0.44434000  1.0
  C  C43  1  0.32266000  0.17638000  0.55566000  1.0
  C  C44  1  0.71902000  0.89672000  0.55857000  1.0
  C  C45  1  0.28097000  0.10328000  0.44143000  1.0
  C  C46  1  0.58535000  0.92445000  0.63048000  1.0
  C  C47  1  0.41464000  0.07555000  0.36952000  1.0
  C  C48  1  0.40672000  0.87663000  0.58685000  1.0
  C  C49  1  0.59328000  0.12337000  0.41315000  1.0
  C  C50  1  0.36440000  0.80128000  0.47273000  1.0
  C  C51  1  0.63559000  0.19872000  0.52727000  1.0
  C  C52  1  0.30071000  0.98249000  0.76419000  1.0
  C  C53  1  0.69929000  0.01751000  0.23581000  1.0
  C  C54  1  0.12476000  0.99020000  0.81104000  1.0
  C  C55  1  0.87524000  0.00979000  0.18896000  1.0
  C  C56  1  0.02195000  0.87696000  0.82571000  1.0
  C  C57  1  0.97805000  0.12303000  0.17429000  1.0
  C  C58  1  0.86037000  0.88033000  0.87377000  1.0
  C  C59  1  0.13963000  0.11967000  0.12624000  1.0
  C  C60  1  0.80095000  0.99868000  0.90689000  1.0
  C  C61  1  0.19905000  0.00132000  0.09311000  1.0
  C  C62  1  0.90168000  0.11276000  0.89089000  1.0
  C  C63  1  0.09832000  0.88724000  0.10911000  1.0
  C  C64  1  0.06318000  0.10803000  0.84255000  1.0
  C  C65  1  0.93681000  0.89196000  0.15745000  1.0
  C  C66  1  0.83224000  0.23764000  0.92464000  1.0
  C  C67  1  0.16776000  0.76236000  0.07536000  1.0
  C  C68  1  0.76238000  0.75804000  0.89493000  1.0
  C  C69  1  0.23762000  0.24196000  0.10507000  1.0
  C  C70  1  0.90659000  0.51928000  0.29312000  1.0
  C  C71  1  0.09341000  0.48072000  0.70688000  1.0
  C  C72  1  0.60149000  0.40389000  0.29088000  1.0
  C  C73  1  0.39851000  0.59611000  0.70912000  1.0
  C  C74  1  0.78075000  0.53715000  0.47286000  1.0
  C  C75  1  0.21925000  0.46285000  0.52714000  1.0
  N  N76  1  0.76998000  0.48685000  0.34975000  1.0
  N  N77  1  0.23002000  0.51315000  0.65025000  1.0
  O  O78  1  0.32007000  0.48261000  0.98290000  1.0
  O  O79  1  0.67993000  0.51739000  0.01710000  1.0
  O  O80  1  0.28372000  0.63725000  0.25234000  1.0
  O  O81  1  0.71628000  0.36275000  0.74766000  1.0
  O  O82  1  0.56648000  0.69696000  0.21117000  1.0
  O  O83  1  0.43352000  0.30304000  0.78883000  1.0
  O  O84  1  0.26465000  0.89724000  0.64764000  1.0
  O  O85  1  0.73535000  0.10276000  0.35236000  1.0
  O  O86  1  0.66692000  0.22289000  0.93363000  1.0
  O  O87  1  0.33308000  0.77711000  0.06637000  1.0
  O  O88  1  0.94263000  0.34833000  0.93967000  1.0
  O  O89  1  0.05737000  0.65166000  0.06033000  1.0
  O  O90  1  0.63810000  0.77076000  0.96041000  1.0
  O  O91  1  0.36191000  0.22924000  0.03959000  1.0
  O  O92  1  0.81200000  0.65137000  0.84533000  1.0
  O  O93  1  0.18800000  0.34863000  0.15467000  1.0
  O  O94  1  0.90187000  0.48514000  0.18679000  1.0
  O  O95  1  0.09813000  0.51486000  0.81321000  1.0
