# generated using pymatgen
data_Cd3H16C22(SN5)6
_symmetry_space_group_name_H-M   'P 1'
_cell_length_a   6.97939000
_cell_length_b   10.60650000
_cell_length_c   13.80370000
_cell_angle_alpha   88.31840000
_cell_angle_beta   80.94860000
_cell_angle_gamma   81.18720000
_symmetry_Int_Tables_number   1
_chemical_formula_structural   Cd3H16C22(SN5)6
_chemical_formula_sum   'Cd3 H16 C22 S6 N30'
_cell_volume   997.19281367
_cell_formula_units_Z   1
loop_
 _symmetry_equiv_pos_site_id
 _symmetry_equiv_pos_as_xyz
  1  'x, y, z'
loop_
 _atom_site_type_symbol
 _atom_site_label
 _atom_site_symmetry_multiplicity
 _atom_site_fract_x
 _atom_site_fract_y
 _atom_site_fract_z
 _atom_site_occupancy
  Cd  Cd0  1  0.74418000  0.37528000  0.40947000  1.0
  Cd  Cd1  1  0.25580000  0.62473000  0.59053000  1.0
  Cd  Cd2  1  0.00000000  0.00000000  0.00000000  1.0
  H  H3  1  0.56848000  0.27710000  0.65446000  1.0
  H  H4  1  0.43152000  0.72291000  0.34554000  1.0
  H  H5  1  0.16256000  0.09571000  0.53001000  1.0
  H  H6  1  0.83744000  0.90429000  0.46999000  1.0
  H  H7  1  0.09859000  0.21811000  0.80047000  1.0
  H  H8  1  0.90141000  0.78189000  0.19954000  1.0
  H  H9  1  0.51052000  0.91594000  0.65995000  1.0
  H  H10  1  0.48948000  0.08406000  0.34005000  1.0
  H  H11  1  0.65938000  0.36035000  0.04078000  1.0
  H  H12  1  0.34062000  0.63965000  0.95921000  1.0
  H  H13  1  0.28466000  0.33206000  0.31224000  1.0
  H  H14  1  0.71535000  0.66794000  0.68776000  1.0
  H  H15  1  0.32798000  0.10222000  0.12334000  1.0
  H  H16  1  0.67203000  0.89777000  0.87666000  1.0
  H  H17  1  0.14292000  0.49359000  0.06134000  1.0
  H  H18  1  0.85708000  0.50640000  0.93867000  1.0
  C  C19  1  0.48688000  0.24734000  0.60037000  1.0
  C  C20  1  0.51312000  0.75266000  0.39963000  1.0
  C  C21  1  0.27631000  0.15356000  0.53520000  1.0
  C  C22  1  0.72369000  0.84644000  0.46480000  1.0
  C  C23  1  0.19060000  0.12612000  0.78823000  1.0
  C  C24  1  0.80940000  0.87388000  0.21177000  1.0
  C  C25  1  0.40429000  0.96893000  0.71591000  1.0
  C  C26  1  0.59571000  0.03107000  0.28409000  1.0
  C  C27  1  0.60628000  0.36509000  0.11901000  1.0
  C  C28  1  0.39372000  0.63491000  0.88099000  1.0
  C  C29  1  0.40956000  0.35060000  0.25930000  1.0
  C  C30  1  0.59044000  0.64940000  0.74070000  1.0
  C  C31  1  0.24717000  0.18803000  0.09609000  1.0
  C  C32  1  0.75283000  0.81197000  0.90391000  1.0
  C  C33  1  0.15259000  0.39030000  0.06207000  1.0
  C  C34  1  0.84742000  0.60970000  0.93793000  1.0
  C  C35  1  0.33939000  0.80373000  0.10205000  1.0
  C  C36  1  0.66062000  0.19627000  0.89795000  1.0
  C  C37  1  0.03529000  0.09495000  0.35699000  1.0
  C  C38  1  0.96469000  0.90507000  0.64301000  1.0
  C  C39  1  0.08565000  0.56064000  0.38792000  1.0
  C  C40  1  0.91435000  0.43935000  0.61208000  1.0
  S  S41  1  0.44645000  0.67809000  0.15277000  1.0
  S  S42  1  0.55356000  0.32191000  0.84723000  1.0
  S  S43  1  0.14549000  0.94977000  0.34219000  1.0
  S  S44  1  0.85451000  0.05024000  0.65781000  1.0
  S  S45  1  0.94412000  0.54533000  0.30667000  1.0
  S  S46  1  0.05589000  0.45467000  0.69332000  1.0
  N  N47  1  0.49085000  0.28391000  0.50822000  1.0
  N  N48  1  0.50914000  0.71609000  0.49179000  1.0
  N  N49  1  0.35926000  0.22488000  0.46683000  1.0
  N  N50  1  0.64074000  0.77511000  0.53317000  1.0
  N  N51  1  0.35269000  0.16476000  0.62008000  1.0
  N  N52  1  0.64731000  0.83524000  0.37993000  1.0
  N  N53  1  0.31884000  0.09320000  0.70385000  1.0
  N  N54  1  0.68116000  0.90680000  0.29615000  1.0
  N  N55  1  0.20070000  0.02739000  0.84778000  1.0
  N  N56  1  0.79930000  0.97261000  0.15222000  1.0
  N  N57  1  0.33474000  0.92814000  0.80280000  1.0
  N  N58  1  0.66526000  0.07186000  0.19720000  1.0
  N  N59  1  0.70142000  0.38933000  0.18912000  1.0
  N  N60  1  0.29859000  0.61066000  0.81088000  1.0
  N  N61  1  0.57748000  0.37980000  0.27694000  1.0
  N  N62  1  0.42252000  0.62019000  0.72306000  1.0
  N  N63  1  0.42202000  0.34186000  0.15985000  1.0
  N  N64  1  0.57798000  0.65813000  0.84015000  1.0
  N  N65  1  0.28085000  0.30941000  0.11031000  1.0
  N  N66  1  0.71916000  0.69058000  0.88969000  1.0
  N  N67  1  0.10508000  0.19531000  0.04328000  1.0
  N  N68  1  0.89493000  0.80468000  0.95672000  1.0
  N  N69  1  0.04597000  0.32225000  0.02081000  1.0
  N  N70  1  0.95403000  0.67774000  0.97919000  1.0
  N  N71  1  0.26481000  0.89499000  0.06239000  1.0
  N  N72  1  0.73519000  0.10501000  0.93761000  1.0
  N  N73  1  0.95715000  0.20212000  0.36855000  1.0
  N  N74  1  0.04283000  0.79789000  0.63145000  1.0
  N  N75  1  0.19573000  0.56697000  0.44393000  1.0
  N  N76  1  0.80427000  0.43303000  0.55608000  1.0
