# generated using pymatgen
data_CuH22C19S2BrO2
_symmetry_space_group_name_H-M   'P 1'
_cell_length_a   8.94756000
_cell_length_b   11.01000000
_cell_length_c   11.16780000
_cell_angle_alpha   104.44700000
_cell_angle_beta   95.02360000
_cell_angle_gamma   96.87510000
_symmetry_Int_Tables_number   1
_chemical_formula_structural   CuH22C19S2BrO2
_chemical_formula_sum   'Cu2 H44 C38 S4 Br2 O4'
_cell_volume   1049.80037434
_cell_formula_units_Z   2
loop_
 _symmetry_equiv_pos_site_id
 _symmetry_equiv_pos_as_xyz
  1  'x, y, z'
loop_
 _atom_site_type_symbol
 _atom_site_label
 _atom_site_symmetry_multiplicity
 _atom_site_fract_x
 _atom_site_fract_y
 _atom_site_fract_z
 _atom_site_occupancy
  Cu  Cu0  1  0.62163000  0.94185000  0.03098000  1.0
  Cu  Cu1  1  0.37840000  0.05813000  0.96903000  1.0
  H  H2  1  0.88333000  0.63157000  0.35212000  1.0
  H  H3  1  0.11666000  0.36843000  0.64788000  1.0
  H  H4  1  0.76632000  0.73147000  0.44054000  1.0
  H  H5  1  0.23368000  0.26855000  0.55946000  1.0
  H  H6  1  0.69805000  0.49361000  0.40947000  1.0
  H  H7  1  0.30194000  0.50640000  0.59053000  1.0
  H  H8  1  0.87043000  0.49757000  0.50616000  1.0
  H  H9  1  0.12956000  0.50244000  0.49384000  1.0
  H  H10  1  0.70112000  0.34010000  0.51100000  1.0
  H  H11  1  0.29888000  0.65991000  0.48901000  1.0
  H  H12  1  0.57544000  0.18259000  0.60327000  1.0
  H  H13  1  0.42456000  0.81742000  0.39673000  1.0
  H  H14  1  0.43226000  0.24934000  0.78533000  1.0
  H  H15  1  0.56774000  0.75066000  0.21467000  1.0
  H  H16  1  0.42127000  0.47866000  0.87331000  1.0
  H  H17  1  0.57872000  0.52134000  0.12669000  1.0
  H  H18  1  0.42835000  0.69498000  0.80763000  1.0
  H  H19  1  0.57165000  0.30503000  0.19239000  1.0
  H  H20  1  0.59639000  0.74113000  0.74700000  1.0
  H  H21  1  0.40361000  0.25887000  0.25301000  1.0
  H  H22  1  0.88540000  0.74351000  0.04091000  1.0
  H  H23  1  0.11461000  0.25648000  0.95908000  1.0
  H  H24  1  0.83834000  0.61666000  0.90367000  1.0
  H  H25  1  0.16168000  0.38332000  0.09633000  1.0
  H  H26  1  0.85111000  0.88859000  0.88199000  1.0
  H  H27  1  0.14888000  0.11140000  0.11801000  1.0
  H  H28  1  0.88964000  0.75550000  0.77022000  1.0
  H  H29  1  0.11036000  0.24449000  0.22977000  1.0
  H  H30  1  0.13875000  0.76239000  0.90859000  1.0
  H  H31  1  0.86125000  0.23761000  0.09141000  1.0
  H  H32  1  0.09181000  0.89309000  0.01742000  1.0
  H  H33  1  0.90818000  0.10691000  0.98257000  1.0
  H  H34  1  0.35240000  0.84863000  0.72948000  1.0
  H  H35  1  0.64760000  0.15137000  0.27052000  1.0
  H  H36  1  0.16953000  0.75049000  0.69915000  1.0
  H  H37  1  0.83047000  0.24951000  0.30084000  1.0
  H  H38  1  0.39714000  0.02412000  0.62972000  1.0
  H  H39  1  0.60286000  0.97588000  0.37028000  1.0
  H  H40  1  0.34841000  0.09291000  0.43378000  1.0
  H  H41  1  0.65160000  0.90710000  0.56621000  1.0
  H  H42  1  0.11740000  0.99059000  0.28515000  1.0
  H  H43  1  0.88260000  0.00942000  0.71485000  1.0
  H  H44  1  0.94041000  0.82246000  0.32747000  1.0
  H  H45  1  0.05959000  0.17755000  0.67253000  1.0
  C  C46  1  0.84950000  0.66648000  0.44591000  1.0
  C  C47  1  0.15049000  0.33353000  0.55409000  1.0
  C  C48  1  0.78142000  0.55352000  0.48627000  1.0
  C  C49  1  0.21857000  0.44649000  0.51373000  1.0
  C  C50  1  0.63503000  0.50160000  0.64026000  1.0
  C  C51  1  0.36496000  0.49840000  0.35975000  1.0
  C  C52  1  0.63942000  0.37211000  0.58979000  1.0
  C  C53  1  0.36057000  0.62789000  0.41021000  1.0
  C  C54  1  0.56645000  0.28217000  0.64176000  1.0
  C  C55  1  0.43355000  0.71783000  0.35824000  1.0
  C  C56  1  0.48647000  0.31954000  0.74320000  1.0
  C  C57  1  0.51353000  0.68046000  0.25681000  1.0
  C  C58  1  0.48098000  0.44809000  0.79226000  1.0
  C  C59  1  0.51901000  0.55191000  0.20775000  1.0
  C  C60  1  0.55403000  0.54098000  0.74271000  1.0
  C  C61  1  0.44597000  0.45902000  0.25730000  1.0
  C  C62  1  0.54622000  0.67835000  0.79967000  1.0
  C  C63  1  0.45378000  0.32165000  0.20034000  1.0
  C  C64  1  0.83122000  0.71746000  0.94384000  1.0
  C  C65  1  0.16880000  0.28253000  0.05615000  1.0
  C  C66  1  0.90664000  0.80296000  0.87042000  1.0
  C  C67  1  0.09336000  0.19703000  0.12958000  1.0
  C  C68  1  0.07476000  0.84284000  0.91778000  1.0
  C  C69  1  0.92524000  0.15717000  0.08222000  1.0
  C  C70  1  0.23003000  0.84504000  0.70588000  1.0
  C  C71  1  0.76996000  0.15497000  0.29412000  1.0
  C  C72  1  0.19865000  0.88434000  0.58857000  1.0
  C  C73  1  0.80135000  0.11566000  0.41143000  1.0
  C  C74  1  0.29709000  0.98061000  0.56264000  1.0
  C  C75  1  0.70291000  0.01939000  0.43736000  1.0
  C  C76  1  0.26966000  0.01919000  0.45391000  1.0
  C  C77  1  0.73034000  0.98082000  0.54609000  1.0
  C  C78  1  0.14142000  0.96083000  0.36990000  1.0
  C  C79  1  0.85858000  0.03918000  0.63010000  1.0
  C  C80  1  0.04148000  0.86436000  0.39317000  1.0
  C  C81  1  0.95852000  0.13565000  0.60683000  1.0
  C  C82  1  0.06989000  0.82586000  0.50226000  1.0
  C  C83  1  0.93011000  0.17415000  0.49774000  1.0
  S  S84  1  0.63384000  0.73227000  0.96186000  1.0
  S  S85  1  0.36618000  0.26771000  0.03815000  1.0
  S  S86  1  0.16694000  0.95350000  0.84065000  1.0
  S  S87  1  0.83307000  0.04650000  0.15935000  1.0
  Br  Br88  1  0.40176000  0.96276000  0.14907000  1.0
  Br  Br89  1  0.59826000  0.03712000  0.85090000  1.0
  O  O90  1  0.97974000  0.73042000  0.53243000  1.0
  O  O91  1  0.02027000  0.26958000  0.46757000  1.0
  O  O92  1  0.70697000  0.59493000  0.59465000  1.0
  O  O93  1  0.29302000  0.40507000  0.40536000  1.0
