# generated using pymatgen
data_ZnH4C20I4(NO7)2
_symmetry_space_group_name_H-M   'P 1'
_cell_length_a   7.75807000
_cell_length_b   8.90088000
_cell_length_c   23.36280000
_cell_angle_alpha   91.87890000
_cell_angle_beta   93.24610000
_cell_angle_gamma   90.63270000
_symmetry_Int_Tables_number   1
_chemical_formula_structural   ZnH4C20I4(NO7)2
_chemical_formula_sum   'Zn2 H8 C40 I8 N4 O28'
_cell_volume   1609.69765607
_cell_formula_units_Z   2
loop_
 _symmetry_equiv_pos_site_id
 _symmetry_equiv_pos_as_xyz
  1  'x, y, z'
loop_
 _atom_site_type_symbol
 _atom_site_label
 _atom_site_symmetry_multiplicity
 _atom_site_fract_x
 _atom_site_fract_y
 _atom_site_fract_z
 _atom_site_occupancy
  Zn  Zn0  1  0.29532000  0.47935000  0.49382000  1.0
  Zn  Zn1  1  0.64841000  0.52686000  0.50279000  1.0
  H  H2  1  0.40018000  0.93889000  0.35534000  1.0
  H  H3  1  0.63623000  0.07528000  0.67795000  1.0
  H  H4  1  0.67432000  0.04866000  0.33230000  1.0
  H  H5  1  0.32917000  0.94340000  0.61992000  1.0
  H  H6  1  0.40681000  0.10286000  0.13383000  1.0
  H  H7  1  0.64690000  0.01064000  0.82366000  1.0
  H  H8  1  0.93392000  0.03138000  0.54918000  1.0
  H  H9  1  0.00211000  0.98881000  0.45356000  1.0
  C  C10  1  0.49517000  0.21737000  0.49574000  1.0
  C  C11  1  0.49668000  0.67646000  0.69600000  1.0
  C  C12  1  0.49760000  0.35416000  0.23448000  1.0
  C  C13  1  0.52633000  0.70401000  0.75531000  1.0
  C  C14  1  0.53536000  0.48609000  0.20629000  1.0
  C  C15  1  0.53616000  0.58441000  0.79233000  1.0
  C  C16  1  0.53297000  0.05418000  0.50030000  1.0
  C  C17  1  0.40360000  0.95272000  0.50096000  1.0
  C  C18  1  0.48833000  0.51050000  0.38881000  1.0
  C  C19  1  0.48743000  0.50109000  0.60946000  1.0
  C  C20  1  0.43516000  0.68480000  0.88215000  1.0
  C  C21  1  0.43450000  0.78775000  0.50289000  1.0
  C  C22  1  0.69479000  0.44563000  0.12078000  1.0
  C  C23  1  0.72249000  0.56140000  0.87790000  1.0
  C  C24  1  0.39926000  0.55547000  0.11657000  1.0
  C  C25  1  0.72338000  0.53330000  0.94037000  1.0
  C  C26  1  0.43359000  0.61899000  0.06055000  1.0
  C  C27  1  0.58465000  0.59239000  0.97161000  1.0
  C  C28  1  0.57393000  0.55935000  0.03050000  1.0
  C  C29  1  0.46006000  0.68934000  0.94556000  1.0
  C  C30  1  0.69964000  0.46484000  0.05762000  1.0
  C  C31  1  0.85011000  0.44592000  0.96803000  1.0
  C  C32  1  0.56631000  0.62293000  0.23732000  1.0
  C  C33  1  0.33288000  0.73395000  0.03722000  1.0
  C  C34  1  0.83233000  0.40432000  0.02609000  1.0
  C  C35  1  0.35114000  0.77413000  0.97964000  1.0
  C  C36  1  0.54859000  0.78527000  0.32646000  1.0
  C  C37  1  0.49726000  0.24977000  0.68411000  1.0
  C  C38  1  0.50832000  0.21084000  0.32594000  1.0
  C  C39  1  0.48973000  0.81415000  0.65988000  1.0
  C  C40  1  0.44255000  0.20862000  0.20451000  1.0
  C  C41  1  0.52659000  0.86421000  0.77629000  1.0
  C  C42  1  0.72336000  0.02004000  0.50108000  1.0
  C  C43  1  0.51219000  0.43676000  0.77028000  1.0
  C  C44  1  0.21449000  0.99090000  0.50092000  1.0
  C  C45  1  0.53983000  0.63220000  0.29609000  1.0
  C  C46  1  0.49966000  0.40680000  0.71093000  1.0
  C  C47  1  0.50509000  0.49908000  0.32486000  1.0
  C  C48  1  0.49070000  0.52846000  0.67378000  1.0
  C  C49  1  0.49567000  0.35941000  0.29512000  1.0
  I  I50  1  0.07391000  0.37974000  0.92615000  1.0
  I  I51  1  0.15817000  0.85139000  0.08833000  1.0
  I  I52  1  0.99556000  0.23806000  0.06025000  1.0
  I  I53  1  0.22661000  0.96536000  0.94728000  1.0
  I  I54  1  0.65324000  0.81017000  0.19337000  1.0
  I  I55  1  0.46738000  0.26913000  0.82991000  1.0
  I  I56  1  0.99235000  0.67164000  0.58034000  1.0
  I  I57  1  0.94661000  0.34294000  0.40629000  1.0
  N  N58  1  0.56284000  0.60995000  0.85301000  1.0
  N  N59  1  0.54214000  0.49067000  0.14523000  1.0
  N  N60  1  0.91502000  0.53425000  0.50823000  1.0
  N  N61  1  0.02737000  0.47303000  0.48091000  1.0
  O  O62  1  0.34007000  0.25782000  0.49961000  1.0
  O  O63  1  0.81297000  0.39715000  0.15165000  1.0
  O  O64  1  0.84126000  0.53646000  0.84683000  1.0
  O  O65  1  0.25974000  0.55900000  0.13868000  1.0
  O  O66  1  0.68210000  0.86168000  0.33072000  1.0
  O  O67  1  0.39567000  0.82944000  0.34323000  1.0
  O  O68  1  0.37869000  0.20080000  0.65171000  1.0
  O  O69  1  0.64255000  0.17706000  0.69800000  1.0
  O  O70  1  0.39877000  0.15058000  0.35360000  1.0
  O  O71  1  0.66750000  0.15656000  0.31954000  1.0
  O  O72  1  0.61914000  0.89265000  0.65500000  1.0
  O  O73  1  0.58376000  0.74453000  0.51960000  1.0
  O  O74  1  0.33310000  0.84227000  0.63664000  1.0
  O  O75  1  0.38153000  0.10450000  0.22995000  1.0
  O  O76  1  0.45815000  0.20071000  0.14691000  1.0
  O  O77  1  0.42066000  0.95201000  0.75698000  1.0
  O  O78  1  0.65498000  0.90126000  0.81602000  1.0
  O  O79  1  0.79362000  0.98555000  0.45626000  1.0
  O  O80  1  0.80405000  0.04496000  0.55171000  1.0
  O  O81  1  0.14501000  0.00751000  0.54738000  1.0
  O  O82  1  0.13323000  0.98620000  0.45007000  1.0
  O  O83  1  0.62477000  0.30161000  0.48821000  1.0
  O  O84  1  0.30439000  0.70527000  0.48726000  1.0
  O  O85  1  0.35198000  0.45848000  0.40798000  1.0
  O  O86  1  0.63412000  0.48417000  0.58896000  1.0
  O  O87  1  0.61528000  0.57269000  0.41768000  1.0
  O  O88  1  0.34287000  0.50364000  0.58184000  1.0
  O  O89  1  0.30765000  0.73315000  0.85554000  1.0
