# generated using pymatgen
data_NiP2H18C20(NO2)3
_symmetry_space_group_name_H-M   'P 1'
_cell_length_a   10.80180000
_cell_length_b   10.94230000
_cell_length_c   11.22630000
_cell_angle_alpha   64.02660000
_cell_angle_beta   66.24730000
_cell_angle_gamma   72.53970000
_symmetry_Int_Tables_number   1
_chemical_formula_structural   NiP2H18C20(NO2)3
_chemical_formula_sum   'Ni2 P4 H36 C40 N6 O12'
_cell_volume   1079.44555320
_cell_formula_units_Z   2
loop_
 _symmetry_equiv_pos_site_id
 _symmetry_equiv_pos_as_xyz
  1  'x, y, z'
loop_
 _atom_site_type_symbol
 _atom_site_label
 _atom_site_symmetry_multiplicity
 _atom_site_fract_x
 _atom_site_fract_y
 _atom_site_fract_z
 _atom_site_occupancy
  Ni  Ni0  1  0.06804000  0.02602000  0.24573000  1.0
  Ni  Ni1  1  0.93196000  0.97398000  0.75427000  1.0
  P  P2  1  0.85681000  0.67936000  0.00400000  1.0
  P  P3  1  0.14319000  0.32064000  0.99599000  1.0
  P  P4  1  0.87957000  0.84152000  0.56737000  1.0
  P  P5  1  0.12042000  0.15848000  0.43263000  1.0
  H  H6  1  0.04651000  0.54602000  0.05569000  1.0
  H  H7  1  0.95350000  0.45398000  0.94431000  1.0
  H  H8  1  0.89640000  0.65831000  0.76197000  1.0
  H  H9  1  0.10360000  0.34169000  0.23803000  1.0
  H  H10  1  0.31531000  0.84059000  0.34168000  1.0
  H  H11  1  0.68469000  0.15941000  0.65833000  1.0
  H  H12  1  0.41542000  0.59205000  0.36948000  1.0
  H  H13  1  0.58458000  0.40795000  0.63053000  1.0
  H  H14  1  0.35480000  0.48548000  0.24563000  1.0
  H  H15  1  0.64520000  0.51452000  0.75437000  1.0
  H  H16  1  0.21209000  0.63070000  0.09019000  1.0
  H  H17  1  0.78791000  0.36931000  0.90981000  1.0
  H  H18  1  0.63575000  0.20549000  0.11712000  1.0
  H  H19  1  0.36425000  0.79451000  0.88288000  1.0
  H  H20  1  0.50229000  0.31126000  0.29818000  1.0
  H  H21  1  0.49771000  0.68875000  0.70182000  1.0
  H  H22  1  0.61584000  0.30936000  0.45351000  1.0
  H  H23  1  0.38415000  0.69063000  0.54650000  1.0
  H  H24  1  0.86117000  0.19649000  0.42503000  1.0
  H  H25  1  0.13883000  0.80351000  0.57497000  1.0
  H  H26  1  0.65171000  0.79588000  0.66706000  1.0
  H  H27  1  0.34829000  0.20412000  0.33293000  1.0
  H  H28  1  0.66611000  0.95534000  0.52733000  1.0
  H  H29  1  0.33389000  0.04466000  0.47267000  1.0
  H  H30  1  0.85661000  0.60257000  0.52504000  1.0
  H  H31  1  0.14339000  0.39743000  0.47496000  1.0
  H  H32  1  0.57542000  0.95533000  0.36950000  1.0
  H  H33  1  0.42459000  0.04467000  0.63049000  1.0
  H  H34  1  0.85778000  0.50568000  0.36355000  1.0
  H  H35  1  0.14222000  0.49432000  0.63644000  1.0
  H  H36  1  0.58002000  0.86077000  0.20316000  1.0
  H  H37  1  0.41999000  0.13924000  0.79683000  1.0
  H  H38  1  0.62700000  0.64939000  0.14563000  1.0
  H  H39  1  0.37300000  0.35062000  0.85436000  1.0
  H  H40  1  0.74604000  0.50661000  0.20896000  1.0
  H  H41  1  0.25396000  0.49339000  0.79104000  1.0
  C  C42  1  0.29927000  0.78911000  0.28615000  1.0
  C  C43  1  0.70072000  0.21089000  0.71386000  1.0
  C  C44  1  0.35318000  0.65240000  0.30089000  1.0
  C  C45  1  0.64681000  0.34759000  0.69912000  1.0
  C  C46  1  0.32128000  0.59400000  0.23045000  1.0
  C  C47  1  0.67872000  0.40600000  0.76955000  1.0
  C  C48  1  0.24206000  0.67455000  0.14303000  1.0
  C  C49  1  0.75794000  0.32546000  0.85697000  1.0
  C  C50  1  0.19500000  0.81186000  0.13082000  1.0
  C  C51  1  0.80500000  0.18814000  0.86919000  1.0
  C  C52  1  0.10010000  0.90637000  0.05285000  1.0
  C  C53  1  0.89991000  0.09362000  0.94715000  1.0
  C  C54  1  0.90934000  0.08159000  0.07326000  1.0
  C  C55  1  0.09066000  0.91841000  0.92674000  1.0
  C  C56  1  0.82074000  0.15277000  0.17086000  1.0
  C  C57  1  0.17926000  0.84723000  0.82914000  1.0
  C  C58  1  0.68376000  0.20929000  0.18374000  1.0
  C  C59  1  0.31624000  0.79071000  0.81626000  1.0
  C  C60  1  0.60939000  0.26734000  0.28516000  1.0
  C  C61  1  0.39061000  0.73266000  0.71484000  1.0
  C  C62  1  0.67222000  0.26561000  0.37265000  1.0
  C  C63  1  0.32778000  0.73438000  0.62736000  1.0
  C  C64  1  0.80820000  0.20411000  0.35686000  1.0
  C  C65  1  0.19180000  0.79589000  0.64314000  1.0
  C  C66  1  0.71288000  0.84663000  0.55805000  1.0
  C  C67  1  0.28711000  0.15337000  0.44195000  1.0
  C  C68  1  0.71401000  0.78509000  0.46104000  1.0
  C  C69  1  0.28599000  0.21491000  0.53895000  1.0
  C  C70  1  0.79271000  0.65797000  0.45742000  1.0
  C  C71  1  0.20729000  0.34203000  0.54257000  1.0
  C  C72  1  0.63678000  0.85594000  0.36906000  1.0
  C  C73  1  0.36323000  0.14406000  0.63094000  1.0
  C  C74  1  0.79308000  0.60338000  0.36601000  1.0
  C  C75  1  0.20692000  0.39662000  0.63399000  1.0
  C  C76  1  0.63790000  0.80225000  0.27646000  1.0
  C  C77  1  0.36211000  0.19775000  0.72354000  1.0
  C  C78  1  0.71560000  0.67464000  0.27417000  1.0
  C  C79  1  0.28440000  0.32536000  0.72583000  1.0
  C  C80  1  0.72312000  0.61937000  0.17014000  1.0
  C  C81  1  0.27688000  0.38063000  0.82985000  1.0
  N  N82  1  0.22033000  0.86594000  0.20517000  1.0
  N  N83  1  0.77967000  0.13406000  0.79484000  1.0
  N  N84  1  0.01067000  0.99008000  0.11896000  1.0
  N  N85  1  0.98933000  0.00992000  0.88104000  1.0
  N  N86  1  0.88064000  0.14956000  0.25823000  1.0
  N  N87  1  0.11935000  0.85044000  0.74177000  1.0
  O  O88  1  0.82141000  0.83333000  0.93706000  1.0
  O  O89  1  0.17859000  0.16667000  0.06294000  1.0
  O  O90  1  0.84993000  0.93757000  0.64402000  1.0
  O  O91  1  0.15007000  0.06243000  0.35598000  1.0
  O  O92  1  0.98480000  0.86917000  0.42359000  1.0
  O  O93  1  0.01520000  0.13083000  0.57641000  1.0
  O  O94  1  0.99359000  0.64490000  0.04115000  1.0
  O  O95  1  0.00642000  0.35510000  0.95884000  1.0
  O  O96  1  0.86833000  0.59346000  0.92077000  1.0
  O  O97  1  0.13167000  0.40654000  0.07923000  1.0
  O  O98  1  0.92620000  0.68586000  0.65575000  1.0
  O  O99  1  0.07379000  0.31414000  0.34425000  1.0
