# generated using pymatgen
data_CoP2H12(C3O)4
_symmetry_space_group_name_H-M   'P 1'
_cell_length_a   8.13417000
_cell_length_b   9.46989000
_cell_length_c   9.47082000
_cell_angle_alpha   68.82810000
_cell_angle_beta   75.37910000
_cell_angle_gamma   75.36240000
_symmetry_Int_Tables_number   1
_chemical_formula_structural   CoP2H12(C3O)4
_chemical_formula_sum   'Co2 P4 H24 C24 O8'
_cell_volume   647.62690406
_cell_formula_units_Z   2
loop_
 _symmetry_equiv_pos_site_id
 _symmetry_equiv_pos_as_xyz
  1  'x, y, z'
loop_
 _atom_site_type_symbol
 _atom_site_label
 _atom_site_symmetry_multiplicity
 _atom_site_fract_x
 _atom_site_fract_y
 _atom_site_fract_z
 _atom_site_occupancy
  Co  Co0  1  0.75060000  0.55936000  0.44072000  1.0
  Co  Co1  1  0.25023000  0.44022000  0.55945000  1.0
  P  P2  1  0.98179000  0.76201000  0.47517000  1.0
  P  P3  1  0.51835000  0.52586000  0.23728000  1.0
  P  P4  1  0.01884000  0.23719000  0.52588000  1.0
  P  P5  1  0.48121000  0.47526000  0.76155000  1.0
  H  H6  1  0.08740000  0.86291000  0.36418000  1.0
  H  H7  1  0.41344000  0.63645000  0.13534000  1.0
  H  H8  1  0.91262000  0.13611000  0.63589000  1.0
  H  H9  1  0.58766000  0.36448000  0.86201000  1.0
  H  H10  1  0.69437000  0.01655000  0.42607000  1.0
  H  H11  1  0.80600000  0.57403000  0.98330000  1.0
  H  H12  1  0.30616000  0.98296000  0.57409000  1.0
  H  H13  1  0.19443000  0.42607000  0.01650000  1.0
  H  H14  1  0.50431000  0.16437000  0.59482000  1.0
  H  H15  1  0.99576000  0.40500000  0.83568000  1.0
  H  H16  1  0.49577000  0.83527000  0.40504000  1.0
  H  H17  1  0.00434000  0.59483000  0.16420000  1.0
  H  H18  1  0.54181000  0.09404000  0.86492000  1.0
  H  H19  1  0.95792000  0.13502000  0.90603000  1.0
  H  H20  1  0.45793000  0.90593000  0.13501000  1.0
  H  H21  1  0.04179000  0.86507000  0.09390000  1.0
  H  H22  1  0.77348000  0.87550000  0.96717000  1.0
  H  H23  1  0.72617000  0.03307000  0.12454000  1.0
  H  H24  1  0.22619000  0.12460000  0.03315000  1.0
  H  H25  1  0.27344000  0.96723000  0.87554000  1.0
  H  H26  1  0.97223000  0.73598000  0.79390000  1.0
  H  H27  1  0.52774000  0.20667000  0.26395000  1.0
  H  H28  1  0.02781000  0.26396000  0.20680000  1.0
  H  H29  1  0.47210000  0.79387000  0.73599000  1.0
  C  C30  1  0.84418000  0.86614000  0.60023000  1.0
  C  C31  1  0.65601000  0.40012000  0.13370000  1.0
  C  C32  1  0.15613000  0.13347000  0.40022000  1.0
  C  C33  1  0.34419000  0.60016000  0.86613000  1.0
  C  C34  1  0.71241000  0.98688000  0.54412000  1.0
  C  C35  1  0.78791000  0.45596000  0.01299000  1.0
  C  C36  1  0.28802000  0.01271000  0.45602000  1.0
  C  C37  1  0.21247000  0.54413000  0.98686000  1.0
  C  C38  1  0.60478000  0.06900000  0.63920000  1.0
  C  C39  1  0.89539000  0.36070000  0.93102000  1.0
  C  C40  1  0.39546000  0.93075000  0.36072000  1.0
  C  C41  1  0.10479000  0.63927000  0.06892000  1.0
  C  C42  1  0.62623000  0.02887000  0.79162000  1.0
  C  C43  1  0.87369000  0.20834000  0.97123000  1.0
  C  C44  1  0.37372000  0.97105000  0.20839000  1.0
  C  C45  1  0.12621000  0.79169000  0.02882000  1.0
  C  C46  1  0.75664000  0.90787000  0.84818000  1.0
  C  C47  1  0.74326000  0.15196000  0.09219000  1.0
  C  C48  1  0.24324000  0.09211000  0.15208000  1.0
  C  C49  1  0.25663000  0.84822000  0.90789000  1.0
  C  C50  1  0.86740000  0.82795000  0.75213000  1.0
  C  C51  1  0.63264000  0.24820000  0.17200000  1.0
  C  C52  1  0.13267000  0.17190000  0.24833000  1.0
  C  C53  1  0.36735000  0.75210000  0.82799000  1.0
  O  O54  1  0.87446000  0.72896000  0.38236000  1.0
  O  O55  1  0.62519000  0.61815000  0.27104000  1.0
  O  O56  1  0.12611000  0.26937000  0.61905000  1.0
  O  O57  1  0.37344000  0.38222000  0.72960000  1.0
  O  O58  1  0.09483000  0.62631000  0.57434000  1.0
  O  O59  1  0.40371000  0.42758000  0.37202000  1.0
  O  O60  1  0.90583000  0.37312000  0.42700000  1.0
  O  O61  1  0.59310000  0.57487000  0.62553000  1.0
