# generated using pymatgen
data_Zn4H11C23Br5O16
_symmetry_space_group_name_H-M   'P 1'
_cell_length_a   13.06650000
_cell_length_b   13.12210000
_cell_length_c   16.07060000
_cell_angle_alpha   79.29220000
_cell_angle_beta   80.58260000
_cell_angle_gamma   89.23450000
_symmetry_Int_Tables_number   1
_chemical_formula_structural   Zn4H11C23Br5O16
_chemical_formula_sum   'Zn4 H11 C23 Br5 O16'
_cell_volume   2670.58142663
_cell_formula_units_Z   1
loop_
 _symmetry_equiv_pos_site_id
 _symmetry_equiv_pos_as_xyz
  1  'x, y, z'
loop_
 _atom_site_type_symbol
 _atom_site_label
 _atom_site_symmetry_multiplicity
 _atom_site_fract_x
 _atom_site_fract_y
 _atom_site_fract_z
 _atom_site_occupancy
  Zn  Zn0  1  0.43414000  0.41510000  0.43736000  1.0
  Zn  Zn1  1  0.58956000  0.41996000  0.57393000  1.0
  Zn  Zn2  1  0.39035000  0.56666000  0.57064000  1.0
  Zn  Zn3  1  0.58574000  0.60723000  0.41201000  1.0
  H  H4  1  0.56299000  0.61002000  0.96575000  1.0
  H  H5  1  0.92881000  0.64985000  0.30407000  1.0
  H  H6  1  0.99757000  0.74309000  0.34427000  1.0
  H  H7  1  0.06334000  0.48987000  0.56667000  1.0
  H  H8  1  0.41707000  0.27977000  0.97105000  1.0
  H  H9  1  0.30343000  0.35873000  0.97295000  1.0
  H  H10  1  0.32374000  0.26921000  0.06782000  1.0
  H  H11  1  0.12842000  0.38104000  0.26165000  1.0
  H  H12  1  0.01935000  0.45597000  0.29685000  1.0
  H  H13  1  0.01618000  0.31747000  0.33080000  1.0
  H  H14  1  0.85850000  0.73036000  0.37156000  1.0
  C  C15  1  0.77831000  0.52596000  0.47014000  1.0
  C  C16  1  0.46086000  0.93504000  0.55474000  1.0
  C  C17  1  0.53903000  0.11208000  0.53470000  1.0
  C  C18  1  0.22369000  0.46734000  0.51361000  1.0
  C  C19  1  0.45638000  0.04724000  0.55071000  1.0
  C  C20  1  0.53441000  0.22824000  0.52394000  1.0
  C  C21  1  0.47572000  0.77482000  0.48622000  1.0
  C  C22  1  0.47771000  0.48612000  0.72886000  1.0
  C  C23  1  0.52279000  0.53353000  0.26721000  1.0
  C  C24  1  0.47198000  0.48313000  0.82003000  1.0
  C  C25  1  0.46847000  0.47578000  0.98535000  1.0
  C  C26  1  0.52382000  0.54633000  0.10062000  1.0
  C  C27  1  0.52140000  0.54863000  0.01397000  1.0
  C  C28  1  0.36172000  0.32225000  0.01061000  1.0
  C  C29  1  0.06596000  0.38750000  0.31477000  1.0
  C  C30  1  0.93117000  0.68899000  0.35858000  1.0
  C  C31  1  0.46975000  0.47999000  0.89654000  1.0
  C  C32  1  0.52580000  0.54384000  0.17679000  1.0
  C  C33  1  0.11219000  0.46208000  0.51432000  1.0
  C  C34  1  0.06410000  0.43178000  0.45359000  1.0
  C  C35  1  0.89530000  0.52295000  0.45437000  1.0
  C  C36  1  0.94959000  0.43421000  0.46462000  1.0
  C  C37  1  0.46889000  0.88941000  0.48566000  1.0
  Br  Br38  1  0.47552000  0.97158000  0.37459000  1.0
  Br  Br39  1  0.88427000  0.30037000  0.49815000  1.0
  Br  Br40  1  0.31863000  0.09740000  0.57282000  1.0
  Br  Br41  1  0.45492000  0.85482000  0.66741000  1.0
  Br  Br42  1  0.67515000  0.05914000  0.52059000  1.0
  O  O43  1  0.50228000  0.50335000  0.50023000  1.0
  O  O44  1  0.54719000  0.42986000  0.69577000  1.0
  O  O45  1  0.56484000  0.60629000  0.29436000  1.0
  O  O46  1  0.41329000  0.54409000  0.69207000  1.0
  O  O47  1  0.47764000  0.45130000  0.31330000  1.0
  O  O48  1  0.41455000  0.39851000  0.04286000  1.0
  O  O49  1  0.11784000  0.39787000  0.38524000  1.0
  O  O50  1  0.94953000  0.61520000  0.43335000  1.0
  O  O51  1  0.48167000  0.27156000  0.46824000  1.0
  O  O52  1  0.55522000  0.74606000  0.43995000  1.0
  O  O53  1  0.73302000  0.47431000  0.54108000  1.0
  O  O54  1  0.25218000  0.51778000  0.56794000  1.0
  O  O55  1  0.73604000  0.58128000  0.41163000  1.0
  O  O56  1  0.28469000  0.42313000  0.46094000  1.0
  O  O57  1  0.58449000  0.27086000  0.57023000  1.0
  O  O58  1  0.40112000  0.71928000  0.53196000  1.0
