# generated using pymatgen
data_Zn2H41C54N9O14
_symmetry_space_group_name_H-M   'P 1'
_cell_length_a   14.52910000
_cell_length_b   15.96600000
_cell_length_c   23.71640000
_cell_angle_alpha   90.34400000
_cell_angle_beta   90.17880000
_cell_angle_gamma   89.66420000
_symmetry_Int_Tables_number   1
_chemical_formula_structural   Zn2H41C54N9O14
_chemical_formula_sum   'Zn2 H41 C54 N9 O14'
_cell_volume   5501.31167561
_cell_formula_units_Z   1
loop_
 _symmetry_equiv_pos_site_id
 _symmetry_equiv_pos_as_xyz
  1  'x, y, z'
loop_
 _atom_site_type_symbol
 _atom_site_label
 _atom_site_symmetry_multiplicity
 _atom_site_fract_x
 _atom_site_fract_y
 _atom_site_fract_z
 _atom_site_occupancy
  Zn  Zn0  1  0.59208000  0.48811000  0.50097000  1.0
  Zn  Zn1  1  0.40116000  0.50123000  0.49997000  1.0
  H  H2  1  0.56361000  0.29533000  0.05566000  1.0
  H  H3  1  0.63782000  0.07164000  0.47384000  1.0
  H  H4  1  0.36774000  0.91113000  0.52534000  1.0
  H  H5  1  0.64935000  0.92634000  0.46897000  1.0
  H  H6  1  0.58403000  0.08515000  0.57442000  1.0
  H  H7  1  0.46641000  0.06731000  0.59007000  1.0
  H  H8  1  0.93127000  0.36916000  0.51778000  1.0
  H  H9  1  0.07860000  0.38962000  0.48989000  1.0
  H  H10  1  0.05215000  0.59359000  0.42620000  1.0
  H  H11  1  0.90227000  0.54050000  0.41361000  1.0
  H  H12  1  0.08742000  0.48931000  0.41210000  1.0
  H  H13  1  0.64215000  0.50378000  0.32338000  1.0
  H  H14  1  0.93804000  0.43586000  0.42335000  1.0
  H  H15  1  0.05329000  0.57488000  0.58331000  1.0
  H  H16  1  0.89862000  0.58196000  0.57328000  1.0
  H  H17  1  0.43937000  0.69953000  0.94638000  1.0
  H  H18  1  0.44065000  0.70188000  0.05330000  1.0
  H  H19  1  0.34505000  0.48640000  0.78852000  1.0
  H  H20  1  0.33949000  0.48508000  0.68244000  1.0
  H  H21  1  0.63378000  0.49808000  0.67683000  1.0
  H  H22  1  0.64007000  0.50083000  0.78297000  1.0
  H  H23  1  0.64567000  0.50180000  0.21727000  1.0
  H  H24  1  0.34739000  0.50057000  0.31968000  1.0
  H  H25  1  0.66155000  0.97504000  0.61053000  1.0
  H  H26  1  0.65294000  0.87973000  0.58418000  1.0
  H  H27  1  0.50125000  0.94325000  0.64894000  1.0
  H  H28  1  0.42122000  0.91407000  0.60413000  1.0
  H  H29  1  0.58422000  0.22345000  0.96715000  1.0
  H  H30  1  0.56698000  0.27564000  0.90144000  1.0
  H  H31  1  0.04922000  0.72775000  0.55743000  1.0
  H  H32  1  0.81180000  0.65475000  0.49563000  1.0
  H  H33  1  0.18345000  0.42655000  0.57010000  1.0
  H  H34  1  0.10955000  0.35349000  0.58548000  1.0
  H  H35  1  0.34993000  0.49816000  0.21355000  1.0
  H  H36  1  0.88490000  0.39516000  0.60796000  1.0
  H  H37  1  0.99175000  0.43117000  0.61965000  1.0
  H  H38  1  0.55539000  0.91965000  0.42135000  1.0
  H  H39  1  0.39736000  0.90087000  0.45419000  1.0
  H  H40  1  0.55767000  0.06644000  0.41763000  1.0
  H  H41  1  0.38632000  0.04584000  0.44159000  1.0
  H  H42  1  0.34941000  0.05597000  0.51214000  1.0
  C  C43  1  0.48575000  0.33157000  0.49639000  1.0
  C  C44  1  0.47464000  0.57135000  0.87879000  1.0
  C  C45  1  0.40794000  0.48867000  0.76365000  1.0
  C  C46  1  0.48411000  0.49004000  0.61050000  1.0
  C  C47  1  0.40490000  0.48785000  0.70496000  1.0
  C  C48  1  0.48651000  0.49085000  0.67378000  1.0
  C  C49  1  0.57123000  0.49539000  0.70193000  1.0
  C  C50  1  0.57463000  0.49693000  0.76055000  1.0
  C  C51  1  0.49289000  0.49322000  0.79100000  1.0
  C  C52  1  0.58066000  0.50164000  0.24008000  1.0
  C  C53  1  0.57881000  0.50274000  0.29873000  1.0
  C  C54  1  0.54631000  0.35109000  0.03128000  1.0
  C  C55  1  0.49467000  0.50229000  0.32737000  1.0
  C  C56  1  0.41214000  0.50079000  0.29668000  1.0
  C  C57  1  0.41359000  0.49930000  0.23798000  1.0
  C  C58  1  0.53027000  0.65504000  0.50750000  1.0
  C  C59  1  0.49797000  0.49975000  0.21016000  1.0
  C  C60  1  0.57244000  0.04360000  0.46034000  1.0
  C  C61  1  0.40450000  0.03039000  0.48534000  1.0
  C  C62  1  0.41495000  0.93481000  0.49312000  1.0
  C  C63  1  0.57844000  0.94713000  0.46154000  1.0
  C  C64  1  0.53143000  0.74539000  0.50970000  1.0
  C  C65  1  0.54672000  0.34764000  0.97110000  1.0
  C  C66  1  0.49578000  0.07461000  0.50072000  1.0
  C  C67  1  0.51587000  0.91181000  0.50856000  1.0
  C  C68  1  0.54255000  0.95375000  0.56649000  1.0
  C  C69  1  0.52283000  0.04952000  0.56157000  1.0
  C  C70  1  0.52618000  0.82136000  0.51102000  1.0
  C  C71  1  0.48655000  0.16503000  0.49791000  1.0
  C  C72  1  0.49316000  0.50213000  0.39067000  1.0
  C  C73  1  0.48271000  0.24108000  0.49662000  1.0
  C  C74  1  0.06265000  0.43369000  0.52464000  1.0
  C  C75  1  0.95643000  0.42838000  0.53621000  1.0
  C  C76  1  0.52330000  0.42109000  0.94054000  1.0
  C  C77  1  0.04581000  0.52867000  0.44042000  1.0
  C  C78  1  0.94485000  0.49975000  0.44032000  1.0
  C  C79  1  0.08439000  0.52304000  0.50128000  1.0
  C  C80  1  0.90879000  0.50071000  0.50159000  1.0
  C  C81  1  0.93187000  0.58527000  0.53160000  1.0
  C  C82  1  0.03774000  0.59034000  0.53893000  1.0
  C  C83  1  0.81059000  0.48650000  0.50232000  1.0
  C  C84  1  0.18389000  0.53102000  0.49953000  1.0
  C  C85  1  0.47796000  0.57455000  0.12168000  1.0
  C  C86  1  0.52375000  0.42270000  0.12261000  1.0
  C  C87  1  0.50099000  0.49598000  0.97012000  1.0
  C  C88  1  0.52409000  0.42347000  0.05987000  1.0
  C  C89  1  0.50121000  0.49790000  0.03018000  1.0
  C  C90  1  0.47889000  0.57250000  0.05921000  1.0
  C  C91  1  0.07839000  0.67717000  0.53033000  1.0
  C  C92  1  0.88827000  0.65712000  0.49986000  1.0
  C  C93  1  0.47765000  0.57045000  0.94099000  1.0
  C  C94  1  0.45660000  0.64379000  0.97065000  1.0
  C  C95  1  0.45717000  0.64518000  0.02954000  1.0
  C  C96  1  0.52119000  0.41978000  0.87907000  1.0
  N  N97  1  0.49974000  0.49865000  0.14928000  1.0
  N  N98  1  0.49619000  0.49462000  0.85185000  1.0
  N  N99  1  0.73241000  0.47272000  0.50308000  1.0
  N  N100  1  0.26309000  0.52188000  0.49852000  1.0
  N  N101  1  0.64118000  0.94170000  0.57582000  1.0
  N  N102  1  0.49051000  0.91236000  0.61164000  1.0
  N  N103  1  0.56897000  0.27529000  0.94467000  1.0
  N  N104  1  0.11481000  0.41551000  0.57580000  1.0
  N  N105  1  0.93376000  0.43623000  0.59538000  1.0
  O  O106  1  0.56624000  0.36288000  0.49503000  1.0
  O  O107  1  0.54264000  0.35987000  0.15010000  1.0
  O  O108  1  0.53958000  0.35646000  0.85009000  1.0
  O  O109  1  0.45469000  0.63374000  0.85103000  1.0
  O  O110  1  0.14543000  0.68899000  0.50062000  1.0
  O  O111  1  0.93208000  0.71483000  0.47987000  1.0
  O  O112  1  0.40956000  0.37142000  0.49788000  1.0
  O  O113  1  0.56158000  0.48574000  0.58557000  1.0
  O  O114  1  0.40547000  0.49394000  0.58671000  1.0
  O  O115  1  0.60750000  0.61639000  0.50757000  1.0
  O  O116  1  0.45084000  0.62179000  0.50529000  1.0
  O  O117  1  0.57079000  0.50092000  0.41583000  1.0
  O  O118  1  0.41449000  0.50262000  0.41418000  1.0
  O  O119  1  0.45943000  0.63793000  0.14906000  1.0
