# generated using pymatgen
data_CuH16C8(NO2)2
_symmetry_space_group_name_H-M   'P 1'
_cell_length_a   7.68817000
_cell_length_b   8.78083000
_cell_length_c   9.03329000
_cell_angle_alpha   79.77400000
_cell_angle_beta   88.07830000
_cell_angle_gamma   88.30950000
_symmetry_Int_Tables_number   1
_chemical_formula_structural   CuH16C8(NO2)2
_chemical_formula_sum   'Cu2 H32 C16 N4 O8'
_cell_volume   599.62757871
_cell_formula_units_Z   2
loop_
 _symmetry_equiv_pos_site_id
 _symmetry_equiv_pos_as_xyz
  1  'x, y, z'
loop_
 _atom_site_type_symbol
 _atom_site_label
 _atom_site_symmetry_multiplicity
 _atom_site_fract_x
 _atom_site_fract_y
 _atom_site_fract_z
 _atom_site_occupancy
  Cu  Cu0  1  0.85249000  0.72804000  0.15192000  1.0
  Cu  Cu1  1  0.14750000  0.27193000  0.84808000  1.0
  H  H2  1  0.69401000  0.42397000  0.32746000  1.0
  H  H3  1  0.30598000  0.57605000  0.67261000  1.0
  H  H4  1  0.66145000  0.43651000  0.13313000  1.0
  H  H5  1  0.33852000  0.56346000  0.86694000  1.0
  H  H6  1  0.47562000  0.43101000  0.25862000  1.0
  H  H7  1  0.52436000  0.56900000  0.74146000  1.0
  H  H8  1  0.53353000  0.67192000  0.98841000  1.0
  H  H9  1  0.46646000  0.32806000  0.01161000  1.0
  H  H10  1  0.48111000  0.83404000  0.07583000  1.0
  H  H11  1  0.51887000  0.16595000  0.92418000  1.0
  H  H12  1  0.35273000  0.66525000  0.12190000  1.0
  H  H13  1  0.64726000  0.33474000  0.87813000  1.0
  H  H14  1  0.51380000  0.82203000  0.32221000  1.0
  H  H15  1  0.48622000  0.17800000  0.67777000  1.0
  H  H16  1  0.44940000  0.63559000  0.41318000  1.0
  H  H17  1  0.55059000  0.36446000  0.58684000  1.0
  H  H18  1  0.76156000  0.56850000  0.48238000  1.0
  H  H19  1  0.23844000  0.43155000  0.51765000  1.0
  H  H20  1  0.68447000  0.73011000  0.55956000  1.0
  H  H21  1  0.31554000  0.26997000  0.44043000  1.0
  H  H22  1  0.83266000  0.96674000  0.48793000  1.0
  H  H23  1  0.16737000  0.03332000  0.51201000  1.0
  H  H24  1  0.71775000  0.98957000  0.31448000  1.0
  H  H25  1  0.28228000  0.01046000  0.68546000  1.0
  H  H26  1  0.94628000  0.00676000  0.30902000  1.0
  H  H27  1  0.05375000  0.99325000  0.69092000  1.0
  H  H28  1  0.13232000  0.79528000  0.37608000  1.0
  H  H29  1  0.86769000  0.20473000  0.62388000  1.0
  H  H30  1  0.05481000  0.60395000  0.41187000  1.0
  H  H31  1  0.94519000  0.39607000  0.58813000  1.0
  H  H32  1  0.02946000  0.72024000  0.55684000  1.0
  H  H33  1  0.97056000  0.27981000  0.44313000  1.0
  C  C34  1  0.95467000  0.54845000  0.92910000  1.0
  C  C35  1  0.04533000  0.45146000  0.07094000  1.0
  C  C36  1  0.91046000  0.04329000  0.98225000  1.0
  C  C37  1  0.08952000  0.95666000  0.01768000  1.0
  C  C38  1  0.60919000  0.47368000  0.23534000  1.0
  C  C39  1  0.39079000  0.52631000  0.76472000  1.0
  C  C40  1  0.48519000  0.70746000  0.09265000  1.0
  C  C41  1  0.51480000  0.29252000  0.90737000  1.0
  C  C42  1  0.55903000  0.70111000  0.35360000  1.0
  C  C43  1  0.44097000  0.29893000  0.64641000  1.0
  C  C44  1  0.71614000  0.68942000  0.45276000  1.0
  C  C45  1  0.28387000  0.31063000  0.54724000  1.0
  C  C46  1  0.83723000  0.94494000  0.37122000  1.0
  C  C47  1  0.16280000  0.05509000  0.62873000  1.0
  C  C48  1  0.03003000  0.72128000  0.43455000  1.0
  C  C49  1  0.96998000  0.27875000  0.56543000  1.0
  N  N50  1  0.60707000  0.64432000  0.21262000  1.0
  N  N51  1  0.39292000  0.35568000  0.78741000  1.0
  N  N52  1  0.86113000  0.77798000  0.37034000  1.0
  N  N53  1  0.13888000  0.22205000  0.62964000  1.0
  O  O54  1  0.84861000  0.65747000  0.95234000  1.0
  O  O55  1  0.15136000  0.34242000  0.04771000  1.0
  O  O56  1  0.01081000  0.48584000  0.19798000  1.0
  O  O57  1  0.98921000  0.51408000  0.80206000  1.0
  O  O58  1  0.91591000  0.17740000  0.89886000  1.0
  O  O59  1  0.08407000  0.82256000  0.10108000  1.0
  O  O60  1  0.77328000  0.97857000  0.03556000  1.0
  O  O61  1  0.22671000  0.02137000  0.96437000  1.0
