# generated using pymatgen
data_Zn3H25C31N7O6
_symmetry_space_group_name_H-M   'P 1'
_cell_length_a   13.51730000
_cell_length_b   16.31000000
_cell_length_c   17.81960000
_cell_angle_alpha   90.00000000
_cell_angle_beta   94.41640000
_cell_angle_gamma   90.00000000
_symmetry_Int_Tables_number   1
_chemical_formula_structural   Zn3H25C31N7O6
_chemical_formula_sum   'Zn12 H100 C124 N28 O24'
_cell_volume   3916.97156043
_cell_formula_units_Z   4
loop_
 _symmetry_equiv_pos_site_id
 _symmetry_equiv_pos_as_xyz
  1  'x, y, z'
loop_
 _atom_site_type_symbol
 _atom_site_label
 _atom_site_symmetry_multiplicity
 _atom_site_fract_x
 _atom_site_fract_y
 _atom_site_fract_z
 _atom_site_occupancy
  Zn  Zn0  1  0.99872000  0.28888000  0.74637000  1.0
  Zn  Zn1  1  0.50128000  0.78888000  0.75363000  1.0
  Zn  Zn2  1  0.00128000  0.71112000  0.25363000  1.0
  Zn  Zn3  1  0.49872000  0.21112000  0.24637000  1.0
  Zn  Zn4  1  0.73900000  0.28731000  0.07874000  1.0
  Zn  Zn5  1  0.76100000  0.78731000  0.42126000  1.0
  Zn  Zn6  1  0.26100000  0.71269000  0.92125000  1.0
  Zn  Zn7  1  0.23900000  0.21269000  0.57874000  1.0
  Zn  Zn8  1  0.76755000  0.20538000  0.91871000  1.0
  Zn  Zn9  1  0.73245000  0.70538000  0.58129000  1.0
  Zn  Zn10  1  0.23245000  0.79462000  0.08129000  1.0
  Zn  Zn11  1  0.26755000  0.29462000  0.41871000  1.0
  H  H12  1  0.92527000  0.22456000  0.15923000  1.0
  H  H13  1  0.57472000  0.72456000  0.34077000  1.0
  H  H14  1  0.07472000  0.77544000  0.84077000  1.0
  H  H15  1  0.42527000  0.27544000  0.65923000  1.0
  H  H16  1  0.10612000  0.22530000  0.19705000  1.0
  H  H17  1  0.39387000  0.72530000  0.30295000  1.0
  H  H18  1  0.89387000  0.77470000  0.80295000  1.0
  H  H19  1  0.60613000  0.27470000  0.69705000  1.0
  H  H20  1  0.22794000  0.23023000  0.09691000  1.0
  H  H21  1  0.27206000  0.73023000  0.40309000  1.0
  H  H22  1  0.77206000  0.76977000  0.90309000  1.0
  H  H23  1  0.72794000  0.26977000  0.59691000  1.0
  H  H24  1  0.16439000  0.23912000  0.96312000  1.0
  H  H25  1  0.33561000  0.73912000  0.53688000  1.0
  H  H26  1  0.83561000  0.76088000  0.03688000  1.0
  H  H27  1  0.66439000  0.26088000  0.46312000  1.0
  H  H28  1  0.78164000  0.23570000  0.70368000  1.0
  H  H29  1  0.71836000  0.73570000  0.79632000  1.0
  H  H30  1  0.21836000  0.76430000  0.29632000  1.0
  H  H31  1  0.28164000  0.26430000  0.20368000  1.0
  H  H32  1  0.08628000  0.22108000  0.33677000  1.0
  H  H33  1  0.41372000  0.72108000  0.16323000  1.0
  H  H34  1  0.91372000  0.77892000  0.66323000  1.0
  H  H35  1  0.58628000  0.27892000  0.83677000  1.0
  H  H36  1  0.90630000  0.20871000  0.29665000  1.0
  H  H37  1  0.59370000  0.70871000  0.20335000  1.0
  H  H38  1  0.09370000  0.79129000  0.70335000  1.0
  H  H39  1  0.40630000  0.29129000  0.79665000  1.0
  H  H40  1  0.78235000  0.20591000  0.39523000  1.0
  H  H41  1  0.71765000  0.70591000  0.10477000  1.0
  H  H42  1  0.21765000  0.79409000  0.60477000  1.0
  H  H43  1  0.28235000  0.29409000  0.89523000  1.0
  H  H44  1  0.84161000  0.22333000  0.52918000  1.0
  H  H45  1  0.65839000  0.72333000  0.97082000  1.0
  H  H46  1  0.15839000  0.77667000  0.47082000  1.0
  H  H47  1  0.34161000  0.27667000  0.02918000  1.0
  H  H48  1  0.22056000  0.25127000  0.79157000  1.0
  H  H49  1  0.27944000  0.75127000  0.70843000  1.0
  H  H50  1  0.77944000  0.74873000  0.20843000  1.0
  H  H51  1  0.72056000  0.24873000  0.29157000  1.0
  H  H52  1  0.10982000  0.42740000  0.67939000  1.0
  H  H53  1  0.39018000  0.92740000  0.82061000  1.0
  H  H54  1  0.89018000  0.57260000  0.32061000  1.0
  H  H55  1  0.60983000  0.07260000  0.17939000  1.0
  H  H56  1  0.10721000  0.58219000  0.67677000  1.0
  H  H57  1  0.39279000  0.08219000  0.82323000  1.0
  H  H58  1  0.89279000  0.41781000  0.32323000  1.0
  H  H59  1  0.60722000  0.91781000  0.17677000  1.0
  H  H60  1  0.97672000  0.65519000  0.74372000  1.0
  H  H61  1  0.52328000  0.15519000  0.75628000  1.0
  H  H62  1  0.02328000  0.34481000  0.25628000  1.0
  H  H63  1  0.47672000  0.84481000  0.24372000  1.0
  H  H64  1  0.85674000  0.57265000  0.81236000  1.0
  H  H65  1  0.64326000  0.07265000  0.68764000  1.0
  H  H66  1  0.14326000  0.42735000  0.18764000  1.0
  H  H67  1  0.35675000  0.92735000  0.31236000  1.0
  H  H68  1  0.87171000  0.41843000  0.81130000  1.0
  H  H69  1  0.62829000  0.91843000  0.68870000  1.0
  H  H70  1  0.12829000  0.58157000  0.18871000  1.0
  H  H71  1  0.37171000  0.08157000  0.31129000  1.0
  H  H72  1  0.79005000  0.04771000  0.84104000  1.0
  H  H73  1  0.70995000  0.54771000  0.65896000  1.0
  H  H74  1  0.20995000  0.95229000  0.15896000  1.0
  H  H75  1  0.29005000  0.45229000  0.34104000  1.0
  H  H76  1  0.73135000  0.90236000  0.85129000  1.0
  H  H77  1  0.76865000  0.40236000  0.64871000  1.0
  H  H78  1  0.26865000  0.09764000  0.14871000  1.0
  H  H79  1  0.23135000  0.59764000  0.35129000  1.0
  H  H80  1  0.62556000  0.86581000  0.95521000  1.0
  H  H81  1  0.87444000  0.36581000  0.54479000  1.0
  H  H82  1  0.37444000  0.13419000  0.04479000  1.0
  H  H83  1  0.12556000  0.63419000  0.45521000  1.0
  H  H84  1  0.58477000  0.97586000  0.04740000  1.0
  H  H85  1  0.91523000  0.47586000  0.45260000  1.0
  H  H86  1  0.41523000  0.02414000  0.95260000  1.0
  H  H87  1  0.08477000  0.52414000  0.54740000  1.0
  H  H88  1  0.65118000  0.11819000  0.02968000  1.0
  H  H89  1  0.84882000  0.61819000  0.47032000  1.0
  H  H90  1  0.34882000  0.88181000  0.97032000  1.0
  H  H91  1  0.15118000  0.38181000  0.52968000  1.0
  H  H92  1  0.83697000  0.37813000  0.96144000  1.0
  H  H93  1  0.66303000  0.87814000  0.53856000  1.0
  H  H94  1  0.16303000  0.62187000  0.03856000  1.0
  H  H95  1  0.33697000  0.12187000  0.46144000  1.0
  H  H96  1  0.90953000  0.51846000  0.94436000  1.0
  H  H97  1  0.59047000  0.01846000  0.55564000  1.0
  H  H98  1  0.09046000  0.48154000  0.05564000  1.0
  H  H99  1  0.40954000  0.98154000  0.44436000  1.0
  H  H100  1  0.89406000  0.62342000  0.04660000  1.0
  H  H101  1  0.60595000  0.12342000  0.45340000  1.0
  H  H102  1  0.10594000  0.37658000  0.95340000  1.0
  H  H103  1  0.39406000  0.87658000  0.54660000  1.0
  H  H104  1  0.80835000  0.58422000  0.16015000  1.0
  H  H105  1  0.69165000  0.08422000  0.33985000  1.0
  H  H106  1  0.19165000  0.41578000  0.83985000  1.0
  H  H107  1  0.30835000  0.91578000  0.66015000  1.0
  H  H108  1  0.74198000  0.44045000  0.16911000  1.0
  H  H109  1  0.75802000  0.94045000  0.33089000  1.0
  H  H110  1  0.25801000  0.55955000  0.83089000  1.0
  H  H111  1  0.24198000  0.05955000  0.66911000  1.0
  C  C112  1  0.94161000  0.23043000  0.04069000  1.0
  C  C113  1  0.55839000  0.73043000  0.45931000  1.0
  C  C114  1  0.05839000  0.76957000  0.95931000  1.0
  C  C115  1  0.44161000  0.26957000  0.54069000  1.0
  C  C116  1  0.97924000  0.22682000  0.11689000  1.0
  C  C117  1  0.52076000  0.72682000  0.38311000  1.0
  C  C118  1  0.02076000  0.77318000  0.88311000  1.0
  C  C119  1  0.47924000  0.27318000  0.61689000  1.0
  C  C120  1  0.08028000  0.22740000  0.13755000  1.0
  C  C121  1  0.41972000  0.72740000  0.36245000  1.0
  C  C122  1  0.91972000  0.77260000  0.86245000  1.0
  C  C123  1  0.58028000  0.27260000  0.63755000  1.0
  C  C124  1  0.14825000  0.23101000  0.08212000  1.0
  C  C125  1  0.35175000  0.73101000  0.41788000  1.0
  C  C126  1  0.85175000  0.76899000  0.91788000  1.0
  C  C127  1  0.64825000  0.26899000  0.58212000  1.0
  C  C128  1  0.11288000  0.23596000  0.00713000  1.0
  C  C129  1  0.38712000  0.73596000  0.49287000  1.0
  C  C130  1  0.88712000  0.76404000  0.99287000  1.0
  C  C131  1  0.61288000  0.26404000  0.50713000  1.0
  C  C132  1  0.01065000  0.23762000  0.98414000  1.0
  C  C133  1  0.48935000  0.73762000  0.51586000  1.0
  C  C134  1  0.98935000  0.76238000  0.01586000  1.0
  C  C135  1  0.51065000  0.26238000  0.48414000  1.0
  C  C136  1  0.98555000  0.25015000  0.90233000  1.0
  C  C137  1  0.51445000  0.75015000  0.59767000  1.0
  C  C138  1  0.01445000  0.74985000  0.09767000  1.0
  C  C139  1  0.48555000  0.24984000  0.40233000  1.0
  C  C140  1  0.79047000  0.22941000  0.76519000  1.0
  C  C141  1  0.70953000  0.72941000  0.73481000  1.0
  C  C142  1  0.20953000  0.77059000  0.23481000  1.0
  C  C143  1  0.29047000  0.27058000  0.26519000  1.0
  C  C144  1  0.06635000  0.22903000  0.45455000  1.0
  C  C145  1  0.43365000  0.72902000  0.04545000  1.0
  C  C146  1  0.93365000  0.77097000  0.54545000  1.0
  C  C147  1  0.56635000  0.27098000  0.95455000  1.0
  C  C148  1  0.03101000  0.22090000  0.37818000  1.0
  C  C149  1  0.46899000  0.72090000  0.12182000  1.0
  C  C150  1  0.96899000  0.77910000  0.62182000  1.0
  C  C151  1  0.53101000  0.27910000  0.87818000  1.0
  C  C152  1  0.93063000  0.21375000  0.35629000  1.0
  C  C153  1  0.56937000  0.71375000  0.14371000  1.0
  C  C154  1  0.06937000  0.78625000  0.64372000  1.0
  C  C155  1  0.43063000  0.28625000  0.85628000  1.0
  C  C156  1  0.86129000  0.21349000  0.41082000  1.0
  C  C157  1  0.63871000  0.71349000  0.08918000  1.0
  C  C158  1  0.13871000  0.78651000  0.58918000  1.0
  C  C159  1  0.36129000  0.28651000  0.91082000  1.0
  C  C160  1  0.89430000  0.22320000  0.48593000  1.0
  C  C161  1  0.60570000  0.72320000  0.01407000  1.0
  C  C162  1  0.10570000  0.77680000  0.51407000  1.0
  C  C163  1  0.39430000  0.27680000  0.98593000  1.0
  C  C164  1  0.99550000  0.23294000  0.51002000  1.0
  C  C165  1  0.50450000  0.73294000  0.98998000  1.0
  C  C166  1  0.00450000  0.76706000  0.48998000  1.0
  C  C167  1  0.49550000  0.26706000  0.01002000  1.0
  C  C168  1  0.01779000  0.24878000  0.59164000  1.0
  C  C169  1  0.48221000  0.74878000  0.90836000  1.0
  C  C170  1  0.98221000  0.75122000  0.40836000  1.0
  C  C171  1  0.51779000  0.25122000  0.09164000  1.0
  C  C172  1  0.21246000  0.24234000  0.73032000  1.0
  C  C173  1  0.28754000  0.74234000  0.76968000  1.0
  C  C174  1  0.78754000  0.75766000  0.26968000  1.0
  C  C175  1  0.71246000  0.25766000  0.23032000  1.0
  C  C176  1  0.05524000  0.46249000  0.70809000  1.0
  C  C177  1  0.44476000  0.96249000  0.79191000  1.0
  C  C178  1  0.94476000  0.53751000  0.29191000  1.0
  C  C179  1  0.55525000  0.03751000  0.20809000  1.0
  C  C180  1  0.05330000  0.54785000  0.70668000  1.0
  C  C181  1  0.44670000  0.04785000  0.79332000  1.0
  C  C182  1  0.94670000  0.45215000  0.29332000  1.0
  C  C183  1  0.55331000  0.95215000  0.20668000  1.0
  C  C184  1  0.98136000  0.58866000  0.74455000  1.0
  C  C185  1  0.51864000  0.08866000  0.75545000  1.0
  C  C186  1  0.01864000  0.41134000  0.25545000  1.0
  C  C187  1  0.48136000  0.91134000  0.24455000  1.0
  C  C188  1  0.91452000  0.54257000  0.78299000  1.0
  C  C189  1  0.58548000  0.04257000  0.71701000  1.0
  C  C190  1  0.08548000  0.45743000  0.21701000  1.0
  C  C191  1  0.41452000  0.95743000  0.28299000  1.0
  C  C192  1  0.92221000  0.45746000  0.78235000  1.0
  C  C193  1  0.57779000  0.95746000  0.71765000  1.0
  C  C194  1  0.07779000  0.54254000  0.21765000  1.0
  C  C195  1  0.42221000  0.04254000  0.28235000  1.0
  C  C196  1  0.74523000  0.02838000  0.88619000  1.0
  C  C197  1  0.75477000  0.52838000  0.61381000  1.0
  C  C198  1  0.25477000  0.97162000  0.11381000  1.0
  C  C199  1  0.24523000  0.47162000  0.38619000  1.0
  C  C200  1  0.71191000  0.94824000  0.89197000  1.0
  C  C201  1  0.78809000  0.44824000  0.60803000  1.0
  C  C202  1  0.28809000  0.05176000  0.10803000  1.0
  C  C203  1  0.21191000  0.55176000  0.39197000  1.0
  C  C204  1  0.65346000  0.92807000  0.95043000  1.0
  C  C205  1  0.84654000  0.42807000  0.54957000  1.0
  C  C206  1  0.34653000  0.07193000  0.04957000  1.0
  C  C207  1  0.15346000  0.57193000  0.45043000  1.0
  C  C208  1  0.63095000  0.98901000  0.00138000  1.0
  C  C209  1  0.86905000  0.48901000  0.49861000  1.0
  C  C210  1  0.36905000  0.01099000  0.99862000  1.0
  C  C211  1  0.13095000  0.51099000  0.50138000  1.0
  C  C212  1  0.66720000  0.06789000  0.99206000  1.0
  C  C213  1  0.83280000  0.56789000  0.50794000  1.0
  C  C214  1  0.33280000  0.93211000  0.00794000  1.0
  C  C215  1  0.16720000  0.43211000  0.49206000  1.0
  C  C216  1  0.83196000  0.42631000  0.00348000  1.0
  C  C217  1  0.66804000  0.92631000  0.49652000  1.0
  C  C218  1  0.16804000  0.57369000  0.99652000  1.0
  C  C219  1  0.33196000  0.07369000  0.50348000  1.0
  C  C220  1  0.87171000  0.50399000  0.99452000  1.0
  C  C221  1  0.62829000  0.00399000  0.50548000  1.0
  C  C222  1  0.12828000  0.49601000  0.00548000  1.0
  C  C223  1  0.37172000  0.99601000  0.49453000  1.0
  C  C224  1  0.86357000  0.56205000  0.05120000  1.0
  C  C225  1  0.63643000  0.06205000  0.44880000  1.0
  C  C226  1  0.13643000  0.43795000  0.94880000  1.0
  C  C227  1  0.36357000  0.93795000  0.55120000  1.0
  C  C228  1  0.81572000  0.54038000  0.11487000  1.0
  C  C229  1  0.68428000  0.04038000  0.38513000  1.0
  C  C230  1  0.18428000  0.45962000  0.88513000  1.0
  C  C231  1  0.31572000  0.95962000  0.61487000  1.0
  C  C232  1  0.77834000  0.46136000  0.12004000  1.0
  C  C233  1  0.72166000  0.96136000  0.37996000  1.0
  C  C234  1  0.22166000  0.53863000  0.87996000  1.0
  C  C235  1  0.27834000  0.03864000  0.62004000  1.0
  N  N236  1  0.89216000  0.23767000  0.87311000  1.0
  N  N237  1  0.60784000  0.73767000  0.62689000  1.0
  N  N238  1  0.10785000  0.76233000  0.12689000  1.0
  N  N239  1  0.39216000  0.26233000  0.37311000  1.0
  N  N240  1  0.88011000  0.24814000  0.79541000  1.0
  N  N241  1  0.61989000  0.74814000  0.70459000  1.0
  N  N242  1  0.11989000  0.75186000  0.20459000  1.0
  N  N243  1  0.38011000  0.25186000  0.29541000  1.0
  N  N244  1  0.11182000  0.24357000  0.62162000  1.0
  N  N245  1  0.38818000  0.74357000  0.87838000  1.0
  N  N246  1  0.88818000  0.75643000  0.37838000  1.0
  N  N247  1  0.61182000  0.25643000  0.12162000  1.0
  N  N248  1  0.12217000  0.25695000  0.69898000  1.0
  N  N249  1  0.37783000  0.75695000  0.80102000  1.0
  N  N250  1  0.87783000  0.74305000  0.30102000  1.0
  N  N251  1  0.62217000  0.24305000  0.19898000  1.0
  N  N252  1  0.99108000  0.41789000  0.74539000  1.0
  N  N253  1  0.50891000  0.91789000  0.75461000  1.0
  N  N254  1  0.00892000  0.58211000  0.25461000  1.0
  N  N255  1  0.49109000  0.08211000  0.24539000  1.0
  N  N256  1  0.72325000  0.08707000  0.93531000  1.0
  N  N257  1  0.77675000  0.58708000  0.56469000  1.0
  N  N258  1  0.27675000  0.91293000  0.06469000  1.0
  N  N259  1  0.22325000  0.41292000  0.43531000  1.0
  N  N260  1  0.78625000  0.40548000  0.06525000  1.0
  N  N261  1  0.71376000  0.90548000  0.43474000  1.0
  N  N262  1  0.21375000  0.59452000  0.93474000  1.0
  N  N263  1  0.28625000  0.09452000  0.56525000  1.0
  O  O264  1  0.84334000  0.22773000  0.02490000  1.0
  O  O265  1  0.65666000  0.72773000  0.47510000  1.0
  O  O266  1  0.15666000  0.77227000  0.97510000  1.0
  O  O267  1  0.34334000  0.27227000  0.52490000  1.0
  O  O268  1  0.05500000  0.27289000  0.86133000  1.0
  O  O269  1  0.44500000  0.77289000  0.63867000  1.0
  O  O270  1  0.94500000  0.72711000  0.13867000  1.0
  O  O271  1  0.55500000  0.22711000  0.36133000  1.0
  O  O272  1  0.71769000  0.20498000  0.80143000  1.0
  O  O273  1  0.78231000  0.70498000  0.69857000  1.0
  O  O274  1  0.28231000  0.79503000  0.19857000  1.0
  O  O275  1  0.21769000  0.29502000  0.30143000  1.0
  O  O276  1  0.16436000  0.23307000  0.47160000  1.0
  O  O277  1  0.33564000  0.73307000  0.02840000  1.0
  O  O278  1  0.83564000  0.76693000  0.52840000  1.0
  O  O279  1  0.66436000  0.26693000  0.97160000  1.0
  O  O280  1  0.94552000  0.26721000  0.63165000  1.0
  O  O281  1  0.55448000  0.76721000  0.86835000  1.0
  O  O282  1  0.05448000  0.73279000  0.36835000  1.0
  O  O283  1  0.44552000  0.23279000  0.13165000  1.0
  O  O284  1  0.28676000  0.21877000  0.69535000  1.0
  O  O285  1  0.21324000  0.71877000  0.80465000  1.0
  O  O286  1  0.71324000  0.78123000  0.30465000  1.0
  O  O287  1  0.78676000  0.28123000  0.19535000  1.0
