# generated using pymatgen
data_ZnH8C12S(N2Cl)2
_symmetry_space_group_name_H-M   'P 1'
_cell_length_a   5.36936000
_cell_length_b   12.81030000
_cell_length_c   20.03870000
_cell_angle_alpha   100.75400000
_cell_angle_beta   89.99970000
_cell_angle_gamma   90.00000000
_symmetry_Int_Tables_number   1
_chemical_formula_structural   ZnH8C12S(N2Cl)2
_chemical_formula_sum   'Zn4 H32 C48 S4 N16 Cl8'
_cell_volume   1354.11716226
_cell_formula_units_Z   4
loop_
 _symmetry_equiv_pos_site_id
 _symmetry_equiv_pos_as_xyz
  1  'x, y, z'
loop_
 _atom_site_type_symbol
 _atom_site_label
 _atom_site_symmetry_multiplicity
 _atom_site_fract_x
 _atom_site_fract_y
 _atom_site_fract_z
 _atom_site_occupancy
  Zn  Zn0  1  0.79819000  0.45667000  0.68028000  1.0
  Zn  Zn1  1  0.29818000  0.04333000  0.81973000  1.0
  Zn  Zn2  1  0.20181000  0.54333000  0.31973000  1.0
  Zn  Zn3  1  0.70181000  0.95667000  0.18027000  1.0
  H  H4  1  0.93944000  0.22987000  0.63909000  1.0
  H  H5  1  0.43944000  0.27013000  0.86091000  1.0
  H  H6  1  0.06056000  0.77013000  0.36091000  1.0
  H  H7  1  0.56057000  0.72987000  0.13909000  1.0
  H  H8  1  0.25035000  0.12075000  0.56265000  1.0
  H  H9  1  0.75035000  0.37925000  0.93735000  1.0
  H  H10  1  0.74966000  0.87925000  0.43736000  1.0
  H  H11  1  0.24965000  0.62075000  0.06265000  1.0
  H  H12  1  0.48864000  0.41150000  0.50101000  1.0
  H  H13  1  0.98865000  0.08850000  0.99899000  1.0
  H  H14  1  0.51135000  0.58851000  0.49899000  1.0
  H  H15  1  0.01134000  0.91150000  0.00101000  1.0
  H  H16  1  0.15324000  0.50585000  0.57523000  1.0
  H  H17  1  0.65324000  0.99415000  0.92477000  1.0
  H  H18  1  0.84675000  0.49415000  0.42477000  1.0
  H  H19  1  0.34675000  0.00585000  0.07523000  1.0
  H  H20  1  0.26079000  0.96686000  0.40867000  1.0
  H  H21  1  0.76079000  0.53314000  0.09133000  1.0
  H  H22  1  0.73921000  0.03314000  0.59133000  1.0
  H  H23  1  0.23921000  0.46686000  0.90868000  1.0
  H  H24  1  0.56789000  0.90509000  0.31509000  1.0
  H  H25  1  0.06789000  0.59491000  0.18490000  1.0
  H  H26  1  0.43211000  0.09491000  0.68490000  1.0
  H  H27  1  0.93211000  0.40509000  0.81510000  1.0
  H  H28  1  0.32929000  0.13115000  0.20635000  1.0
  H  H29  1  0.82929000  0.36885000  0.29365000  1.0
  H  H30  1  0.67071000  0.86886000  0.79365000  1.0
  H  H31  1  0.17071000  0.63115000  0.70635000  1.0
  H  H32  1  0.00202000  0.19770000  0.29127000  1.0
  H  H33  1  0.50202000  0.30230000  0.20873000  1.0
  H  H34  1  0.99798000  0.80230000  0.70873000  1.0
  H  H35  1  0.49799000  0.69770000  0.79127000  1.0
  C  C36  1  0.06305000  0.26574000  0.60646000  1.0
  C  C37  1  0.56305000  0.23427000  0.89354000  1.0
  C  C38  1  0.93695000  0.73427000  0.39354000  1.0
  C  C39  1  0.43695000  0.76573000  0.10646000  1.0
  C  C40  1  0.23938000  0.20636000  0.56524000  1.0
  C  C41  1  0.73939000  0.29364000  0.93476000  1.0
  C  C42  1  0.76063000  0.79364000  0.43476000  1.0
  C  C43  1  0.26062000  0.70636000  0.06524000  1.0
  C  C44  1  0.39939000  0.25827000  0.52656000  1.0
  C  C45  1  0.89940000  0.24173000  0.97344000  1.0
  C  C46  1  0.60061000  0.74173000  0.47344000  1.0
  C  C47  1  0.10060000  0.75827000  0.02656000  1.0
  C  C48  1  0.36960000  0.36779000  0.53004000  1.0
  C  C49  1  0.86960000  0.13221000  0.96996000  1.0
  C  C50  1  0.63041000  0.63221000  0.46996000  1.0
  C  C51  1  0.13040000  0.86778000  0.03004000  1.0
  C  C52  1  0.18467000  0.42083000  0.57136000  1.0
  C  C53  1  0.68468000  0.07917000  0.92864000  1.0
  C  C54  1  0.81532000  0.57917000  0.42864000  1.0
  C  C55  1  0.31531000  0.92083000  0.07136000  1.0
  C  C56  1  0.59256000  0.19759000  0.48507000  1.0
  C  C57  1  0.09256000  0.30241000  0.01493000  1.0
  C  C58  1  0.40743000  0.80241000  0.51494000  1.0
  C  C59  1  0.90744000  0.69759000  0.98507000  1.0
  C  C60  1  0.91333000  0.12026000  0.40884000  1.0
  C  C61  1  0.41334000  0.37974000  0.09116000  1.0
  C  C62  1  0.08667000  0.87974000  0.59116000  1.0
  C  C63  1  0.58667000  0.62025000  0.90884000  1.0
  C  C64  1  0.10405000  0.08734000  0.35732000  1.0
  C  C65  1  0.60406000  0.41266000  0.14268000  1.0
  C  C66  1  0.89594000  0.91266000  0.64268000  1.0
  C  C67  1  0.39595000  0.58734000  0.85732000  1.0
  C  C68  1  0.26751000  0.00424000  0.36408000  1.0
  C  C69  1  0.76751000  0.49575000  0.13591000  1.0
  C  C70  1  0.73249000  0.99576000  0.63591000  1.0
  C  C71  1  0.23249000  0.50424000  0.86409000  1.0
  C  C72  1  0.44117000  0.97110000  0.31331000  1.0
  C  C73  1  0.94117000  0.52889000  0.18668000  1.0
  C  C74  1  0.55883000  0.02890000  0.68669000  1.0
  C  C75  1  0.05883000  0.47110000  0.81332000  1.0
  C  C76  1  0.30729000  0.09746000  0.25205000  1.0
  C  C77  1  0.80730000  0.40253000  0.24795000  1.0
  C  C78  1  0.69270000  0.90254000  0.74795000  1.0
  C  C79  1  0.19271000  0.59746000  0.75205000  1.0
  C  C80  1  0.12604000  0.13445000  0.29989000  1.0
  C  C81  1  0.62605000  0.36555000  0.20010000  1.0
  C  C82  1  0.87395000  0.86555000  0.70010000  1.0
  C  C83  1  0.37396000  0.63444000  0.79990000  1.0
  S  S84  1  0.75557000  0.24026000  0.42036000  1.0
  S  S85  1  0.25557000  0.25975000  0.07964000  1.0
  S  S86  1  0.24444000  0.75975000  0.57964000  1.0
  S  S87  1  0.74444000  0.74025000  0.92036000  1.0
  N  N88  1  0.03490000  0.37104000  0.60924000  1.0
  N  N89  1  0.53491000  0.12896000  0.89076000  1.0
  N  N90  1  0.96509000  0.62896000  0.39076000  1.0
  N  N91  1  0.46510000  0.87105000  0.10924000  1.0
  N  N92  1  0.66210000  0.10211000  0.49428000  1.0
  N  N93  1  0.16211000  0.39790000  0.00572000  1.0
  N  N94  1  0.33789000  0.89790000  0.50572000  1.0
  N  N95  1  0.83790000  0.60210000  0.99428000  1.0
  N  N96  1  0.83987000  0.05815000  0.45104000  1.0
  N  N97  1  0.33987000  0.44185000  0.04896000  1.0
  N  N98  1  0.16013000  0.94185000  0.54896000  1.0
  N  N99  1  0.66014000  0.55815000  0.95104000  1.0
  N  N100  1  0.46211000  0.01746000  0.25849000  1.0
  N  N101  1  0.96211000  0.48254000  0.24151000  1.0
  N  N102  1  0.53789000  0.98255000  0.74151000  1.0
  N  N103  1  0.03789000  0.51745000  0.75849000  1.0
  Cl  Cl104  1  0.54934000  0.34298000  0.71735000  1.0
  Cl  Cl105  1  0.04933000  0.15701000  0.78266000  1.0
  Cl  Cl106  1  0.45066000  0.65702000  0.28266000  1.0
  Cl  Cl107  1  0.95066000  0.84299000  0.21734000  1.0
  Cl  Cl108  1  0.69683000  0.60081000  0.63631000  1.0
  Cl  Cl109  1  0.19683000  0.89919000  0.86369000  1.0
  Cl  Cl110  1  0.30316000  0.39919000  0.36369000  1.0
  Cl  Cl111  1  0.80317000  0.10081000  0.13630000  1.0
