# generated using pymatgen
data_NiH18(CO)8
_symmetry_space_group_name_H-M   'P 1'
_cell_length_a   4.93575000
_cell_length_b   6.16075000
_cell_length_c   9.31598000
_cell_angle_alpha   81.63680000
_cell_angle_beta   80.91610000
_cell_angle_gamma   77.16570000
_symmetry_Int_Tables_number   1
_chemical_formula_structural   NiH18(CO)8
_chemical_formula_sum   'Ni1 H18 C8 O8'
_cell_volume   270.93997859
_cell_formula_units_Z   1
loop_
 _symmetry_equiv_pos_site_id
 _symmetry_equiv_pos_as_xyz
  1  'x, y, z'
loop_
 _atom_site_type_symbol
 _atom_site_label
 _atom_site_symmetry_multiplicity
 _atom_site_fract_x
 _atom_site_fract_y
 _atom_site_fract_z
 _atom_site_occupancy
  Ni  Ni0  1  0.50000000  0.50000000  0.50000000  1.0
  H  H1  1  0.02147000  0.75585000  0.48352000  1.0
  H  H2  1  0.97852000  0.24416000  0.51647000  1.0
  H  H3  1  0.62818000  0.71214000  0.69629000  1.0
  H  H4  1  0.37181000  0.28788000  0.30372000  1.0
  H  H5  1  0.10817000  0.92012000  0.20085000  1.0
  H  H6  1  0.89184000  0.07987000  0.79915000  1.0
  H  H7  1  0.80155000  0.29709000  0.16523000  1.0
  H  H8  1  0.19845000  0.70290000  0.83477000  1.0
  H  H9  1  0.62165000  0.20157000  0.04574000  1.0
  H  H10  1  0.37835000  0.79843000  0.95424000  1.0
  H  H11  1  0.02468000  0.59939000  0.09610000  1.0
  H  H12  1  0.97532000  0.40061000  0.90390000  1.0
  H  H13  1  0.75668000  0.77485000  0.00345000  1.0
  H  H14  1  0.24332000  0.22515000  0.99654000  1.0
  H  H15  1  0.86963000  0.48930000  0.67714000  1.0
  H  H16  1  0.13036000  0.51071000  0.32287000  1.0
  H  H17  1  0.27238000  0.88413000  0.44408000  1.0
  H  H18  1  0.72761000  0.11587000  0.55594000  1.0
  C  C19  1  0.69877000  0.87426000  0.28521000  1.0
  C  C20  1  0.30126000  0.12571000  0.71478000  1.0
  C  C21  1  0.90823000  0.93805000  0.15723000  1.0
  C  C22  1  0.09174000  0.06196000  0.84280000  1.0
  C  C23  1  0.82639000  0.17783000  0.08497000  1.0
  C  C24  1  0.17363000  0.82216000  0.91502000  1.0
  C  C25  1  0.95636000  0.76996000  0.04386000  1.0
  C  C26  1  0.04366000  0.23005000  0.95612000  1.0
  O  O27  1  0.77762000  0.68642000  0.36466000  1.0
  O  O28  1  0.22236000  0.31361000  0.63534000  1.0
  O  O29  1  0.18527000  0.77893000  0.52330000  1.0
  O  O30  1  0.81472000  0.22108000  0.47671000  1.0
  O  O31  1  0.66515000  0.54999000  0.68326000  1.0
  O  O32  1  0.33486000  0.45001000  0.31675000  1.0
  O  O33  1  0.45841000  0.99843000  0.31014000  1.0
  O  O34  1  0.54160000  0.00152000  0.68985000  1.0
