# generated using pymatgen
data_AgPH15C8N3O2
_symmetry_space_group_name_H-M   'P 1'
_cell_length_a   6.85300000
_cell_length_b   12.46554032
_cell_length_c   15.53628319
_cell_angle_alpha   75.45850188
_cell_angle_beta   77.28719618
_cell_angle_gamma   74.05100587
_symmetry_Int_Tables_number   1
_chemical_formula_structural   AgPH15C8N3O2
_chemical_formula_sum   'Ag4 P4 H60 C32 N12 O8'
_cell_volume   1218.85870552
_cell_formula_units_Z   4
loop_
 _symmetry_equiv_pos_site_id
 _symmetry_equiv_pos_as_xyz
  1  'x, y, z'
loop_
 _atom_site_type_symbol
 _atom_site_label
 _atom_site_symmetry_multiplicity
 _atom_site_fract_x
 _atom_site_fract_y
 _atom_site_fract_z
 _atom_site_occupancy
  Ag  Ag0  1  0.64885000  0.39418000  0.48867000  1.0
  Ag  Ag1  1  0.53098000  0.10596000  0.01144000  1.0
  Ag  Ag2  1  0.35114000  0.60583000  0.51133000  1.0
  Ag  Ag3  1  0.46903000  0.89404000  0.98856000  1.0
  P  P4  1  0.42205000  0.30049000  0.46015000  1.0
  P  P5  1  0.18212000  0.19986000  0.03980000  1.0
  P  P6  1  0.57793000  0.69951000  0.53986000  1.0
  P  P7  1  0.81788000  0.80014000  0.96021000  1.0
  H  H8  1  0.55649000  0.09163000  0.48796000  1.0
  H  H9  1  0.13566000  0.40868000  0.01187000  1.0
  H  H10  1  0.44348000  0.90837000  0.51205000  1.0
  H  H11  1  0.86435000  0.59131000  0.98814000  1.0
  H  H12  1  0.37354000  0.13523000  0.58003000  1.0
  H  H13  1  0.08782000  0.36502000  0.91990000  1.0
  H  H14  1  0.62643000  0.86478000  0.41997000  1.0
  H  H15  1  0.91220000  0.63498000  0.08010000  1.0
  H  H16  1  0.40553000  0.39009000  0.30314000  1.0
  H  H17  1  0.09882000  0.11016000  0.19678000  1.0
  H  H18  1  0.59448000  0.60991000  0.69686000  1.0
  H  H19  1  0.90119000  0.88984000  0.80322000  1.0
  H  H20  1  0.57777000  0.25393000  0.31132000  1.0
  H  H21  1  0.14342000  0.24622000  0.18868000  1.0
  H  H22  1  0.42223000  0.74607000  0.68868000  1.0
  H  H23  1  0.85658000  0.75378000  0.81133000  1.0
  H  H24  1  0.09979000  0.36359000  0.55929000  1.0
  H  H25  1  0.02132000  0.13668000  0.94083000  1.0
  H  H26  1  0.90019000  0.63641000  0.44071000  1.0
  H  H27  1  0.97869000  0.86332000  0.05917000  1.0
  H  H28  1  0.12127000  0.45506000  0.45097000  1.0
  H  H29  1  0.02656000  0.04524000  0.04914000  1.0
  H  H30  1  0.87873000  0.54494000  0.54903000  1.0
  H  H31  1  0.97345000  0.95476000  0.95086000  1.0
  H  H32  1  0.43575000  0.08402000  0.35277000  1.0
  H  H33  1  0.87300000  0.41632000  0.14713000  1.0
  H  H34  1  0.56424000  0.91598000  0.64723000  1.0
  H  H35  1  0.12700000  0.58368000  0.85288000  1.0
  H  H36  1  0.16577000  0.10216000  0.35697000  1.0
  H  H37  1  0.62505000  0.39838000  0.14326000  1.0
  H  H38  1  0.83422000  0.89785000  0.64302000  1.0
  H  H39  1  0.37497000  0.60162000  0.85674000  1.0
  H  H40  1  0.94315000  0.28704000  0.33879000  1.0
  H  H41  1  0.56881000  0.21357000  0.16149000  1.0
  H  H42  1  0.05685000  0.71298000  0.66120000  1.0
  H  H43  1  0.43119000  0.78643000  0.83851000  1.0
  H  H44  1  0.04103000  0.40965000  0.32568000  1.0
  H  H45  1  0.77587000  0.09080000  0.17461000  1.0
  H  H46  1  0.95899000  0.59036000  0.67431000  1.0
  H  H47  1  0.22413000  0.90920000  0.82540000  1.0
  H  H48  1  0.01413000  0.18231000  0.57490000  1.0
  H  H49  1  0.77045000  0.31791000  0.92531000  1.0
  H  H50  1  0.98585000  0.81769000  0.42510000  1.0
  H  H51  1  0.22956000  0.68209000  0.07469000  1.0
  H  H52  1  0.92600000  0.15440000  0.48446000  1.0
  H  H53  1  0.56416000  0.34595000  0.01579000  1.0
  H  H54  1  0.07398000  0.84561000  0.51553000  1.0
  H  H55  1  0.43585000  0.65405000  0.98421000  1.0
  H  H56  1  0.37315000  0.69159000  0.20305000  1.0
  H  H57  1  0.26453000  0.80957000  0.29678000  1.0
  H  H58  1  0.62684000  0.30840000  0.79696000  1.0
  H  H59  1  0.73546000  0.19042000  0.70322000  1.0
  H  H60  1  0.49326000  0.55050000  0.18914000  1.0
  H  H61  1  0.23637000  0.94976000  0.31144000  1.0
  H  H62  1  0.50670000  0.44949000  0.81087000  1.0
  H  H63  1  0.76365000  0.05022000  0.68857000  1.0
  H  H64  1  0.64797000  0.64610000  0.18342000  1.0
  H  H65  1  0.47837000  0.85146000  0.31629000  1.0
  H  H66  1  0.35202000  0.35389000  0.81657000  1.0
  H  H67  1  0.52164000  0.14852000  0.68370000  1.0
  C  C68  1  0.40677000  0.14893000  0.50602000  1.0
  C  C69  1  0.06101000  0.35139000  0.99393000  1.0
  C  C70  1  0.59321000  0.85108000  0.49398000  1.0
  C  C71  1  0.93902000  0.64860000  0.00607000  1.0
  C  C72  1  0.42607000  0.30101000  0.33971000  1.0
  C  C73  1  0.06686000  0.19929000  0.16028000  1.0
  C  C74  1  0.57393000  0.69899000  0.66029000  1.0
  C  C75  1  0.93315000  0.80071000  0.83972000  1.0
  C  C76  1  0.14334000  0.36576000  0.48652000  1.0
  C  C77  1  0.99472000  0.13458000  0.01360000  1.0
  C  C78  1  0.85665000  0.63425000  0.51348000  1.0
  C  C79  1  0.00528000  0.86542000  0.98640000  1.0
  C  C80  1  0.28222000  0.13449000  0.37504000  1.0
  C  C81  1  0.79179000  0.36589000  0.12504000  1.0
  C  C82  1  0.71777000  0.86551000  0.62495000  1.0
  C  C83  1  0.20823000  0.63411000  0.87496000  1.0
  C  C84  1  0.05834000  0.31924000  0.35797000  1.0
  C  C85  1  0.73530000  0.18119000  0.14225000  1.0
  C  C86  1  0.94165000  0.68077000  0.64203000  1.0
  C  C87  1  0.26471000  0.81881000  0.85775000  1.0
  C  C88  1  0.04165000  0.18826000  0.50165000  1.0
  C  C89  1  0.73078000  0.31203000  0.99856000  1.0
  C  C90  1  0.95836000  0.81174000  0.49834000  1.0
  C  C91  1  0.26923000  0.68797000  0.00144000  1.0
  C  C92  1  0.50591000  0.57922000  0.31826000  1.0
  C  C93  1  0.40315000  0.92097000  0.18182000  1.0
  C  C94  1  0.49408000  0.42078000  0.68174000  1.0
  C  C95  1  0.59685000  0.07902000  0.81818000  1.0
  C  C96  1  0.50493000  0.62059000  0.21734000  1.0
  C  C97  1  0.34292000  0.87917000  0.28269000  1.0
  C  C98  1  0.49507000  0.37940000  0.78266000  1.0
  C  C99  1  0.65709000  0.12082000  0.71730000  1.0
  N  N100  1  0.26324000  0.25343000  0.32687000  1.0
  N  N101  1  0.84364000  0.24697000  0.17324000  1.0
  N  N102  1  0.73677000  0.74658000  0.67312000  1.0
  N  N103  1  0.15637000  0.75303000  0.82676000  1.0
  N  N104  1  0.01138000  0.31035000  0.45713000  1.0
  N  N105  1  0.77808000  0.18998000  0.04310000  1.0
  N  N106  1  0.98861000  0.68965000  0.54287000  1.0
  N  N107  1  0.22193000  0.81002000  0.95690000  1.0
  N  N108  1  0.24573000  0.11902000  0.47389000  1.0
  N  N109  1  0.83814000  0.38128000  0.02619000  1.0
  N  N110  1  0.75425000  0.88098000  0.52611000  1.0
  N  N111  1  0.16187000  0.61872000  0.97381000  1.0
  O  O112  1  0.67854000  0.53835000  0.34500000  1.0
  O  O113  1  0.56073000  0.96261000  0.15536000  1.0
  O  O114  1  0.32148000  0.46165000  0.65499000  1.0
  O  O115  1  0.43924000  0.03740000  0.84463000  1.0
  O  O116  1  0.32925000  0.58705000  0.36869000  1.0
  O  O117  1  0.28566000  0.91260000  0.13117000  1.0
  O  O118  1  0.67074000  0.41296000  0.63132000  1.0
  O  O119  1  0.71434000  0.08739000  0.86883000  1.0
