# generated using pymatgen
data_KH21(C3O2)7
_symmetry_space_group_name_H-M   'P 1'
_cell_length_a   10.00580000
_cell_length_b   10.01710000
_cell_length_c   12.25000000
_cell_angle_alpha   86.87990000
_cell_angle_beta   86.87640000
_cell_angle_gamma   73.87070000
_symmetry_Int_Tables_number   1
_chemical_formula_structural   KH21(C3O2)7
_chemical_formula_sum   'K2 H42 C42 O28'
_cell_volume   1176.73577553
_cell_formula_units_Z   2
loop_
 _symmetry_equiv_pos_site_id
 _symmetry_equiv_pos_as_xyz
  1  'x, y, z'
loop_
 _atom_site_type_symbol
 _atom_site_label
 _atom_site_symmetry_multiplicity
 _atom_site_fract_x
 _atom_site_fract_y
 _atom_site_fract_z
 _atom_site_occupancy
  K  K0  1  0.47229000  0.51960000  0.78496000  1.0
  K  K1  1  0.51971000  0.47251000  0.28471000  1.0
  H  H2  1  0.79332000  0.72955000  0.93873000  1.0
  H  H3  1  0.72964000  0.79323000  0.43876000  1.0
  H  H4  1  0.64438000  0.69998000  0.87935000  1.0
  H  H5  1  0.69987000  0.64459000  0.37927000  1.0
  H  H6  1  0.70737000  0.84241000  0.82857000  1.0
  H  H7  1  0.84268000  0.70727000  0.32866000  1.0
  H  H8  1  0.75425000  0.03110000  0.70241000  1.0
  H  H9  1  0.03074000  0.75410000  0.20255000  1.0
  H  H10  1  0.62400000  0.18987000  0.73454000  1.0
  H  H11  1  0.18974000  0.62402000  0.23459000  1.0
  H  H12  1  0.77342000  0.13299000  0.81562000  1.0
  H  H13  1  0.13284000  0.77329000  0.31566000  1.0
  H  H14  1  0.82294000  0.98842000  0.34182000  1.0
  H  H15  1  0.98813000  0.82273000  0.84174000  1.0
  H  H16  1  0.69879000  0.14886000  0.30245000  1.0
  H  H17  1  0.14881000  0.69880000  0.80239000  1.0
  H  H18  1  0.68219000  0.06883000  0.43532000  1.0
  H  H19  1  0.06871000  0.68223000  0.93528000  1.0
  H  H20  1  0.13286000  0.47323000  0.07626000  1.0
  H  H21  1  0.47330000  0.13274000  0.57629000  1.0
  H  H22  1  0.94507000  0.51697000  0.09442000  1.0
  H  H23  1  0.51701000  0.94516000  0.59446000  1.0
  H  H24  1  0.04476000  0.33925000  0.08064000  1.0
  H  H25  1  0.33912000  0.04480000  0.58070000  1.0
  H  H26  1  0.31817000  0.99956000  0.32849000  1.0
  H  H27  1  0.99911000  0.31842000  0.82842000  1.0
  H  H28  1  0.43596000  0.07928000  0.38764000  1.0
  H  H29  1  0.07918000  0.43582000  0.88763000  1.0
  H  H30  1  0.37883000  0.13329000  0.25308000  1.0
  H  H31  1  0.13318000  0.37876000  0.75305000  1.0
  H  H32  1  0.45247000  0.72114000  0.44902000  1.0
  H  H33  1  0.72117000  0.45220000  0.94905000  1.0
  H  H34  1  0.51244000  0.56614000  0.53472000  1.0
  H  H35  1  0.56594000  0.51196000  0.03470000  1.0
  H  H36  1  0.38819000  0.71781000  0.58849000  1.0
  H  H37  1  0.71791000  0.38811000  0.08855000  1.0
  H  H38  1  0.16713000  0.95467000  0.53871000  1.0
  H  H39  1  0.95510000  0.16712000  0.03871000  1.0
  H  H40  1  0.06983000  0.95488000  0.66609000  1.0
  H  H41  1  0.95537000  0.06994000  0.16610000  1.0
  H  H42  1  0.97990000  0.00749000  0.54126000  1.0
  H  H43  1  0.00803000  0.98011000  0.04127000  1.0
  C  C44  1  0.88780000  0.54089000  0.61418000  1.0
  C  C45  1  0.54091000  0.88795000  0.11421000  1.0
  C  C46  1  0.87399000  0.40603000  0.59395000  1.0
  C  C47  1  0.40589000  0.87414000  0.09398000  1.0
  C  C48  1  0.89343000  0.35577000  0.48442000  1.0
  C  C49  1  0.35564000  0.89357000  0.98443000  1.0
  C  C50  1  0.98475000  0.38975000  0.40751000  1.0
  C  C51  1  0.38963000  0.98486000  0.90755000  1.0
  C  C52  1  0.11402000  0.41767000  0.44251000  1.0
  C  C53  1  0.41755000  0.11398000  0.94259000  1.0
  C  C54  1  0.11306000  0.52235000  0.50851000  1.0
  C  C55  1  0.52234000  0.11301000  0.00862000  1.0
  C  C56  1  0.98352000  0.60498000  0.56341000  1.0
  C  C57  1  0.60505000  0.98361000  0.06349000  1.0
  C  C58  1  0.77944000  0.62506000  0.69447000  1.0
  C  C59  1  0.62523000  0.77962000  0.19441000  1.0
  C  C60  1  0.73805000  0.73543000  0.86327000  1.0
  C  C61  1  0.73554000  0.73807000  0.36328000  1.0
  C  C62  1  0.80748000  0.33733000  0.67901000  1.0
  C  C63  1  0.33719000  0.80753000  0.17901000  1.0
  C  C64  1  0.73558000  0.13554000  0.73289000  1.0
  C  C65  1  0.13533000  0.73548000  0.23294000  1.0
  C  C66  1  0.78899000  0.28502000  0.44908000  1.0
  C  C67  1  0.28497000  0.78914000  0.94902000  1.0
  C  C68  1  0.75586000  0.08706000  0.37050000  1.0
  C  C69  1  0.08690000  0.75581000  0.87043000  1.0
  C  C70  1  0.96137000  0.38917000  0.29080000  1.0
  C  C71  1  0.38912000  0.96148000  0.79083000  1.0
  C  C72  1  0.04418000  0.43987000  0.11219000  1.0
  C  C73  1  0.43986000  0.04418000  0.61223000  1.0
  C  C74  1  0.24692000  0.31628000  0.40792000  1.0
  C  C75  1  0.31614000  0.24675000  0.90797000  1.0
  C  C76  1  0.34846000  0.09559000  0.33381000  1.0
  C  C77  1  0.09536000  0.34846000  0.83377000  1.0
  C  C78  1  0.24635000  0.54385000  0.54737000  1.0
  C  C79  1  0.54390000  0.24615000  0.04748000  1.0
  C  C80  1  0.42413000  0.65615000  0.51587000  1.0
  C  C81  1  0.65617000  0.42383000  0.01592000  1.0
  C  C82  1  0.96302000  0.75366000  0.58127000  1.0
  C  C83  1  0.75392000  0.96315000  0.08130000  1.0
  C  C84  1  0.07205000  0.93793000  0.57816000  1.0
  C  C85  1  0.93837000  0.07214000  0.07817000  1.0
  O  O86  1  0.83488000  0.64705000  0.78752000  1.0
  O  O87  1  0.64724000  0.83490000  0.28751000  1.0
  O  O88  1  0.65551000  0.66634000  0.67540000  1.0
  O  O89  1  0.66659000  0.65586000  0.17522000  1.0
  O  O90  1  0.75371000  0.38788000  0.76673000  1.0
  O  O91  1  0.38785000  0.75384000  0.26671000  1.0
  O  O92  1  0.81156000  0.20489000  0.65584000  1.0
  O  O93  1  0.20465000  0.81141000  0.15583000  1.0
  O  O94  1  0.66271000  0.33934000  0.45432000  1.0
  O  O95  1  0.33946000  0.66301000  0.95428000  1.0
  O  O96  1  0.84899000  0.15740000  0.41296000  1.0
  O  O97  1  0.15721000  0.84894000  0.91286000  1.0
  O  O98  1  0.86097000  0.36421000  0.25028000  1.0
  O  O99  1  0.36419000  0.86118000  0.75030000  1.0
  O  O100  1  0.06359000  0.42642000  0.22836000  1.0
  O  O101  1  0.42642000  0.06360000  0.72840000  1.0
  O  O102  1  0.22627000  0.19596000  0.37771000  1.0
  O  O103  1  0.19568000  0.22627000  0.87765000  1.0
  O  O104  1  0.36312000  0.33572000  0.40676000  1.0
  O  O105  1  0.33569000  0.36280000  0.90686000  1.0
  O  O106  1  0.31094000  0.61107000  0.47463000  1.0
  O  O107  1  0.61125000  0.31062000  0.97475000  1.0
  O  O108  1  0.28446000  0.50774000  0.64085000  1.0
  O  O109  1  0.50770000  0.28426000  0.14094000  1.0
  O  O110  1  0.08077000  0.79408000  0.56088000  1.0
  O  O111  1  0.79437000  0.08079000  0.06094000  1.0
  O  O112  1  0.85124000  0.83550000  0.60998000  1.0
  O  O113  1  0.83587000  0.85149000  0.10995000  1.0
