# generated using pymatgen
data_PrH11C14Br2N2O9
_symmetry_space_group_name_H-M   'P 1'
_cell_length_a   8.53002000
_cell_length_b   10.14790000
_cell_length_c   11.89690000
_cell_angle_alpha   109.13600000
_cell_angle_beta   104.50500000
_cell_angle_gamma   99.91680000
_symmetry_Int_Tables_number   1
_chemical_formula_structural   PrH11C14Br2N2O9
_chemical_formula_sum   'Pr2 H22 C28 Br4 N4 O18'
_cell_volume   904.75625889
_cell_formula_units_Z   2
loop_
 _symmetry_equiv_pos_site_id
 _symmetry_equiv_pos_as_xyz
  1  'x, y, z'
loop_
 _atom_site_type_symbol
 _atom_site_label
 _atom_site_symmetry_multiplicity
 _atom_site_fract_x
 _atom_site_fract_y
 _atom_site_fract_z
 _atom_site_occupancy
  Pr  Pr0  1  0.51430000  0.20837000  0.01113000  1.0
  Pr  Pr1  1  0.48570000  0.79163000  0.98887000  1.0
  H  H2  1  0.58943000  0.49655000  0.25290000  1.0
  H  H3  1  0.41057000  0.50345000  0.74710000  1.0
  H  H4  1  0.60300000  0.54576000  0.14143000  1.0
  H  H5  1  0.39700000  0.45424000  0.85857000  1.0
  H  H6  1  0.46100000  0.34756000  0.40092000  1.0
  H  H7  1  0.53900000  0.65244000  0.59908000  1.0
  H  H8  1  0.28653000  0.23287000  0.66336000  1.0
  H  H9  1  0.71348000  0.76713000  0.33665000  1.0
  H  H10  1  0.29749000  0.89082000  0.33189000  1.0
  H  H11  1  0.70251000  0.10918000  0.66811000  1.0
  H  H12  1  0.93017000  0.29918000  0.00165000  1.0
  H  H13  1  0.06983000  0.70082000  0.99835000  1.0
  H  H14  1  0.65276000  0.46005000  0.76453000  1.0
  H  H15  1  0.34724000  0.53995000  0.23547000  1.0
  H  H16  1  0.12166000  0.38209000  0.71823000  1.0
  H  H17  1  0.87834000  0.61791000  0.28177000  1.0
  H  H18  1  0.96071000  0.83486000  0.71861000  1.0
  H  H19  1  0.03929000  0.16513000  0.28139000  1.0
  H  H20  1  0.02319000  0.01161000  0.84234000  1.0
  H  H21  1  0.97681000  0.98839000  0.15766000  1.0
  H  H22  1  0.91860000  0.85354000  0.86009000  1.0
  H  H23  1  0.08140000  0.14646000  0.13991000  1.0
  C  C24  1  0.42660000  0.07298000  0.23054000  1.0
  C  C25  1  0.57340000  0.92702000  0.76946000  1.0
  C  C26  1  0.38473000  0.11243000  0.35198000  1.0
  C  C27  1  0.61527000  0.88758000  0.64802000  1.0
  C  C28  1  0.41066000  0.25797000  0.42452000  1.0
  C  C29  1  0.58934000  0.74203000  0.57548000  1.0
  C  C30  1  0.30930000  0.19401000  0.57357000  1.0
  C  C31  1  0.69070000  0.80599000  0.42643000  1.0
  C  C32  1  0.28019000  0.04834000  0.50094000  1.0
  C  C33  1  0.71981000  0.95166000  0.49906000  1.0
  C  C34  1  0.31810000  0.00445000  0.38943000  1.0
  C  C35  1  0.68190000  0.99555000  0.61057000  1.0
  C  C36  1  0.19752000  0.28634000  0.91397000  1.0
  C  C37  1  0.80248000  0.71366000  0.08603000  1.0
  C  C38  1  0.04412000  0.33093000  0.86290000  1.0
  C  C39  1  0.95587000  0.66907000  0.13710000  1.0
  C  C40  1  0.92223000  0.33029000  0.92160000  1.0
  C  C41  1  0.07777000  0.66971000  0.07840000  1.0
  C  C42  1  0.76378000  0.42214000  0.78621000  1.0
  C  C43  1  0.23622000  0.57786000  0.21379000  1.0
  C  C44  1  0.88337000  0.42263000  0.72592000  1.0
  C  C45  1  0.11663000  0.57737000  0.27408000  1.0
  C  C46  1  0.02565000  0.37703000  0.76292000  1.0
  C  C47  1  0.97435000  0.62297000  0.23708000  1.0
  C  C48  1  0.17531000  0.86881000  0.87286000  1.0
  C  C49  1  0.82469000  0.13119000  0.12714000  1.0
  C  C50  1  0.00996000  0.89629000  0.82109000  1.0
  C  C51  1  0.99003000  0.10371000  0.17891000  1.0
  Br  Br52  1  0.18602000  0.91034000  0.55834000  1.0
  Br  Br53  1  0.81398000  0.08966000  0.44166000  1.0
  Br  Br54  1  0.84409000  0.48419000  0.59033000  1.0
  Br  Br55  1  0.15591000  0.51581000  0.40967000  1.0
  N  N56  1  0.37274000  0.29709000  0.53357000  1.0
  N  N57  1  0.62727000  0.70291000  0.46643000  1.0
  N  N58  1  0.78474000  0.37569000  0.88310000  1.0
  N  N59  1  0.21526000  0.62431000  0.11691000  1.0
  O  O60  1  0.47160000  0.17738000  0.19897000  1.0
  O  O61  1  0.52840000  0.82262000  0.80103000  1.0
  O  O62  1  0.41136000  0.93949000  0.17187000  1.0
  O  O63  1  0.58864000  0.06051000  0.82813000  1.0
  O  O64  1  0.39567000  0.43515000  0.59880000  1.0
  O  O65  1  0.60433000  0.56486000  0.40121000  1.0
  O  O66  1  0.67341000  0.38108000  0.94141000  1.0
  O  O67  1  0.32659000  0.61892000  0.05859000  1.0
  O  O68  1  0.21323000  0.25421000  0.00916000  1.0
  O  O69  1  0.78677000  0.74579000  0.99084000  1.0
  O  O70  1  0.30846000  0.28239000  0.85743000  1.0
  O  O71  1  0.69153000  0.71761000  0.14257000  1.0
  O  O72  1  0.57303000  0.45869000  0.16051000  1.0
  O  O73  1  0.42697000  0.54131000  0.83949000  1.0
  O  O74  1  0.31335000  0.97200000  0.92250000  1.0
  O  O75  1  0.68665000  0.02800000  0.07750000  1.0
  O  O76  1  0.17762000  0.74226000  0.86780000  1.0
  O  O77  1  0.82238000  0.25774000  0.13220000  1.0
