# generated using pymatgen
data_CdH6(C2O3)2
_symmetry_space_group_name_H-M   'P 1'
_cell_length_a   8.69997000
_cell_length_b   11.62650000
_cell_length_c   14.28500000
_cell_angle_alpha   90.00000000
_cell_angle_beta   90.00000000
_cell_angle_gamma   102.61200000
_symmetry_Int_Tables_number   1
_chemical_formula_structural   CdH6(C2O3)2
_chemical_formula_sum   'Cd8 H48 C32 O48'
_cell_volume   1410.06596936
_cell_formula_units_Z   8
loop_
 _symmetry_equiv_pos_site_id
 _symmetry_equiv_pos_as_xyz
  1  'x, y, z'
loop_
 _atom_site_type_symbol
 _atom_site_label
 _atom_site_symmetry_multiplicity
 _atom_site_fract_x
 _atom_site_fract_y
 _atom_site_fract_z
 _atom_site_occupancy
  Cd  Cd0  1  0.26104000  0.62704000  0.28840000  1.0
  Cd  Cd1  1  0.73896000  0.87296000  0.78840000  1.0
  Cd  Cd2  1  0.73896000  0.37296000  0.71160000  1.0
  Cd  Cd3  1  0.26104000  0.12704000  0.21160000  1.0
  Cd  Cd4  1  0.65066000  0.84096000  0.11859000  1.0
  Cd  Cd5  1  0.34934000  0.65904000  0.61859000  1.0
  Cd  Cd6  1  0.34934000  0.15904000  0.88141000  1.0
  Cd  Cd7  1  0.65066000  0.34097000  0.38141000  1.0
  H  H8  1  0.96358000  0.84750000  0.04568000  1.0
  H  H9  1  0.03642000  0.65250000  0.54568000  1.0
  H  H10  1  0.03642000  0.15250000  0.95432000  1.0
  H  H11  1  0.96358000  0.34750000  0.45432000  1.0
  H  H12  1  0.55126000  0.60107000  0.38194000  1.0
  H  H13  1  0.44874000  0.89893000  0.88194000  1.0
  H  H14  1  0.44874000  0.39893000  0.61806000  1.0
  H  H15  1  0.55126000  0.10107000  0.11806000  1.0
  H  H16  1  0.05901000  0.42826000  0.21779000  1.0
  H  H17  1  0.94099000  0.07173000  0.71779000  1.0
  H  H18  1  0.94099000  0.57173000  0.78221000  1.0
  H  H19  1  0.05901000  0.92826000  0.28221000  1.0
  H  H20  1  0.23254000  0.41074000  0.18530000  1.0
  H  H21  1  0.76746000  0.08926000  0.68530000  1.0
  H  H22  1  0.76746000  0.58926000  0.81470000  1.0
  H  H23  1  0.23254000  0.91074000  0.31470000  1.0
  H  H24  1  0.07954000  0.69521000  0.11547000  1.0
  H  H25  1  0.92046000  0.80479000  0.61547000  1.0
  H  H26  1  0.92046000  0.30479000  0.88453000  1.0
  H  H27  1  0.07954000  0.19521000  0.38453000  1.0
  H  H28  1  0.84693000  0.84342000  0.43892000  1.0
  H  H29  1  0.15308000  0.65658000  0.93892000  1.0
  H  H30  1  0.15307000  0.15658000  0.56108000  1.0
  H  H31  1  0.84692000  0.34342000  0.06108000  1.0
  H  H32  1  0.81940000  0.01752000  0.52567000  1.0
  H  H33  1  0.18060000  0.48248000  0.02567000  1.0
  H  H34  1  0.18060000  0.98248000  0.47433000  1.0
  H  H35  1  0.81941000  0.51752000  0.97433000  1.0
  H  H36  1  0.94152000  0.61305000  0.34955000  1.0
  H  H37  1  0.05848000  0.88695000  0.84955000  1.0
  H  H38  1  0.05848000  0.38695000  0.65045000  1.0
  H  H39  1  0.94152000  0.11305000  0.15045000  1.0
  H  H40  1  0.93470000  0.66365000  0.25049000  1.0
  H  H41  1  0.06530000  0.83635000  0.75049000  1.0
  H  H42  1  0.06530000  0.33635000  0.74951000  1.0
  H  H43  1  0.93470000  0.16365000  0.24951000  1.0
  H  H44  1  0.33294000  0.81770000  0.42222000  1.0
  H  H45  1  0.66706000  0.68230000  0.92222000  1.0
  H  H46  1  0.66706000  0.18230000  0.57778000  1.0
  H  H47  1  0.33294000  0.31770000  0.07778000  1.0
  H  H48  1  0.45761000  0.84362000  0.33429000  1.0
  H  H49  1  0.54239000  0.65638000  0.83429000  1.0
  H  H50  1  0.54239000  0.15638000  0.66571000  1.0
  H  H51  1  0.45761000  0.34362000  0.16571000  1.0
  H  H52  1  0.59416000  0.60359000  0.27366000  1.0
  H  H53  1  0.40584000  0.89641000  0.77366000  1.0
  H  H54  1  0.40583000  0.39641000  0.72634000  1.0
  H  H55  1  0.59416000  0.10359000  0.22634000  1.0
  C  C56  1  0.32652000  0.78379000  0.09276000  1.0
  C  C57  1  0.67348000  0.71621000  0.59276000  1.0
  C  C58  1  0.67348000  0.21621000  0.90724000  1.0
  C  C59  1  0.32652000  0.28379000  0.40724000  1.0
  C  C60  1  0.15463000  0.77416000  0.08573000  1.0
  C  C61  1  0.84537000  0.72584000  0.58573000  1.0
  C  C62  1  0.84537000  0.22584000  0.91426000  1.0
  C  C63  1  0.15463000  0.27416000  0.41426000  1.0
  C  C64  1  0.09133000  0.85886000  0.04852000  1.0
  C  C65  1  0.90867000  0.64114000  0.54852000  1.0
  C  C66  1  0.90867000  0.14114000  0.95148000  1.0
  C  C67  1  0.09133000  0.35886000  0.45148000  1.0
  C  C68  1  0.18194000  0.97143000  0.00730000  1.0
  C  C69  1  0.81807000  0.52857000  0.50730000  1.0
  C  C70  1  0.81807000  0.02857000  0.99270000  1.0
  C  C71  1  0.18193000  0.47143000  0.49270000  1.0
  C  C72  1  0.77004000  0.89170000  0.30207000  1.0
  C  C73  1  0.22996000  0.60830000  0.80207000  1.0
  C  C74  1  0.22996000  0.10830000  0.69793000  1.0
  C  C75  1  0.77004000  0.39170000  0.19793000  1.0
  C  C76  1  0.80620000  0.91443000  0.40321000  1.0
  C  C77  1  0.19380000  0.58557000  0.90321000  1.0
  C  C78  1  0.19380000  0.08557000  0.59679000  1.0
  C  C79  1  0.80620000  0.41443000  0.09679000  1.0
  C  C80  1  0.79351000  0.01140000  0.45078000  1.0
  C  C81  1  0.20649000  0.48859000  0.95078000  1.0
  C  C82  1  0.20649000  0.98859000  0.54922000  1.0
  C  C83  1  0.79351000  0.51141000  0.04922000  1.0
  C  C84  1  0.74561000  0.11401000  0.40691000  1.0
  C  C85  1  0.25439000  0.38599000  0.90691000  1.0
  C  C86  1  0.25439000  0.88599000  0.59309000  1.0
  C  C87  1  0.74561000  0.61401000  0.09309000  1.0
  O  O88  1  0.37870000  0.72209000  0.15475000  1.0
  O  O89  1  0.62130000  0.77791000  0.65475000  1.0
  O  O90  1  0.62130000  0.27791000  0.84525000  1.0
  O  O91  1  0.37870000  0.22209000  0.34525000  1.0
  O  O92  1  0.34386000  0.81669000  0.35233000  1.0
  O  O93  1  0.65614000  0.68331000  0.85233000  1.0
  O  O94  1  0.65614000  0.18331000  0.64767000  1.0
  O  O95  1  0.34386000  0.31669000  0.14767000  1.0
  O  O96  1  0.50753000  0.58153000  0.31932000  1.0
  O  O97  1  0.49247000  0.91847000  0.81932000  1.0
  O  O98  1  0.49247000  0.41847000  0.68068000  1.0
  O  O99  1  0.50753000  0.08153000  0.18068000  1.0
  O  O100  1  0.16719000  0.47011000  0.19649000  1.0
  O  O101  1  0.83281000  0.02989000  0.69649000  1.0
  O  O102  1  0.83281000  0.52989000  0.80351000  1.0
  O  O103  1  0.16719000  0.97011000  0.30351000  1.0
  O  O104  1  0.41988000  0.85409000  0.03905000  1.0
  O  O105  1  0.58012000  0.64591000  0.53905000  1.0
  O  O106  1  0.58012000  0.14591000  0.96095000  1.0
  O  O107  1  0.41988000  0.35409000  0.46095000  1.0
  O  O108  1  0.22621000  0.06238000  0.05702000  1.0
  O  O109  1  0.77379000  0.43762000  0.55702000  1.0
  O  O110  1  0.77379000  0.93762000  0.94298000  1.0
  O  O111  1  0.22621000  0.56238000  0.44298000  1.0
  O  O112  1  0.20052000  0.97346000  0.91827000  1.0
  O  O113  1  0.79948000  0.52654000  0.41827000  1.0
  O  O114  1  0.79948000  0.02654000  0.08173000  1.0
  O  O115  1  0.20052000  0.47346000  0.58173000  1.0
  O  O116  1  0.88017000  0.88821000  0.24529000  1.0
  O  O117  1  0.11983000  0.61179000  0.74529000  1.0
  O  O118  1  0.11983000  0.11179000  0.75471000  1.0
  O  O119  1  0.88017000  0.38821000  0.25471000  1.0
  O  O120  1  0.62549000  0.86922000  0.27642000  1.0
  O  O121  1  0.37451000  0.63078000  0.77642000  1.0
  O  O122  1  0.37451000  0.13078000  0.72358000  1.0
  O  O123  1  0.62549000  0.36922000  0.22358000  1.0
  O  O124  1  0.74879000  0.12868000  0.31910000  1.0
  O  O125  1  0.25120000  0.37132000  0.81910000  1.0
  O  O126  1  0.25120000  0.87132000  0.68090000  1.0
  O  O127  1  0.74880000  0.62868000  0.18090000  1.0
  O  O128  1  0.70562000  0.18917000  0.46373000  1.0
  O  O129  1  0.29438000  0.31083000  0.96373000  1.0
  O  O130  1  0.29438000  0.81083000  0.53627000  1.0
  O  O131  1  0.70562000  0.68917000  0.03627000  1.0
  O  O132  1  0.00843000  0.66549000  0.30327000  1.0
  O  O133  1  0.99157000  0.83451000  0.80327000  1.0
  O  O134  1  0.99157000  0.33451000  0.69673000  1.0
  O  O135  1  0.00843000  0.16549000  0.19673000  1.0
