# generated using pymatgen
data_Al2H13C25IO12
_symmetry_space_group_name_H-M   'P 1'
_cell_length_a   6.63144000
_cell_length_b   16.96110000
_cell_length_c   19.67880000
_cell_angle_alpha   71.38200000
_cell_angle_beta   88.27030000
_cell_angle_gamma   88.27600000
_symmetry_Int_Tables_number   1
_chemical_formula_structural   Al2H13C25IO12
_chemical_formula_sum   'Al4 H26 C50 I2 O24'
_cell_volume   2096.12708788
_cell_formula_units_Z   2
loop_
 _symmetry_equiv_pos_site_id
 _symmetry_equiv_pos_as_xyz
  1  'x, y, z'
loop_
 _atom_site_type_symbol
 _atom_site_label
 _atom_site_symmetry_multiplicity
 _atom_site_fract_x
 _atom_site_fract_y
 _atom_site_fract_z
 _atom_site_occupancy
  Al  Al0  1  0.11303000  0.49815000  0.50102000  1.0
  Al  Al1  1  0.61333000  0.49945000  0.49965000  1.0
  Al  Al2  1  0.62224000  0.99939000  0.99920000  1.0
  Al  Al3  1  0.12219000  0.00056000  0.99833000  1.0
  H  H4  1  0.56303000  0.81300000  0.19748000  1.0
  H  H5  1  0.06945000  0.19786000  0.81371000  1.0
  H  H6  1  0.02515000  0.78891000  0.19242000  1.0
  H  H7  1  0.53049000  0.18943000  0.79063000  1.0
  H  H8  1  0.56281000  0.68853000  0.30519000  1.0
  H  H9  1  0.06264000  0.29828000  0.69014000  1.0
  H  H10  1  0.01944000  0.71428000  0.31174000  1.0
  H  H11  1  0.52430000  0.30431000  0.70175000  1.0
  H  H12  1  0.29054000  0.79942000  0.62416000  1.0
  H  H13  1  0.93827000  0.19931000  0.37299000  1.0
  H  H14  1  0.30104000  0.88447000  0.70422000  1.0
  H  H15  1  0.93450000  0.11401000  0.29296000  1.0
  H  H16  1  0.16348000  0.92045000  0.81046000  1.0
  H  H17  1  0.07855000  0.07821000  0.18735000  1.0
  H  H18  1  0.60655000  0.81591000  0.91184000  1.0
  H  H19  1  0.63519000  0.18554000  0.08787000  1.0
  H  H20  1  0.44096000  0.70705000  0.87473000  1.0
  H  H21  1  0.79488000  0.29488000  0.12556000  1.0
  H  H22  1  0.44402000  0.61320000  0.80148000  1.0
  H  H23  1  0.78514000  0.38885000  0.19881000  1.0
  H  H24  1  0.44688000  0.65285000  0.56407000  1.0
  H  H25  1  0.77862000  0.34737000  0.43322000  1.0
  H  H26  1  0.35077000  0.60636000  0.46063000  1.0
  H  H27  1  0.87068000  0.39122000  0.54005000  1.0
  H  H28  1  0.37379000  0.88969000  0.03182000  1.0
  H  H29  1  0.86408000  0.10765000  0.99183000  1.0
  C  C30  1  0.36713000  0.42408000  0.41269000  1.0
  C  C31  1  0.85841000  0.57422000  0.58759000  1.0
  C  C32  1  0.36903000  0.38228000  0.60850000  1.0
  C  C33  1  0.85919000  0.61793000  0.39370000  1.0
  C  C34  1  0.70872000  0.78483000  0.21793000  1.0
  C  C35  1  0.21310000  0.21620000  0.78506000  1.0
  C  C36  1  0.87436000  0.81496000  0.17744000  1.0
  C  C37  1  0.38213000  0.17687000  0.81680000  1.0
  C  C38  1  0.70763000  0.71731000  0.28538000  1.0
  C  C39  1  0.20906000  0.27964000  0.71509000  1.0
  C  C40  1  0.87027000  0.68779000  0.32630000  1.0
  C  C41  1  0.37417000  0.31799000  0.67918000  1.0
  C  C42  1  0.72229000  0.61009000  0.69721000  1.0
  C  C43  1  0.50391000  0.39020000  0.30246000  1.0
  C  C44  1  0.86021000  0.62300000  0.63936000  1.0
  C  C45  1  0.36545000  0.37623000  0.36025000  1.0
  C  C46  1  0.01129000  0.68276000  0.62882000  1.0
  C  C47  1  0.21523000  0.31630000  0.37000000  1.0
  C  C48  1  0.01987000  0.73297000  0.67355000  1.0
  C  C49  1  0.20967000  0.26620000  0.32507000  1.0
  C  C50  1  0.86715000  0.72454000  0.72818000  1.0
  C  C51  1  0.36445000  0.27508000  0.27105000  1.0
  C  C52  1  0.71502000  0.66292000  0.74011000  1.0
  C  C53  1  0.51429000  0.33753000  0.25947000  1.0
  C  C54  1  0.17437000  0.79293000  0.66577000  1.0
  C  C55  1  0.05641000  0.20597000  0.33200000  1.0
  C  C56  1  0.18064000  0.84014000  0.71029000  1.0
  C  C57  1  0.05394000  0.15863000  0.28748000  1.0
  C  C58  1  0.03117000  0.83281000  0.76592000  1.0
  C  C59  1  0.20588000  0.16621000  0.23257000  1.0
  C  C60  1  0.87118000  0.77564000  0.77328000  1.0
  C  C61  1  0.36416000  0.22395000  0.22591000  1.0
  C  C62  1  0.71740000  0.76896000  0.82714000  1.0
  C  C63  1  0.51959000  0.23147000  0.17246000  1.0
  C  C64  1  0.56134000  0.71013000  0.83496000  1.0
  C  C65  1  0.67332000  0.29118000  0.16503000  1.0
  C  C66  1  0.56273000  0.65831000  0.79435000  1.0
  C  C67  1  0.66822000  0.34305000  0.20560000  1.0
  C  C68  1  0.03871000  0.87877000  0.81382000  1.0
  C  C69  1  0.20207000  0.12031000  0.18450000  1.0
  C  C70  1  0.88631000  0.87208000  0.86599000  1.0
  C  C71  1  0.35612000  0.12777000  0.13273000  1.0
  C  C72  1  0.72490000  0.81902000  0.87145000  1.0
  C  C73  1  0.51562000  0.18146000  0.12803000  1.0
  C  C74  1  0.38177000  0.11251000  0.88786000  1.0
  C  C75  1  0.86401000  0.88418000  0.10920000  1.0
  C  C76  1  0.35224000  0.08026000  0.08070000  1.0
  C  C77  1  0.89255000  0.92020000  0.91745000  1.0
  C  C78  1  0.16917000  0.69010000  0.57036000  1.0
  C  C79  1  0.05526000  0.30854000  0.42789000  1.0
  I  I80  1  0.54864000  0.50122000  0.72950000  1.0
  I  I81  1  0.67161000  0.50062000  0.27041000  1.0
  O  O82  1  0.53994000  0.41371000  0.58410000  1.0
  O  O83  1  0.02499000  0.59421000  0.42584000  1.0
  O  O84  1  0.19798000  0.45274000  0.42656000  1.0
  O  O85  1  0.69229000  0.56987000  0.55788000  1.0
  O  O86  1  0.20218000  0.40295000  0.57654000  1.0
  O  O87  1  0.68778000  0.58559000  0.41545000  1.0
  O  O88  1  0.02725000  0.54411000  0.57508000  1.0
  O  O89  1  0.53440000  0.42918000  0.44142000  1.0
  O  O90  1  0.35991000  0.55023000  0.49432000  1.0
  O  O91  1  0.86575000  0.44734000  0.50621000  1.0
  O  O92  1  0.18407000  0.05180000  0.07062000  1.0
  O  O93  1  0.72754000  0.92601000  0.95062000  1.0
  O  O94  1  0.55315000  0.07855000  0.90858000  1.0
  O  O95  1  0.03145000  0.90389000  0.07468000  1.0
  O  O96  1  0.51915000  0.07330000  0.04885000  1.0
  O  O97  1  0.05965000  0.95040000  0.92606000  1.0
  O  O98  1  0.69228000  0.91833000  0.08955000  1.0
  O  O99  1  0.21557000  0.09566000  0.92335000  1.0
  O  O100  1  0.37441000  0.94890000  0.00663000  1.0
  O  O101  1  0.86897000  0.05061000  0.99184000  1.0
  O  O102  1  0.13784000  0.71639000  0.50605000  1.0
  O  O103  1  0.35027000  0.66362000  0.59943000  1.0
  O  O104  1  0.08362000  0.28050000  0.49230000  1.0
  O  O105  1  0.87612000  0.33688000  0.39796000  1.0
