# generated using pymatgen
data_CdH6C8(BrN)4
_symmetry_space_group_name_H-M   'P 1'
_cell_length_a   3.91456000
_cell_length_b   10.45470000
_cell_length_c   16.60860000
_cell_angle_alpha   90.00050000
_cell_angle_beta   90.00050000
_cell_angle_gamma   87.88730000
_symmetry_Int_Tables_number   1
_chemical_formula_structural   CdH6C8(BrN)4
_chemical_formula_sum   'Cd2 H12 C16 Br8 N8'
_cell_volume   679.25405773
_cell_formula_units_Z   2
loop_
 _symmetry_equiv_pos_site_id
 _symmetry_equiv_pos_as_xyz
  1  'x, y, z'
loop_
 _atom_site_type_symbol
 _atom_site_label
 _atom_site_symmetry_multiplicity
 _atom_site_fract_x
 _atom_site_fract_y
 _atom_site_fract_z
 _atom_site_occupancy
  Cd  Cd0  1  0.49999000  0.00000000  0.50000000  1.0
  Cd  Cd1  1  0.49999000  0.50001000  1.00000000  1.0
  H  H2  1  0.27985000  0.30574000  0.48069000  1.0
  H  H3  1  0.72014000  0.19426000  0.98069000  1.0
  H  H4  1  0.72013000  0.69426000  0.51931000  1.0
  H  H5  1  0.27987000  0.80576000  0.01931000  1.0
  H  H6  1  0.73106000  0.23727000  0.21004000  1.0
  H  H7  1  0.26892000  0.26273000  0.71003000  1.0
  H  H8  1  0.26894000  0.76273000  0.78996000  1.0
  H  H9  1  0.73106000  0.73725000  0.28997000  1.0
  H  H10  1  0.68095000  0.05263000  0.30824000  1.0
  H  H11  1  0.31905000  0.44736000  0.80824000  1.0
  H  H12  1  0.31905000  0.94737000  0.69175000  1.0
  H  H13  1  0.68091000  0.55263000  0.19175000  1.0
  C  C14  1  0.37927000  0.29035000  0.42002000  1.0
  C  C15  1  0.62072000  0.20966000  0.92002000  1.0
  C  C16  1  0.62072000  0.70965000  0.57998000  1.0
  C  C17  1  0.37930000  0.79035000  0.07999000  1.0
  C  C18  1  0.39967000  0.38922000  0.36359000  1.0
  C  C19  1  0.60028000  0.11078000  0.86359000  1.0
  C  C20  1  0.60030000  0.61078000  0.63641000  1.0
  C  C21  1  0.39979000  0.88922000  0.13642000  1.0
  C  C22  1  0.62796000  0.25194000  0.27051000  1.0
  C  C23  1  0.37203000  0.24806000  0.77050000  1.0
  C  C24  1  0.37204000  0.74806000  0.72949000  1.0
  C  C25  1  0.62798000  0.75193000  0.22950000  1.0
  C  C26  1  0.60460000  0.15061000  0.32465000  1.0
  C  C27  1  0.39540000  0.34939000  0.82465000  1.0
  C  C28  1  0.39541000  0.84939000  0.67535000  1.0
  C  C29  1  0.60457000  0.65061000  0.17535000  1.0
  Br  Br30  1  0.01632000  0.87182000  0.41444000  1.0
  Br  Br31  1  0.98366000  0.62819000  0.91444000  1.0
  Br  Br32  1  0.98367000  0.12818000  0.58556000  1.0
  Br  Br33  1  0.01633000  0.37182000  0.08555000  1.0
  Br  Br34  1  0.24107000  0.55808000  0.39218000  1.0
  Br  Br35  1  0.75891000  0.94192000  0.89217000  1.0
  Br  Br36  1  0.75891000  0.44192000  0.60782000  1.0
  Br  Br37  1  0.24122000  0.05809000  0.10784000  1.0
  N  N38  1  0.48402000  0.17136000  0.39950000  1.0
  N  N39  1  0.51597000  0.32864000  0.89950000  1.0
  N  N40  1  0.51598000  0.82864000  0.60050000  1.0
  N  N41  1  0.48401000  0.67136000  0.10050000  1.0
  N  N42  1  0.52616000  0.37188000  0.29033000  1.0
  N  N43  1  0.47381000  0.12812000  0.79032000  1.0
  N  N44  1  0.47381000  0.62812000  0.70968000  1.0
  N  N45  1  0.52623000  0.87188000  0.20968000  1.0
