# generated using pymatgen
data_AgH14C16S(NO)3
_symmetry_space_group_name_H-M   'P 1'
_cell_length_a   9.29203000
_cell_length_b   9.81424000
_cell_length_c   9.93923000
_cell_angle_alpha   108.14100000
_cell_angle_beta   101.89200000
_cell_angle_gamma   106.89500000
_symmetry_Int_Tables_number   1
_chemical_formula_structural   AgH14C16S(NO)3
_chemical_formula_sum   'Ag2 H28 C32 S2 N6 O6'
_cell_volume   779.10444571
_cell_formula_units_Z   2
loop_
 _symmetry_equiv_pos_site_id
 _symmetry_equiv_pos_as_xyz
  1  'x, y, z'
loop_
 _atom_site_type_symbol
 _atom_site_label
 _atom_site_symmetry_multiplicity
 _atom_site_fract_x
 _atom_site_fract_y
 _atom_site_fract_z
 _atom_site_occupancy
  Ag  Ag0  1  0.11174000  0.87609000  0.41921000  1.0
  Ag  Ag1  1  0.88826000  0.12391000  0.58078000  1.0
  H  H2  1  0.41267000  0.97896000  0.88942000  1.0
  H  H3  1  0.58733000  0.02104000  0.11058000  1.0
  H  H4  1  0.70135000  0.08205000  0.92342000  1.0
  H  H5  1  0.29865000  0.91795000  0.07658000  1.0
  H  H6  1  0.66620000  0.49841000  0.88588000  1.0
  H  H7  1  0.33381000  0.50159000  0.11413000  1.0
  H  H8  1  0.38057000  0.39716000  0.86062000  1.0
  H  H9  1  0.61945000  0.60284000  0.13939000  1.0
  H  H10  1  0.44782000  0.09118000  0.61301000  1.0
  H  H11  1  0.55218000  0.90881000  0.38699000  1.0
  H  H12  1  0.68013000  0.29519000  0.61595000  1.0
  H  H13  1  0.31986000  0.70481000  0.38405000  1.0
  H  H14  1  0.38580000  0.26931000  0.20233000  1.0
  H  H15  1  0.61419000  0.73069000  0.79767000  1.0
  H  H16  1  0.78269000  0.55143000  0.65373000  1.0
  H  H17  1  0.21728000  0.44858000  0.34628000  1.0
  H  H18  1  0.64493000  0.33678000  0.17064000  1.0
  H  H19  1  0.35507000  0.66321000  0.82937000  1.0
  H  H20  1  0.87431000  0.55344000  0.18580000  1.0
  H  H21  1  0.12570000  0.44654000  0.81420000  1.0
  H  H22  1  0.00846000  0.75898000  0.64944000  1.0
  H  H23  1  0.99153000  0.24103000  0.35056000  1.0
  H  H24  1  0.16640000  0.06459000  0.21426000  1.0
  H  H25  1  0.83359000  0.93540000  0.78573000  1.0
  H  H26  1  0.90682000  0.44647000  0.89599000  1.0
  H  H27  1  0.09318000  0.55351000  0.10398000  1.0
  H  H28  1  0.92597000  0.28059000  0.90822000  1.0
  H  H29  1  0.07403000  0.71940000  0.09177000  1.0
  C  C30  1  0.37817000  0.18159000  0.87335000  1.0
  C  C31  1  0.62184000  0.81842000  0.12666000  1.0
  C  C32  1  0.46888000  0.09231000  0.88806000  1.0
  C  C33  1  0.53112000  0.90769000  0.11193000  1.0
  C  C34  1  0.62945000  0.14815000  0.90316000  1.0
  C  C35  1  0.37056000  0.85184000  0.09684000  1.0
  C  C36  1  0.70256000  0.29371000  0.89890000  1.0
  C  C37  1  0.29744000  0.70629000  0.10110000  1.0
  C  C38  1  0.61003000  0.38287000  0.88359000  1.0
  C  C39  1  0.38997000  0.61713000  0.11642000  1.0
  C  C40  1  0.45011000  0.32685000  0.87106000  1.0
  C  C41  1  0.54990000  0.67315000  0.12894000  1.0
  C  C42  1  0.43855000  0.13355000  0.52386000  1.0
  C  C43  1  0.56145000  0.86645000  0.47615000  1.0
  C  C44  1  0.56795000  0.24957000  0.52581000  1.0
  C  C45  1  0.43203000  0.75043000  0.47418000  1.0
  C  C46  1  0.55439000  0.30216000  0.40977000  1.0
  C  C47  1  0.44560000  0.69784000  0.59023000  1.0
  C  C48  1  0.40643000  0.23411000  0.29604000  1.0
  C  C49  1  0.59356000  0.76590000  0.70396000  1.0
  C  C50  1  0.79971000  0.54513000  0.54704000  1.0
  C  C51  1  0.20027000  0.45488000  0.45296000  1.0
  C  C52  1  0.69197000  0.42533000  0.41165000  1.0
  C  C53  1  0.30803000  0.57467000  0.58836000  1.0
  C  C54  1  0.72125000  0.42800000  0.27954000  1.0
  C  C55  1  0.27875000  0.57200000  0.72046000  1.0
  C  C56  1  0.85143000  0.54804000  0.28747000  1.0
  C  C57  1  0.14858000  0.45196000  0.71254000  1.0
  C  C58  1  0.92665000  0.66192000  0.54611000  1.0
  C  C59  1  0.07334000  0.33808000  0.45389000  1.0
  C  C60  1  0.28189000  0.11835000  0.30200000  1.0
  C  C61  1  0.71810000  0.88165000  0.69799000  1.0
  S  S62  1  0.17227000  0.10489000  0.85015000  1.0
  S  S63  1  0.82773000  0.89511000  0.14985000  1.0
  N  N64  1  0.86106000  0.34906000  0.91377000  1.0
  N  N65  1  0.13895000  0.65094000  0.08624000  1.0
  N  N66  1  0.29747000  0.06674000  0.41321000  1.0
  N  N67  1  0.70253000  0.93326000  0.58679000  1.0
  N  N68  1  0.95244000  0.66479000  0.41793000  1.0
  N  N69  1  0.04756000  0.33521000  0.58207000  1.0
  O  O70  1  0.09121000  0.02777000  0.68525000  1.0
  O  O71  1  0.90879000  0.97224000  0.31474000  1.0
  O  O72  1  0.13076000  0.23882000  0.91828000  1.0
  O  O73  1  0.86925000  0.76118000  0.08172000  1.0
  O  O74  1  0.15099000  0.99392000  0.92136000  1.0
  O  O75  1  0.84901000  0.00608000  0.07864000  1.0
