# generated using pymatgen
data_ZnH12C20BrNO6
_symmetry_space_group_name_H-M   'P 1'
_cell_length_a   11.07130000
_cell_length_b   16.40980000
_cell_length_c   17.80840000
_cell_angle_alpha   95.48910000
_cell_angle_beta   90.41320000
_cell_angle_gamma   92.20860000
_symmetry_Int_Tables_number   1
_chemical_formula_structural   ZnH12C20BrNO6
_chemical_formula_sum   'Zn2 H24 C40 Br2 N2 O12'
_cell_volume   3217.96952844
_cell_formula_units_Z   2
loop_
 _symmetry_equiv_pos_site_id
 _symmetry_equiv_pos_as_xyz
  1  'x, y, z'
loop_
 _atom_site_type_symbol
 _atom_site_label
 _atom_site_symmetry_multiplicity
 _atom_site_fract_x
 _atom_site_fract_y
 _atom_site_fract_z
 _atom_site_occupancy
  Zn  Zn0  1  0.49513000  0.41412000  0.49826000  1.0
  Zn  Zn1  1  0.50463000  0.58579000  0.50523000  1.0
  H  H2  1  0.37896000  0.71276000  0.42565000  1.0
  H  H3  1  0.38141000  0.86286000  0.42748000  1.0
  H  H4  1  0.66563000  0.86967000  0.59902000  1.0
  H  H5  1  0.64822000  0.72130000  0.58884000  1.0
  H  H6  1  0.33463000  0.13023000  0.40054000  1.0
  H  H7  1  0.61861000  0.13613000  0.57184000  1.0
  H  H8  1  0.62202000  0.28709000  0.57346000  1.0
  H  H9  1  0.35162000  0.27884000  0.41156000  1.0
  H  H10  1  0.50662000  0.61805000  0.26440000  1.0
  H  H11  1  0.50726000  0.61081000  0.12604000  1.0
  H  H12  1  0.49114000  0.34517000  0.11916000  1.0
  H  H13  1  0.49079000  0.35599000  0.25500000  1.0
  H  H14  1  0.50908000  0.65526000  0.88391000  1.0
  H  H15  1  0.49322000  0.38947000  0.87617000  1.0
  H  H16  1  0.49354000  0.38301000  0.73757000  1.0
  H  H17  1  0.50932000  0.64492000  0.74807000  1.0
  H  H18  1  0.78031000  0.60211000  0.40064000  1.0
  H  H19  1  0.22937000  0.59959000  0.39997000  1.0
  H  H20  1  0.10878000  0.41112000  0.57719000  1.0
  H  H21  1  0.88262000  0.41180000  0.57753000  1.0
  H  H22  1  0.65851000  0.96908000  0.59443000  1.0
  H  H23  1  0.34147000  0.03017000  0.40477000  1.0
  H  H24  1  0.49091000  0.35290000  0.03031000  1.0
  H  H25  1  0.50925000  0.64722000  0.97227000  1.0
  C  C26  1  0.49711000  0.49290000  0.35354000  1.0
  C  C27  1  0.26290000  0.49762000  0.50006000  1.0
  C  C28  1  0.50284000  0.50933000  0.64934000  1.0
  C  C29  1  0.73684000  0.49882000  0.50100000  1.0
  C  C30  1  0.44060000  0.75081000  0.46343000  1.0
  C  C31  1  0.44268000  0.83549000  0.46456000  1.0
  C  C32  1  0.52334000  0.88427000  0.51353000  1.0
  C  C33  1  0.59853000  0.84051000  0.55875000  1.0
  C  C34  1  0.59073000  0.75565000  0.55432000  1.0
  C  C35  1  0.53306000  0.97411000  0.51983000  1.0
  C  C36  1  0.46663000  0.02554000  0.47982000  1.0
  C  C37  1  0.40157000  0.15935000  0.44093000  1.0
  C  C38  1  0.47658000  0.11536000  0.48607000  1.0
  C  C39  1  0.55756000  0.16397000  0.53500000  1.0
  C  C40  1  0.55992000  0.24865000  0.53629000  1.0
  C  C41  1  0.40928000  0.24426000  0.44577000  1.0
  C  C42  1  0.49773000  0.48766000  0.26931000  1.0
  C  C43  1  0.50280000  0.55861000  0.23129000  1.0
  C  C44  1  0.50330000  0.55444000  0.15305000  1.0
  C  C45  1  0.49869000  0.47823000  0.10812000  1.0
  C  C46  1  0.49428000  0.40727000  0.14791000  1.0
  C  C47  1  0.49383000  0.41167000  0.22616000  1.0
  C  C48  1  0.49825000  0.46922000  0.02523000  1.0
  C  C49  1  0.50214000  0.53091000  0.97739000  1.0
  C  C50  1  0.50599000  0.59323000  0.85503000  1.0
  C  C51  1  0.50172000  0.52205000  0.89453000  1.0
  C  C52  1  0.49716000  0.44598000  0.84934000  1.0
  C  C53  1  0.49746000  0.44224000  0.77110000  1.0
  C  C54  1  0.50235000  0.51343000  0.73348000  1.0
  C  C55  1  0.50631000  0.58921000  0.77685000  1.0
  C  C56  1  0.87218000  0.50029000  0.49749000  1.0
  C  C57  1  0.93747000  0.55159000  0.44994000  1.0
  C  C58  1  0.93410000  0.45053000  0.54176000  1.0
  C  C59  1  0.87850000  0.60140000  0.40110000  1.0
  C  C60  1  0.94346000  0.64961000  0.35520000  1.0
  C  C61  1  0.12761000  0.49941000  0.49696000  1.0
  C  C62  1  0.06102000  0.45007000  0.54157000  1.0
  C  C63  1  0.06716000  0.55100000  0.44972000  1.0
  C  C64  1  0.13126000  0.60028000  0.40081000  1.0
  C  C65  1  0.07156000  0.64916000  0.35526000  1.0
  Br  Br66  1  0.85725000  0.71528000  0.29251000  1.0
  Br  Br67  1  0.16562000  0.71498000  0.29336000  1.0
  N  N68  1  0.51260000  0.71098000  0.50754000  1.0
  N  N69  1  0.48744000  0.28870000  0.49269000  1.0
  O  O70  1  0.49337000  0.42561000  0.38419000  1.0
  O  O71  1  0.50059000  0.56441000  0.38883000  1.0
  O  O72  1  0.32078000  0.56656000  0.50470000  1.0
  O  O73  1  0.30874000  0.42763000  0.49849000  1.0
  O  O74  1  0.50786000  0.57721000  0.61989000  1.0
  O  O75  1  0.49803000  0.43815000  0.61337000  1.0
  O  O76  1  0.68277000  0.42899000  0.50052000  1.0
  O  O77  1  0.68707000  0.56780000  0.50461000  1.0
  O  O78  1  0.61661000  0.01110000  0.57078000  1.0
  O  O79  1  0.38293000  0.98845000  0.42909000  1.0
  O  O80  1  0.49332000  0.39008000  0.99095000  1.0
  O  O81  1  0.50708000  0.61003000  0.01162000  1.0
