# generated using pymatgen
data_Ti4H8C17O14
_symmetry_space_group_name_H-M   'P 1'
_cell_length_a   12.11360000
_cell_length_b   21.86420000
_cell_length_c   21.86420000
_cell_angle_alpha   60.00000000
_cell_angle_beta   89.99990000
_cell_angle_gamma   90.00000000
_symmetry_Int_Tables_number   1
_chemical_formula_structural   Ti4H8C17O14
_chemical_formula_sum   'Ti24 H48 C102 O84'
_cell_volume   5015.00122278
_cell_formula_units_Z   6
loop_
 _symmetry_equiv_pos_site_id
 _symmetry_equiv_pos_as_xyz
  1  'x, y, z'
loop_
 _atom_site_type_symbol
 _atom_site_label
 _atom_site_symmetry_multiplicity
 _atom_site_fract_x
 _atom_site_fract_y
 _atom_site_fract_z
 _atom_site_occupancy
  Ti  Ti0  1  0.85054000  0.71932000  0.56136000  1.0
  Ti  Ti1  1  0.14946000  0.28068000  0.28068000  1.0
  Ti  Ti2  1  0.85054000  0.28068000  0.43864000  1.0
  Ti  Ti3  1  0.85054000  0.71932000  0.71932000  1.0
  Ti  Ti4  1  0.14946000  0.71932000  0.56136000  1.0
  Ti  Ti5  1  0.14946000  0.56136000  0.71932000  1.0
  Ti  Ti6  1  0.85054000  0.56136000  0.71932000  1.0
  Ti  Ti7  1  0.85054000  0.43864000  0.28068000  1.0
  Ti  Ti8  1  0.14946000  0.43864000  0.28068000  1.0
  Ti  Ti9  1  0.14946000  0.28068000  0.43864000  1.0
  Ti  Ti10  1  0.85054000  0.28068000  0.28068000  1.0
  Ti  Ti11  1  0.14946000  0.71932000  0.71932000  1.0
  Ti  Ti12  1  0.64839000  0.61277000  0.61278000  1.0
  Ti  Ti13  1  0.35161000  0.38723000  0.22555000  1.0
  Ti  Ti14  1  0.64839000  0.38723000  0.38722000  1.0
  Ti  Ti15  1  0.64838000  0.77444000  0.61278000  1.0
  Ti  Ti16  1  0.35161000  0.77444000  0.61278000  1.0
  Ti  Ti17  1  0.35161000  0.61277000  0.61278000  1.0
  Ti  Ti18  1  0.64839000  0.61277000  0.77445000  1.0
  Ti  Ti19  1  0.64839000  0.38723000  0.22555000  1.0
  Ti  Ti20  1  0.35161000  0.38723000  0.38722000  1.0
  Ti  Ti21  1  0.35161000  0.22556000  0.38722000  1.0
  Ti  Ti22  1  0.64839000  0.22556000  0.38722000  1.0
  Ti  Ti23  1  0.35161000  0.61277000  0.77445000  1.0
  H  H24  1  0.00000000  0.79250000  0.25451000  1.0
  H  H25  1  0.00000000  0.20750000  0.04701000  1.0
  H  H26  1  0.00000000  0.20750000  0.74549000  1.0
  H  H27  1  0.00000000  0.95299000  0.79250000  1.0
  H  H28  1  0.00000000  0.95299000  0.25451000  1.0
  H  H29  1  0.00000000  0.25451000  0.79250000  1.0
  H  H30  1  0.00000000  0.25451000  0.95299000  1.0
  H  H31  1  1.00000000  0.74549000  0.04701000  1.0
  H  H32  1  0.00000000  0.74549000  0.20750000  1.0
  H  H33  1  1.00000000  0.04701000  0.74549000  1.0
  H  H34  1  0.00000000  0.04701000  0.20750000  1.0
  H  H35  1  0.00000000  0.79250000  0.95299000  1.0
  H  H36  1  0.89154000  0.74626000  0.36742000  1.0
  H  H37  1  0.10846000  0.25374000  0.11368000  1.0
  H  H38  1  0.89154000  0.25374000  0.63258000  1.0
  H  H39  1  0.89154000  0.88632000  0.74626000  1.0
  H  H40  1  0.10846000  0.88632000  0.36742000  1.0
  H  H41  1  0.10846000  0.36742000  0.74626000  1.0
  H  H42  1  0.89154000  0.36742000  0.88632000  1.0
  H  H43  1  0.89154000  0.63258000  0.11368000  1.0
  H  H44  1  0.10846000  0.63258000  0.25374000  1.0
  H  H45  1  0.10846000  0.11368000  0.63258000  1.0
  H  H46  1  0.89154000  0.11368000  0.25374000  1.0
  H  H47  1  0.10846000  0.74626000  0.88632000  1.0
  H  H48  1  0.10846000  0.25374000  0.63258000  1.0
  H  H49  1  0.89154000  0.74626000  0.88632000  1.0
  H  H50  1  0.10846000  0.74626000  0.36742000  1.0
  H  H51  1  0.10846000  0.11368000  0.25374000  1.0
  H  H52  1  0.89154000  0.11368000  0.63258000  1.0
  H  H53  1  0.89154000  0.63258000  0.25374000  1.0
  H  H54  1  0.10846000  0.63258000  0.11368000  1.0
  H  H55  1  0.10846000  0.36742000  0.88632000  1.0
  H  H56  1  0.89154000  0.36742000  0.74626000  1.0
  H  H57  1  0.89154000  0.88632000  0.36742000  1.0
  H  H58  1  0.10846000  0.88632000  0.74626000  1.0
  H  H59  1  0.89154000  0.25374000  0.11368000  1.0
  H  H60  1  0.68094000  0.56532000  0.43468000  1.0
  H  H61  1  0.31906000  0.43468000  0.00000000  1.0
  H  H62  1  0.68094000  0.43468000  0.56532000  1.0
  H  H63  1  0.68094000  0.00000000  0.56532000  1.0
  H  H64  1  0.31906000  1.00000000  0.43468000  1.0
  H  H65  1  0.31906000  0.43468000  0.56532000  1.0
  H  H66  1  0.68094000  0.43468000  0.00000000  1.0
  H  H67  1  0.68094000  0.56532000  1.00000000  1.0
  H  H68  1  0.31906000  0.56532000  0.43468000  1.0
  H  H69  1  0.31906000  0.00000000  0.56532000  1.0
  H  H70  1  0.68094000  0.00000000  0.43468000  1.0
  H  H71  1  0.31906000  0.56532000  1.00000000  1.0
  C  C72  1  0.00000000  0.73951000  0.26049000  1.0
  C  C73  1  1.00000000  0.26049000  0.00000000  1.0
  C  C74  1  0.00000000  0.26049000  0.73951000  1.0
  C  C75  1  1.00000000  0.00000000  0.73951000  1.0
  C  C76  1  1.00000000  1.00000000  0.26049000  1.0
  C  C77  1  1.00000000  0.73951000  0.00000000  1.0
  C  C78  1  0.89947000  0.69793000  0.30207000  1.0
  C  C79  1  0.10053000  0.30207000  0.00000000  1.0
  C  C80  1  0.89947000  0.30208000  0.69792000  1.0
  C  C81  1  0.89947000  1.00000000  0.69792000  1.0
  C  C82  1  0.10053000  0.99999000  0.30208000  1.0
  C  C83  1  0.10053000  0.30207000  0.69793000  1.0
  C  C84  1  0.89947000  0.30208000  0.00000000  1.0
  C  C85  1  0.89947000  0.69793000  0.00000000  1.0
  C  C86  1  0.10053000  0.69792000  0.30208000  1.0
  C  C87  1  0.10053000  1.00000000  0.69792000  1.0
  C  C88  1  0.89947000  0.99999000  0.30208000  1.0
  C  C89  1  0.10053000  0.69793000  0.00000000  1.0
  C  C90  1  0.85880000  0.70553000  0.35760000  1.0
  C  C91  1  0.14120000  0.29447000  0.06313000  1.0
  C  C92  1  0.85880000  0.29447000  0.64240000  1.0
  C  C93  1  0.85880000  0.93686000  0.70554000  1.0
  C  C94  1  0.14120000  0.93687000  0.35759000  1.0
  C  C95  1  0.14120000  0.35759000  0.70554000  1.0
  C  C96  1  0.85880000  0.35759000  0.93687000  1.0
  C  C97  1  0.85880000  0.64241000  0.06313000  1.0
  C  C98  1  0.14120000  0.64241000  0.29446000  1.0
  C  C99  1  0.14120000  0.06314000  0.64240000  1.0
  C  C100  1  0.85880000  0.06314000  0.29446000  1.0
  C  C101  1  0.14120000  0.70553000  0.93687000  1.0
  C  C102  1  0.14120000  0.29447000  0.64240000  1.0
  C  C103  1  0.85880000  0.70553000  0.93687000  1.0
  C  C104  1  0.14120000  0.70553000  0.35760000  1.0
  C  C105  1  0.14120000  0.06314000  0.29446000  1.0
  C  C106  1  0.85880000  0.06314000  0.64240000  1.0
  C  C107  1  0.85880000  0.64241000  0.29446000  1.0
  C  C108  1  0.14120000  0.64241000  0.06313000  1.0
  C  C109  1  0.14120000  0.35759000  0.93687000  1.0
  C  C110  1  0.85880000  0.35759000  0.70554000  1.0
  C  C111  1  0.85880000  0.93686000  0.35760000  1.0
  C  C112  1  0.14120000  0.93686000  0.70554000  1.0
  C  C113  1  0.85880000  0.29446000  0.06313000  1.0
  C  C114  1  0.78048000  0.65847000  0.40513000  1.0
  C  C115  1  0.21952000  0.34153000  0.06360000  1.0
  C  C116  1  0.78049000  0.34153000  0.59487000  1.0
  C  C117  1  0.78048000  0.93640000  0.65847000  1.0
  C  C118  1  0.21952000  0.93640000  0.40513000  1.0
  C  C119  1  0.21952000  0.40513000  0.65847000  1.0
  C  C120  1  0.78048000  0.40513000  0.93640000  1.0
  C  C121  1  0.78048000  0.59487000  0.06360000  1.0
  C  C122  1  0.21952000  0.59487000  0.34153000  1.0
  C  C123  1  0.21952000  0.06360000  0.59487000  1.0
  C  C124  1  0.78049000  0.06359000  0.34153000  1.0
  C  C125  1  0.21952000  0.65847000  0.93640000  1.0
  C  C126  1  0.21952000  0.34153000  0.59487000  1.0
  C  C127  1  0.78048000  0.65848000  0.93640000  1.0
  C  C128  1  0.21952000  0.65847000  0.40513000  1.0
  C  C129  1  0.21952000  0.06360000  0.34153000  1.0
  C  C130  1  0.78048000  0.06360000  0.59487000  1.0
  C  C131  1  0.78048000  0.59487000  0.34153000  1.0
  C  C132  1  0.21952000  0.59487000  0.06360000  1.0
  C  C133  1  0.21952000  0.40513000  0.93640000  1.0
  C  C134  1  0.78048000  0.40513000  0.65847000  1.0
  C  C135  1  0.78049000  0.93640000  0.40513000  1.0
  C  C136  1  0.21952000  0.93640000  0.65847000  1.0
  C  C137  1  0.78049000  0.34153000  0.06360000  1.0
  C  C138  1  0.73938000  0.60321000  0.39679000  1.0
  C  C139  1  0.26061000  0.39679000  1.00000000  1.0
  C  C140  1  0.73939000  0.39679000  0.60321000  1.0
  C  C141  1  0.73939000  1.00000000  0.60321000  1.0
  C  C142  1  0.26061000  1.00000000  0.39679000  1.0
  C  C143  1  0.26061000  0.39679000  0.60321000  1.0
  C  C144  1  0.73938000  0.39679000  1.00000000  1.0
  C  C145  1  0.73938000  0.60321000  1.00000000  1.0
  C  C146  1  0.26062000  0.60321000  0.39679000  1.0
  C  C147  1  0.26061000  1.00000000  0.60321000  1.0
  C  C148  1  0.73938000  1.00000000  0.39679000  1.0
  C  C149  1  0.26061000  0.60321000  0.00000000  1.0
  C  C150  1  0.75643000  0.66360000  0.46936000  1.0
  C  C151  1  0.24357000  0.33640000  0.13296000  1.0
  C  C152  1  0.75643000  0.33640000  0.53064000  1.0
  C  C153  1  0.75643000  0.86703000  0.66361000  1.0
  C  C154  1  0.24357000  0.86703000  0.46936000  1.0
  C  C155  1  0.24357000  0.46935000  0.66361000  1.0
  C  C156  1  0.75642000  0.46935000  0.86704000  1.0
  C  C157  1  0.75643000  0.53065000  0.13296000  1.0
  C  C158  1  0.24357000  0.53065000  0.33639000  1.0
  C  C159  1  0.24358000  0.13297000  0.53064000  1.0
  C  C160  1  0.75643000  0.13297000  0.33639000  1.0
  C  C161  1  0.24357000  0.66360000  0.86704000  1.0
  C  C162  1  0.24358000  0.33640000  0.53064000  1.0
  C  C163  1  0.75642000  0.66360000  0.86704000  1.0
  C  C164  1  0.24357000  0.66360000  0.46936000  1.0
  C  C165  1  0.24357000  0.13297000  0.33639000  1.0
  C  C166  1  0.75643000  0.13297000  0.53064000  1.0
  C  C167  1  0.75643000  0.53065000  0.33639000  1.0
  C  C168  1  0.24357000  0.53065000  0.13296000  1.0
  C  C169  1  0.24358000  0.46935000  0.86704000  1.0
  C  C170  1  0.75643000  0.46935000  0.66361000  1.0
  C  C171  1  0.75642000  0.86703000  0.46936000  1.0
  C  C172  1  0.24357000  0.86703000  0.66361000  1.0
  C  C173  1  0.75643000  0.33640000  0.13296000  1.0
  O  O174  1  0.82330000  0.70257000  0.47999000  1.0
  O  O175  1  0.17670000  0.29743000  0.18256000  1.0
  O  O176  1  0.82330000  0.29743000  0.52001000  1.0
  O  O177  1  0.82330000  0.81744000  0.70257000  1.0
  O  O178  1  0.17670000  0.81744000  0.47999000  1.0
  O  O179  1  0.17670000  0.47999000  0.70257000  1.0
  O  O180  1  0.82330000  0.47999000  0.81744000  1.0
  O  O181  1  0.82330000  0.52001000  0.18256000  1.0
  O  O182  1  0.17670000  0.52001000  0.29743000  1.0
  O  O183  1  0.17670000  0.18256000  0.52001000  1.0
  O  O184  1  0.82330000  0.18256000  0.29743000  1.0
  O  O185  1  0.17670000  0.70257000  0.81744000  1.0
  O  O186  1  0.17670000  0.29743000  0.52001000  1.0
  O  O187  1  0.82330000  0.70257000  0.81744000  1.0
  O  O188  1  0.17670000  0.70257000  0.47999000  1.0
  O  O189  1  0.17670000  0.18256000  0.29743000  1.0
  O  O190  1  0.82330000  0.18256000  0.52001000  1.0
  O  O191  1  0.82330000  0.52001000  0.29743000  1.0
  O  O192  1  0.17670000  0.52001000  0.18256000  1.0
  O  O193  1  0.17670000  0.47999000  0.81744000  1.0
  O  O194  1  0.82330000  0.47999000  0.70257000  1.0
  O  O195  1  0.82330000  0.81744000  0.47999000  1.0
  O  O196  1  0.17670000  0.81744000  0.70257000  1.0
  O  O197  1  0.82330000  0.29743000  0.18256000  1.0
  O  O198  1  0.67771000  0.62908000  0.51059000  1.0
  O  O199  1  0.32229000  0.37092000  0.13967000  1.0
  O  O200  1  0.67771000  0.37091000  0.48942000  1.0
  O  O201  1  0.67771000  0.86033000  0.62908000  1.0
  O  O202  1  0.32229000  0.86034000  0.51058000  1.0
  O  O203  1  0.32230000  0.51059000  0.62908000  1.0
  O  O204  1  0.67771000  0.51059000  0.86033000  1.0
  O  O205  1  0.67770000  0.48941000  0.13967000  1.0
  O  O206  1  0.32229000  0.48941000  0.37092000  1.0
  O  O207  1  0.32229000  0.13967000  0.48941000  1.0
  O  O208  1  0.67771000  0.13967000  0.37092000  1.0
  O  O209  1  0.32229000  0.62908000  0.86033000  1.0
  O  O210  1  0.32229000  0.37092000  0.48941000  1.0
  O  O211  1  0.67771000  0.62908000  0.86033000  1.0
  O  O212  1  0.32229000  0.62908000  0.51059000  1.0
  O  O213  1  0.32229000  0.13967000  0.37092000  1.0
  O  O214  1  0.67771000  0.13967000  0.48941000  1.0
  O  O215  1  0.67770000  0.48941000  0.37092000  1.0
  O  O216  1  0.32229000  0.48941000  0.13967000  1.0
  O  O217  1  0.32230000  0.51059000  0.86033000  1.0
  O  O218  1  0.67771000  0.51059000  0.62908000  1.0
  O  O219  1  0.67771000  0.86033000  0.51059000  1.0
  O  O220  1  0.32229000  0.86033000  0.62908000  1.0
  O  O221  1  0.67771000  0.37091000  0.13967000  1.0
  O  O222  1  0.66575000  0.71070000  0.57860000  1.0
  O  O223  1  0.33425000  0.28930000  0.28930000  1.0
  O  O224  1  0.66575000  0.28930000  0.42140000  1.0
  O  O225  1  0.66574000  0.71070000  0.71070000  1.0
  O  O226  1  0.33425000  0.71070000  0.57860000  1.0
  O  O227  1  0.33425000  0.57860000  0.71070000  1.0
  O  O228  1  0.66575000  0.57860000  0.71070000  1.0
  O  O229  1  0.66575000  0.42140000  0.28930000  1.0
  O  O230  1  0.33425000  0.42140000  0.28930000  1.0
  O  O231  1  0.33425000  0.28930000  0.42140000  1.0
  O  O232  1  0.66574000  0.28930000  0.28930000  1.0
  O  O233  1  0.33425000  0.71070000  0.71070000  1.0
  O  O234  1  0.00000000  0.72052000  0.55897000  1.0
  O  O235  1  0.00000000  0.27949000  0.27949000  1.0
  O  O236  1  0.00000000  0.27948000  0.44103000  1.0
  O  O237  1  0.00000000  0.72052000  0.72051000  1.0
  O  O238  1  0.00000000  0.55898000  0.72051000  1.0
  O  O239  1  0.00000000  0.44102000  0.27949000  1.0
  O  O240  1  0.82654000  0.62143000  0.62144000  1.0
  O  O241  1  0.17346000  0.37857000  0.24287000  1.0
  O  O242  1  0.82654000  0.37857000  0.37856000  1.0
  O  O243  1  0.82654000  0.75712000  0.62144000  1.0
  O  O244  1  0.17346000  0.75713000  0.62144000  1.0
  O  O245  1  0.17346000  0.62143000  0.62144000  1.0
  O  O246  1  0.82654000  0.62144000  0.75713000  1.0
  O  O247  1  0.82654000  0.37856000  0.24287000  1.0
  O  O248  1  0.17346000  0.37857000  0.37856000  1.0
  O  O249  1  0.17346000  0.24288000  0.37856000  1.0
  O  O250  1  0.82654000  0.24288000  0.37856000  1.0
  O  O251  1  0.17346000  0.62143000  0.75713000  1.0
  O  O252  1  0.50000000  0.60794000  0.60794000  1.0
  O  O253  1  0.50000000  0.39206000  0.21588000  1.0
  O  O254  1  0.50000000  0.39206000  0.39206000  1.0
  O  O255  1  0.50000000  0.78412000  0.60794000  1.0
  O  O256  1  0.50000000  0.60794000  0.78412000  1.0
  O  O257  1  0.50000000  0.21588000  0.39206000  1.0
