# generated using pymatgen
data_SnPH17(C5O)2
_symmetry_space_group_name_H-M   'P 1'
_cell_length_a   10.15940000
_cell_length_b   10.39580000
_cell_length_c   12.44660000
_cell_angle_alpha   104.02700000
_cell_angle_beta   90.00000000
_cell_angle_gamma   90.00000000
_symmetry_Int_Tables_number   1
_chemical_formula_structural   SnPH17(C5O)2
_chemical_formula_sum   'Sn4 P4 H68 C40 O8'
_cell_volume   1275.35106458
_cell_formula_units_Z   4
loop_
 _symmetry_equiv_pos_site_id
 _symmetry_equiv_pos_as_xyz
  1  'x, y, z'
loop_
 _atom_site_type_symbol
 _atom_site_label
 _atom_site_symmetry_multiplicity
 _atom_site_fract_x
 _atom_site_fract_y
 _atom_site_fract_z
 _atom_site_occupancy
  Sn  Sn0  1  0.36914000  0.20078000  0.78006000  1.0
  Sn  Sn1  1  0.86914000  0.29921000  0.71995000  1.0
  Sn  Sn2  1  0.63086000  0.79922000  0.21994000  1.0
  Sn  Sn3  1  0.13086000  0.70079000  0.28006000  1.0
  P  P4  1  0.65746000  0.14650000  0.90034000  1.0
  P  P5  1  0.15747000  0.35350000  0.59965000  1.0
  P  P6  1  0.34253000  0.85351000  0.09966000  1.0
  P  P7  1  0.84253000  0.64649000  0.40034000  1.0
  H  H8  1  0.56147000  0.87833000  0.87866000  1.0
  H  H9  1  0.06147000  0.62167000  0.62134000  1.0
  H  H10  1  0.43853000  0.12168000  0.12135000  1.0
  H  H11  1  0.93853000  0.37832000  0.37866000  1.0
  H  H12  1  0.67487000  0.66047000  0.85312000  1.0
  H  H13  1  0.17488000  0.83953000  0.64688000  1.0
  H  H14  1  0.32512000  0.33952000  0.14688000  1.0
  H  H15  1  0.82512000  0.16047000  0.35312000  1.0
  H  H16  1  0.91978000  0.64878000  0.84139000  1.0
  H  H17  1  0.41978000  0.85122000  0.65861000  1.0
  H  H18  1  0.08022000  0.35122000  0.15860000  1.0
  H  H19  1  0.58022000  0.14878000  0.34139000  1.0
  H  H20  1  0.04995000  0.85564000  0.85542000  1.0
  H  H21  1  0.54995000  0.64436000  0.64458000  1.0
  H  H22  1  0.95004000  0.14437000  0.14458000  1.0
  H  H23  1  0.45005000  0.35564000  0.35542000  1.0
  H  H24  1  0.93711000  0.07106000  0.88081000  1.0
  H  H25  1  0.43711000  0.42894000  0.61918000  1.0
  H  H26  1  0.06289000  0.92896000  0.11919000  1.0
  H  H27  1  0.56289000  0.57105000  0.38082000  1.0
  H  H28  1  0.79308000  0.25222000  0.05605000  1.0
  H  H29  1  0.29308000  0.24778000  0.44394000  1.0
  H  H30  1  0.20692000  0.74779000  0.94396000  1.0
  H  H31  1  0.70692000  0.75223000  0.55605000  1.0
  H  H32  1  0.65232000  0.17450000  0.09941000  1.0
  H  H33  1  0.15232000  0.32550000  0.40059000  1.0
  H  H34  1  0.34768000  0.82551000  0.90059000  1.0
  H  H35  1  0.84768000  0.67451000  0.59942000  1.0
  H  H36  1  0.63503000  0.32802000  0.05991000  1.0
  H  H37  1  0.13502000  0.17197000  0.44008000  1.0
  H  H38  1  0.36497000  0.67198000  0.94009000  1.0
  H  H39  1  0.86497000  0.82803000  0.55991000  1.0
  H  H40  1  0.13819000  0.06903000  0.76845000  1.0
  H  H41  1  0.63819000  0.43096000  0.73156000  1.0
  H  H42  1  0.86181000  0.93096000  0.23154000  1.0
  H  H43  1  0.36181000  0.56904000  0.26846000  1.0
  H  H44  1  0.18541000  0.12696000  0.91104000  1.0
  H  H45  1  0.68541000  0.37303000  0.58896000  1.0
  H  H46  1  0.81459000  0.87303000  0.08895000  1.0
  H  H47  1  0.31459000  0.62697000  0.41105000  1.0
  H  H48  1  0.26170000  0.98286000  0.82738000  1.0
  H  H49  1  0.76169000  0.51713000  0.67262000  1.0
  H  H50  1  0.73831000  0.01713000  0.17261000  1.0
  H  H51  1  0.23830000  0.48287000  0.32739000  1.0
  H  H52  1  0.47792000  0.44658000  0.85267000  1.0
  H  H53  1  0.97793000  0.05342000  0.64733000  1.0
  H  H54  1  0.52207000  0.55342000  0.14733000  1.0
  H  H55  1  0.02207000  0.94658000  0.35268000  1.0
  H  H56  1  0.41012000  0.39285000  0.96687000  1.0
  H  H57  1  0.91012000  0.10715000  0.53312000  1.0
  H  H58  1  0.58987000  0.60715000  0.03312000  1.0
  H  H59  1  0.08988000  0.89285000  0.46688000  1.0
  H  H60  1  0.30382000  0.45494000  0.87564000  1.0
  H  H61  1  0.80383000  0.04506000  0.62436000  1.0
  H  H62  1  0.69617000  0.54505000  0.12436000  1.0
  H  H63  1  0.19617000  0.95494000  0.37564000  1.0
  H  H64  1  0.50285000  0.20693000  0.59149000  1.0
  H  H65  1  0.00285000  0.29306000  0.90851000  1.0
  H  H66  1  0.49715000  0.79307000  0.40851000  1.0
  H  H67  1  0.99716000  0.70692000  0.09149000  1.0
  H  H68  1  0.41560000  0.05431000  0.57178000  1.0
  H  H69  1  0.91560000  0.44568000  0.92821000  1.0
  H  H70  1  0.58441000  0.94568000  0.42821000  1.0
  H  H71  1  0.08441000  0.55431000  0.07179000  1.0
  H  H72  1  0.56810000  0.07776000  0.64749000  1.0
  H  H73  1  0.06810000  0.42223000  0.85251000  1.0
  H  H74  1  0.43191000  0.92224000  0.35251000  1.0
  H  H75  1  0.93191000  0.57776000  0.14749000  1.0
  C  C76  1  0.74108000  0.98831000  0.88021000  1.0
  C  C77  1  0.24108000  0.51169000  0.61978000  1.0
  C  C78  1  0.25892000  0.01170000  0.11980000  1.0
  C  C79  1  0.75892000  0.48830000  0.38021000  1.0
  C  C80  1  0.66827000  0.87196000  0.87266000  1.0
  C  C81  1  0.16827000  0.62804000  0.62733000  1.0
  C  C82  1  0.33173000  0.12805000  0.12733000  1.0
  C  C83  1  0.83173000  0.37195000  0.37267000  1.0
  C  C84  1  0.73244000  0.75035000  0.85897000  1.0
  C  C85  1  0.23244000  0.74965000  0.64104000  1.0
  C  C86  1  0.26756000  0.24966000  0.14104000  1.0
  C  C87  1  0.76756000  0.25034000  0.35896000  1.0
  C  C88  1  0.86971000  0.74393000  0.85265000  1.0
  C  C89  1  0.36971000  0.75607000  0.64735000  1.0
  C  C90  1  0.13029000  0.25608000  0.14735000  1.0
  C  C91  1  0.63029000  0.24392000  0.35265000  1.0
  C  C92  1  0.94290000  0.85978000  0.86063000  1.0
  C  C93  1  0.44290000  0.64022000  0.63935000  1.0
  C  C94  1  0.05710000  0.14023000  0.13936000  1.0
  C  C95  1  0.55710000  0.35978000  0.36065000  1.0
  C  C96  1  0.87889000  0.98141000  0.87459000  1.0
  C  C97  1  0.37890000  0.51859000  0.62539000  1.0
  C  C98  1  0.12111000  0.01860000  0.12541000  1.0
  C  C99  1  0.62110000  0.48141000  0.37460000  1.0
  C  C100  1  0.68738000  0.23288000  0.04266000  1.0
  C  C101  1  0.18738000  0.26711000  0.45733000  1.0
  C  C102  1  0.31261000  0.76713000  0.95734000  1.0
  C  C103  1  0.81262000  0.73289000  0.54266000  1.0
  C  C104  1  0.21989000  0.07980000  0.82730000  1.0
  C  C105  1  0.71989000  0.42019000  0.67270000  1.0
  C  C106  1  0.78011000  0.92019000  0.17269000  1.0
  C  C107  1  0.28011000  0.57981000  0.32731000  1.0
  C  C108  1  0.39341000  0.39835000  0.88115000  1.0
  C  C109  1  0.89341000  0.10165000  0.61885000  1.0
  C  C110  1  0.60658000  0.60164000  0.11884000  1.0
  C  C111  1  0.10659000  0.89835000  0.38115000  1.0
  C  C112  1  0.47743000  0.12550000  0.62956000  1.0
  C  C113  1  0.97743000  0.37450000  0.87044000  1.0
  C  C114  1  0.52258000  0.87450000  0.37044000  1.0
  C  C115  1  0.02258000  0.62549000  0.12956000  1.0
  O  O116  1  0.50987000  0.11730000  0.88463000  1.0
  O  O117  1  0.00987000  0.38270000  0.61537000  1.0
  O  O118  1  0.49013000  0.88271000  0.11538000  1.0
  O  O119  1  0.99013000  0.61730000  0.38463000  1.0
  O  O120  1  0.71552000  0.22747000  0.82511000  1.0
  O  O121  1  0.21552000  0.27253000  0.67488000  1.0
  O  O122  1  0.28449000  0.77254000  0.17489000  1.0
  O  O123  1  0.78449000  0.72746000  0.32511000  1.0
