# generated using pymatgen
data_Zn2H28C28N2O11
_symmetry_space_group_name_H-M   'P 1'
_cell_length_a   10.85800000
_cell_length_b   12.78340000
_cell_length_c   13.93540000
_cell_angle_alpha   85.15420000
_cell_angle_beta   89.62120000
_cell_angle_gamma   86.72650000
_symmetry_Int_Tables_number   1
_chemical_formula_structural   Zn2H28C28N2O11
_chemical_formula_sum   'Zn2 H28 C28 N2 O11'
_cell_volume   1924.20195249
_cell_formula_units_Z   1
loop_
 _symmetry_equiv_pos_site_id
 _symmetry_equiv_pos_as_xyz
  1  'x, y, z'
loop_
 _atom_site_type_symbol
 _atom_site_label
 _atom_site_symmetry_multiplicity
 _atom_site_fract_x
 _atom_site_fract_y
 _atom_site_fract_z
 _atom_site_occupancy
  Zn  Zn0  1  0.49214000  0.60826000  0.50244000  1.0
  Zn  Zn1  1  0.50702000  0.39389000  0.49111000  1.0
  H  H2  1  0.88550000  0.64601000  0.40981000  1.0
  H  H3  1  0.11683000  0.34883000  0.43876000  1.0
  H  H4  1  0.89682000  0.50126000  0.65630000  1.0
  H  H5  1  0.04573000  0.60281000  0.76194000  1.0
  H  H6  1  0.20833000  0.60411000  0.74104000  1.0
  H  H7  1  0.23303000  0.42588000  0.83771000  1.0
  H  H8  1  0.17093000  0.52714000  0.90681000  1.0
  H  H9  1  0.07189000  0.43464000  0.86431000  1.0
  H  H10  1  0.53394000  0.25068000  0.94481000  1.0
  H  H11  1  0.37165000  0.28118000  0.94189000  1.0
  H  H12  1  0.35365000  0.20123000  0.11293000  1.0
  H  H13  1  0.11498000  0.33777000  0.56587000  1.0
  H  H14  1  0.42067000  0.10807000  0.03670000  1.0
  H  H15  1  0.51586000  0.17060000  0.11576000  1.0
  H  H16  1  0.20881000  0.64548000  0.26192000  1.0
  H  H17  1  0.04739000  0.64444000  0.23764000  1.0
  H  H18  1  0.08262000  0.49212000  0.13942000  1.0
  H  H19  1  0.17932000  0.59439000  0.09693000  1.0
  H  H20  1  0.24314000  0.48323000  0.16856000  1.0
  H  H21  1  0.89932000  0.33959000  0.56353000  1.0
  H  H22  1  0.90141000  0.35222000  0.43675000  1.0
  H  H23  1  0.51708000  0.61501000  0.97007000  1.0
  H  H24  1  0.60227000  0.00140000  0.42136000  1.0
  H  H25  1  0.39512000  0.00029000  0.57714000  1.0
  H  H26  1  0.89755000  0.53153000  0.34567000  1.0
  H  H27  1  0.10225000  0.64330000  0.41371000  1.0
  H  H28  1  0.88321000  0.62809000  0.59345000  1.0
  H  H29  1  0.10009000  0.62846000  0.58768000  1.0
  C  C30  1  0.49890000  0.53462000  0.30951000  1.0
  C  C31  1  0.50035000  0.54822000  0.20612000  1.0
  C  C32  1  0.46263000  0.96915000  0.52696000  1.0
  C  C33  1  0.73902000  0.50422000  0.49954000  1.0
  C  C34  1  0.53487000  0.03269000  0.47155000  1.0
  C  C35  1  0.52644000  0.14278000  0.47607000  1.0
  C  C36  1  0.47147000  0.85909000  0.52198000  1.0
  C  C37  1  0.50132000  0.46451000  0.68527000  1.0
  C  C38  1  0.26115000  0.49888000  0.50109000  1.0
  C  C39  1  0.92688000  0.56545000  0.41126000  1.0
  C  C40  1  0.06975000  0.56324000  0.41160000  1.0
  C  C41  1  0.12063000  0.49619000  0.50167000  1.0
  C  C42  1  0.92572000  0.54833000  0.59110000  1.0
  C  C43  1  0.93491000  0.38644000  0.50071000  1.0
  C  C44  1  0.87995000  0.49996000  0.50093000  1.0
  C  C45  1  0.13082000  0.55214000  0.75478000  1.0
  C  C46  1  0.15267000  0.48045000  0.84621000  1.0
  C  C47  1  0.45264000  0.26844000  0.98954000  1.0
  C  C48  1  0.43461000  0.18216000  0.06871000  1.0
  C  C49  1  0.13351000  0.59410000  0.24757000  1.0
  C  C50  1  0.16106000  0.53710000  0.15802000  1.0
  C  C51  1  0.06860000  0.54764000  0.59084000  1.0
  C  C52  1  0.07722000  0.38408000  0.50187000  1.0
  C  C53  1  0.49883000  0.45364000  0.78931000  1.0
  C  C54  1  0.48899000  0.45265000  0.97782000  1.0
  C  C55  1  0.50345000  0.54539000  0.01885000  1.0
  C  C56  1  0.50210000  0.55082000  0.11825000  1.0
  C  C57  1  0.49425000  0.45009000  0.87697000  1.0
  N  N58  1  0.47799000  0.76853000  0.51827000  1.0
  N  N59  1  0.52083000  0.23342000  0.47898000  1.0
  O  O60  1  0.49415000  0.61747000  0.35511000  1.0
  O  O61  1  0.47029000  0.36393000  0.03553000  1.0
  O  O62  1  0.12154000  0.51831000  0.32837000  1.0
  O  O63  1  0.50281000  0.43950000  0.34579000  1.0
  O  O64  1  0.68187000  0.59356000  0.50422000  1.0
  O  O65  1  0.68855000  0.41758000  0.49320000  1.0
  O  O66  1  0.49429000  0.55924000  0.64801000  1.0
  O  O67  1  0.51010000  0.38055000  0.64247000  1.0
  O  O68  1  0.30607000  0.58872000  0.50294000  1.0
  O  O69  1  0.32280000  0.41175000  0.49835000  1.0
  O  O70  1  0.12025000  0.48931000  0.67518000  1.0
