# generated using pymatgen
data_Ni2H21C23N5O8
_symmetry_space_group_name_H-M   'P 1'
_cell_length_a   6.54870000
_cell_length_b   7.70687000
_cell_length_c   15.77539752
_cell_angle_alpha   78.26163413
_cell_angle_beta   78.01790726
_cell_angle_gamma   90.01040000
_symmetry_Int_Tables_number   1
_chemical_formula_structural   Ni2H21C23N5O8
_chemical_formula_sum   'Ni2 H21 C23 N5 O8'
_cell_volume   761.80095892
_cell_formula_units_Z   1
loop_
 _symmetry_equiv_pos_site_id
 _symmetry_equiv_pos_as_xyz
  1  'x, y, z'
loop_
 _atom_site_type_symbol
 _atom_site_label
 _atom_site_symmetry_multiplicity
 _atom_site_fract_x
 _atom_site_fract_y
 _atom_site_fract_z
 _atom_site_occupancy
  Ni  Ni0  1  0.01525000  0.28234000  0.44153000  1.0
  Ni  Ni1  1  0.45692000  0.71793000  0.55848000  1.0
  H  H2  1  0.73938000  0.27417000  0.24459000  1.0
  H  H3  1  0.03921000  0.50965000  0.26339000  1.0
  H  H4  1  0.46857000  0.21786000  0.38290000  1.0
  H  H5  1  0.29352000  0.58520000  0.11736000  1.0
  H  H6  1  0.26755000  0.68370000  0.44039000  1.0
  H  H7  1  0.35766000  0.89779000  0.41502000  1.0
  H  H8  1  0.54286000  0.67737000  0.31721000  1.0
  H  H9  1  0.96559000  0.43827000  0.13665000  1.0
  H  H10  1  0.69646000  0.97064000  0.29466000  1.0
  H  H11  1  0.89256000  0.81939000  0.31141000  1.0
  H  H12  1  0.98403000  0.72577000  0.75549000  1.0
  H  H13  1  0.30279000  0.48997000  0.73654000  1.0
  H  H14  1  0.85141000  0.78246000  0.61723000  1.0
  H  H15  1  0.41101000  0.41427000  0.88258000  1.0
  H  H16  1  0.70766000  0.31642000  0.55960000  1.0
  H  H17  1  0.77246000  0.10234000  0.58489000  1.0
  H  H18  1  0.85977000  0.32277000  0.68274000  1.0
  H  H19  1  0.10241000  0.56165000  0.86340000  1.0
  H  H20  1  0.99069000  0.02949000  0.70531000  1.0
  H  H21  1  0.20356000  0.18076000  0.68860000  1.0
  H  H22  1  0.45535000  0.49990000  0.99997000  1.0
  C  C23  1  0.58646000  0.32907000  0.24343000  1.0
  C  C24  1  0.19653000  0.45982000  0.25451000  1.0
  C  C25  1  0.68935000  0.46507000  0.08030000  1.0
  C  C26  1  0.43555000  0.29576000  0.32184000  1.0
  C  C27  1  0.53878000  0.43080000  0.16617000  1.0
  C  C28  1  0.33882000  0.50015000  0.17401000  1.0
  C  C29  1  0.58027000  0.71569000  0.37617000  1.0
  C  C30  1  0.67033000  0.55164000  0.42709000  1.0
  C  C31  1  0.90591000  0.46532000  0.07587000  1.0
  C  C32  1  0.79640000  0.95907000  0.41600000  1.0
  C  C33  1  0.74559000  0.86748000  0.34474000  1.0
  C  C34  1  0.83000000  0.67077000  0.75662000  1.0
  C  C35  1  0.45118000  0.53980000  0.74547000  1.0
  C  C36  1  0.76976000  0.53468000  0.91969000  1.0
  C  C37  1  0.75742000  0.70423000  0.67824000  1.0
  C  C38  1  0.70507000  0.56883000  0.83384000  1.0
  C  C39  1  0.51300000  0.49935000  0.82595000  1.0
  C  C40  1  0.95615000  0.28446000  0.62379000  1.0
  C  C41  1  0.09723000  0.44861000  0.57289000  1.0
  C  C42  1  0.98186000  0.53456000  0.92417000  1.0
  C  C43  1  0.21221000  0.04107000  0.58402000  1.0
  C  C44  1  0.08996000  0.13266000  0.65525000  1.0
  C  C45  1  0.62225000  0.49994000  1.00000000  1.0
  N  N46  1  0.24171000  0.35668000  0.32756000  1.0
  N  N47  1  0.39465000  0.76868000  0.43358000  1.0
  N  N48  1  0.56933000  0.64327000  0.67248000  1.0
  N  N49  1  0.82795000  0.23148000  0.56638000  1.0
  N  N50  1  0.05003000  0.49999000  0.00003000  1.0
  O  O51  1  0.80469000  0.46772000  0.38334000  1.0
  O  O52  1  0.91669000  0.09669000  0.38319000  1.0
  O  O53  1  0.72331000  0.90050000  0.49815000  1.0
  O  O54  1  0.60392000  0.51353000  0.51088000  1.0
  O  O55  1  0.18791000  0.53254000  0.61661000  1.0
  O  O56  1  0.30010000  0.90373000  0.61682000  1.0
  O  O57  1  0.22096000  0.09947000  0.50187000  1.0
  O  O58  1  0.11460000  0.48675000  0.48910000  1.0
