# generated using pymatgen
data_Zn3H30C44(N3O10)2
_symmetry_space_group_name_H-M   'P 1'
_cell_length_a   9.76220000
_cell_length_b   11.33680000
_cell_length_c   12.10070000
_cell_angle_alpha   70.47740000
_cell_angle_beta   69.74270000
_cell_angle_gamma   73.31940000
_symmetry_Int_Tables_number   1
_chemical_formula_structural   Zn3H30C44(N3O10)2
_chemical_formula_sum   'Zn3 H30 C44 N6 O20'
_cell_volume   1161.70430457
_cell_formula_units_Z   1
loop_
 _symmetry_equiv_pos_site_id
 _symmetry_equiv_pos_as_xyz
  1  'x, y, z'
loop_
 _atom_site_type_symbol
 _atom_site_label
 _atom_site_symmetry_multiplicity
 _atom_site_fract_x
 _atom_site_fract_y
 _atom_site_fract_z
 _atom_site_occupancy
  Zn  Zn0  1  0.14555000  0.68156000  0.49441000  1.0
  Zn  Zn1  1  0.85445000  0.31844000  0.50559000  1.0
  Zn  Zn2  1  0.00000000  0.00000000  0.50000000  1.0
  H  H3  1  0.72865000  0.91841000  0.67536000  1.0
  H  H4  1  0.27135000  0.08159000  0.32464000  1.0
  H  H5  1  0.26559000  0.97002000  0.69799000  1.0
  H  H6  1  0.73441000  0.02998000  0.30202000  1.0
  H  H7  1  0.59542000  0.73246000  0.48045000  1.0
  H  H8  1  0.40457000  0.26754000  0.51955000  1.0
  H  H9  1  0.48475000  0.80320000  0.90522000  1.0
  H  H10  1  0.51524000  0.19680000  0.09479000  1.0
  H  H11  1  0.36683000  0.74604000  0.12922000  1.0
  H  H12  1  0.63316000  0.25396000  0.87079000  1.0
  H  H13  1  0.16278000  0.13845000  0.11403000  1.0
  H  H14  1  0.83722000  0.86156000  0.88597000  1.0
  H  H15  1  0.06237000  0.73128000  0.75345000  1.0
  H  H16  1  0.93764000  0.26872000  0.24654000  1.0
  H  H17  1  0.99110000  0.42378000  0.67082000  1.0
  H  H18  1  0.00890000  0.57621000  0.32917000  1.0
  H  H19  1  0.87657000  0.59637000  0.96021000  1.0
  H  H20  1  0.12344000  0.40363000  0.03978000  1.0
  H  H21  1  0.86106000  0.33799000  0.99552000  1.0
  H  H22  1  0.13895000  0.66201000  0.00448000  1.0
  H  H23  1  0.83100000  0.32184000  0.86523000  1.0
  H  H24  1  0.16900000  0.67816000  0.13476000  1.0
  H  H25  1  0.64589000  0.39070000  0.15093000  1.0
  H  H26  1  0.35412000  0.60930000  0.84906000  1.0
  H  H27  1  0.62276000  0.51760000  0.77888000  1.0
  H  H28  1  0.37726000  0.48240000  0.22112000  1.0
  H  H29  1  0.36422000  0.49400000  0.44431000  1.0
  H  H30  1  0.63578000  0.50600000  0.55569000  1.0
  H  H31  1  0.21841000  0.43949000  0.46902000  1.0
  H  H32  1  0.78159000  0.56051000  0.53098000  1.0
  C  C33  1  0.84027000  0.76460000  0.52390000  1.0
  C  C34  1  0.15973000  0.23539000  0.47610000  1.0
  C  C35  1  0.67972000  0.81725000  0.57400000  1.0
  C  C36  1  0.32028000  0.18274000  0.42600000  1.0
  C  C37  1  0.64247000  0.89636000  0.65177000  1.0
  C  C38  1  0.35753000  0.10364000  0.34824000  1.0
  C  C39  1  0.49426000  0.94958000  0.69523000  1.0
  C  C40  1  0.50574000  0.05042000  0.30477000  1.0
  C  C41  1  0.38142000  0.92488000  0.66605000  1.0
  C  C42  1  0.61858000  0.07512000  0.33395000  1.0
  C  C43  1  0.41867000  0.84361000  0.59053000  1.0
  C  C44  1  0.58133000  0.15639000  0.40947000  1.0
  C  C45  1  0.56781000  0.79006000  0.54423000  1.0
  C  C46  1  0.43219000  0.20994000  0.45577000  1.0
  C  C47  1  0.39516000  0.00422000  0.88313000  1.0
  C  C48  1  0.60484000  0.99577000  0.11688000  1.0
  C  C49  1  0.41487000  0.87653000  0.95120000  1.0
  C  C50  1  0.58512000  0.12347000  0.04881000  1.0
  C  C51  1  0.34689000  0.84448000  0.07565000  1.0
  C  C52  1  0.65310000  0.15552000  0.92435000  1.0
  C  C53  1  0.25379000  0.93740000  0.13580000  1.0
  C  C54  1  0.74621000  0.06260000  0.86420000  1.0
  C  C55  1  0.23312000  0.06452000  0.06909000  1.0
  C  C56  1  0.76688000  0.93548000  0.93091000  1.0
  C  C57  1  0.30461000  0.09792000  0.94438000  1.0
  C  C58  1  0.69539000  0.90208000  0.05562000  1.0
  C  C59  1  0.17881000  0.89793000  0.27001000  1.0
  C  C60  1  0.82118000  0.10208000  0.72999000  1.0
  C  C61  1  0.02214000  0.64599000  0.76796000  1.0
  C  C62  1  0.97786000  0.35400000  0.23203000  1.0
  C  C63  1  0.98673000  0.49041000  0.71941000  1.0
  C  C64  1  0.01327000  0.50959000  0.28058000  1.0
  C  C65  1  0.92775000  0.58238000  0.86940000  1.0
  C  C66  1  0.07226000  0.41761000  0.13059000  1.0
  C  C67  1  0.81569000  0.38984000  0.91735000  1.0
  C  C68  1  0.18432000  0.61015000  0.08264000  1.0
  C  C69  1  0.65268000  0.44804000  0.96011000  1.0
  C  C70  1  0.34732000  0.55196000  0.03989000  1.0
  C  C71  1  0.58193000  0.43823000  0.08441000  1.0
  C  C72  1  0.41808000  0.56177000  0.91558000  1.0
  C  C73  1  0.56927000  0.51056000  0.87587000  1.0
  C  C74  1  0.43075000  0.48944000  0.12412000  1.0
  C  C75  1  0.29575000  0.82032000  0.55772000  1.0
  C  C76  1  0.70424000  0.17968000  0.44228000  1.0
  N  N77  1  0.28092000  0.23204000  0.87835000  1.0
  N  N78  1  0.71908000  0.76796000  0.12165000  1.0
  N  N79  1  0.05819000  0.58778000  0.67485000  1.0
  N  N80  1  0.94180000  0.41221000  0.32515000  1.0
  N  N81  1  0.90600000  0.48493000  0.83679000  1.0
  N  N82  1  0.09400000  0.51507000  0.16320000  1.0
  O  O83  1  0.93768000  0.81755000  0.52819000  1.0
  O  O84  1  0.06232000  0.18245000  0.47181000  1.0
  O  O85  1  0.87823000  0.66710000  0.48283000  1.0
  O  O86  1  0.12176000  0.33291000  0.51717000  1.0
  O  O87  1  0.45842000  0.04047000  0.76094000  1.0
  O  O88  1  0.54158000  0.95953000  0.23907000  1.0
  O  O89  1  0.38461000  0.27374000  0.79343000  1.0
  O  O90  1  0.61540000  0.72626000  0.20656000  1.0
  O  O91  1  0.15586000  0.29813000  0.91316000  1.0
  O  O92  1  0.84415000  0.70187000  0.08684000  1.0
  O  O93  1  0.17907000  0.77921000  0.31487000  1.0
  O  O94  1  0.82091000  0.22080000  0.68512000  1.0
  O  O95  1  0.12277000  0.98607000  0.32514000  1.0
  O  O96  1  0.87723000  0.01393000  0.67487000  1.0
  O  O97  1  0.17117000  0.89601000  0.57919000  1.0
  O  O98  1  0.82882000  0.10399000  0.42081000  1.0
  O  O99  1  0.32356000  0.72488000  0.51458000  1.0
  O  O100  1  0.67644000  0.27512000  0.48542000  1.0
  O  O101  1  0.26583000  0.51819000  0.43134000  1.0
  O  O102  1  0.73417000  0.48181000  0.56866000  1.0
