# generated using pymatgen
data_DyH13C14N2O11
_symmetry_space_group_name_H-M   'P 1'
_cell_length_a   7.42812000
_cell_length_b   10.00380000
_cell_length_c   11.73040000
_cell_angle_alpha   107.36400000
_cell_angle_beta   99.80400000
_cell_angle_gamma   101.28000000
_symmetry_Int_Tables_number   1
_chemical_formula_structural   DyH13C14N2O11
_chemical_formula_sum   'Dy2 H26 C28 N4 O22'
_cell_volume   791.16453344
_cell_formula_units_Z   2
loop_
 _symmetry_equiv_pos_site_id
 _symmetry_equiv_pos_as_xyz
  1  'x, y, z'
loop_
 _atom_site_type_symbol
 _atom_site_label
 _atom_site_symmetry_multiplicity
 _atom_site_fract_x
 _atom_site_fract_y
 _atom_site_fract_z
 _atom_site_occupancy
  Dy  Dy0  1  0.32121000  0.88214000  0.76614000  1.0
  Dy  Dy1  1  0.67879000  0.11786000  0.23387000  1.0
  H  H2  1  0.70720000  0.86774000  0.78526000  1.0
  H  H3  1  0.29281000  0.13226000  0.21474000  1.0
  H  H4  1  0.76530000  0.03936000  0.84007000  1.0
  H  H5  1  0.23470000  0.96064000  0.15992000  1.0
  H  H6  1  0.05013000  0.99269000  0.88940000  1.0
  H  H7  1  0.94987000  0.00731000  0.11060000  1.0
  H  H8  1  0.06325000  0.86544000  0.94249000  1.0
  H  H9  1  0.93675000  0.13456000  0.05751000  1.0
  H  H10  1  0.29325000  0.92550000  0.51716000  1.0
  H  H11  1  0.70675000  0.07450000  0.48284000  1.0
  H  H12  1  0.47143000  0.85983000  0.54063000  1.0
  H  H13  1  0.52857000  0.14017000  0.45937000  1.0
  H  H14  1  0.01760000  0.66517000  0.49105000  1.0
  H  H15  1  0.98240000  0.33483000  0.50895000  1.0
  H  H16  1  0.32017000  0.45437000  0.35505000  1.0
  H  H17  1  0.67983000  0.54563000  0.64495000  1.0
  H  H18  1  0.28433000  0.63193000  0.39173000  1.0
  H  H19  1  0.71566000  0.36807000  0.60827000  1.0
  H  H20  1  0.15040000  0.32781000  0.14352000  1.0
  H  H21  1  0.84960000  0.67219000  0.85648000  1.0
  H  H22  1  0.50708000  0.76076000  0.24776000  1.0
  H  H23  1  0.49291000  0.23925000  0.75224000  1.0
  H  H24  1  0.22595000  0.52449000  0.86770000  1.0
  H  H25  1  0.77405000  0.47551000  0.13230000  1.0
  H  H26  1  0.95401000  0.17776000  0.71248000  1.0
  H  H27  1  0.04599000  0.82224000  0.28752000  1.0
  C  C28  1  0.92127000  0.94613000  0.60262000  1.0
  C  C29  1  0.07873000  0.05387000  0.39738000  1.0
  C  C30  1  0.81021000  0.80038000  0.51647000  1.0
  C  C31  1  0.18978000  0.19962000  0.48352000  1.0
  C  C32  1  0.87480000  0.67624000  0.47265000  1.0
  C  C33  1  0.12520000  0.32376000  0.52735000  1.0
  C  C34  1  0.71373000  0.56591000  0.40381000  1.0
  C  C35  1  0.28627000  0.43409000  0.59619000  1.0
  C  C36  1  0.69798000  0.41028000  0.34421000  1.0
  C  C37  1  0.30202000  0.58972000  0.65580000  1.0
  C  C38  1  0.36367000  0.56019000  0.34477000  1.0
  C  C39  1  0.63633000  0.43981000  0.65524000  1.0
  C  C40  1  0.33030000  0.54554000  0.21022000  1.0
  C  C41  1  0.66970000  0.45446000  0.78978000  1.0
  C  C42  1  0.21423000  0.41910000  0.11835000  1.0
  C  C43  1  0.78577000  0.58090000  0.88165000  1.0
  C  C44  1  0.41359000  0.66189000  0.17757000  1.0
  C  C45  1  0.58641000  0.33811000  0.82243000  1.0
  C  C46  1  0.17855000  0.41006000  0.99437000  1.0
  C  C47  1  0.82145000  0.58994000  0.00562000  1.0
  C  C48  1  0.37634000  0.65498000  0.05483000  1.0
  C  C49  1  0.62366000  0.34502000  0.94517000  1.0
  C  C50  1  0.05487000  0.27562000  0.89624000  1.0
  C  C51  1  0.94513000  0.72438000  0.10376000  1.0
  C  C52  1  0.25772000  0.52927000  0.96307000  1.0
  C  C53  1  0.74228000  0.47073000  0.03693000  1.0
  C  C54  1  0.45804000  0.78645000  0.02518000  1.0
  C  C55  1  0.54197000  0.21355000  0.97482000  1.0
  N  N56  1  0.62023000  0.76883000  0.47498000  1.0
  N  N57  1  0.37977000  0.23117000  0.52501000  1.0
  N  N58  1  0.56302000  0.62669000  0.40953000  1.0
  N  N59  1  0.43698000  0.37331000  0.59047000  1.0
  O  O60  1  0.38361000  0.79423000  0.92313000  1.0
  O  O61  1  0.61639000  0.20577000  0.07687000  1.0
  O  O62  1  0.65671000  0.95199000  0.80887000  1.0
  O  O63  1  0.34329000  0.04801000  0.19113000  1.0
  O  O64  1  0.06001000  0.89184000  0.86741000  1.0
  O  O65  1  0.93999000  0.10816000  0.13259000  1.0
  O  O66  1  0.37139000  0.89673000  0.57851000  1.0
  O  O67  1  0.62861000  0.10326000  0.42149000  1.0
  O  O68  1  0.40499000  0.11608000  0.89309000  1.0
  O  O69  1  0.59501000  0.88392000  0.10691000  1.0
  O  O70  1  0.08212000  0.95802000  0.66680000  1.0
  O  O71  1  0.91788000  0.04198000  0.33320000  1.0
  O  O72  1  0.15064000  0.62887000  0.66823000  1.0
  O  O73  1  0.84936000  0.37113000  0.33177000  1.0
  O  O74  1  0.46340000  0.68155000  0.68994000  1.0
  O  O75  1  0.53660000  0.31845000  0.31006000  1.0
  O  O76  1  0.84830000  0.05386000  0.60971000  1.0
  O  O77  1  0.15170000  0.94614000  0.39028000  1.0
  O  O78  1  0.03444000  0.27844000  0.78476000  1.0
  O  O79  1  0.96556000  0.72156000  0.21524000  1.0
  O  O80  1  0.97499000  0.16760000  0.92120000  1.0
  O  O81  1  0.02501000  0.83240000  0.07880000  1.0
