# generated using pymatgen
data_LuH12(C4O3)3
_symmetry_space_group_name_H-M   'P 1'
_cell_length_a   7.73595000
_cell_length_b   9.28677000
_cell_length_c   10.70650000
_cell_angle_alpha   69.32050000
_cell_angle_beta   71.50140000
_cell_angle_gamma   77.10740000
_symmetry_Int_Tables_number   1
_chemical_formula_structural   LuH12(C4O3)3
_chemical_formula_sum   'Lu2 H24 C24 O18'
_cell_volume   677.06733106
_cell_formula_units_Z   2
loop_
 _symmetry_equiv_pos_site_id
 _symmetry_equiv_pos_as_xyz
  1  'x, y, z'
loop_
 _atom_site_type_symbol
 _atom_site_label
 _atom_site_symmetry_multiplicity
 _atom_site_fract_x
 _atom_site_fract_y
 _atom_site_fract_z
 _atom_site_occupancy
  Lu  Lu0  1  0.23647000  0.20579000  0.49075000  1.0
  Lu  Lu1  1  0.76352000  0.79421000  0.50925000  1.0
  H  H2  1  0.45095000  0.46185000  0.38609000  1.0
  H  H3  1  0.54904000  0.53815000  0.61391000  1.0
  H  H4  1  0.09267000  0.89758000  0.61513000  1.0
  H  H5  1  0.90735000  0.10242000  0.38487000  1.0
  H  H6  1  0.19369000  0.92744000  0.46173000  1.0
  H  H7  1  0.80631000  0.07256000  0.53827000  1.0
  H  H8  1  0.21104000  0.50056000  0.53326000  1.0
  H  H9  1  0.78896000  0.49943000  0.46674000  1.0
  H  H10  1  0.02636000  0.44342000  0.63627000  1.0
  H  H11  1  0.97365000  0.55658000  0.36373000  1.0
  H  H12  1  0.55992000  0.32998000  0.48170000  1.0
  H  H13  1  0.44008000  0.67002000  0.51830000  1.0
  H  H14  1  0.16872000  0.10214000  0.90724000  1.0
  H  H15  1  0.83128000  0.89786000  0.09276000  1.0
  H  H16  1  0.07585000  0.00376000  0.16614000  1.0
  H  H17  1  0.92415000  0.99623000  0.83386000  1.0
  H  H18  1  0.51661000  0.62829000  0.15869000  1.0
  H  H19  1  0.48339000  0.37171000  0.84131000  1.0
  H  H20  1  0.59689000  0.71866000  0.90099000  1.0
  H  H21  1  0.40312000  0.28134000  0.09901000  1.0
  H  H22  1  0.17910000  0.62498000  0.08020000  1.0
  H  H23  1  0.82090000  0.37503000  0.91981000  1.0
  H  H24  1  0.89777000  0.24290000  0.14625000  1.0
  H  H25  1  0.10223000  0.75710000  0.85375000  1.0
  C  C26  1  0.43278000  0.96591000  0.73335000  1.0
  C  C27  1  0.56721000  0.03410000  0.26665000  1.0
  C  C28  1  0.38650000  0.91460000  0.88860000  1.0
  C  C29  1  0.61350000  0.08540000  0.11140000  1.0
  C  C30  1  0.24188000  0.99721000  0.96336000  1.0
  C  C31  1  0.75812000  0.00280000  0.03664000  1.0
  C  C32  1  0.19113000  0.94305000  0.10709000  1.0
  C  C33  1  0.80887000  0.05695000  0.89291000  1.0
  C  C34  1  0.28793000  0.80917000  0.17851000  1.0
  C  C35  1  0.71208000  0.19083000  0.82149000  1.0
  C  C36  1  0.43910000  0.73100000  0.10381000  1.0
  C  C37  1  0.56091000  0.26900000  0.89619000  1.0
  C  C38  1  0.48514000  0.78194000  0.95998000  1.0
  C  C39  1  0.51486000  0.21806000  0.04002000  1.0
  C  C40  1  0.22339000  0.74805000  0.33260000  1.0
  C  C41  1  0.77662000  0.25195000  0.66739000  1.0
  C  C42  1  0.09755000  0.34607000  0.25766000  1.0
  C  C43  1  0.90245000  0.65392000  0.74234000  1.0
  C  C44  1  0.04368000  0.42628000  0.12620000  1.0
  C  C45  1  0.95633000  0.57372000  0.87381000  1.0
  C  C46  1  0.09981000  0.57187000  0.04451000  1.0
  C  C47  1  0.90018000  0.42813000  0.95550000  1.0
  C  C48  1  0.94325000  0.35485000  0.08143000  1.0
  C  C49  1  0.05674000  0.64515000  0.91857000  1.0
  O  O50  1  0.34322000  0.09070000  0.67398000  1.0
  O  O51  1  0.65676000  0.90930000  0.32604000  1.0
  O  O52  1  0.06365000  0.80350000  0.39102000  1.0
  O  O53  1  0.93635000  0.19650000  0.60898000  1.0
  O  O54  1  0.16352000  0.42145000  0.30884000  1.0
  O  O55  1  0.83649000  0.57854000  0.69116000  1.0
  O  O56  1  0.08458000  0.20231000  0.31829000  1.0
  O  O57  1  0.91543000  0.79769000  0.68171000  1.0
  O  O58  1  0.19677000  0.94998000  0.54339000  1.0
  O  O59  1  0.80323000  0.05002000  0.45660000  1.0
  O  O60  1  0.55643000  0.88243000  0.67065000  1.0
  O  O61  1  0.44357000  0.11758000  0.32934000  1.0
  O  O62  1  0.15257000  0.40507000  0.59209000  1.0
  O  O63  1  0.84743000  0.59493000  0.40791000  1.0
  O  O64  1  0.32807000  0.64518000  0.40024000  1.0
  O  O65  1  0.67194000  0.35481000  0.59975000  1.0
  O  O66  1  0.48662000  0.34825000  0.41580000  1.0
  O  O67  1  0.51338000  0.65175000  0.58419000  1.0
