# generated using pymatgen
data_ZnH3C17I2N3(Cl3O2)2
_symmetry_space_group_name_H-M   'P 1'
_cell_length_a   10.85850000
_cell_length_b   16.17520000
_cell_length_c   17.24860000
_cell_angle_alpha   89.36480000
_cell_angle_beta   89.29800000
_cell_angle_gamma   88.27210000
_symmetry_Int_Tables_number   1
_chemical_formula_structural   ZnH3C17I2N3(Cl3O2)2
_chemical_formula_sum   'Zn2 H6 C34 I4 N6 Cl12 O8'
_cell_volume   3027.73778373
_cell_formula_units_Z   2
loop_
 _symmetry_equiv_pos_site_id
 _symmetry_equiv_pos_as_xyz
  1  'x, y, z'
loop_
 _atom_site_type_symbol
 _atom_site_label
 _atom_site_symmetry_multiplicity
 _atom_site_fract_x
 _atom_site_fract_y
 _atom_site_fract_z
 _atom_site_occupancy
  Zn  Zn0  1  0.50930000  0.41116000  0.51259000  1.0
  Zn  Zn1  1  0.49043000  0.58890000  0.48736000  1.0
  H  H2  1  0.09100000  0.57690000  0.60526000  1.0
  H  H3  1  0.90877000  0.42301000  0.39488000  1.0
  H  H4  1  0.63232000  0.70562000  0.56688000  1.0
  H  H5  1  0.36779000  0.29439000  0.43297000  1.0
  H  H6  1  0.07065000  0.35406000  0.50880000  1.0
  H  H7  1  0.92912000  0.64585000  0.49132000  1.0
  C  C8  1  0.48250000  0.52469000  0.64939000  1.0
  C  C9  1  0.57787000  0.23050000  0.55756000  1.0
  C  C10  1  0.42245000  0.85636000  0.45072000  1.0
  C  C11  1  0.57744000  0.14371000  0.54933000  1.0
  C  C12  1  0.50312000  0.88991000  0.50498000  1.0
  C  C13  1  0.49695000  0.11011000  0.49497000  1.0
  C  C14  1  0.57986000  0.83434000  0.54744000  1.0
  C  C15  1  0.42031000  0.16568000  0.45242000  1.0
  C  C16  1  0.57452000  0.74997000  0.53480000  1.0
  C  C17  1  0.42554000  0.25006000  0.46509000  1.0
  C  C18  1  0.73701000  0.50666000  0.50579000  1.0
  C  C19  1  0.51754000  0.47553000  0.35056000  1.0
  C  C20  1  0.26275000  0.49330000  0.49428000  1.0
  C  C21  1  0.96372000  0.46742000  0.56803000  1.0
  C  C22  1  0.03606000  0.53249000  0.43209000  1.0
  C  C23  1  0.04863000  0.54328000  0.55844000  1.0
  C  C24  1  0.95114000  0.45663000  0.44170000  1.0
  C  C25  1  0.12559000  0.49354000  0.49547000  1.0
  C  C26  1  0.87419000  0.50638000  0.50467000  1.0
  C  C27  1  0.03904000  0.41868000  0.50458000  1.0
  C  C28  1  0.96073000  0.58124000  0.49554000  1.0
  C  C29  1  0.47343000  0.53091000  0.73687000  1.0
  C  C30  1  0.46619000  0.51920000  0.90061000  1.0
  C  C31  1  0.52712000  0.46922000  0.26310000  1.0
  C  C32  1  0.56499000  0.56700000  0.78090000  1.0
  C  C33  1  0.43614000  0.43270000  0.21892000  1.0
  C  C34  1  0.56354000  0.56018000  0.86233000  1.0
  C  C35  1  0.43812000  0.43925000  0.13749000  1.0
  C  C36  1  0.53533000  0.48059000  0.09935000  1.0
  C  C37  1  0.36758000  0.49114000  0.85622000  1.0
  C  C38  1  0.63344000  0.50907000  0.14393000  1.0
  C  C39  1  0.37263000  0.49557000  0.77509000  1.0
  C  C40  1  0.62790000  0.50479000  0.22507000  1.0
  C  C41  1  0.42191000  0.76956000  0.44251000  1.0
  I  I42  1  0.91338000  0.41652000  0.67747000  1.0
  I  I43  1  0.08672000  0.58322000  0.32266000  1.0
  I  I44  1  0.29398000  0.36756000  0.27414000  1.0
  I  I45  1  0.70697000  0.63205000  0.72539000  1.0
  N  N46  1  0.45244000  0.51020000  0.98205000  1.0
  N  N47  1  0.54924000  0.48958000  0.01794000  1.0
  N  N48  1  0.49621000  0.71876000  0.48382000  1.0
  N  N49  1  0.50366000  0.28128000  0.51617000  1.0
  N  N50  1  0.50204000  0.97374000  0.52707000  1.0
  N  N51  1  0.49807000  0.02630000  0.47289000  1.0
  Cl  Cl52  1  0.68155000  0.86922000  0.61394000  1.0
  Cl  Cl53  1  0.32469000  0.72530000  0.37965000  1.0
  Cl  Cl54  1  0.67888000  0.08355000  0.60137000  1.0
  Cl  Cl55  1  0.32085000  0.91653000  0.39882000  1.0
  Cl  Cl56  1  0.31886000  0.13078000  0.38579000  1.0
  Cl  Cl57  1  0.32795000  0.39230000  0.08460000  1.0
  Cl  Cl58  1  0.67468000  0.60649000  0.91498000  1.0
  Cl  Cl59  1  0.24379000  0.44783000  0.90189000  1.0
  Cl  Cl60  1  0.75712000  0.55276000  0.09848000  1.0
  Cl  Cl61  1  0.25291000  0.45857000  0.72235000  1.0
  Cl  Cl62  1  0.74704000  0.54223000  0.27801000  1.0
  Cl  Cl63  1  0.67481000  0.27478000  0.62059000  1.0
  O  O64  1  0.49869000  0.45135000  0.62526000  1.0
  O  O65  1  0.50093000  0.54886000  0.37466000  1.0
  O  O66  1  0.47351000  0.59064000  0.60965000  1.0
  O  O67  1  0.52662000  0.40959000  0.39032000  1.0
  O  O68  1  0.69130000  0.43546000  0.51164000  1.0
  O  O69  1  0.30843000  0.56452000  0.48861000  1.0
  O  O70  1  0.67843000  0.57576000  0.49922000  1.0
  O  O71  1  0.32137000  0.42418000  0.50057000  1.0
