# generated using pymatgen
data_MnH28(C16O5)2
_symmetry_space_group_name_H-M   'P 1'
_cell_length_a   4.55459000
_cell_length_b   11.62310000
_cell_length_c   13.42140000
_cell_angle_alpha   90.07290000
_cell_angle_beta   96.98960000
_cell_angle_gamma   98.69830000
_symmetry_Int_Tables_number   1
_chemical_formula_structural   MnH28(C16O5)2
_chemical_formula_sum   'Mn1 H28 C32 O10'
_cell_volume   696.97641375
_cell_formula_units_Z   1
loop_
 _symmetry_equiv_pos_site_id
 _symmetry_equiv_pos_as_xyz
  1  'x, y, z'
loop_
 _atom_site_type_symbol
 _atom_site_label
 _atom_site_symmetry_multiplicity
 _atom_site_fract_x
 _atom_site_fract_y
 _atom_site_fract_z
 _atom_site_occupancy
  Mn  Mn0  1  0.50000000  0.50000000  0.50000000  1.0
  H  H1  1  0.01422000  0.39509000  0.40444000  1.0
  H  H2  1  0.98578000  0.60491000  0.59556000  1.0
  H  H3  1  0.25645000  0.32106000  0.36947000  1.0
  H  H4  1  0.74356000  0.67894000  0.63053000  1.0
  H  H5  1  0.74206000  0.18507000  0.65541000  1.0
  H  H6  1  0.25794000  0.81493000  0.34459000  1.0
  H  H7  1  0.90019000  0.04329000  0.78214000  1.0
  H  H8  1  0.09981000  0.95671000  0.21786000  1.0
  H  H9  1  0.65406000  0.29552000  0.89896000  1.0
  H  H10  1  0.34594000  0.70448000  0.10104000  1.0
  H  H11  1  0.49865000  0.43536000  0.76850000  1.0
  H  H12  1  0.50135000  0.56464000  0.23150000  1.0
  H  H13  1  0.14631000  0.86996000  0.59967000  1.0
  H  H14  1  0.85369000  0.13004000  0.40033000  1.0
  H  H15  1  0.37841000  0.81323000  0.51930000  1.0
  H  H16  1  0.62159000  0.18677000  0.48070000  1.0
  H  H17  1  0.51207000  0.94929000  0.58734000  1.0
  H  H18  1  0.48793000  0.05071000  0.41266000  1.0
  H  H19  1  0.33532000  0.98783000  0.73670000  1.0
  H  H20  1  0.66468000  0.01217000  0.26330000  1.0
  H  H21  1  0.19768000  0.25920000  0.00689000  1.0
  H  H22  1  0.80233000  0.74080000  0.99311000  1.0
  H  H23  1  0.02631000  0.54117000  0.82293000  1.0
  H  H24  1  0.97369000  0.45883000  0.17707000  1.0
  H  H25  1  0.79924000  0.55919000  0.92091000  1.0
  H  H26  1  0.20076000  0.44081000  0.07909000  1.0
  H  H27  1  0.13406000  0.66105000  0.91068000  1.0
  H  H28  1  0.86594000  0.33895000  0.08932000  1.0
  C  C29  1  0.01138000  0.40448000  0.63010000  1.0
  C  C30  1  0.98863000  0.59552000  0.36990000  1.0
  C  C31  1  0.11196000  0.31859000  0.70403000  1.0
  C  C32  1  0.88804000  0.68141000  0.29597000  1.0
  C  C33  1  0.94563000  0.20747000  0.70773000  1.0
  C  C34  1  0.05437000  0.79253000  0.29227000  1.0
  C  C35  1  0.03408000  0.12875000  0.77895000  1.0
  C  C36  1  0.96592000  0.87125000  0.22105000  1.0
  C  C37  1  0.28737000  0.15913000  0.84991000  1.0
  C  C38  1  0.71264000  0.84086000  0.15009000  1.0
  C  C39  1  0.45251000  0.27135000  0.84588000  1.0
  C  C40  1  0.54748000  0.72865000  0.15412000  1.0
  C  C41  1  0.36765000  0.34955000  0.77356000  1.0
  C  C42  1  0.63235000  0.65045000  0.22644000  1.0
  C  C43  1  0.37812000  0.86212000  0.58904000  1.0
  C  C44  1  0.62188000  0.13788000  0.41096000  1.0
  C  C45  1  0.52627000  0.83298000  0.76378000  1.0
  C  C46  1  0.47373000  0.16702000  0.23622000  1.0
  C  C47  1  0.43022000  0.93257000  0.79321000  1.0
  C  C48  1  0.56978000  0.06743000  0.20679000  1.0
  C  C49  1  0.46114000  0.96841000  0.89632000  1.0
  C  C50  1  0.53886000  0.03159000  0.10368000  1.0
  C  C51  1  0.38510000  0.07589000  0.92605000  1.0
  C  C52  1  0.61490000  0.92411000  0.07395000  1.0
  C  C53  1  0.41513000  0.10621000  0.02933000  1.0
  C  C54  1  0.58487000  0.89379000  0.97067000  1.0
  C  C55  1  0.30761000  0.20720000  0.06280000  1.0
  C  C56  1  0.69239000  0.79280000  0.93720000  1.0
  C  C57  1  0.66941000  0.76307000  0.83725000  1.0
  C  C58  1  0.33058000  0.23693000  0.16276000  1.0
  C  C59  1  0.94344000  0.60470000  0.86840000  1.0
  C  C60  1  0.05656000  0.39530000  0.13160000  1.0
  O  O61  1  0.19569000  0.49800000  0.61830000  1.0
  O  O62  1  0.80431000  0.50200000  0.38170000  1.0
  O  O63  1  0.18725000  0.35387000  0.42823000  1.0
  O  O64  1  0.81275000  0.64613000  0.57178000  1.0
  O  O65  1  0.74676000  0.38234000  0.58499000  1.0
  O  O66  1  0.25324000  0.61766000  0.41501000  1.0
  O  O67  1  0.50799000  0.79444000  0.66693000  1.0
  O  O68  1  0.49201000  0.20556000  0.33307000  1.0
  O  O69  1  0.77700000  0.67115000  0.79893000  1.0
  O  O70  1  0.22299000  0.32885000  0.20107000  1.0
