# generated using pymatgen
data_AlH3C8Cl2O5
_symmetry_space_group_name_H-M   'P 1'
_cell_length_a   6.61525000
_cell_length_b   8.92760000
_cell_length_c   11.05270000
_cell_angle_alpha   84.14420000
_cell_angle_beta   73.56350000
_cell_angle_gamma   74.83070000
_symmetry_Int_Tables_number   1
_chemical_formula_structural   AlH3C8Cl2O5
_chemical_formula_sum   'Al2 H6 C16 Cl4 O10'
_cell_volume   603.98753666
_cell_formula_units_Z   2
loop_
 _symmetry_equiv_pos_site_id
 _symmetry_equiv_pos_as_xyz
  1  'x, y, z'
loop_
 _atom_site_type_symbol
 _atom_site_label
 _atom_site_symmetry_multiplicity
 _atom_site_fract_x
 _atom_site_fract_y
 _atom_site_fract_z
 _atom_site_occupancy
  Al  Al0  1  0.48921000  0.50743000  0.50143000  1.0
  Al  Al1  1  0.98966000  0.50881000  0.49947000  1.0
  H  H2  1  0.76476000  0.62178000  0.35862000  1.0
  H  H3  1  0.19672000  0.41379000  0.64879000  1.0
  H  H4  1  0.22592000  0.26883000  0.23652000  1.0
  H  H5  1  0.15661000  0.07591000  0.11933000  1.0
  H  H6  1  0.46924000  0.27189000  0.76615000  1.0
  H  H7  1  0.27981000  0.07697000  0.88380000  1.0
  C  C8  1  0.35951000  0.49984000  0.27505000  1.0
  C  C9  1  0.12690000  0.78530000  0.51247000  1.0
  C  C10  1  0.62298000  0.51205000  0.72672000  1.0
  C  C11  1  0.85513000  0.23051000  0.48720000  1.0
  C  C12  1  0.91666000  0.05747000  0.47377000  1.0
  C  C13  1  0.06601000  0.95852000  0.52494000  1.0
  C  C14  1  0.42775000  0.50056000  0.13365000  1.0
  C  C15  1  0.38400000  0.38753000  0.06866000  1.0
  C  C16  1  0.53227000  0.61176000  0.06783000  1.0
  C  C17  1  0.27801000  0.27159000  0.13375000  1.0
  C  C18  1  0.23935000  0.16348000  0.06805000  1.0
  C  C19  1  0.55815000  0.50633000  0.86812000  1.0
  C  C20  1  0.59750000  0.61527000  0.93359000  1.0
  C  C21  1  0.45186000  0.38981000  0.93327000  1.0
  C  C22  1  0.41335000  0.27441000  0.86878000  1.0
  C  C23  1  0.30829000  0.16450000  0.93474000  1.0
  Cl  Cl24  1  0.77877000  0.99577000  0.38584000  1.0
  Cl  Cl25  1  0.20427000  0.02198000  0.61160000  1.0
  Cl  Cl26  1  0.71595000  0.75972000  0.85365000  1.0
  Cl  Cl27  1  0.57463000  0.75295000  0.14705000  1.0
  O  O28  1  0.50961000  0.46975000  0.33066000  1.0
  O  O29  1  0.97149000  0.72072000  0.52936000  1.0
  O  O30  1  0.82465000  0.48403000  0.67101000  1.0
  O  O31  1  0.65326000  0.29467000  0.51858000  1.0
  O  O32  1  0.46978000  0.54000000  0.67340000  1.0
  O  O33  1  0.01018000  0.29644000  0.46613000  1.0
  O  O34  1  0.15668000  0.53037000  0.32833000  1.0
  O  O35  1  0.32831000  0.72020000  0.48623000  1.0
  O  O36  1  0.74182000  0.57551000  0.44321000  1.0
  O  O37  1  0.23536000  0.43993000  0.55913000  1.0
