# generated using pymatgen
data_CdH10(C2N)4
_symmetry_space_group_name_H-M   'P 1'
_cell_length_a   15.74710000
_cell_length_b   15.75530000
_cell_length_c   15.75523411
_cell_angle_alpha   109.47364956
_cell_angle_beta   109.46149247
_cell_angle_gamma   109.45400000
_symmetry_Int_Tables_number   1
_chemical_formula_structural   CdH10(C2N)4
_chemical_formula_sum   'Cd6 H60 C48 N24'
_cell_volume   3009.96589265
_cell_formula_units_Z   6
loop_
 _symmetry_equiv_pos_site_id
 _symmetry_equiv_pos_as_xyz
  1  'x, y, z'
loop_
 _atom_site_type_symbol
 _atom_site_label
 _atom_site_symmetry_multiplicity
 _atom_site_fract_x
 _atom_site_fract_y
 _atom_site_fract_z
 _atom_site_occupancy
  Cd  Cd0  1  0.75005000  0.25001000  0.49988000  1.0
  Cd  Cd1  1  0.25043000  0.75035000  0.50035000  1.0
  Cd  Cd2  1  0.50027000  0.24998000  0.75004000  1.0
  Cd  Cd3  1  0.50032000  0.75028000  0.24992000  1.0
  Cd  Cd4  1  0.75012000  0.49983000  0.25009000  1.0
  Cd  Cd5  1  0.25010000  0.49981000  0.75007000  1.0
  H  H6  1  0.64574000  0.13137000  0.23942000  1.0
  H  H7  1  0.35384000  0.59297000  0.48523000  1.0
  H  H8  1  0.89172000  0.40607000  0.76049000  1.0
  H  H9  1  0.10802000  0.86843000  0.51476000  1.0
  H  H10  1  0.48549000  0.35418000  0.59350000  1.0
  H  H11  1  0.23959000  0.64574000  0.13146000  1.0
  H  H12  1  0.51438000  0.10818000  0.86863000  1.0
  H  H13  1  0.76092000  0.89222000  0.40683000  1.0
  H  H14  1  0.86869000  0.51494000  0.10788000  1.0
  H  H15  1  0.40631000  0.76047000  0.89185000  1.0
  H  H16  1  0.59344000  0.48546000  0.35399000  1.0
  H  H17  1  0.13145000  0.23934000  0.64593000  1.0
  H  H18  1  0.35400000  0.48531000  0.59351000  1.0
  H  H19  1  0.64593000  0.23939000  0.13144000  1.0
  H  H20  1  0.10772000  0.51480000  0.86855000  1.0
  H  H21  1  0.89196000  0.76054000  0.40638000  1.0
  H  H22  1  0.51468000  0.86840000  0.10783000  1.0
  H  H23  1  0.76069000  0.40690000  0.89202000  1.0
  H  H24  1  0.48596000  0.59409000  0.35469000  1.0
  H  H25  1  0.23956000  0.13138000  0.64579000  1.0
  H  H26  1  0.13144000  0.64563000  0.23945000  1.0
  H  H27  1  0.59355000  0.35412000  0.48547000  1.0
  H  H28  1  0.40682000  0.89224000  0.76075000  1.0
  H  H29  1  0.86880000  0.10820000  0.51445000  1.0
  H  H30  1  0.85783000  0.54405000  0.47496000  1.0
  H  H31  1  0.85725000  0.47470000  0.54416000  1.0
  H  H32  1  0.75326000  0.49841000  0.49797000  1.0
  H  H33  1  0.24477000  0.75239000  0.73437000  1.0
  H  H34  1  0.15645000  0.62632000  0.70216000  1.0
  H  H35  1  0.12990000  0.67063000  0.61130000  1.0
  H  H36  1  0.00943000  0.26023000  0.50637000  1.0
  H  H37  1  0.06463000  0.38624000  0.52198000  1.0
  H  H38  1  0.92694000  0.30541000  0.45496000  1.0
  H  H39  1  0.95898000  0.46687000  0.35027000  1.0
  H  H40  1  0.07929000  0.53402000  0.35754000  1.0
  H  H41  1  0.95974000  0.48020000  0.24334000  1.0
  H  H42  1  0.73232000  0.24411000  0.75321000  1.0
  H  H43  1  0.70476000  0.15888000  0.62804000  1.0
  H  H44  1  0.61064000  0.12804000  0.66791000  1.0
  H  H45  1  0.48830000  0.87942000  0.53606000  1.0
  H  H46  1  0.54581000  0.83042000  0.46694000  1.0
  H  H47  1  0.48276000  0.75984000  0.51583000  1.0
  H  H48  1  0.31894000  0.93385000  0.45684000  1.0
  H  H49  1  0.37983000  0.07196000  0.52701000  1.0
  H  H50  1  0.25206000  0.99370000  0.49859000  1.0
  H  H51  1  0.52707000  0.07196000  0.37992000  1.0
  H  H52  1  0.45692000  0.93385000  0.31906000  1.0
  H  H53  1  0.49856000  0.99368000  0.25213000  1.0
  H  H54  1  0.52197000  0.38622000  0.06458000  1.0
  H  H55  1  0.50635000  0.26020000  0.00938000  1.0
  H  H56  1  0.45492000  0.30538000  0.92692000  1.0
  H  H57  1  0.35756000  0.53411000  0.07920000  1.0
  H  H58  1  0.35029000  0.46687000  0.95895000  1.0
  H  H59  1  0.24329000  0.48019000  0.95968000  1.0
  H  H60  1  0.70223000  0.62629000  0.15643000  1.0
  H  H61  1  0.73438000  0.75234000  0.24474000  1.0
  H  H62  1  0.61130000  0.67058000  0.12989000  1.0
  H  H63  1  0.54431000  0.47478000  0.85728000  1.0
  H  H64  1  0.47495000  0.54402000  0.85780000  1.0
  H  H65  1  0.49807000  0.49845000  0.75332000  1.0
  C  C66  1  0.67568000  0.21386000  0.26738000  1.0
  C  C67  1  0.32425000  0.59148000  0.53814000  1.0
  C  C68  1  0.94633000  0.40817000  0.73258000  1.0
  C  C69  1  0.05352000  0.78598000  0.46202000  1.0
  C  C70  1  0.53814000  0.32430000  0.59159000  1.0
  C  C71  1  0.26753000  0.67574000  0.21396000  1.0
  C  C72  1  0.46183000  0.05364000  0.78615000  1.0
  C  C73  1  0.73288000  0.94669000  0.40850000  1.0
  C  C74  1  0.78620000  0.46199000  0.05346000  1.0
  C  C75  1  0.40837000  0.73251000  0.94640000  1.0
  C  C76  1  0.59164000  0.53818000  0.32424000  1.0
  C  C77  1  0.21395000  0.26732000  0.67569000  1.0
  C  C78  1  0.32424000  0.53804000  0.59168000  1.0
  C  C79  1  0.67569000  0.26736000  0.21391000  1.0
  C  C80  1  0.05333000  0.46187000  0.78609000  1.0
  C  C81  1  0.94653000  0.73256000  0.40842000  1.0
  C  C82  1  0.46196000  0.78596000  0.05334000  1.0
  C  C83  1  0.73272000  0.40850000  0.94652000  1.0
  C  C84  1  0.53836000  0.59191000  0.32451000  1.0
  C  C85  1  0.26750000  0.21386000  0.67571000  1.0
  C  C86  1  0.21399000  0.67568000  0.26742000  1.0
  C  C87  1  0.59165000  0.32427000  0.53810000  1.0
  C  C88  1  0.40847000  0.94670000  0.73273000  1.0
  C  C89  1  0.78630000  0.05363000  0.46189000  1.0
  C  C90  1  0.80824000  0.47920000  0.47920000  1.0
  C  C91  1  0.75345000  0.37953000  0.37953000  1.0
  C  C92  1  0.19173000  0.67117000  0.67086000  1.0
  C  C93  1  0.24690000  0.62642000  0.62640000  1.0
  C  C94  1  0.00025000  0.32917000  0.52090000  1.0
  C  C95  1  0.00007000  0.37385000  0.62053000  1.0
  C  C96  1  0.99962000  0.52046000  0.32880000  1.0
  C  C97  1  0.00008000  0.62053000  0.37288000  1.0
  C  C98  1  0.67086000  0.19172000  0.67110000  1.0
  C  C99  1  0.62644000  0.24691000  0.62638000  1.0
  C  C100  1  0.47917000  0.80833000  0.47954000  1.0
  C  C101  1  0.37961000  0.75268000  0.37954000  1.0
  C  C102  1  0.32896000  0.99993000  0.52071000  1.0
  C  C103  1  0.37390000  0.00007000  0.62048000  1.0
  C  C104  1  0.52074000  0.99992000  0.32900000  1.0
  C  C105  1  0.62055000  0.00005000  0.37387000  1.0
  C  C106  1  0.52087000  0.32913000  0.00020000  1.0
  C  C107  1  0.62057000  0.37383000  0.00008000  1.0
  C  C108  1  0.32878000  0.52046000  0.99953000  1.0
  C  C109  1  0.37282000  0.62048000  0.99992000  1.0
  C  C110  1  0.67088000  0.67112000  0.19170000  1.0
  C  C111  1  0.62639000  0.62639000  0.24683000  1.0
  C  C112  1  0.47929000  0.47922000  0.80826000  1.0
  C  C113  1  0.37963000  0.37951000  0.75346000  1.0
  N  N114  1  0.72493000  0.28514000  0.37186000  1.0
  N  N115  1  0.27537000  0.64710000  0.56043000  1.0
  N  N116  1  0.91327000  0.35284000  0.62814000  1.0
  N  N117  1  0.08680000  0.71480000  0.43921000  1.0
  N  N118  1  0.56044000  0.27536000  0.64711000  1.0
  N  N119  1  0.37203000  0.72449000  0.28522000  1.0
  N  N120  1  0.43972000  0.08678000  0.71483000  1.0
  N  N121  1  0.62835000  0.91341000  0.35311000  1.0
  N  N122  1  0.71497000  0.43977000  0.08674000  1.0
  N  N123  1  0.35229000  0.62816000  0.91322000  1.0
  N  N124  1  0.64704000  0.56030000  0.27509000  1.0
  N  N125  1  0.28519000  0.37178000  0.72487000  1.0
  N  N126  1  0.27527000  0.56043000  0.64719000  1.0
  N  N127  1  0.72489000  0.37182000  0.28515000  1.0
  N  N128  1  0.08671000  0.43985000  0.71492000  1.0
  N  N129  1  0.91333000  0.62821000  0.35233000  1.0
  N  N130  1  0.43915000  0.71478000  0.08659000  1.0
  N  N131  1  0.62823000  0.35305000  0.91335000  1.0
  N  N132  1  0.56064000  0.64738000  0.27553000  1.0
  N  N133  1  0.37202000  0.28514000  0.72497000  1.0
  N  N134  1  0.28517000  0.72435000  0.37184000  1.0
  N  N135  1  0.64718000  0.27529000  0.56041000  1.0
  N  N136  1  0.35316000  0.91342000  0.62825000  1.0
  N  N137  1  0.71492000  0.08677000  0.43970000  1.0
