# generated using pymatgen
data_ZnH14C8S2(NO)4
_symmetry_space_group_name_H-M   'P 1'
_cell_length_a   8.57832000
_cell_length_b   8.58034000
_cell_length_c   12.14993241
_cell_angle_alpha   110.42674420
_cell_angle_beta   110.41942879
_cell_angle_gamma   63.18600000
_symmetry_Int_Tables_number   1
_chemical_formula_structural   ZnH14C8S2(NO)4
_chemical_formula_sum   'Zn2 H28 C16 S4 N8 O8'
_cell_volume   728.08821022
_cell_formula_units_Z   2
loop_
 _symmetry_equiv_pos_site_id
 _symmetry_equiv_pos_as_xyz
  1  'x, y, z'
loop_
 _atom_site_type_symbol
 _atom_site_label
 _atom_site_symmetry_multiplicity
 _atom_site_fract_x
 _atom_site_fract_y
 _atom_site_fract_z
 _atom_site_occupancy
  Zn  Zn0  1  0.95993000  0.04006000  0.75000000  1.0
  Zn  Zn1  1  0.04007000  0.95994000  0.25000000  1.0
  H  H2  1  0.79222000  0.53599000  0.99132000  1.0
  H  H3  1  0.46392000  0.20789000  0.50884000  1.0
  H  H4  1  0.20778000  0.46401000  0.00868000  1.0
  H  H5  1  0.53607000  0.79211000  0.49116000  1.0
  H  H6  1  0.78897000  0.40188000  0.84500000  1.0
  H  H7  1  0.59807000  0.21123000  0.65515000  1.0
  H  H8  1  0.21103000  0.59812000  0.15500000  1.0
  H  H9  1  0.40193000  0.78877000  0.34485000  1.0
  H  H10  1  0.74795000  0.20614000  0.08582000  1.0
  H  H11  1  0.79381000  0.25213000  0.41427000  1.0
  H  H12  1  0.25205000  0.79386000  0.91418000  1.0
  H  H13  1  0.20619000  0.74787000  0.58573000  1.0
  H  H14  1  0.86122000  0.49687000  0.19178000  1.0
  H  H15  1  0.50295000  0.13900000  0.30831000  1.0
  H  H16  1  0.13879000  0.50313000  0.80822000  1.0
  H  H17  1  0.49705000  0.86100000  0.69169000  1.0
  H  H18  1  0.70785000  0.46020000  0.23835000  1.0
  H  H19  1  0.53965000  0.29237000  0.26180000  1.0
  H  H20  1  0.29215000  0.53981000  0.76166000  1.0
  H  H21  1  0.46035000  0.70763000  0.73820000  1.0
  H  H22  1  0.62552000  0.59733000  0.13329000  1.0
  H  H23  1  0.40252000  0.37461000  0.36685000  1.0
  H  H24  1  0.37448000  0.40268000  0.86671000  1.0
  H  H25  1  0.59748000  0.62539000  0.63315000  1.0
  H  H26  1  0.79934000  0.52974000  0.45182000  1.0
  H  H27  1  0.47045000  0.20055000  0.04825000  1.0
  H  H28  1  0.20066000  0.47028000  0.54818000  1.0
  H  H29  1  0.52955000  0.79945000  0.95175000  1.0
  C  C30  1  0.75209000  0.29867000  0.95512000  1.0
  C  C31  1  0.70123000  0.24804000  0.54498000  1.0
  C  C32  1  0.24790000  0.70133000  0.04488000  1.0
  C  C33  1  0.29877000  0.75195000  0.45502000  1.0
  C  C34  1  0.73347000  0.47706000  0.16199000  1.0
  C  C35  1  0.52281000  0.26669000  0.33814000  1.0
  C  C36  1  0.26654000  0.52294000  0.83801000  1.0
  C  C37  1  0.47719000  0.73331000  0.66186000  1.0
  C  C38  1  0.88186000  0.74602000  0.58081000  1.0
  C  C39  1  0.25407000  0.11815000  0.91913000  1.0
  C  C40  1  0.11815000  0.25399000  0.41919000  1.0
  C  C41  1  0.74593000  0.88185000  0.08087000  1.0
  C  C42  1  0.91780000  0.56158000  0.50380000  1.0
  C  C43  1  0.43848000  0.08220000  0.99619000  1.0
  C  C44  1  0.08220000  0.43843000  0.49620000  1.0
  C  C45  1  0.56152000  0.91780000  0.00381000  1.0
  S  S46  1  0.74383000  0.10257000  0.84883000  1.0
  S  S47  1  0.89748000  0.25609000  0.65120000  1.0
  S  S48  1  0.25617000  0.89743000  0.15117000  1.0
  S  S49  1  0.10252000  0.74391000  0.34880000  1.0
  N  N50  1  0.75983000  0.43127000  0.92642000  1.0
  N  N51  1  0.56860000  0.24039667  0.57373000  1.0
  N  N52  1  0.24017000  0.56873000  0.07358000  1.0
  N  N53  1  0.43140000  0.75960333  0.42627000  1.0
  N  N54  1  0.73920000  0.31735000  0.06556000  1.0
  N  N55  1  0.68255000  0.26092000  0.43454000  1.0
  N  N56  1  0.26080000  0.68265000  0.93444000  1.0
  N  N57  1  0.31745000  0.73908000  0.56546000  1.0
  O  O58  1  0.72217000  0.85045000  0.58190000  1.0
  O  O59  1  0.14961000  0.27780000  0.91802000  1.0
  O  O60  1  0.27783000  0.14955000  0.41810000  1.0
  O  O61  1  0.85039000  0.72220000  0.08198000  1.0
  O  O62  1  0.01920000  0.78990000  0.64481000  1.0
  O  O63  1  0.21016000  0.98081000  0.85511000  1.0
  O  O64  1  0.98080000  0.21010000  0.35519000  1.0
  O  O65  1  0.78984000  0.01918000  0.14489000  1.0
