# generated using pymatgen
data_Cu2HCBrN4
_symmetry_space_group_name_H-M   'P 1'
_cell_length_a   5.95294000
_cell_length_b   6.61575000
_cell_length_c   12.40580000
_cell_angle_alpha   89.99770000
_cell_angle_beta   89.99970000
_cell_angle_gamma   89.99810000
_symmetry_Int_Tables_number   1
_chemical_formula_structural   Cu2HCBrN4
_chemical_formula_sum   'Cu8 H4 C4 Br4 N16'
_cell_volume   488.57964046
_cell_formula_units_Z   4
loop_
 _symmetry_equiv_pos_site_id
 _symmetry_equiv_pos_as_xyz
  1  'x, y, z'
loop_
 _atom_site_type_symbol
 _atom_site_label
 _atom_site_symmetry_multiplicity
 _atom_site_fract_x
 _atom_site_fract_y
 _atom_site_fract_z
 _atom_site_occupancy
  Cu  Cu0  1  0.71488000  0.49998000  0.50000000  1.0
  Cu  Cu1  1  0.28513000  0.50000000  0.50000000  1.0
  Cu  Cu2  1  0.71485000  0.00001000  0.00000000  1.0
  Cu  Cu3  1  0.28513000  0.00002000  0.00000000  1.0
  Cu  Cu4  1  0.50001000  0.55010000  0.87154000  1.0
  Cu  Cu5  1  0.49999000  0.44990000  0.12847000  1.0
  Cu  Cu6  1  0.50001000  0.05015000  0.62848000  1.0
  Cu  Cu7  1  0.49999000  0.94985000  0.37152000  1.0
  H  H8  1  0.00001000  0.85825000  0.68093000  1.0
  H  H9  1  0.99998000  0.14173000  0.31905000  1.0
  H  H10  1  0.00003000  0.35829000  0.81906000  1.0
  H  H11  1  0.00000000  0.64169000  0.18095000  1.0
  C  C12  1  0.99998000  0.00529000  0.64256000  1.0
  C  C13  1  0.00000000  0.99471000  0.35742000  1.0
  C  C14  1  0.99998000  0.50534000  0.85744000  1.0
  C  C15  1  0.00003000  0.49466000  0.14257000  1.0
  Br  Br16  1  0.50000000  0.15866000  0.84898000  1.0
  Br  Br17  1  0.49998000  0.84131000  0.15101000  1.0
  Br  Br18  1  0.50001000  0.65870000  0.65099000  1.0
  Br  Br19  1  0.50001000  0.34134000  0.34900000  1.0
  N  N20  1  0.88905000  0.28063000  0.56802000  1.0
  N  N21  1  0.88903000  0.71937000  0.43198000  1.0
  N  N22  1  0.11095000  0.71937000  0.43199000  1.0
  N  N23  1  0.11097000  0.28064000  0.56803000  1.0
  N  N24  1  0.81494000  0.10838000  0.61438000  1.0
  N  N25  1  0.81490000  0.89160000  0.38562000  1.0
  N  N26  1  0.18507000  0.89160000  0.38562000  1.0
  N  N27  1  0.18510000  0.10842000  0.61437000  1.0
  N  N28  1  0.88904000  0.78062000  0.93198000  1.0
  N  N29  1  0.88905000  0.21937000  0.06803000  1.0
  N  N30  1  0.11095000  0.21936000  0.06803000  1.0
  N  N31  1  0.11097000  0.78064000  0.93198000  1.0
  N  N32  1  0.81493000  0.60838000  0.88562000  1.0
  N  N33  1  0.81489000  0.39160000  0.11439000  1.0
  N  N34  1  0.18507000  0.39157000  0.11438000  1.0
  N  N35  1  0.18510000  0.60845000  0.88563000  1.0
