# generated using pymatgen
data_CsMnH3(CO2)3
_symmetry_space_group_name_H-M   'P 1'
_cell_length_a   7.60838500
_cell_length_b   7.60836000
_cell_length_c   8.48671000
_cell_angle_alpha   90.00010000
_cell_angle_beta   90.00010000
_cell_angle_gamma   60.00032608
_symmetry_Int_Tables_number   1
_chemical_formula_structural   CsMnH3(CO2)3
_chemical_formula_sum   'Cs2 Mn2 H6 C6 O12'
_cell_volume   425.45629634
_cell_formula_units_Z   2
loop_
 _symmetry_equiv_pos_site_id
 _symmetry_equiv_pos_as_xyz
  1  'x, y, z'
loop_
 _atom_site_type_symbol
 _atom_site_label
 _atom_site_symmetry_multiplicity
 _atom_site_fract_x
 _atom_site_fract_y
 _atom_site_fract_z
 _atom_site_occupancy
  Cs  Cs0  1  0.00000000  0.00000000  0.75000000  1.0
  Cs  Cs1  1  0.00000000  0.00000000  0.25000000  1.0
  Mn  Mn2  1  0.66666667  0.66666667  0.75000000  1.0
  Mn  Mn3  1  0.33333333  0.33333333  0.25000000  1.0
  H  H4  1  0.41293000  0.00001000  0.00001000  1.0
  H  H5  1  0.41293000  0.58707000  0.49999000  1.0
  H  H6  1  0.00000000  0.58708000  0.00000000  1.0
  H  H7  1  0.58707000  0.00000000  0.50000000  1.0
  H  H8  1  0.58708000  0.41291000  0.00000000  1.0
  H  H9  1  0.00001000  0.41291000  0.50000000  1.0
  C  C10  1  0.55856000  0.00001000  0.99998000  1.0
  C  C11  1  0.55855000  0.44143000  0.50002000  1.0
  C  C12  1  0.00003000  0.44143000  0.99998000  1.0
  C  C13  1  0.44143000  0.00001000  0.50002000  1.0
  C  C14  1  0.44143000  0.55855000  0.99997000  1.0
  C  C15  1  0.00003000  0.55854000  0.50003000  1.0
  O  O16  1  0.69155000  0.88998000  0.89884000  1.0
  O  O17  1  0.58152000  0.30848000  0.39882000  1.0
  O  O18  1  0.88998000  0.41848000  0.89885000  1.0
  O  O19  1  0.30848000  0.11000000  0.39883000  1.0
  O  O20  1  0.41848000  0.69154000  0.89884000  1.0
  O  O21  1  0.11000000  0.58152000  0.39883000  1.0
  O  O22  1  0.30848000  0.58152000  0.10117000  1.0
  O  O23  1  0.11000000  0.30847000  0.10118000  1.0
  O  O24  1  0.58152000  0.11000000  0.10117000  1.0
  O  O25  1  0.41848000  0.88998000  0.60117000  1.0
  O  O26  1  0.69155000  0.41848000  0.60115000  1.0
  O  O27  1  0.88998000  0.69155000  0.60116000  1.0
