# generated using pymatgen
data_Cd2H9C13NO6
_symmetry_space_group_name_H-M   'P 1'
_cell_length_a   3.81673000
_cell_length_b   15.57560000
_cell_length_c   21.58600000
_cell_angle_alpha   102.00000000
_cell_angle_beta   90.00000000
_cell_angle_gamma   90.00000000
_symmetry_Int_Tables_number   1
_chemical_formula_structural   Cd2H9C13NO6
_chemical_formula_sum   'Cd8 H36 C52 N4 O24'
_cell_volume   1255.19959574
_cell_formula_units_Z   4
loop_
 _symmetry_equiv_pos_site_id
 _symmetry_equiv_pos_as_xyz
  1  'x, y, z'
loop_
 _atom_site_type_symbol
 _atom_site_label
 _atom_site_symmetry_multiplicity
 _atom_site_fract_x
 _atom_site_fract_y
 _atom_site_fract_z
 _atom_site_occupancy
  Cd  Cd0  1  0.38572000  0.46058000  0.68168000  1.0
  Cd  Cd1  1  0.88572000  0.53942000  0.81832000  1.0
  Cd  Cd2  1  0.61427000  0.53941000  0.31832000  1.0
  Cd  Cd3  1  0.11428000  0.46059000  0.18168000  1.0
  Cd  Cd4  1  0.03384000  0.64230000  0.46505000  1.0
  Cd  Cd5  1  0.53384000  0.35770000  0.03495000  1.0
  Cd  Cd6  1  0.96616000  0.35770000  0.53495000  1.0
  Cd  Cd7  1  0.46616000  0.64230000  0.96505000  1.0
  H  H8  1  0.79466000  0.71449000  0.71479000  1.0
  H  H9  1  0.29467000  0.28551000  0.78520000  1.0
  H  H10  1  0.20534000  0.28551000  0.28520000  1.0
  H  H11  1  0.70535000  0.71449000  0.21480000  1.0
  H  H12  1  0.57056000  0.86781000  0.72472000  1.0
  H  H13  1  0.07057000  0.13219000  0.77528000  1.0
  H  H14  1  0.42944000  0.13219000  0.27528000  1.0
  H  H15  1  0.92942000  0.86782000  0.22472000  1.0
  H  H16  1  0.69380000  0.83339000  0.52183000  1.0
  H  H17  1  0.19380000  0.16661000  0.97817000  1.0
  H  H18  1  0.30622000  0.16661000  0.47817000  1.0
  H  H19  1  0.80623000  0.83339000  0.02183000  1.0
  H  H20  1  0.74681000  0.00983000  0.71653000  1.0
  H  H21  1  0.24681000  0.99017000  0.78347000  1.0
  H  H22  1  0.25316000  0.99016000  0.28348000  1.0
  H  H23  1  0.75317000  0.00984000  0.21653000  1.0
  H  H24  1  0.59905000  0.16513000  0.71346000  1.0
  H  H25  1  0.09905000  0.83487000  0.78654000  1.0
  H  H26  1  0.40087000  0.83487000  0.28654000  1.0
  H  H27  1  0.90095000  0.16513000  0.21346000  1.0
  H  H28  1  0.09020000  0.07957000  0.53506000  1.0
  H  H29  1  0.59018000  0.92043000  0.96494000  1.0
  H  H30  1  0.90980000  0.92043000  0.46494000  1.0
  H  H31  1  0.40981000  0.07957000  0.03506000  1.0
  H  H32  1  0.25315000  0.92531000  0.53491000  1.0
  H  H33  1  0.75314000  0.07468000  0.96509000  1.0
  H  H34  1  0.74686000  0.07468000  0.46509000  1.0
  H  H35  1  0.24686000  0.92532000  0.03491000  1.0
  H  H36  1  0.43864000  0.47872000  0.56135000  1.0
  H  H37  1  0.93864000  0.52128000  0.93865000  1.0
  H  H38  1  0.56136000  0.52128000  0.43865000  1.0
  H  H39  1  0.06136000  0.47872000  0.06135000  1.0
  H  H40  1  0.88563000  0.36673000  0.72375000  1.0
  H  H41  1  0.38564000  0.63327000  0.77625000  1.0
  H  H42  1  0.11436000  0.63327000  0.27625000  1.0
  H  H43  1  0.61437000  0.36673000  0.22375000  1.0
  C  C44  1  0.03559000  0.60669000  0.60599000  1.0
  C  C45  1  0.53559000  0.39331000  0.89401000  1.0
  C  C46  1  0.96443000  0.39331000  0.39400000  1.0
  C  C47  1  0.46442000  0.60669000  0.10599000  1.0
  C  C48  1  0.87136000  0.69649000  0.61388000  1.0
  C  C49  1  0.37137000  0.30351000  0.88612000  1.0
  C  C50  1  0.12865000  0.30351000  0.38612000  1.0
  C  C51  1  0.62868000  0.69649000  0.11388000  1.0
  C  C52  1  0.76852000  0.74391000  0.67335000  1.0
  C  C53  1  0.26854000  0.25609000  0.82665000  1.0
  C  C54  1  0.23147000  0.25609000  0.32665000  1.0
  C  C55  1  0.73147000  0.74392000  0.17335000  1.0
  C  C56  1  0.64378000  0.82911000  0.67847000  1.0
  C  C57  1  0.14378000  0.17089000  0.82153000  1.0
  C  C58  1  0.35623000  0.17089000  0.32153000  1.0
  C  C59  1  0.85623000  0.82912000  0.17847000  1.0
  C  C60  1  0.61430000  0.86517000  0.62435000  1.0
  C  C61  1  0.11429000  0.13483000  0.87565000  1.0
  C  C62  1  0.38571000  0.13482000  0.37565000  1.0
  C  C63  1  0.88571000  0.86518000  0.12435000  1.0
  C  C64  1  0.71019000  0.81102000  0.56633000  1.0
  C  C65  1  0.21020000  0.18898000  0.93367000  1.0
  C  C66  1  0.28982000  0.18898000  0.43367000  1.0
  C  C67  1  0.78984000  0.81102000  0.06633000  1.0
  C  C68  1  0.50561000  0.95629000  0.62617000  1.0
  C  C69  1  0.00559000  0.04371000  0.87383000  1.0
  C  C70  1  0.49438000  0.04371000  0.37383000  1.0
  C  C71  1  0.99441000  0.95629000  0.12617000  1.0
  C  C72  1  0.59661000  0.02476000  0.67707000  1.0
  C  C73  1  0.09660000  0.97524000  0.82293000  1.0
  C  C74  1  0.40335000  0.97523000  0.32293000  1.0
  C  C75  1  0.90339000  0.02476000  0.17707000  1.0
  C  C76  1  0.51618000  0.11148000  0.67550000  1.0
  C  C77  1  0.01617000  0.88852000  0.82450000  1.0
  C  C78  1  0.48382000  0.88852000  0.32450000  1.0
  C  C79  1  0.98383000  0.11148000  0.17550000  1.0
  C  C80  1  0.33328000  0.13217000  0.62430000  1.0
  C  C81  1  0.83325000  0.86783000  0.87570000  1.0
  C  C82  1  0.66666667  0.86782000  0.37571000  1.0
  C  C83  1  0.16674000  0.13217000  0.12430000  1.0
  C  C84  1  0.24281000  0.22626000  0.62264000  1.0
  C  C85  1  0.74280000  0.77374000  0.87736000  1.0
  C  C86  1  0.75717000  0.77374000  0.37736000  1.0
  C  C87  1  0.25719000  0.22626000  0.12264000  1.0
  C  C88  1  0.23809000  0.06384000  0.57420000  1.0
  C  C89  1  0.73807000  0.93616000  0.92580000  1.0
  C  C90  1  0.76190000  0.93616000  0.42580000  1.0
  C  C91  1  0.26191000  0.06384000  0.07420000  1.0
  C  C92  1  0.32658000  0.97758000  0.57462000  1.0
  C  C93  1  0.82657000  0.02242000  0.92538000  1.0
  C  C94  1  0.67343000  0.02242000  0.42538000  1.0
  C  C95  1  0.17344000  0.97759000  0.07462000  1.0
  N  N96  1  0.84042000  0.73032000  0.56158000  1.0
  N  N97  1  0.34042000  0.26968000  0.93842000  1.0
  N  N98  1  0.15960000  0.26968000  0.43842000  1.0
  N  N99  1  0.65960000  0.73033000  0.06158000  1.0
  O  O100  1  0.19040000  0.57559000  0.55361000  1.0
  O  O101  1  0.69042000  0.42441000  0.94639000  1.0
  O  O102  1  0.80962000  0.42441000  0.44639000  1.0
  O  O103  1  0.30964000  0.57559000  0.05361000  1.0
  O  O104  1  0.01259000  0.57025000  0.65286000  1.0
  O  O105  1  0.51257000  0.42974000  0.84714000  1.0
  O  O106  1  0.98742000  0.42974000  0.34714000  1.0
  O  O107  1  0.48740000  0.57026000  0.15286000  1.0
  O  O108  1  0.34225000  0.28580000  0.66796000  1.0
  O  O109  1  0.84224000  0.71420000  0.83204000  1.0
  O  O110  1  0.65775000  0.71420000  0.33204000  1.0
  O  O111  1  0.15775000  0.28580000  0.16796000  1.0
  O  O112  1  0.06807000  0.23602000  0.57358000  1.0
  O  O113  1  0.56807000  0.76398000  0.92642000  1.0
  O  O114  1  0.93193000  0.76398000  0.42642000  1.0
  O  O115  1  0.43195000  0.23602000  0.07358000  1.0
  O  O116  1  0.47268000  0.42161000  0.57410000  1.0
  O  O117  1  0.97268000  0.57839000  0.92590000  1.0
  O  O118  1  0.52732000  0.57839000  0.42590000  1.0
  O  O119  1  0.02732000  0.42161000  0.07410000  1.0
  O  O120  1  0.88356000  0.42939000  0.72438000  1.0
  O  O121  1  0.38357000  0.57061000  0.77562000  1.0
  O  O122  1  0.11642000  0.57061000  0.27562000  1.0
  O  O123  1  0.61644000  0.42939000  0.22438000  1.0
