# generated using pymatgen
data_TbPH12C13NO11
_symmetry_space_group_name_H-M   'P 1'
_cell_length_a   7.28465000
_cell_length_b   9.56420000
_cell_length_c   12.31500000
_cell_angle_alpha   111.29840000
_cell_angle_beta   91.78650000
_cell_angle_gamma   90.90710000
_symmetry_Int_Tables_number   1
_chemical_formula_structural   TbPH12C13NO11
_chemical_formula_sum   'Tb2 P2 H24 C26 N2 O22'
_cell_volume   798.67966624
_cell_formula_units_Z   2
loop_
 _symmetry_equiv_pos_site_id
 _symmetry_equiv_pos_as_xyz
  1  'x, y, z'
loop_
 _atom_site_type_symbol
 _atom_site_label
 _atom_site_symmetry_multiplicity
 _atom_site_fract_x
 _atom_site_fract_y
 _atom_site_fract_z
 _atom_site_occupancy
  Tb  Tb0  1  0.25438000  0.70016000  0.40828000  1.0
  Tb  Tb1  1  0.74562000  0.29983000  0.59172000  1.0
  P  P2  1  0.28578000  0.48149000  0.10644000  1.0
  P  P3  1  0.71421000  0.51851000  0.89356000  1.0
  H  H4  1  0.87958000  0.72916000  0.34194000  1.0
  H  H5  1  0.12044000  0.27084000  0.65806000  1.0
  H  H6  1  0.89760000  0.90141000  0.41355000  1.0
  H  H7  1  0.10242000  0.09859000  0.58646000  1.0
  H  H8  1  0.35902000  0.53047000  0.94910000  1.0
  H  H9  1  0.64097000  0.46953000  0.05091000  1.0
  H  H10  1  0.22599000  0.72682000  0.70844000  1.0
  H  H11  1  0.77402000  0.27317000  0.29156000  1.0
  H  H12  1  0.41677000  0.74315000  0.95777000  1.0
  H  H13  1  0.58323000  0.25686000  0.04224000  1.0
  H  H14  1  0.48726000  0.79192000  0.15300000  1.0
  H  H15  1  0.51275000  0.20809000  0.84701000  1.0
  H  H16  1  0.41498000  0.04559000  0.30379000  1.0
  H  H17  1  0.58503000  0.95443000  0.69622000  1.0
  H  H18  1  0.26772000  0.23277000  0.24130000  1.0
  H  H19  1  0.73227000  0.76724000  0.75870000  1.0
  H  H20  1  0.03330000  0.21853000  0.86258000  1.0
  H  H21  1  0.96670000  0.78146000  0.13741000  1.0
  H  H22  1  0.10758000  0.96588000  0.72596000  1.0
  H  H23  1  0.89243000  0.03411000  0.27404000  1.0
  H  H24  1  0.08321000  0.34941000  0.18608000  1.0
  H  H25  1  0.91676000  0.65060000  0.81391000  1.0
  H  H26  1  0.98255000  0.38599000  0.06763000  1.0
  H  H27  1  0.01745000  0.61400000  0.93235000  1.0
  C  C28  1  0.41493000  0.87689000  0.13055000  1.0
  C  C29  1  0.58505000  0.12312000  0.86946000  1.0
  C  C30  1  0.37315000  0.01645000  0.21278000  1.0
  C  C31  1  0.62684000  0.98356000  0.78723000  1.0
  C  C32  1  0.28884000  0.12132000  0.17687000  1.0
  C  C33  1  0.71115000  0.87870000  0.82313000  1.0
  C  C34  1  0.23689000  0.08685000  0.05803000  1.0
  C  C35  1  0.76311000  0.91316000  0.94197000  1.0
  C  C36  1  0.14689000  0.18912000  0.01541000  1.0
  C  C37  1  0.85309000  0.81087000  0.98458000  1.0
  C  C38  1  0.10334000  0.14223000  0.89676000  1.0
  C  C39  1  0.89664000  0.85776000  0.10323000  1.0
  C  C40  1  0.14461000  0.99829000  0.81836000  1.0
  C  C41  1  0.85541000  0.00170000  0.18164000  1.0
  C  C42  1  0.23249000  0.89613000  0.85713000  1.0
  C  C43  1  0.76753000  0.10387000  0.14287000  1.0
  C  C44  1  0.27943000  0.94170000  0.97820000  1.0
  C  C45  1  0.72058000  0.05830000  0.02180000  1.0
  C  C46  1  0.10639000  0.34370000  0.09721000  1.0
  C  C47  1  0.89360000  0.65630000  0.90279000  1.0
  C  C48  1  0.45654000  0.42905000  0.45196000  1.0
  C  C49  1  0.54344000  0.57095000  0.54806000  1.0
  C  C50  1  0.04074000  0.54026000  0.56251000  1.0
  C  C51  1  0.95924000  0.45973000  0.43748000  1.0
  C  C52  1  0.42532000  0.03989000  0.54341000  1.0
  C  C53  1  0.57470000  0.96011000  0.45660000  1.0
  N  N54  1  0.36977000  0.84447000  0.01818000  1.0
  N  N55  1  0.63022000  0.15554000  0.98183000  1.0
  O  O56  1  0.25384000  0.62119000  0.21496000  1.0
  O  O57  1  0.74615000  0.37881000  0.78503000  1.0
  O  O58  1  0.97093000  0.81002000  0.37791000  1.0
  O  O59  1  0.02909000  0.18998000  0.62209000  1.0
  O  O60  1  0.24452000  0.51707000  0.99186000  1.0
  O  O61  1  0.75548000  0.48294000  0.00814000  1.0
  O  O62  1  0.47852000  0.42040000  0.10364000  1.0
  O  O63  1  0.52147000  0.57960000  0.89634000  1.0
  O  O64  1  0.27893000  0.75712000  0.79074000  1.0
  O  O65  1  0.72107000  0.24287000  0.20926000  1.0
  O  O66  1  0.34779000  0.45238000  0.37829000  1.0
  O  O67  1  0.65224000  0.54763000  0.62170000  1.0
  O  O68  1  0.49974000  0.30325000  0.45548000  1.0
  O  O69  1  0.50026000  0.69674000  0.54451000  1.0
  O  O70  1  0.13097000  0.66279000  0.57890000  1.0
  O  O71  1  0.86905000  0.33721000  0.42111000  1.0
  O  O72  1  0.01396000  0.48094000  0.63652000  1.0
  O  O73  1  0.98605000  0.51905000  0.36348000  1.0
  O  O74  1  0.27239000  0.96672000  0.53105000  1.0
  O  O75  1  0.72762000  0.03327000  0.46895000  1.0
  O  O76  1  0.46525000  0.16783000  0.61795000  1.0
  O  O77  1  0.53475000  0.83217000  0.38206000  1.0
