# generated using pymatgen
data_HgH2CN5
_symmetry_space_group_name_H-M   'P 1'
_cell_length_a   5.02947000
_cell_length_b   6.98103000
_cell_length_c   13.11430000
_cell_angle_alpha   90.00060000
_cell_angle_beta   90.00020000
_cell_angle_gamma   75.75800000
_symmetry_Int_Tables_number   1
_chemical_formula_structural   HgH2CN5
_chemical_formula_sum   'Hg4 H8 C4 N20'
_cell_volume   446.30267734
_cell_formula_units_Z   4
loop_
 _symmetry_equiv_pos_site_id
 _symmetry_equiv_pos_as_xyz
  1  'x, y, z'
loop_
 _atom_site_type_symbol
 _atom_site_label
 _atom_site_symmetry_multiplicity
 _atom_site_fract_x
 _atom_site_fract_y
 _atom_site_fract_z
 _atom_site_occupancy
  Hg  Hg0  1  0.52431000  0.98201000  0.90279000  1.0
  Hg  Hg1  1  0.47569000  0.51799000  0.40279000  1.0
  Hg  Hg2  1  0.47569000  0.01799000  0.09721000  1.0
  Hg  Hg3  1  0.52431000  0.48201000  0.59721000  1.0
  H  H4  1  0.36948000  0.08320000  0.64537000  1.0
  H  H5  1  0.63052000  0.41680000  0.14537000  1.0
  H  H6  1  0.63052000  0.91680000  0.35463000  1.0
  H  H7  1  0.36948000  0.58320000  0.85463000  1.0
  H  H8  1  0.09772000  0.21018000  0.57211000  1.0
  H  H9  1  0.90228000  0.28982000  0.07211000  1.0
  H  H10  1  0.90228000  0.78982000  0.42789000  1.0
  H  H11  1  0.09772000  0.71018000  0.92789000  1.0
  C  C12  1  0.04938000  0.25324000  0.72618000  1.0
  C  C13  1  0.95063000  0.24676000  0.22618000  1.0
  C  C14  1  0.95062000  0.74676000  0.27382000  1.0
  C  C15  1  0.04937000  0.75324000  0.77382000  1.0
  N  N16  1  0.20051000  0.20158000  0.63983000  1.0
  N  N17  1  0.79949000  0.29843000  0.13982000  1.0
  N  N18  1  0.79949000  0.79842000  0.36017000  1.0
  N  N19  1  0.20051000  0.70157000  0.86018000  1.0
  N  N20  1  0.13921000  0.20832000  0.82208000  1.0
  N  N21  1  0.86079000  0.29167000  0.32207000  1.0
  N  N22  1  0.86079000  0.79168000  0.17792000  1.0
  N  N23  1  0.13921000  0.70833000  0.67793000  1.0
  N  N24  1  0.93065000  0.29689000  0.88515000  1.0
  N  N25  1  0.06935000  0.20311000  0.38515000  1.0
  N  N26  1  0.06935000  0.70311000  0.11485000  1.0
  N  N27  1  0.93065000  0.79689000  0.61485000  1.0
  N  N28  1  0.72299000  0.39211000  0.83082000  1.0
  N  N29  1  0.27702000  0.10789000  0.33082000  1.0
  N  N30  1  0.27702000  0.60789000  0.16918000  1.0
  N  N31  1  0.72298000  0.89211000  0.66918000  1.0
  N  N32  1  0.79060000  0.36796000  0.73045000  1.0
  N  N33  1  0.20941000  0.13204000  0.23045000  1.0
  N  N34  1  0.20940000  0.63204000  0.26955000  1.0
  N  N35  1  0.79059000  0.86796000  0.76955000  1.0
