# generated using pymatgen
data_Zr3H23C63N3O16F15
_symmetry_space_group_name_H-M   'P 1'
_cell_length_a   17.51530000
_cell_length_b   17.53240000
_cell_length_c   17.78120000
_cell_angle_alpha   92.40610000
_cell_angle_beta   92.31750000
_cell_angle_gamma   92.86500000
_symmetry_Int_Tables_number   1
_chemical_formula_structural   Zr3H23C63N3O16F15
_chemical_formula_sum   'Zr6 H46 C126 N6 O32 F30'
_cell_volume   5443.75877170
_cell_formula_units_Z   2
loop_
 _symmetry_equiv_pos_site_id
 _symmetry_equiv_pos_as_xyz
  1  'x, y, z'
loop_
 _atom_site_type_symbol
 _atom_site_label
 _atom_site_symmetry_multiplicity
 _atom_site_fract_x
 _atom_site_fract_y
 _atom_site_fract_z
 _atom_site_occupancy
  Zr  Zr0  1  0.81132000  0.95196000  0.84975000  1.0
  Zr  Zr1  1  0.75545000  0.84512000  0.00432000  1.0
  Zr  Zr2  1  0.99772000  0.98181000  0.93189000  1.0
  Zr  Zr3  1  0.91590000  0.79336000  0.90145000  1.0
  Zr  Zr4  1  0.83826000  0.03239000  0.03600000  1.0
  Zr  Zr5  1  0.94286000  0.87423000  0.08627000  1.0
  H  H6  1  0.13630000  0.25877000  0.58882000  1.0
  H  H7  1  0.14199000  0.23155000  0.44132000  1.0
  H  H8  1  0.63182000  0.57059000  0.34484000  1.0
  H  H9  1  0.61942000  0.59376000  0.49158000  1.0
  H  H10  1  0.21146000  0.53846000  0.21900000  1.0
  H  H11  1  0.19685000  0.38813000  0.23430000  1.0
  H  H12  1  0.53576000  0.28799000  0.71421000  1.0
  H  H13  1  0.56680000  0.43786000  0.71207000  1.0
  H  H14  1  0.50302000  0.16500000  0.32622000  1.0
  H  H15  1  0.35262000  0.17831000  0.30212000  1.0
  H  H16  1  0.25073000  0.66439000  0.60986000  1.0
  H  H17  1  0.40063000  0.65064000  0.63511000  1.0
  H  H18  1  0.76051000  0.79562000  0.85057000  1.0
  H  H19  1  0.88850000  0.09322000  0.90352000  1.0
  H  H20  1  0.05673000  0.84782000  0.97892000  1.0
  H  H21  1  0.80859000  0.92091000  0.14527000  1.0
  H  H22  1  0.04532000  0.76156000  0.70451000  1.0
  H  H23  1  0.29019000  0.91289000  0.69197000  1.0
  H  H24  1  0.46175000  0.69751000  0.73671000  1.0
  H  H25  1  0.59986000  0.94945000  0.72992000  1.0
  H  H26  1  0.14661000  0.88453000  0.21177000  1.0
  H  H27  1  0.29974000  0.12704000  0.19522000  1.0
  H  H28  1  0.70356000  0.07102000  0.22153000  1.0
  H  H29  1  0.46286000  0.91539000  0.24472000  1.0
  H  H30  1  0.31101000  0.03355000  0.45022000  1.0
  H  H31  1  0.44404000  0.79577000  0.48642000  1.0
  H  H32  1  0.62244000  0.08279000  0.80536000  1.0
  H  H33  1  0.58129000  0.31196000  0.96821000  1.0
  H  H34  1  0.58509000  0.56022000  0.75083000  1.0
  H  H35  1  0.68840000  0.57097000  0.01513000  1.0
  H  H36  1  0.06140000  0.17377000  0.15598000  1.0
  H  H37  1  0.17433000  0.34510000  0.97022000  1.0
  H  H38  1  0.06077000  0.59809000  0.93908000  1.0
  H  H39  1  0.24122000  0.65610000  0.15853000  1.0
  H  H40  1  0.31863000  0.30411000  0.03922000  1.0
  H  H41  1  0.43190000  0.51400000  0.89801000  1.0
  H  H42  1  0.90889000  0.73101000  0.27439000  1.0
  H  H43  1  0.69378000  0.53780000  0.22825000  1.0
  H  H44  1  0.65641000  0.66612000  0.57688000  1.0
  H  H45  1  0.92641000  0.69274000  0.66871000  1.0
  H  H46  1  0.10572000  0.18588000  0.33593000  1.0
  H  H47  1  0.82944000  0.12407000  0.28444000  1.0
  H  H48  1  0.04589000  0.16824000  0.79353000  1.0
  H  H49  1  0.88167000  0.19525000  0.56343000  1.0
  H  H50  1  0.96999000  0.36974000  0.37420000  1.0
  H  H51  1  0.79306000  0.45592000  0.56460000  1.0
  C  C52  1  0.01542000  0.27895000  0.56490000  1.0
  C  C53  1  0.09086000  0.26868000  0.54765000  1.0
  C  C54  1  0.09329000  0.25392000  0.46909000  1.0
  C  C55  1  0.01980000  0.25683000  0.43730000  1.0
  C  C56  1  0.75141000  0.54771000  0.37326000  1.0
  C  C57  1  0.67527000  0.55875000  0.38742000  1.0
  C  C58  1  0.66946000  0.57216000  0.46566000  1.0
  C  C59  1  0.74186000  0.56954000  0.50026000  1.0
  C  C60  1  0.24144000  0.50902000  0.10306000  1.0
  C  C61  1  0.22792000  0.49541000  0.17799000  1.0
  C  C62  1  0.21905000  0.41578000  0.18580000  1.0
  C  C63  1  0.22655000  0.37994000  0.11549000  1.0
  C  C64  1  0.50693000  0.31133000  0.83146000  1.0
  C  C65  1  0.52293000  0.32949000  0.75825000  1.0
  C  C66  1  0.53927000  0.40909000  0.75737000  1.0
  C  C67  1  0.53181000  0.44062000  0.82954000  1.0
  C  C68  1  0.47270000  0.04290000  0.33431000  1.0
  C  C69  1  0.45918000  0.11983000  0.33160000  1.0
  C  C70  1  0.37926000  0.12653000  0.31844000  1.0
  C  C71  1  0.34383000  0.05417000  0.31498000  1.0
  C  C72  1  0.28157000  0.78632000  0.60132000  1.0
  C  C73  1  0.29477000  0.70940000  0.60470000  1.0
  C  C74  1  0.37452000  0.70256000  0.61847000  1.0
  C  C75  1  0.41029000  0.77486000  0.62177000  1.0
  C  C76  1  0.93622000  0.05604000  0.77531000  1.0
  C  C77  1  0.64410000  0.87395000  0.85116000  1.0
  C  C78  1  0.83995000  0.79763000  0.73628000  1.0
  C  C79  1  0.72922000  0.10363000  0.91621000  1.0
  C  C80  1  0.82069000  0.76207000  0.15448000  1.0
  C  C81  1  0.10704000  0.95709000  0.08805000  1.0
  C  C82  1  0.75961000  0.67804000  0.92807000  1.0
  C  C83  1  0.67888000  0.96765000  0.10716000  1.0
  C  C84  1  0.99921000  0.14426000  0.01420000  1.0
  C  C85  1  0.06963000  0.86183000  0.82219000  1.0
  C  C86  1  0.01971000  0.71869000  0.02459000  1.0
  C  C87  1  0.91840000  0.03465000  0.19814000  1.0
  C  C88  1  0.09762000  0.79689000  0.69949000  1.0
  C  C89  1  0.11728000  0.85453000  0.75533000  1.0
  C  C90  1  0.18482000  0.89923000  0.74637000  1.0
  C  C91  1  0.23454000  0.88247000  0.69023000  1.0
  C  C92  1  0.21778000  0.82131000  0.63725000  1.0
  C  C93  1  0.14555000  0.78287000  0.64138000  1.0
  C  C94  1  0.49305000  0.75217000  0.73226000  1.0
  C  C95  1  0.47665000  0.79904000  0.67137000  1.0
  C  C96  1  0.51681000  0.87067000  0.67433000  1.0
  C  C97  1  0.56858000  0.89446000  0.73230000  1.0
  C  C98  1  0.58249000  0.84845000  0.79374000  1.0
  C  C99  1  0.54290000  0.77701000  0.79162000  1.0
  C  C100  1  0.18089000  0.93757000  0.20775000  1.0
  C  C101  1  0.16994000  0.98169000  0.14431000  1.0
  C  C102  1  0.21440000  0.05017000  0.14289000  1.0
  C  C103  1  0.26522000  0.07463000  0.20158000  1.0
  C  C104  1  0.27759000  0.03014000  0.26508000  1.0
  C  C105  1  0.23360000  0.96090000  0.26500000  1.0
  C  C106  1  0.65245000  0.03459000  0.22901000  1.0
  C  C107  1  0.63180000  0.97604000  0.17428000  1.0
  C  C108  1  0.56560000  0.93039000  0.18609000  1.0
  C  C109  1  0.51791000  0.94669000  0.24411000  1.0
  C  C110  1  0.53555000  0.00850000  0.29620000  1.0
  C  C111  1  0.60681000  0.04809000  0.28905000  1.0
  C  C112  1  0.34045000  0.98083000  0.45668000  1.0
  C  C113  1  0.38789000  0.95530000  0.40018000  1.0
  C  C114  1  0.42458000  0.88784000  0.41455000  1.0
  C  C115  1  0.41442000  0.84840000  0.47982000  1.0
  C  C116  1  0.36681000  0.87386000  0.53619000  1.0
  C  C117  1  0.33029000  0.94143000  0.52195000  1.0
  C  C118  1  0.61125000  0.13159000  0.84245000  1.0
  C  C119  1  0.66034000  0.14854000  0.90626000  1.0
  C  C120  1  0.64287000  0.21115000  0.95330000  1.0
  C  C121  1  0.58598000  0.25968000  0.93383000  1.0
  C  C122  1  0.54157000  0.24679000  0.86617000  1.0
  C  C123  1  0.55269000  0.17816000  0.82489000  1.0
  C  C124  1  0.60742000  0.56032000  0.80887000  1.0
  C  C125  1  0.57641000  0.50833000  0.85964000  1.0
  C  C126  1  0.60780000  0.51614000  0.93407000  1.0
  C  C127  1  0.66790000  0.56755000  0.95644000  1.0
  C  C128  1  0.70147000  0.61462000  0.90406000  1.0
  C  C129  1  0.66856000  0.61001000  0.83112000  1.0
  C  C130  1  0.08618000  0.21062000  0.11479000  1.0
  C  C131  1  0.05775000  0.20607000  0.04008000  1.0
  C  C132  1  0.09446000  0.25297000  0.98943000  1.0
  C  C133  1  0.15358000  0.30548000  0.01122000  1.0
  C  C134  1  0.18196000  0.31163000  0.08691000  1.0
  C  C135  1  0.14815000  0.25983000  0.13579000  1.0
  C  C136  1  0.10089000  0.61138000  0.98681000  1.0
  C  C137  1  0.08937000  0.67481000  0.03523000  1.0
  C  C138  1  0.14462000  0.69084000  0.09423000  1.0
  C  C139  1  0.20266000  0.64253000  0.10973000  1.0
  C  C140  1  0.20785000  0.57335000  0.06744000  1.0
  C  C141  1  0.15914000  0.56339000  0.00203000  1.0
  C  C142  1  0.34136000  0.35170000  0.00815000  1.0
  C  C143  1  0.31000000  0.42376000  0.01466000  1.0
  C  C144  1  0.34675000  0.48015000  0.97286000  1.0
  C  C145  1  0.40882000  0.46644000  0.92896000  1.0
  C  C146  1  0.44052000  0.39456000  0.92294000  1.0
  C  C147  1  0.40321000  0.33796000  0.96409000  1.0
  C  C148  1  0.86228000  0.68798000  0.26368000  1.0
  C  C149  1  0.81259000  0.69357000  0.20040000  1.0
  C  C150  1  0.75469000  0.63543000  0.18828000  1.0
  C  C151  1  0.74197000  0.57903000  0.23908000  1.0
  C  C152  1  0.78565000  0.57935000  0.30739000  1.0
  C  C153  1  0.84938000  0.63238000  0.31495000  1.0
  C  C154  1  0.71630000  0.66970000  0.59581000  1.0
  C  C155  1  0.76830000  0.61803000  0.56618000  1.0
  C  C156  1  0.84447000  0.63076000  0.59445000  1.0
  C  C157  1  0.86719000  0.68853000  0.64731000  1.0
  C  C158  1  0.81561000  0.74118000  0.67338000  1.0
  C  C159  1  0.73996000  0.72993000  0.64516000  1.0
  C  C160  1  0.04454000  0.17316000  0.32715000  1.0
  C  C161  1  0.99130000  0.21309000  0.36949000  1.0
  C  C162  1  0.91375000  0.19214000  0.35090000  1.0
  C  C163  1  0.89042000  0.13569000  0.29677000  1.0
  C  C164  1  0.94401000  0.09282000  0.25954000  1.0
  C  C165  1  0.02101000  0.11351000  0.27710000  1.0
  C  C166  1  0.00860000  0.17562000  0.74414000  1.0
  C  C167  1  0.94639000  0.12277000  0.72751000  1.0
  C  C168  1  0.89876000  0.13595000  0.66432000  1.0
  C  C169  1  0.91603000  0.19318000  0.61558000  1.0
  C  C170  1  0.98173000  0.24243000  0.62878000  1.0
  C  C171  1  0.02372000  0.23449000  0.69706000  1.0
  C  C172  1  0.93099000  0.38689000  0.41719000  1.0
  C  C173  1  0.92484000  0.34587000  0.48289000  1.0
  C  C174  1  0.87382000  0.37489000  0.53454000  1.0
  C  C175  1  0.83242000  0.43886000  0.52190000  1.0
  C  C176  1  0.83910000  0.48038000  0.45649000  1.0
  C  C177  1  0.88945000  0.45080000  0.40443000  1.0
  N  N178  1  0.97220000  0.28280000  0.49516000  1.0
  N  N179  1  0.79142000  0.54307000  0.44411000  1.0
  N  N180  1  0.25085000  0.43700000  0.06585000  1.0
  N  N181  1  0.50161000  0.38177000  0.87390000  1.0
  N  N182  1  0.40000000  0.00128000  0.33565000  1.0
  N  N183  1  0.35431000  0.82773000  0.60059000  1.0
  O  O184  1  0.99169000  0.04154000  0.81990000  1.0
  O  O185  1  0.64844000  0.84691000  0.91600000  1.0
  O  O186  1  0.81330000  0.86319000  0.74186000  1.0
  O  O187  1  0.74589000  0.06042000  0.86057000  1.0
  O  O188  1  0.76813000  0.11200000  0.97917000  1.0
  O  O189  1  0.88728000  0.76980000  0.78387000  1.0
  O  O190  1  0.69272000  0.92276000  0.82553000  1.0
  O  O191  1  0.87128000  0.01813000  0.76984000  1.0
  O  O192  1  0.78413000  0.95020000  0.96271000  1.0
  O  O193  1  0.91566000  0.90798000  0.87674000  1.0
  O  O194  1  0.79362000  0.82883000  0.88416000  1.0
  O  O195  1  0.88586000  0.04136000  0.92057000  1.0
  O  O196  1  0.76525000  0.77760000  0.11068000  1.0
  O  O197  1  0.10199000  0.98447000  0.02336000  1.0
  O  O198  1  0.82564000  0.68263000  0.90202000  1.0
  O  O199  1  0.72343000  0.02416000  0.09287000  1.0
  O  O200  1  0.93481000  0.13771000  0.04343000  1.0
  O  O201  1  0.02522000  0.80482000  0.83575000  1.0
  O  O202  1  0.00008000  0.76095000  0.07943000  1.0
  O  O203  1  0.94689000  0.97010000  0.19287000  1.0
  O  O204  1  0.98385000  0.71083000  0.95970000  1.0
  O  O205  1  0.86622000  0.05949000  0.15368000  1.0
  O  O206  1  0.73127000  0.72618000  0.97385000  1.0
  O  O207  1  0.07731000  0.92473000  0.86196000  1.0
  O  O208  1  0.02460000  0.09977000  0.96288000  1.0
  O  O209  1  0.67314000  0.90329000  0.06954000  1.0
  O  O210  1  0.88395000  0.80271000  0.16515000  1.0
  O  O211  1  0.05933000  0.90722000  0.11355000  1.0
  O  O212  1  0.93998000  0.97656000  0.03199000  1.0
  O  O213  1  0.87050000  0.81912000  0.00425000  1.0
  O  O214  1  0.00436000  0.86338000  0.97613000  1.0
  O  O215  1  0.82573000  0.91963000  0.09406000  1.0
  F  F216  1  0.12538000  0.72446000  0.58997000  1.0
  F  F217  1  0.20789000  0.95664000  0.79684000  1.0
  F  F218  1  0.55211000  0.72917000  0.84900000  1.0
  F  F219  1  0.50426000  0.91976000  0.61808000  1.0
  F  F220  1  0.24284000  0.91399000  0.32377000  1.0
  F  F221  1  0.20920000  0.09538000  0.08300000  1.0
  F  F222  1  0.62808000  0.10709000  0.33951000  1.0
  F  F223  1  0.54197000  0.87213000  0.13681000  1.0
  F  F224  1  0.28315000  0.97186000  0.57292000  1.0
  F  F225  1  0.47203000  0.85757000  0.36365000  1.0
  F  F226  1  0.50841000  0.16094000  0.76071000  1.0
  F  F227  1  0.68531000  0.23037000  0.01742000  1.0
  F  F228  1  0.69588000  0.65960000  0.78007000  1.0
  F  F229  1  0.58091000  0.46874000  0.98722000  1.0
  F  F230  1  0.17528000  0.25992000  0.20936000  1.0
  F  F231  1  0.06861000  0.25029000  0.91597000  1.0
  F  F232  1  0.16393000  0.50011000  0.95540000  1.0
  F  F233  1  0.14252000  0.75503000  0.13944000  1.0
  F  F234  1  0.42681000  0.26513000  0.96260000  1.0
  F  F235  1  0.32305000  0.55301000  0.97444000  1.0
  F  F236  1  0.89590000  0.63514000  0.37830000  1.0
  F  F237  1  0.70706000  0.63352000  0.12592000  1.0
  F  F238  1  0.68599000  0.77774000  0.66827000  1.0
  F  F239  1  0.89994000  0.58574000  0.56873000  1.0
  F  F240  1  0.07621000  0.07557000  0.24149000  1.0
  F  F241  1  0.85769000  0.22631000  0.38906000  1.0
  F  F242  1  0.08612000  0.28309000  0.71387000  1.0
  F  F243  1  0.83648000  0.08907000  0.64507000  1.0
  F  F244  1  0.89959000  0.48362000  0.33728000  1.0
  F  F245  1  0.86266000  0.34046000  0.60073000  1.0
