# generated using pymatgen
data_Zn4H22C42N4O13
_symmetry_space_group_name_H-M   'P 1'
_cell_length_a   10.98800000
_cell_length_b   10.98800000
_cell_length_c   17.07050000
_cell_angle_alpha   88.65070000
_cell_angle_beta   88.65070000
_cell_angle_gamma   89.56310000
_symmetry_Int_Tables_number   1
_chemical_formula_structural   Zn4H22C42N4O13
_chemical_formula_sum   'Zn8 H44 C84 N8 O26'
_cell_volume   2059.83198279
_cell_formula_units_Z   2
loop_
 _symmetry_equiv_pos_site_id
 _symmetry_equiv_pos_as_xyz
  1  'x, y, z'
loop_
 _atom_site_type_symbol
 _atom_site_label
 _atom_site_symmetry_multiplicity
 _atom_site_fract_x
 _atom_site_fract_y
 _atom_site_fract_z
 _atom_site_occupancy
  Zn  Zn0  1  0.65785000  0.46160000  0.18245000  1.0
  Zn  Zn1  1  0.30096000  0.81972000  0.82597000  1.0
  Zn  Zn2  1  0.53840000  0.34215000  0.31755000  1.0
  Zn  Zn3  1  0.18028000  0.69904000  0.67403000  1.0
  Zn  Zn4  1  0.34215000  0.53840000  0.81755000  1.0
  Zn  Zn5  1  0.69904000  0.18028000  0.17403000  1.0
  Zn  Zn6  1  0.46160000  0.65785000  0.68245000  1.0
  Zn  Zn7  1  0.81972000  0.30096000  0.32597000  1.0
  H  H8  1  0.64356000  0.55255000  0.96916000  1.0
  H  H9  1  0.81904000  0.69939000  0.76019000  1.0
  H  H10  1  0.00888000  0.68501000  0.97829000  1.0
  H  H11  1  0.81080000  0.00714000  0.87509000  1.0
  H  H12  1  0.78636000  0.92955000  0.01598000  1.0
  H  H13  1  0.25201000  0.65979000  0.12134000  1.0
  H  H14  1  0.46398000  0.72007000  0.15874000  1.0
  H  H15  1  0.66099000  0.82376000  0.11841000  1.0
  H  H16  1  0.71855000  0.03101000  0.74153000  1.0
  H  H17  1  0.18490000  0.70442000  0.98435000  1.0
  H  H18  1  0.50957000  0.95854000  0.72180000  1.0
  H  H19  1  0.44745000  0.35644000  0.53083000  1.0
  H  H20  1  0.30061000  0.18096000  0.73981000  1.0
  H  H21  1  0.31500000  0.99111000  0.52171000  1.0
  H  H22  1  0.99286000  0.18920000  0.62491000  1.0
  H  H23  1  0.07046000  0.21364000  0.48402000  1.0
  H  H24  1  0.34021000  0.74799000  0.37866000  1.0
  H  H25  1  0.27993000  0.53601000  0.34126000  1.0
  H  H26  1  0.17624000  0.33901000  0.38159000  1.0
  H  H27  1  0.96898000  0.28145000  0.75847000  1.0
  H  H28  1  0.29558000  0.81510000  0.51565000  1.0
  H  H29  1  0.04145000  0.49043000  0.77820000  1.0
  H  H30  1  0.35644000  0.44745000  0.03084000  1.0
  H  H31  1  0.18096000  0.30061000  0.23981000  1.0
  H  H32  1  0.99111000  0.31500000  0.02171000  1.0
  H  H33  1  0.18921000  0.99286000  0.12491000  1.0
  H  H34  1  0.21364000  0.07045000  0.98402000  1.0
  H  H35  1  0.74799000  0.34021000  0.87866000  1.0
  H  H36  1  0.53602000  0.27993000  0.84126000  1.0
  H  H37  1  0.33901000  0.17624000  0.88159000  1.0
  H  H38  1  0.28145000  0.96899000  0.25847000  1.0
  H  H39  1  0.81510000  0.29558000  0.01565000  1.0
  H  H40  1  0.49043000  0.04146000  0.27820000  1.0
  H  H41  1  0.55255000  0.64356000  0.46917000  1.0
  H  H42  1  0.69939000  0.81904000  0.26019000  1.0
  H  H43  1  0.68501000  0.00889000  0.47829000  1.0
  H  H44  1  0.00714000  0.81079000  0.37509000  1.0
  H  H45  1  0.92955000  0.78636000  0.51597000  1.0
  H  H46  1  0.65980000  0.25201000  0.62134000  1.0
  H  H47  1  0.72007000  0.46398000  0.65874000  1.0
  H  H48  1  0.82376000  0.66099000  0.61841000  1.0
  H  H49  1  0.03101000  0.71855000  0.24153000  1.0
  H  H50  1  0.70442000  0.18490000  0.48435000  1.0
  H  H51  1  0.95854000  0.50957000  0.22180000  1.0
  C  C52  1  0.92659000  0.69703000  0.86414000  1.0
  C  C53  1  0.72307000  0.59278000  0.93998000  1.0
  C  C54  1  0.03778000  0.74444000  0.82104000  1.0
  C  C55  1  0.82814000  0.61282000  0.98204000  1.0
  C  C56  1  0.82146000  0.67551000  0.82234000  1.0
  C  C57  1  0.83022000  0.57672000  0.06769000  1.0
  C  C58  1  0.71910000  0.62556000  0.86060000  1.0
  C  C59  1  0.92858000  0.66751000  0.94441000  1.0
  C  C60  1  0.60480000  0.60842000  0.81743000  1.0
  C  C61  1  0.71876000  0.97608000  0.86421000  1.0
  C  C62  1  0.69499000  0.89870000  0.00323000  1.0
  C  C63  1  0.31377000  0.70600000  0.07979000  1.0
  C  C64  1  0.42964000  0.73935000  0.10024000  1.0
  C  C65  1  0.62571000  0.84044000  0.05993000  1.0
  C  C66  1  0.66835000  0.99038000  0.79117000  1.0
  C  C67  1  0.50570000  0.79921000  0.04385000  1.0
  C  C68  1  0.65044000  0.91910000  0.92580000  1.0
  C  C69  1  0.27463000  0.73030000  0.00307000  1.0
  C  C70  1  0.53195000  0.87904000  0.90811000  1.0
  C  C71  1  0.54926000  0.94912000  0.77944000  1.0
  C  C72  1  0.45841000  0.81936000  0.96792000  1.0
  C  C73  1  0.30298000  0.07341000  0.63586000  1.0
  C  C74  1  0.40722000  0.27693000  0.56002000  1.0
  C  C75  1  0.25556000  0.96222000  0.67896000  1.0
  C  C76  1  0.38718000  0.17186000  0.51796000  1.0
  C  C77  1  0.32449000  0.17854000  0.67766000  1.0
  C  C78  1  0.42328000  0.16977000  0.43231000  1.0
  C  C79  1  0.37445000  0.28090000  0.63940000  1.0
  C  C80  1  0.33249000  0.07142000  0.55559000  1.0
  C  C81  1  0.39158000  0.39520000  0.68257000  1.0
  C  C82  1  0.02392000  0.28124000  0.63579000  1.0
  C  C83  1  0.10130000  0.30501000  0.49677000  1.0
  C  C84  1  0.29400000  0.68623000  0.42021000  1.0
  C  C85  1  0.26065000  0.57036000  0.39976000  1.0
  C  C86  1  0.15956000  0.37429000  0.44007000  1.0
  C  C87  1  0.00962000  0.33165000  0.70883000  1.0
  C  C88  1  0.20079000  0.49429000  0.45615000  1.0
  C  C89  1  0.08090000  0.34956000  0.57420000  1.0
  C  C90  1  0.26969000  0.72537000  0.49694000  1.0
  C  C91  1  0.12096000  0.46805000  0.59189000  1.0
  C  C92  1  0.05087000  0.45074000  0.72056000  1.0
  C  C93  1  0.18064000  0.54159000  0.53208000  1.0
  C  C94  1  0.07341000  0.30298000  0.13586000  1.0
  C  C95  1  0.27693000  0.40722000  0.06002000  1.0
  C  C96  1  0.96222000  0.25556000  0.17896000  1.0
  C  C97  1  0.17186000  0.38718000  0.01796000  1.0
  C  C98  1  0.17854000  0.32449000  0.17766000  1.0
  C  C99  1  0.16977000  0.42328000  0.93231000  1.0
  C  C100  1  0.28090000  0.37445000  0.13940000  1.0
  C  C101  1  0.07142000  0.33249000  0.05559000  1.0
  C  C102  1  0.39519000  0.39158000  0.18257000  1.0
  C  C103  1  0.28124000  0.02392000  0.13579000  1.0
  C  C104  1  0.30501000  0.10130000  0.99677000  1.0
  C  C105  1  0.68623000  0.29400000  0.92021000  1.0
  C  C106  1  0.57036000  0.26065000  0.89976000  1.0
  C  C107  1  0.37429000  0.15956000  0.94007000  1.0
  C  C108  1  0.33165000  0.00962000  0.20883000  1.0
  C  C109  1  0.49429000  0.20079000  0.95615000  1.0
  C  C110  1  0.34956000  0.08090000  0.07419000  1.0
  C  C111  1  0.72537000  0.26970000  0.99693000  1.0
  C  C112  1  0.46805000  0.12096000  0.09189000  1.0
  C  C113  1  0.45074000  0.05087000  0.22056000  1.0
  C  C114  1  0.54159000  0.18064000  0.03208000  1.0
  C  C115  1  0.69703000  0.92659000  0.36414000  1.0
  C  C116  1  0.59278000  0.72307000  0.43998000  1.0
  C  C117  1  0.74444000  0.03778000  0.32104000  1.0
  C  C118  1  0.61282000  0.82814000  0.48204000  1.0
  C  C119  1  0.67551000  0.82146000  0.32234000  1.0
  C  C120  1  0.57672000  0.83023000  0.56769000  1.0
  C  C121  1  0.62556000  0.71910000  0.36060000  1.0
  C  C122  1  0.66751000  0.92858000  0.44441000  1.0
  C  C123  1  0.60842000  0.60480000  0.31743000  1.0
  C  C124  1  0.97608000  0.71876000  0.36421000  1.0
  C  C125  1  0.89870000  0.69499000  0.50323000  1.0
  C  C126  1  0.70601000  0.31377000  0.57979000  1.0
  C  C127  1  0.73935000  0.42964000  0.60024000  1.0
  C  C128  1  0.84044000  0.62571000  0.55993000  1.0
  C  C129  1  0.99038000  0.66834000  0.29117000  1.0
  C  C130  1  0.79921000  0.50571000  0.54385000  1.0
  C  C131  1  0.91910000  0.65044000  0.42580000  1.0
  C  C132  1  0.73031000  0.27463000  0.50307000  1.0
  C  C133  1  0.87904000  0.53195000  0.40811000  1.0
  C  C134  1  0.94912000  0.54925000  0.27944000  1.0
  C  C135  1  0.81936000  0.45841000  0.46792000  1.0
  N  N136  1  0.48323000  0.89465000  0.83623000  1.0
  N  N137  1  0.34494000  0.78510000  0.94849000  1.0
  N  N138  1  0.10536000  0.51677000  0.66377000  1.0
  N  N139  1  0.21490000  0.65506000  0.55151000  1.0
  N  N140  1  0.51677000  0.10535000  0.16377000  1.0
  N  N141  1  0.65506000  0.21490000  0.05151000  1.0
  N  N142  1  0.89465000  0.48323000  0.33623000  1.0
  N  N143  1  0.78510000  0.34493000  0.44849000  1.0
  O  O144  1  0.74363000  0.50051000  0.08716000  1.0
  O  O145  1  0.90848000  0.61770000  0.11114000  1.0
  O  O146  1  0.12423000  0.78206000  0.86227000  1.0
  O  O147  1  0.03659000  0.73977000  0.74642000  1.0
  O  O148  1  0.51110000  0.57404000  0.85698000  1.0
  O  O149  1  0.61018000  0.63096000  0.74342000  1.0
  O  O150  1  0.49949000  0.25637000  0.41284000  1.0
  O  O151  1  0.38230000  0.09151000  0.38886000  1.0
  O  O152  1  0.21794000  0.87577000  0.63773000  1.0
  O  O153  1  0.26023000  0.96341000  0.75358000  1.0
  O  O154  1  0.42596000  0.48890000  0.64302000  1.0
  O  O155  1  0.36904000  0.38982000  0.75658000  1.0
  O  O156  1  0.25637000  0.49949000  0.91284000  1.0
  O  O157  1  0.09151000  0.38230000  0.88886000  1.0
  O  O158  1  0.87577000  0.21794000  0.13773000  1.0
  O  O159  1  0.96341000  0.26023000  0.25358000  1.0
  O  O160  1  0.48890000  0.42596000  0.14302000  1.0
  O  O161  1  0.38982000  0.36904000  0.25658000  1.0
  O  O162  1  0.50051000  0.74363000  0.58716000  1.0
  O  O163  1  0.61770000  0.90849000  0.61114000  1.0
  O  O164  1  0.78206000  0.12423000  0.36227000  1.0
  O  O165  1  0.73976000  0.03659000  0.24642000  1.0
  O  O166  1  0.57404000  0.51110000  0.35698000  1.0
  O  O167  1  0.63096000  0.61017000  0.24342000  1.0
  O  O168  1  0.68267000  0.31733000  0.25000000  1.0
  O  O169  1  0.31733000  0.68267000  0.75000000  1.0
