# generated using pymatgen
data_MnH7C14N3O8
_symmetry_space_group_name_H-M   'P 1'
_cell_length_a   7.50034000
_cell_length_b   16.04890249
_cell_length_c   16.04883887
_cell_angle_alpha   69.58710652
_cell_angle_beta   76.50438973
_cell_angle_gamma   76.50473013
_symmetry_Int_Tables_number   1
_chemical_formula_structural   MnH7C14N3O8
_chemical_formula_sum   'Mn4 H28 C56 N12 O32'
_cell_volume   1735.87885412
_cell_formula_units_Z   4
loop_
 _symmetry_equiv_pos_site_id
 _symmetry_equiv_pos_as_xyz
  1  'x, y, z'
loop_
 _atom_site_type_symbol
 _atom_site_label
 _atom_site_symmetry_multiplicity
 _atom_site_fract_x
 _atom_site_fract_y
 _atom_site_fract_z
 _atom_site_occupancy
  Mn  Mn0  1  0.77681000  0.58034000  0.38201000  1.0
  Mn  Mn1  1  0.73918000  0.41960000  0.61781000  1.0
  Mn  Mn2  1  0.27681000  0.38201000  0.58034000  1.0
  Mn  Mn3  1  0.23918000  0.61781000  0.41960000  1.0
  H  H4  1  0.42256000  0.70025000  0.14168000  1.0
  H  H5  1  0.26453000  0.29964000  0.85839000  1.0
  H  H6  1  0.92256000  0.14168000  0.70025000  1.0
  H  H7  1  0.76453000  0.85839000  0.29964000  1.0
  H  H8  1  0.98324000  0.58491000  0.11673000  1.0
  H  H9  1  0.68538000  0.41546000  0.88290000  1.0
  H  H10  1  0.48324000  0.11673000  0.58491000  1.0
  H  H11  1  0.18537000  0.88290000  0.41546000  1.0
  H  H12  1  0.41602000  0.45365000  0.78579000  1.0
  H  H13  1  0.65561000  0.54642000  0.21420000  1.0
  H  H14  1  0.91602000  0.78579000  0.45366000  1.0
  H  H15  1  0.15561000  0.21420000  0.54642000  1.0
  H  H16  1  0.42238000  0.53230000  0.89371000  1.0
  H  H17  1  0.84840000  0.46790000  0.10624000  1.0
  H  H18  1  0.92239000  0.89371000  0.53230000  1.0
  H  H19  1  0.34840000  0.10624000  0.46790000  1.0
  H  H20  1  0.29759000  0.78878000  0.69246000  1.0
  H  H21  1  0.77918000  0.21131000  0.30743000  1.0
  H  H22  1  0.79759000  0.69246000  0.78878000  1.0
  H  H23  1  0.27917000  0.30743000  0.21131000  1.0
  H  H24  1  0.27705000  0.70946000  0.58708000  1.0
  H  H25  1  0.57402000  0.29054000  0.41284000  1.0
  H  H26  1  0.77705000  0.58708000  0.70946000  1.0
  H  H27  1  0.07403000  0.41284000  0.29053000  1.0
  H  H28  1  0.44717000  0.76316000  0.83264000  1.0
  H  H29  1  0.04279000  0.23692000  0.16724000  1.0
  H  H30  1  0.94717000  0.83264000  0.76316000  1.0
  H  H31  1  0.54279000  0.16724000  0.23692000  1.0
  C  C32  1  0.19602000  0.63910000  0.14128000  1.0
  C  C33  1  0.97667000  0.36103000  0.85859000  1.0
  C  C34  1  0.69602000  0.14128000  0.63910000  1.0
  C  C35  1  0.47667000  0.85859000  0.36103000  1.0
  C  C36  1  0.34859000  0.68297000  0.10076000  1.0
  C  C37  1  0.13241000  0.31704000  0.89921000  1.0
  C  C38  1  0.84859000  0.10076000  0.68297000  1.0
  C  C39  1  0.63241000  0.89921000  0.31704000  1.0
  C  C40  1  0.40701000  0.70686000  0.00783000  1.0
  C  C41  1  0.12158000  0.29315000  0.99215000  1.0
  C  C42  1  0.90700000  0.00783000  0.70686000  1.0
  C  C43  1  0.62159000  0.99215000  0.29315000  1.0
  C  C44  1  0.31618000  0.68742000  0.94884000  1.0
  C  C45  1  0.95236000  0.31272000  0.05105000  1.0
  C  C46  1  0.81618000  0.94884000  0.68742000  1.0
  C  C47  1  0.45236000  0.05105000  0.31272000  1.0
  C  C48  1  0.16260000  0.64102000  0.99429000  1.0
  C  C49  1  0.79804000  0.35924000  0.00548000  1.0
  C  C50  1  0.66259000  0.99429000  0.64102000  1.0
  C  C51  1  0.29804000  0.00548000  0.35924000  1.0
  C  C52  1  0.10579000  0.61697000  0.08678000  1.0
  C  C53  1  0.80984000  0.38329000  0.91298000  1.0
  C  C54  1  0.60578000  0.08678000  0.61697000  1.0
  C  C55  1  0.30984000  0.91298000  0.38329000  1.0
  C  C56  1  0.12299000  0.62051000  0.23973000  1.0
  C  C57  1  0.98377000  0.37963000  0.76010000  1.0
  C  C58  1  0.62299000  0.23973000  0.62051000  1.0
  C  C59  1  0.48377000  0.76010000  0.37963000  1.0
  C  C60  1  0.34633000  0.57684000  0.67967000  1.0
  C  C61  1  0.60308000  0.42320000  0.32028000  1.0
  C  C62  1  0.84633000  0.67967000  0.57684000  1.0
  C  C63  1  0.10309000  0.32028000  0.42319000  1.0
  C  C64  1  0.38705000  0.52708000  0.76617000  1.0
  C  C65  1  0.68050000  0.47300000  0.23380000  1.0
  C  C66  1  0.88706000  0.76617000  0.52708000  1.0
  C  C67  1  0.18050000  0.23380000  0.47300000  1.0
  C  C68  1  0.39020000  0.57091000  0.82658000  1.0
  C  C69  1  0.78786000  0.42923000  0.17335000  1.0
  C  C70  1  0.89020000  0.82658000  0.57091000  1.0
  C  C71  1  0.28785000  0.17336000  0.42923000  1.0
  C  C72  1  0.35840000  0.66556000  0.79978000  1.0
  C  C73  1  0.82389000  0.33459000  0.20012000  1.0
  C  C74  1  0.85840000  0.79978000  0.66556000  1.0
  C  C75  1  0.32389000  0.20012000  0.33459000  1.0
  C  C76  1  0.31973000  0.71558000  0.71289000  1.0
  C  C77  1  0.74852000  0.28452000  0.28702000  1.0
  C  C78  1  0.81974000  0.71289000  0.71558000  1.0
  C  C79  1  0.24853000  0.28701000  0.28452000  1.0
  C  C80  1  0.31038000  0.67127000  0.65406000  1.0
  C  C81  1  0.63607000  0.32877000  0.34587000  1.0
  C  C82  1  0.81038000  0.65406000  0.67127000  1.0
  C  C83  1  0.13608000  0.34587000  0.32876000  1.0
  C  C84  1  0.34005000  0.53020000  0.61625000  1.0
  C  C85  1  0.48662000  0.46982000  0.38366000  1.0
  C  C86  1  0.84005000  0.61625000  0.53020000  1.0
  C  C87  1  0.98662000  0.38366000  0.46982000  1.0
  N  N88  1  0.56927000  0.75107000  0.97325000  1.0
  N  N89  1  0.29324000  0.24879000  0.02686000  1.0
  N  N90  1  0.06927000  0.97325000  0.75107000  1.0
  N  N91  1  0.79324000  0.02686000  0.24879000  1.0
  N  N92  1  0.03700000  0.62859000  0.94403000  1.0
  N  N93  1  0.60976000  0.37183000  0.05568000  1.0
  N  N94  1  0.53701000  0.94402000  0.62859000  1.0
  N  N95  1  0.10976000  0.05568000  0.37183000  1.0
  N  N96  1  0.37434000  0.71050000  0.85833000  1.0
  N  N97  1  0.94308000  0.28963000  0.14157000  1.0
  N  N98  1  0.87434000  0.85833000  0.71050000  1.0
  N  N99  1  0.44307000  0.14157000  0.28964000  1.0
  O  O100  1  0.67749000  0.74019000  0.02564000  1.0
  O  O101  1  0.44307000  0.25961000  0.97460000  1.0
  O  O102  1  0.17749000  0.02564000  0.74019000  1.0
  O  O103  1  0.94306000  0.97460000  0.25961000  1.0
  O  O104  1  0.59267000  0.79832000  0.89202000  1.0
  O  O105  1  0.28241000  0.20147000  0.10808000  1.0
  O  O106  1  0.09268000  0.89201000  0.79831000  1.0
  O  O107  1  0.78241000  0.10808000  0.20147000  1.0
  O  O108  1  0.99813000  0.69126000  0.87602000  1.0
  O  O109  1  0.56513000  0.30913000  0.12355000  1.0
  O  O110  1  0.49814000  0.87601000  0.69126000  1.0
  O  O111  1  0.06512000  0.12355000  0.30913000  1.0
  O  O112  1  0.97070000  0.55762000  0.97364000  1.0
  O  O113  1  0.50259000  0.44298000  0.02610000  1.0
  O  O114  1  0.47068000  0.97364000  0.55763000  1.0
  O  O115  1  0.00259000  0.02610000  0.44298000  1.0
  O  O116  1  0.97184000  0.58810000  0.26855000  1.0
  O  O117  1  0.82911000  0.41184000  0.73118000  1.0
  O  O118  1  0.47184000  0.26855000  0.58810000  1.0
  O  O119  1  0.32911000  0.73118000  0.41184000  1.0
  O  O120  1  0.21505000  0.63859000  0.28651000  1.0
  O  O121  1  0.14086000  0.36178000  0.71340000  1.0
  O  O122  1  0.71505000  0.28651000  0.63859000  1.0
  O  O123  1  0.64086000  0.71340000  0.36178000  1.0
  O  O124  1  0.44449000  0.45237000  0.62084000  1.0
  O  O125  1  0.51767000  0.54771000  0.37904000  1.0
  O  O126  1  0.94449000  0.62084000  0.45237000  1.0
  O  O127  1  0.01767000  0.37905000  0.54770000  1.0
  O  O128  1  0.22674000  0.56376000  0.56059000  1.0
  O  O129  1  0.35125000  0.43623000  0.43931000  1.0
  O  O130  1  0.72675000  0.56059000  0.56376000  1.0
  O  O131  1  0.85126000  0.43931000  0.43622000  1.0
