# generated using pymatgen
data_ZnH17C22I(NO3)2
_symmetry_space_group_name_H-M   'P 1'
_cell_length_a   8.11172000
_cell_length_b   10.53780000
_cell_length_c   13.38360000
_cell_angle_alpha   75.14320000
_cell_angle_beta   73.87970000
_cell_angle_gamma   83.28240000
_symmetry_Int_Tables_number   1
_chemical_formula_structural   ZnH17C22I(NO3)2
_chemical_formula_sum   'Zn2 H34 C44 I2 N4 O12'
_cell_volume   1061.01030017
_cell_formula_units_Z   2
loop_
 _symmetry_equiv_pos_site_id
 _symmetry_equiv_pos_as_xyz
  1  'x, y, z'
loop_
 _atom_site_type_symbol
 _atom_site_label
 _atom_site_symmetry_multiplicity
 _atom_site_fract_x
 _atom_site_fract_y
 _atom_site_fract_z
 _atom_site_occupancy
  Zn  Zn0  1  0.73525000  0.23990000  0.74330000  1.0
  Zn  Zn1  1  0.26475000  0.76010000  0.25670000  1.0
  H  H2  1  0.09305000  0.16108000  0.67477000  1.0
  H  H3  1  0.90695000  0.83892000  0.32523000  1.0
  H  H4  1  0.37528000  0.26063000  0.58501000  1.0
  H  H5  1  0.62472000  0.73937000  0.41499000  1.0
  H  H6  1  0.10593000  0.64196000  0.57934000  1.0
  H  H7  1  0.89407000  0.35804000  0.42066000  1.0
  H  H8  1  0.83579000  0.52578000  0.66652000  1.0
  H  H9  1  0.16421000  0.47422000  0.33348000  1.0
  H  H10  1  0.37437000  0.22727000  0.78186000  1.0
  H  H11  1  0.62564000  0.77273000  0.21814000  1.0
  H  H12  1  0.10103000  0.31996000  0.88077000  1.0
  H  H13  1  0.89897000  0.68005000  0.11922000  1.0
  H  H14  1  0.40001000  0.60552000  0.92687000  1.0
  H  H15  1  0.59999000  0.39448000  0.07313000  1.0
  H  H16  1  0.66246000  0.49353000  0.83342000  1.0
  H  H17  1  0.33754000  0.50648000  0.16658000  1.0
  H  H18  1  0.09613000  0.62066000  0.99668000  1.0
  H  H19  1  0.90387000  0.37934000  0.00332000  1.0
  H  H20  1  0.33489000  0.23493000  0.39024000  1.0
  H  H21  1  0.66511000  0.76507000  0.60977000  1.0
  H  H22  1  0.49009000  0.10081000  0.09650000  1.0
  H  H23  1  0.50991000  0.89920000  0.90350000  1.0
  H  H24  1  0.83662000  0.04213000  0.29959000  1.0
  H  H25  1  0.16338000  0.95787000  0.70041000  1.0
  H  H26  1  0.87684000  0.12514000  0.41772000  1.0
  H  H27  1  0.12315000  0.87486000  0.58228000  1.0
  H  H28  1  0.76232000  0.98360000  0.49089000  1.0
  H  H29  1  0.23768000  0.01640000  0.50911000  1.0
  H  H30  1  0.65474000  0.93993000  0.04794000  1.0
  H  H31  1  0.34526000  0.06008000  0.95206000  1.0
  H  H32  1  0.88167000  0.91581000  0.00351000  1.0
  H  H33  1  0.11833000  0.08419000  0.99650000  1.0
  H  H34  1  0.41266000  0.63639000  0.50990000  1.0
  H  H35  1  0.58733000  0.36361000  0.49009000  1.0
  C  C36  1  0.10322000  0.26702000  0.65110000  1.0
  C  C37  1  0.89678000  0.73298000  0.34891000  1.0
  C  C38  1  0.25905000  0.32389000  0.60004000  1.0
  C  C39  1  0.74095000  0.67610000  0.39996000  1.0
  C  C40  1  0.26555000  0.46201000  0.57185000  1.0
  C  C41  1  0.73445000  0.53798000  0.42815000  1.0
  C  C42  1  0.10949000  0.53499000  0.59802000  1.0
  C  C43  1  0.89051000  0.46500000  0.40198000  1.0
  C  C44  1  0.95798000  0.47057000  0.64737000  1.0
  C  C45  1  0.04202000  0.52943000  0.35263000  1.0
  C  C46  1  0.42358000  0.53004000  0.51917000  1.0
  C  C47  1  0.57642000  0.46995000  0.48083000  1.0
  C  C48  1  0.37367000  0.31032000  0.81651000  1.0
  C  C49  1  0.62634000  0.68968000  0.18348000  1.0
  C  C50  1  0.22184000  0.36321000  0.87142000  1.0
  C  C51  1  0.77816000  0.63679000  0.12858000  1.0
  C  C52  1  0.22733000  0.47052000  0.91500000  1.0
  C  C53  1  0.77267000  0.52948000  0.08500000  1.0
  C  C54  1  0.38909000  0.52066000  0.89704000  1.0
  C  C55  1  0.61092000  0.47933000  0.10296000  1.0
  C  C56  1  0.53556000  0.45975000  0.84341000  1.0
  C  C57  1  0.46444000  0.54025000  0.15659000  1.0
  C  C58  1  0.07690000  0.52809000  0.97958000  1.0
  C  C59  1  0.92310000  0.47191000  0.02042000  1.0
  C  C60  1  0.58771000  0.13833000  0.35625000  1.0
  C  C61  1  0.41229000  0.86167000  0.64375000  1.0
  C  C62  1  0.42985000  0.18836000  0.33373000  1.0
  C  C63  1  0.57015000  0.81164000  0.66628000  1.0
  C  C64  1  0.40051000  0.17357000  0.23999000  1.0
  C  C65  1  0.59949000  0.82643000  0.76001000  1.0
  C  C66  1  0.52102000  0.11305000  0.16724000  1.0
  C  C67  1  0.47898000  0.88696000  0.83277000  1.0
  C  C68  1  0.67779000  0.06624000  0.19103000  1.0
  C  C69  1  0.32221000  0.93376000  0.80897000  1.0
  C  C70  1  0.71233000  0.07870000  0.28512000  1.0
  C  C71  1  0.28767000  0.92130000  0.71488000  1.0
  C  C72  1  0.76020000  0.09069000  0.48049000  1.0
  C  C73  1  0.23979000  0.90931000  0.51951000  1.0
  C  C74  1  0.77340000  0.11979000  0.58328000  1.0
  C  C75  1  0.22660000  0.88021000  0.41672000  1.0
  C  C76  1  0.77787000  0.98517000  0.03189000  1.0
  C  C77  1  0.22213000  0.01484000  0.96811000  1.0
  C  C78  1  0.78625000  0.10964000  0.94207000  1.0
  C  C79  1  0.21375000  0.89036000  0.05793000  1.0
  I  I80  1  0.16638000  0.24756000  0.20253000  1.0
  I  I81  1  0.83362000  0.75244000  0.79748000  1.0
  N  N82  1  0.95357000  0.33850000  0.67383000  1.0
  N  N83  1  0.04643000  0.66150000  0.32617000  1.0
  N  N84  1  0.52919000  0.35599000  0.80328000  1.0
  N  N85  1  0.47081000  0.64402000  0.19672000  1.0
  O  O86  1  0.90276000  0.07247000  0.61564000  1.0
  O  O87  1  0.09724000  0.92753000  0.38437000  1.0
  O  O88  1  0.65431000  0.19543000  0.62866000  1.0
  O  O89  1  0.34569000  0.80457000  0.37134000  1.0
  O  O90  1  0.84574000  0.21266000  0.94379000  1.0
  O  O91  1  0.15427000  0.78734000  0.05621000  1.0
  O  O92  1  0.72801000  0.09089000  0.86643000  1.0
  O  O93  1  0.27199000  0.90912000  0.13357000  1.0
  O  O94  1  0.60802000  0.15232000  0.45094000  1.0
  O  O95  1  0.39198000  0.84768000  0.54906000  1.0
  O  O96  1  0.80586000  0.00302000  0.12802000  1.0
  O  O97  1  0.19414000  0.99698000  0.87199000  1.0
