# generated using pymatgen
data_LaH9C7SO9
_symmetry_space_group_name_H-M   'P 1'
_cell_length_a   7.98930000
_cell_length_b   8.39385000
_cell_length_c   19.28730000
_cell_angle_alpha   90.00050000
_cell_angle_beta   90.00010000
_cell_angle_gamma   104.50150000
_symmetry_Int_Tables_number   1
_chemical_formula_structural   LaH9C7SO9
_chemical_formula_sum   'La4 H36 C28 S4 O36'
_cell_volume   1252.21822327
_cell_formula_units_Z   4
loop_
 _symmetry_equiv_pos_site_id
 _symmetry_equiv_pos_as_xyz
  1  'x, y, z'
loop_
 _atom_site_type_symbol
 _atom_site_label
 _atom_site_symmetry_multiplicity
 _atom_site_fract_x
 _atom_site_fract_y
 _atom_site_fract_z
 _atom_site_occupancy
  La  La0  1  0.33942000  0.65870000  0.51131000  1.0
  La  La1  1  0.66058000  0.84129000  0.01131000  1.0
  La  La2  1  0.66057000  0.34130000  0.48870000  1.0
  La  La3  1  0.33943000  0.15870000  0.98870000  1.0
  H  H4  1  0.08376000  0.88454000  0.57126000  1.0
  H  H5  1  0.91625000  0.61547000  0.07126000  1.0
  H  H6  1  0.91624000  0.11545000  0.42874000  1.0
  H  H7  1  0.08376000  0.38453000  0.92874000  1.0
  H  H8  1  0.97683000  0.76698000  0.51196000  1.0
  H  H9  1  0.02317000  0.73302000  0.01196000  1.0
  H  H10  1  0.02317000  0.23302000  0.48804000  1.0
  H  H11  1  0.97683000  0.26698000  0.98804000  1.0
  H  H12  1  0.17177000  0.88978000  0.41353000  1.0
  H  H13  1  0.82823000  0.61022000  0.91353000  1.0
  H  H14  1  0.82823000  0.11022000  0.58647000  1.0
  H  H15  1  0.17177000  0.38978000  0.08647000  1.0
  H  H16  1  0.37458000  0.97184000  0.41164000  1.0
  H  H17  1  0.62543000  0.52816000  0.91164000  1.0
  H  H18  1  0.62542000  0.02816000  0.58836000  1.0
  H  H19  1  0.37458000  0.47184000  0.08836000  1.0
  H  H20  1  0.00971000  0.58737000  0.41472000  1.0
  H  H21  1  0.99028000  0.91262000  0.91472000  1.0
  H  H22  1  0.99029000  0.41263000  0.58528000  1.0
  H  H23  1  0.00972000  0.08738000  0.08528000  1.0
  H  H24  1  0.05044000  0.41491000  0.41876000  1.0
  H  H25  1  0.94955000  0.08508000  0.91876000  1.0
  H  H26  1  0.94955000  0.58509000  0.58124000  1.0
  H  H27  1  0.05045000  0.91492000  0.08124000  1.0
  H  H28  1  0.27795000  0.36489000  0.31952000  1.0
  H  H29  1  0.72205000  0.13513000  0.81952000  1.0
  H  H30  1  0.72204000  0.63511000  0.68049000  1.0
  H  H31  1  0.27795000  0.86488000  0.18048000  1.0
  H  H32  1  0.34710000  0.45385000  0.19811000  1.0
  H  H33  1  0.65289000  0.04616000  0.69811000  1.0
  H  H34  1  0.65290000  0.54614000  0.80189000  1.0
  H  H35  1  0.34709000  0.95385000  0.30189000  1.0
  H  H36  1  0.77513000  0.84286000  0.26787000  1.0
  H  H37  1  0.22489000  0.65714000  0.76787000  1.0
  H  H38  1  0.22486000  0.15713000  0.73213000  1.0
  H  H39  1  0.77512000  0.34287000  0.23214000  1.0
  C  C40  1  0.62843000  0.68510000  0.34659000  1.0
  C  C41  1  0.37157000  0.81489000  0.84659000  1.0
  C  C42  1  0.37157000  0.31490000  0.65341000  1.0
  C  C43  1  0.62843000  0.18510000  0.15341000  1.0
  C  C44  1  0.48975000  0.54731000  0.36312000  1.0
  C  C45  1  0.51025000  0.95269000  0.86312000  1.0
  C  C46  1  0.51025000  0.45269000  0.63688000  1.0
  C  C47  1  0.48976000  0.04731000  0.13688000  1.0
  C  C48  1  0.38634000  0.46900000  0.30784000  1.0
  C  C49  1  0.61366000  0.03100000  0.80784000  1.0
  C  C50  1  0.61366000  0.53100000  0.69216000  1.0
  C  C51  1  0.38634000  0.96900000  0.19216000  1.0
  C  C52  1  0.42574000  0.52017000  0.24012000  1.0
  C  C53  1  0.57426000  0.97984000  0.74012000  1.0
  C  C54  1  0.57426000  0.47983000  0.75988000  1.0
  C  C55  1  0.42574000  0.02017000  0.25988000  1.0
  C  C56  1  0.56664000  0.65370000  0.22466000  1.0
  C  C57  1  0.43336000  0.84630000  0.72466000  1.0
  C  C58  1  0.43336000  0.34630000  0.77534000  1.0
  C  C59  1  0.56665000  0.15370000  0.27534000  1.0
  C  C60  1  0.66776000  0.73746000  0.27902000  1.0
  C  C61  1  0.33224000  0.76253000  0.77902000  1.0
  C  C62  1  0.33224000  0.26254000  0.72098000  1.0
  C  C63  1  0.66776000  0.23747000  0.22098000  1.0
  C  C64  1  0.60828000  0.71170000  0.15290000  1.0
  C  C65  1  0.39173000  0.78831000  0.65290000  1.0
  C  C66  1  0.39172000  0.28830000  0.84710000  1.0
  C  C67  1  0.60827000  0.21170000  0.34710000  1.0
  S  S68  1  0.75012000  0.78222000  0.41714000  1.0
  S  S69  1  0.24987000  0.71778000  0.91714000  1.0
  S  S70  1  0.24988000  0.21778000  0.58286000  1.0
  S  S71  1  0.75013000  0.28222000  0.08286000  1.0
  O  O72  1  0.63034000  0.83327000  0.46543000  1.0
  O  O73  1  0.36967000  0.66674000  0.96542000  1.0
  O  O74  1  0.36966000  0.16673000  0.53458000  1.0
  O  O75  1  0.63034000  0.33333333  0.03458000  1.0
  O  O76  1  0.06534000  0.77549000  0.54840000  1.0
  O  O77  1  0.93465000  0.72452000  0.04840000  1.0
  O  O78  1  0.93466000  0.22451000  0.45160000  1.0
  O  O79  1  0.06534000  0.27548000  0.95160000  1.0
  O  O80  1  0.82577000  0.65417000  0.45057000  1.0
  O  O81  1  0.17422000  0.84583000  0.95056000  1.0
  O  O82  1  0.17423000  0.34583000  0.54943000  1.0
  O  O83  1  0.82578000  0.15417000  0.04944000  1.0
  O  O84  1  0.28373000  0.86729000  0.42266000  1.0
  O  O85  1  0.71628000  0.63271000  0.92266000  1.0
  O  O86  1  0.71627000  0.13272000  0.57734000  1.0
  O  O87  1  0.28372000  0.36729000  0.07734000  1.0
  O  O88  1  0.89002000  0.91983000  0.39265000  1.0
  O  O89  1  0.10999000  0.58016000  0.89264000  1.0
  O  O90  1  0.10999000  0.08016000  0.60735000  1.0
  O  O91  1  0.89002000  0.41984000  0.10735000  1.0
  O  O92  1  0.10515000  0.53455000  0.42170000  1.0
  O  O93  1  0.89484000  0.96543000  0.92170000  1.0
  O  O94  1  0.89484000  0.46544000  0.57830000  1.0
  O  O95  1  0.10516000  0.03457000  0.07830000  1.0
  O  O96  1  0.46293000  0.49474000  0.42842000  1.0
  O  O97  1  0.53707000  0.00525000  0.92842000  1.0
  O  O98  1  0.53706000  0.50525000  0.57158000  1.0
  O  O99  1  0.46294000  0.99475000  0.07158000  1.0
  O  O100  1  0.52046000  0.63380000  0.10121000  1.0
  O  O101  1  0.47955000  0.86621000  0.60121000  1.0
  O  O102  1  0.47954000  0.36619000  0.89879000  1.0
  O  O103  1  0.52047000  0.13378000  0.39879000  1.0
  O  O104  1  0.72789000  0.84077000  0.14088000  1.0
  O  O105  1  0.27211000  0.65924000  0.64087000  1.0
  O  O106  1  0.27211000  0.15924000  0.85913000  1.0
  O  O107  1  0.72789000  0.34076000  0.35913000  1.0
