# generated using pymatgen
data_SmAgH12C14N2O11
_symmetry_space_group_name_H-M   'P 1'
_cell_length_a   7.29391000
_cell_length_b   13.82340000
_cell_length_c   19.50990000
_cell_angle_alpha   103.40500000
_cell_angle_beta   89.99930000
_cell_angle_gamma   89.99950000
_symmetry_Int_Tables_number   1
_chemical_formula_structural   SmAgH12C14N2O11
_chemical_formula_sum   'Sm4 Ag4 H48 C56 N8 O44'
_cell_volume   1913.52473717
_cell_formula_units_Z   4
loop_
 _symmetry_equiv_pos_site_id
 _symmetry_equiv_pos_as_xyz
  1  'x, y, z'
loop_
 _atom_site_type_symbol
 _atom_site_label
 _atom_site_symmetry_multiplicity
 _atom_site_fract_x
 _atom_site_fract_y
 _atom_site_fract_z
 _atom_site_occupancy
  Sm  Sm0  1  0.42909000  0.30017000  0.14451000  1.0
  Sm  Sm1  1  0.92909000  0.19983000  0.35550000  1.0
  Sm  Sm2  1  0.57091000  0.69983000  0.85549000  1.0
  Sm  Sm3  1  0.07092000  0.80017000  0.64450000  1.0
  Ag  Ag4  1  0.93856000  0.37638000  0.98157000  1.0
  Ag  Ag5  1  0.43856000  0.12363000  0.51843000  1.0
  Ag  Ag6  1  0.06144000  0.62364000  0.01842000  1.0
  Ag  Ag7  1  0.56145000  0.87638000  0.48158000  1.0
  H  H8  1  0.06612000  0.66763000  0.19123000  1.0
  H  H9  1  0.56615000  0.83236000  0.30876000  1.0
  H  H10  1  0.93386000  0.33236000  0.80876000  1.0
  H  H11  1  0.43387000  0.16763000  0.69123000  1.0
  H  H12  1  0.30736000  0.76070000  0.13849000  1.0
  H  H13  1  0.80738000  0.73930000  0.36151000  1.0
  H  H14  1  0.69260000  0.23929000  0.86149000  1.0
  H  H15  1  0.19262000  0.26070000  0.63850000  1.0
  H  H16  1  0.58779000  0.66597000  0.08335000  1.0
  H  H17  1  0.08780000  0.83403000  0.41666000  1.0
  H  H18  1  0.41219000  0.33402000  0.91664000  1.0
  H  H19  1  0.91219000  0.16597000  0.58335000  1.0
  H  H20  1  0.31156000  0.10062000  0.86526000  1.0
  H  H21  1  0.81154000  0.39939000  0.63474000  1.0
  H  H22  1  0.68842000  0.89941000  0.13474000  1.0
  H  H23  1  0.18846000  0.60061000  0.36525000  1.0
  H  H24  1  0.59725000  0.99499000  0.84919000  1.0
  H  H25  1  0.09725000  0.50501000  0.65082000  1.0
  H  H26  1  0.40272000  0.00503000  0.15080000  1.0
  H  H27  1  0.90275000  0.49499000  0.34918000  1.0
  H  H28  1  0.81909000  0.01451000  0.95133000  1.0
  H  H29  1  0.31910000  0.48548000  0.54867000  1.0
  H  H30  1  0.18088000  0.98549000  0.04866000  1.0
  H  H31  1  0.68092000  0.51451000  0.45133000  1.0
  H  H32  1  0.20506000  0.15173000  0.19010000  1.0
  H  H33  1  0.70506000  0.34826000  0.30991000  1.0
  H  H34  1  0.79493000  0.84827000  0.80990000  1.0
  H  H35  1  0.29494000  0.65174000  0.69009000  1.0
  H  H36  1  0.10516000  0.14215000  0.11715000  1.0
  H  H37  1  0.60516000  0.35786000  0.38285000  1.0
  H  H38  1  0.89483000  0.85785000  0.88284000  1.0
  H  H39  1  0.39486000  0.64215000  0.61715000  1.0
  H  H40  1  0.35006000  0.27088000  0.29522000  1.0
  H  H41  1  0.85007000  0.22911000  0.20479000  1.0
  H  H42  1  0.64996000  0.72912000  0.70478000  1.0
  H  H43  1  0.14994000  0.77088000  0.79521000  1.0
  H  H44  1  0.51450000  0.19466000  0.26568000  1.0
  H  H45  1  0.01449000  0.30534000  0.23433000  1.0
  H  H46  1  0.48552000  0.80534000  0.73432000  1.0
  H  H47  1  0.98551000  0.69466000  0.76567000  1.0
  H  H48  1  0.56341000  0.46979000  0.26869000  1.0
  H  H49  1  0.06344000  0.03020000  0.23133000  1.0
  H  H50  1  0.43658000  0.53021000  0.73131000  1.0
  H  H51  1  0.93657000  0.96978000  0.76868000  1.0
  H  H52  1  0.75395000  0.44856000  0.22846000  1.0
  H  H53  1  0.25398000  0.05145000  0.27155000  1.0
  H  H54  1  0.24604000  0.55144000  0.77155000  1.0
  H  H55  1  0.74604000  0.94855000  0.72845000  1.0
  C  C56  1  0.09311000  0.47096000  0.20166000  1.0
  C  C57  1  0.59314000  0.02904000  0.29834000  1.0
  C  C58  1  0.90689000  0.52903000  0.79835000  1.0
  C  C59  1  0.40689000  0.97096000  0.70165000  1.0
  C  C60  1  0.22360000  0.53218000  0.16876000  1.0
  C  C61  1  0.72364000  0.96782000  0.33125000  1.0
  C  C62  1  0.77638000  0.46782000  0.83124000  1.0
  C  C63  1  0.27638000  0.03218000  0.66875000  1.0
  C  C64  1  0.19162000  0.63173000  0.16801000  1.0
  C  C65  1  0.69164000  0.86827000  0.33199000  1.0
  C  C66  1  0.80836000  0.36827000  0.83199000  1.0
  C  C67  1  0.30837000  0.13172000  0.66801000  1.0
  C  C68  1  0.32480000  0.68224000  0.13810000  1.0
  C  C69  1  0.82482000  0.81776000  0.36191000  1.0
  C  C70  1  0.67516000  0.31775000  0.86190000  1.0
  C  C71  1  0.17520000  0.18224000  0.63810000  1.0
  C  C72  1  0.48049000  0.63085000  0.10765000  1.0
  C  C73  1  0.98050000  0.86915000  0.39235000  1.0
  C  C74  1  0.51949000  0.36914000  0.89234000  1.0
  C  C75  1  0.01949000  0.13084000  0.60765000  1.0
  C  C76  1  0.49672000  0.53025000  0.10765000  1.0
  C  C77  1  0.99673000  0.96974000  0.39235000  1.0
  C  C78  1  0.50327000  0.46974000  0.89234000  1.0
  C  C79  1  0.00327000  0.03025000  0.60765000  1.0
  C  C80  1  0.64771000  0.46441000  0.07039000  1.0
  C  C81  1  0.14772000  0.03558000  0.42961000  1.0
  C  C82  1  0.35229000  0.53559000  0.92961000  1.0
  C  C83  1  0.85230000  0.96441000  0.57039000  1.0
  C  C84  1  0.22042000  0.24163000  0.98741000  1.0
  C  C85  1  0.72040000  0.25837000  0.51260000  1.0
  C  C86  1  0.77958000  0.75838000  0.01259000  1.0
  C  C87  1  0.27961000  0.74163000  0.48740000  1.0
  C  C88  1  0.37779000  0.16950000  0.97297000  1.0
  C  C89  1  0.87779000  0.33051000  0.52704000  1.0
  C  C90  1  0.62220000  0.83051000  0.02704000  1.0
  C  C91  1  0.12223000  0.66949000  0.47296000  1.0
  C  C92  1  0.40990000  0.10443000  0.90778000  1.0
  C  C93  1  0.90988000  0.39558000  0.59223000  1.0
  C  C94  1  0.59008000  0.89560000  0.09222000  1.0
  C  C95  1  0.09012000  0.60441000  0.40777000  1.0
  C  C96  1  0.56917000  0.04687000  0.89921000  1.0
  C  C97  1  0.06915000  0.45313000  0.60080000  1.0
  C  C98  1  0.43080000  0.95315000  0.10079000  1.0
  C  C99  1  0.93085000  0.54687000  0.39920000  1.0
  C  C100  1  0.69159000  0.05643000  0.95539000  1.0
  C  C101  1  0.19158000  0.44357000  0.54461000  1.0
  C  C102  1  0.30838000  0.94358000  0.04460000  1.0
  C  C103  1  0.80843000  0.55642000  0.45539000  1.0
  C  C104  1  0.64694000  0.12201000  0.01908000  1.0
  C  C105  1  0.14692000  0.37799000  0.48093000  1.0
  C  C106  1  0.35305000  0.87799000  0.98092000  1.0
  C  C107  1  0.85309000  0.62200000  0.51908000  1.0
  C  C108  1  0.76940000  0.13833000  0.08301000  1.0
  C  C109  1  0.26940000  0.36167000  0.41699000  1.0
  C  C110  1  0.23058000  0.86167000  0.91698000  1.0
  C  C111  1  0.73063000  0.63833000  0.58301000  1.0
  N  N112  1  0.37333000  0.48344000  0.13940000  1.0
  N  N113  1  0.87335000  0.01657000  0.36061000  1.0
  N  N114  1  0.62666000  0.51657000  0.86061000  1.0
  N  N115  1  0.12666000  0.98343000  0.63940000  1.0
  N  N116  1  0.49332000  0.17652000  0.02732000  1.0
  N  N117  1  0.99331000  0.32349000  0.47268000  1.0
  N  N118  1  0.50667000  0.82349000  0.97268000  1.0
  N  N119  1  0.00670000  0.67651000  0.52732000  1.0
  O  O120  1  0.15650000  0.38727000  0.20899000  1.0
  O  O121  1  0.65653000  0.11273000  0.29102000  1.0
  O  O122  1  0.84350000  0.61273000  0.79102000  1.0
  O  O123  1  0.34350000  0.88726000  0.70898000  1.0
  O  O124  1  0.93654000  0.50639000  0.21912000  1.0
  O  O125  1  0.43658000  0.99361000  0.28087000  1.0
  O  O126  1  0.06345000  0.49361000  0.78088000  1.0
  O  O127  1  0.56344000  0.00639000  0.71912000  1.0
  O  O128  1  0.64940000  0.37478000  0.07618000  1.0
  O  O129  1  0.14941000  0.12522000  0.42383000  1.0
  O  O130  1  0.35059000  0.62522000  0.92383000  1.0
  O  O131  1  0.85060000  0.87478000  0.57617000  1.0
  O  O132  1  0.75959000  0.50096000  0.03313000  1.0
  O  O133  1  0.25962000  0.99904000  0.46687000  1.0
  O  O134  1  0.24038000  0.49904000  0.96687000  1.0
  O  O135  1  0.74040000  0.00096000  0.53313000  1.0
  O  O136  1  0.21144000  0.29838000  0.04886000  1.0
  O  O137  1  0.71145000  0.20161000  0.45115000  1.0
  O  O138  1  0.78855000  0.70163000  0.95114000  1.0
  O  O139  1  0.28856000  0.79838000  0.54885000  1.0
  O  O140  1  0.11187000  0.24546000  0.93706000  1.0
  O  O141  1  0.61184000  0.25455000  0.56295000  1.0
  O  O142  1  0.88813000  0.75457000  0.06295000  1.0
  O  O143  1  0.38817000  0.74545000  0.43705000  1.0
  O  O144  1  0.70571000  0.19751000  0.13900000  1.0
  O  O145  1  0.20570000  0.30248000  0.36101000  1.0
  O  O146  1  0.29429000  0.80248000  0.86100000  1.0
  O  O147  1  0.79433000  0.69752000  0.63899000  1.0
  O  O148  1  0.92100000  0.09462000  0.07740000  1.0
  O  O149  1  0.42097000  0.40539000  0.42261000  1.0
  O  O150  1  0.07899000  0.90538000  0.92260000  1.0
  O  O151  1  0.57905000  0.59461000  0.57741000  1.0
  O  O152  1  0.22433000  0.16179000  0.14228000  1.0
  O  O153  1  0.72433000  0.33821000  0.35773000  1.0
  O  O154  1  0.77566000  0.83821000  0.85771000  1.0
  O  O155  1  0.27569000  0.66179000  0.64227000  1.0
  O  O156  1  0.43204000  0.24586000  0.25357000  1.0
  O  O157  1  0.93204000  0.25413000  0.24644000  1.0
  O  O158  1  0.56796000  0.75413000  0.74643000  1.0
  O  O159  1  0.06797000  0.74586000  0.75355000  1.0
  O  O160  1  0.63276000  0.41729000  0.23766000  1.0
  O  O161  1  0.13279000  0.08270000  0.26235000  1.0
  O  O162  1  0.36723000  0.58270000  0.76234000  1.0
  O  O163  1  0.86722000  0.91729000  0.73765000  1.0
