# generated using pymatgen
data_ZnH8C30N2(Cl2O11)2
_symmetry_space_group_name_H-M   'P 1'
_cell_length_a   10.12530000
_cell_length_b   10.84340000
_cell_length_c   23.62000000
_cell_angle_alpha   87.75920000
_cell_angle_beta   87.97810000
_cell_angle_gamma   85.85390000
_symmetry_Int_Tables_number   1
_chemical_formula_structural   ZnH8C30N2(Cl2O11)2
_chemical_formula_sum   'Zn2 H16 C60 N4 Cl8 O44'
_cell_volume   2583.16760991
_cell_formula_units_Z   2
loop_
 _symmetry_equiv_pos_site_id
 _symmetry_equiv_pos_as_xyz
  1  'x, y, z'
loop_
 _atom_site_type_symbol
 _atom_site_label
 _atom_site_symmetry_multiplicity
 _atom_site_fract_x
 _atom_site_fract_y
 _atom_site_fract_z
 _atom_site_occupancy
  Zn  Zn0  1  0.65266000  0.47920000  0.49877000  1.0
  Zn  Zn1  1  0.34804000  0.49062000  0.50778000  1.0
  H  H2  1  0.00596000  0.52023000  0.06346000  1.0
  H  H3  1  0.60767000  0.92611000  0.95302000  1.0
  H  H4  1  0.81506000  0.35596000  0.35375000  1.0
  H  H5  1  0.18912000  0.77055000  0.58111000  1.0
  H  H6  1  0.79676000  0.21473000  0.61190000  1.0
  H  H7  1  0.23230000  0.71465000  0.39322000  1.0
  H  H8  1  0.95440000  0.64953000  0.94389000  1.0
  H  H9  1  0.83329000  0.87072000  0.08721000  1.0
  H  H10  1  0.84078000  0.51489000  0.84813000  1.0
  H  H11  1  0.79057000  0.27374000  0.17656000  1.0
  H  H12  1  0.18894000  0.58192000  0.69058000  1.0
  H  H13  1  0.53198000  0.79890000  0.25949000  1.0
  H  H14  1  0.70790000  0.75652000  0.36111000  1.0
  H  H15  1  0.38741000  0.21346000  0.65011000  1.0
  H  H16  1  0.82268000  0.01935000  0.43287000  1.0
  H  H17  1  0.07058000  0.99376000  0.46094000  1.0
  C  C18  1  0.52289000  0.24908000  0.49887000  1.0
  C  C19  1  0.49405000  0.72047000  0.50183000  1.0
  C  C20  1  0.60511000  0.57512000  0.76230000  1.0
  C  C21  1  0.53680000  0.41581000  0.23523000  1.0
  C  C22  1  0.60994000  0.55789000  0.70319000  1.0
  C  C23  1  0.53896000  0.41480000  0.29449000  1.0
  C  C24  1  0.50362000  0.50972000  0.67585000  1.0
  C  C25  1  0.48536000  0.51548000  0.32576000  1.0
  C  C26  1  0.39605000  0.47385000  0.70998000  1.0
  C  C27  1  0.43143000  0.62064000  0.29505000  1.0
  C  C28  1  0.39173000  0.48694000  0.76879000  1.0
  C  C29  1  0.41357000  0.61470000  0.23650000  1.0
  C  C30  1  0.48719000  0.55355000  0.79449000  1.0
  C  C31  1  0.46798000  0.51367000  0.20663000  1.0
  C  C32  1  0.64047000  0.00804000  0.50430000  1.0
  C  C33  1  0.37531000  0.96180000  0.49761000  1.0
  C  C34  1  0.57843000  0.93498000  0.45615000  1.0
  C  C35  1  0.43814000  0.03410000  0.54591000  1.0
  C  C36  1  0.49475000  0.85940000  0.50078000  1.0
  C  C37  1  0.52086000  0.11001000  0.50128000  1.0
  C  C38  1  0.55622000  0.93210000  0.54887000  1.0
  C  C39  1  0.45897000  0.03753000  0.45304000  1.0
  C  C40  1  0.50099000  0.48889000  0.61278000  1.0
  C  C41  1  0.48939000  0.50711000  0.39085000  1.0
  C  C42  1  0.05416000  0.36437000  0.51616000  1.0
  C  C43  1  0.94930000  0.59072000  0.49584000  1.0
  C  C44  1  0.97299000  0.40569000  0.46352000  1.0
  C  C45  1  0.03106000  0.54914000  0.54880000  1.0
  C  C46  1  0.94878000  0.43462000  0.55495000  1.0
  C  C47  1  0.05291000  0.52113000  0.45716000  1.0
  C  C48  1  0.56527000  0.59301000  0.12022000  1.0
  C  C49  1  0.33593000  0.59641000  0.87933000  1.0
  C  C50  1  0.35829000  0.47683000  0.11924000  1.0
  C  C51  1  0.54828000  0.66940000  0.87788000  1.0
  C  C52  1  0.35482000  0.49943000  0.05716000  1.0
  C  C53  1  0.55072000  0.65200000  0.94045000  1.0
  C  C54  1  0.45824000  0.56174000  0.02867000  1.0
  C  C55  1  0.45430000  0.58273000  0.96924000  1.0
  C  C56  1  0.56266000  0.60851000  0.05799000  1.0
  C  C57  1  0.34077000  0.55548000  0.94000000  1.0
  C  C58  1  0.24553000  0.46890000  0.02747000  1.0
  C  C59  1  0.64628000  0.70580000  0.97041000  1.0
  C  C60  1  0.23424000  0.50695000  0.96926000  1.0
  C  C61  1  0.65597000  0.67907000  0.02949000  1.0
  C  C62  1  0.14441000  0.38413000  0.05306000  1.0
  C  C63  1  0.73925000  0.79220000  0.94058000  1.0
  C  C64  1  0.93661000  0.33308000  0.41431000  1.0
  C  C65  1  0.05843000  0.64901000  0.58810000  1.0
  C  C66  1  0.89573000  0.36092000  0.60511000  1.0
  C  C67  1  0.11531000  0.57916000  0.40490000  1.0
  C  C68  1  0.09903000  0.51574000  0.94278000  1.0
  C  C69  1  0.77151000  0.72429000  0.05979000  1.0
  C  C70  1  0.73388000  0.59385000  0.79026000  1.0
  C  C71  1  0.61249000  0.31810000  0.20085000  1.0
  C  C72  1  0.27728000  0.41969000  0.68621000  1.0
  C  C73  1  0.41500000  0.74601000  0.32058000  1.0
  C  C74  1  0.65914000  0.89330000  0.40616000  1.0
  C  C75  1  0.37292000  0.08253000  0.59932000  1.0
  C  C76  1  0.78252000  0.02992000  0.51428000  1.0
  C  C77  1  0.23007000  0.94228000  0.49829000  1.0
  N  N78  1  0.46897000  0.52014000  0.14590000  1.0
  N  N79  1  0.46787000  0.58711000  0.85153000  1.0
  N  N80  1  0.86547000  0.47619000  0.50203000  1.0
  N  N81  1  0.13744000  0.48033000  0.50933000  1.0
  Cl  Cl82  1  0.12378000  0.22311000  0.53513000  1.0
  Cl  Cl83  1  0.88469000  0.73750000  0.48282000  1.0
  Cl  Cl84  1  0.74498000  0.60305000  0.66491000  1.0
  Cl  Cl85  1  0.61374000  0.28546000  0.32826000  1.0
  Cl  Cl86  1  0.27698000  0.40621000  0.80792000  1.0
  Cl  Cl87  1  0.32832000  0.73438000  0.19982000  1.0
  Cl  Cl88  1  0.61250000  0.86418000  0.61104000  1.0
  Cl  Cl89  1  0.40151000  0.10424000  0.39047000  1.0
  O  O90  1  0.63338000  0.29532000  0.48810000  1.0
  O  O91  1  0.38445000  0.67380000  0.49642000  1.0
  O  O92  1  0.41046000  0.30618000  0.50624000  1.0
  O  O93  1  0.60711000  0.66451000  0.50843000  1.0
  O  O94  1  0.60895000  0.46655000  0.58554000  1.0
  O  O95  1  0.38075000  0.48623000  0.41591000  1.0
  O  O96  1  0.38540000  0.49277000  0.59278000  1.0
  O  O97  1  0.60082000  0.51776000  0.41178000  1.0
  O  O98  1  0.64406000  0.64273000  0.14892000  1.0
  O  O99  1  0.23766000  0.63913000  0.85562000  1.0
  O  O100  1  0.27145000  0.42911000  0.14786000  1.0
  O  O101  1  0.60934000  0.74868000  0.85222000  1.0
  O  O102  1  0.17445000  0.27337000  0.05411000  1.0
  O  O103  1  0.02278000  0.42987000  0.06875000  1.0
  O  O104  1  0.85044000  0.75896000  0.92292000  1.0
  O  O105  1  0.69899000  0.91280000  0.93853000  1.0
  O  O106  1  0.98173000  0.22908000  0.40429000  1.0
  O  O107  1  0.84974000  0.40430000  0.38363000  1.0
  O  O108  1  0.96647000  0.70271000  0.61380000  1.0
  O  O109  1  0.18382000  0.67787000  0.58412000  1.0
  O  O110  1  0.93574000  0.36321000  0.65274000  1.0
  O  O111  1  0.81442000  0.28280000  0.58468000  1.0
  O  O112  1  0.11600000  0.53739000  0.35769000  1.0
  O  O113  1  0.16312000  0.68254000  0.42092000  1.0
  O  O114  1  0.05617000  0.44563000  0.91007000  1.0
  O  O115  1  0.03698000  0.61748000  0.96396000  1.0
  O  O116  1  0.87440000  0.66171000  0.06815000  1.0
  O  O117  1  0.75247000  0.84562000  0.07041000  1.0
  O  O118  1  0.81664000  0.66482000  0.77566000  1.0
  O  O119  1  0.75122000  0.50774000  0.83425000  1.0
  O  O120  1  0.56325000  0.23871000  0.17532000  1.0
  O  O121  1  0.74368000  0.33589000  0.20050000  1.0
  O  O122  1  0.27166000  0.31066000  0.67603000  1.0
  O  O123  1  0.16850000  0.49768000  0.68246000  1.0
  O  O124  1  0.35087000  0.77572000  0.36322000  1.0
  O  O125  1  0.48690000  0.83220000  0.29356000  1.0
  O  O126  1  0.73863000  0.95969000  0.38121000  1.0
  O  O127  1  0.64257000  0.77799000  0.39144000  1.0
  O  O128  1  0.27211000  0.04400000  0.62107000  1.0
  O  O129  1  0.44394000  0.16905000  0.62015000  1.0
  O  O130  1  0.81931000  0.04498000  0.56178000  1.0
  O  O131  1  0.86907000  0.02785000  0.46916000  1.0
  O  O132  1  0.17163000  0.89118000  0.53795000  1.0
  O  O133  1  0.16764000  0.99432000  0.45351000  1.0
