# generated using pymatgen
data_AlH11C15S2NO5
_symmetry_space_group_name_H-M   'P 1'
_cell_length_a   6.65223000
_cell_length_b   14.74680000
_cell_length_c   15.08900000
_cell_angle_alpha   90.00000000
_cell_angle_beta   90.00000000
_cell_angle_gamma   90.90470000
_symmetry_Int_Tables_number   1
_chemical_formula_structural   AlH11C15S2NO5
_chemical_formula_sum   'Al4 H44 C60 S8 N4 O20'
_cell_volume   1480.03287788
_cell_formula_units_Z   4
loop_
 _symmetry_equiv_pos_site_id
 _symmetry_equiv_pos_as_xyz
  1  'x, y, z'
loop_
 _atom_site_type_symbol
 _atom_site_label
 _atom_site_symmetry_multiplicity
 _atom_site_fract_x
 _atom_site_fract_y
 _atom_site_fract_z
 _atom_site_occupancy
  Al  Al0  1  0.99999000  0.99999000  0.00000000  1.0
  Al  Al1  1  0.50001000  0.50000000  0.50000000  1.0
  Al  Al2  1  0.50000000  0.99999000  0.00000000  1.0
  Al  Al3  1  0.00000000  0.50000000  0.50000000  1.0
  H  H4  1  0.25381000  0.11915000  0.02231000  1.0
  H  H5  1  0.24620000  0.38084000  0.52230000  1.0
  H  H6  1  0.74620000  0.88084000  0.97770000  1.0
  H  H7  1  0.75380000  0.61915000  0.47770000  1.0
  H  H8  1  0.56078000  0.72842000  0.65791000  1.0
  H  H9  1  0.93922000  0.77157000  0.15792000  1.0
  H  H10  1  0.43922000  0.27159000  0.34207000  1.0
  H  H11  1  0.06077000  0.22844000  0.84210000  1.0
  H  H12  1  0.55791000  0.84994000  0.77545000  1.0
  H  H13  1  0.94207000  0.65006000  0.27546000  1.0
  H  H14  1  0.44208000  0.15007000  0.22453000  1.0
  H  H15  1  0.05792000  0.34995000  0.72455000  1.0
  H  H16  1  0.93035000  0.67890000  0.69908000  1.0
  H  H17  1  0.56965000  0.82107000  0.19907000  1.0
  H  H18  1  0.06968000  0.32108000  0.30092000  1.0
  H  H19  1  0.43035000  0.17890000  0.80092000  1.0
  H  H20  1  0.92503000  0.80163000  0.81522000  1.0
  H  H21  1  0.57496000  0.69835000  0.31522000  1.0
  H  H22  1  0.07497000  0.19836000  0.18478000  1.0
  H  H23  1  0.42504000  0.30162000  0.68477000  1.0
  H  H24  1  0.76299000  0.08475000  0.39429000  1.0
  H  H25  1  0.73699000  0.41525000  0.89431000  1.0
  H  H26  1  0.23697000  0.91526000  0.60570000  1.0
  H  H27  1  0.26305000  0.58477000  0.10570000  1.0
  H  H28  1  0.25008000  0.91026000  0.32132000  1.0
  H  H29  1  0.24988000  0.58974000  0.82136000  1.0
  H  H30  1  0.74985000  0.08975000  0.67864000  1.0
  H  H31  1  0.75013000  0.41027000  0.17868000  1.0
  H  H32  1  0.48791000  0.00327000  0.40922000  1.0
  H  H33  1  0.01208000  0.49672000  0.90926000  1.0
  H  H34  1  0.51203000  0.99673000  0.59075000  1.0
  H  H35  1  0.98796000  0.50327000  0.09077000  1.0
  H  H36  1  0.84264000  0.86557000  0.31300000  1.0
  H  H37  1  0.65734000  0.63443000  0.81301000  1.0
  H  H38  1  0.15732000  0.13444000  0.68700000  1.0
  H  H39  1  0.34268000  0.36559000  0.18700000  1.0
  H  H40  1  0.90303000  0.93815000  0.22308000  1.0
  H  H41  1  0.59696000  0.56183000  0.72310000  1.0
  H  H42  1  0.09694000  0.06185000  0.77691000  1.0
  H  H43  1  0.40305000  0.43817000  0.27692000  1.0
  H  H44  1  0.69746000  0.96387000  0.29321000  1.0
  H  H45  1  0.80252000  0.53613000  0.79325000  1.0
  H  H46  1  0.30250000  0.03614000  0.70676000  1.0
  H  H47  1  0.19749000  0.46389000  0.20678000  1.0
  C  C48  1  0.24673000  0.62128000  0.60767000  1.0
  C  C49  1  0.25325000  0.87870000  0.10766000  1.0
  C  C50  1  0.75327000  0.37871000  0.39234000  1.0
  C  C51  1  0.74673000  0.12129000  0.89234000  1.0
  C  C52  1  0.24596000  0.69675000  0.67323000  1.0
  C  C53  1  0.25404000  0.80323000  0.17322000  1.0
  C  C54  1  0.75406000  0.30324000  0.32677000  1.0
  C  C55  1  0.74596000  0.19676000  0.82678000  1.0
  C  C56  1  0.42325000  0.74531000  0.69288000  1.0
  C  C57  1  0.07674000  0.75468000  0.19288000  1.0
  C  C58  1  0.57674000  0.25469000  0.30710000  1.0
  C  C59  1  0.92325000  0.24532000  0.80712000  1.0
  C  C60  1  0.24096000  0.89954000  0.87435000  1.0
  C  C61  1  0.25905000  0.60046000  0.37436000  1.0
  C  C62  1  0.75904000  0.10045000  0.12564000  1.0
  C  C63  1  0.74097000  0.39955000  0.62564000  1.0
  C  C64  1  0.24140000  0.83201000  0.80134000  1.0
  C  C65  1  0.25858000  0.66798000  0.30134000  1.0
  C  C66  1  0.75860000  0.16799000  0.19866000  1.0
  C  C67  1  0.74140000  0.33200000  0.69866000  1.0
  C  C68  1  0.42140000  0.81255000  0.75742000  1.0
  C  C69  1  0.07858000  0.68744000  0.25742000  1.0
  C  C70  1  0.57860000  0.18746000  0.24257000  1.0
  C  C71  1  0.92141000  0.31255000  0.74259000  1.0
  C  C72  1  0.06560000  0.71758000  0.71619000  1.0
  C  C73  1  0.43440000  0.78240000  0.21619000  1.0
  C  C74  1  0.93441000  0.28241000  0.28381000  1.0
  C  C75  1  0.56561000  0.21759000  0.78381000  1.0
  C  C76  1  0.06275000  0.78542000  0.77988000  1.0
  C  C77  1  0.43725000  0.71456000  0.27988000  1.0
  C  C78  1  0.93726000  0.21457000  0.22011000  1.0
  C  C79  1  0.56276000  0.28542000  0.72011000  1.0
  C  C80  1  0.05305000  0.11703000  0.45095000  1.0
  C  C81  1  0.44695000  0.38296000  0.95097000  1.0
  C  C82  1  0.94692000  0.88297000  0.54904000  1.0
  C  C83  1  0.55310000  0.61704000  0.04904000  1.0
  C  C84  1  0.91994000  0.06525000  0.39903000  1.0
  C  C85  1  0.58006000  0.43475000  0.89905000  1.0
  C  C86  1  0.08002000  0.93476000  0.60096000  1.0
  C  C87  1  0.41999000  0.56525000  0.10096000  1.0
  C  C88  1  0.98970000  0.99114000  0.35076000  1.0
  C  C89  1  0.51028000  0.50887000  0.85079000  1.0
  C  C90  1  0.01025000  0.00888000  0.64922000  1.0
  C  C91  1  0.48975000  0.49115000  0.14924000  1.0
  C  C92  1  0.19451000  0.96879000  0.35741000  1.0
  C  C93  1  0.30545000  0.53122000  0.85745000  1.0
  C  C94  1  0.80542000  0.03122000  0.64256000  1.0
  C  C95  1  0.69456000  0.46880000  0.14259000  1.0
  C  C96  1  0.33006000  0.02144000  0.40673000  1.0
  C  C97  1  0.16993000  0.47856000  0.90677000  1.0
  C  C98  1  0.66990000  0.97857000  0.59325000  1.0
  C  C99  1  0.83010000  0.52144000  0.09327000  1.0
  C  C100  1  0.26056000  0.09713000  0.45287000  1.0
  C  C101  1  0.23944000  0.40288000  0.95290000  1.0
  C  C102  1  0.73939000  0.90288000  0.54712000  1.0
  C  C103  1  0.76062000  0.59713000  0.04712000  1.0
  C  C104  1  0.85031000  0.93702000  0.29210000  1.0
  C  C105  1  0.64966000  0.56298000  0.79212000  1.0
  C  C106  1  0.14963000  0.06299000  0.70788000  1.0
  C  C107  1  0.35036000  0.43704000  0.20790000  1.0
  S  S108  1  0.99163000  0.20710000  0.51859000  1.0
  S  S109  1  0.50838000  0.29291000  0.01861000  1.0
  S  S110  1  0.00833000  0.79292000  0.48140000  1.0
  S  S111  1  0.49169000  0.70709000  0.98140000  1.0
  S  S112  1  0.39979000  0.17426000  0.51600000  1.0
  S  S113  1  0.10023000  0.32575000  0.01604000  1.0
  S  S114  1  0.60018000  0.82575000  0.48398000  1.0
  S  S115  1  0.89985000  0.67425000  0.98398000  1.0
  N  N116  1  0.21774000  0.24249000  0.54914000  1.0
  N  N117  1  0.28228000  0.25751000  0.04916000  1.0
  N  N118  1  0.78223000  0.75752000  0.45085000  1.0
  N  N119  1  0.71779000  0.74248000  0.95085000  1.0
  O  O120  1  0.25132000  0.05507000  0.00498000  1.0
  O  O121  1  0.24868000  0.44492000  0.50497000  1.0
  O  O122  1  0.74867000  0.94492000  0.99502000  1.0
  O  O123  1  0.75133000  0.55508000  0.49503000  1.0
  O  O124  1  0.07177000  0.93077000  0.89768000  1.0
  O  O125  1  0.42822000  0.56922000  0.39768000  1.0
  O  O126  1  0.92823000  0.06922000  0.10232000  1.0
  O  O127  1  0.57178000  0.43077000  0.60233000  1.0
  O  O128  1  0.07671000  0.58540000  0.58946000  1.0
  O  O129  1  0.42329000  0.91459000  0.08946000  1.0
  O  O130  1  0.92330000  0.41460000  0.41054000  1.0
  O  O131  1  0.57671000  0.08540000  0.91054000  1.0
  O  O132  1  0.41048000  0.91861000  0.90929000  1.0
  O  O133  1  0.08950000  0.58139000  0.40930000  1.0
  O  O134  1  0.58951000  0.08138000  0.09070000  1.0
  O  O135  1  0.91050000  0.41861000  0.59070000  1.0
  O  O136  1  0.41567000  0.59908000  0.57510000  1.0
  O  O137  1  0.08434000  0.90090000  0.07509000  1.0
  O  O138  1  0.58436000  0.40091000  0.42490000  1.0
  O  O139  1  0.91567000  0.09909000  0.92491000  1.0
