# generated using pymatgen
data_AgH6C12N5O3
_symmetry_space_group_name_H-M   'P 1'
_cell_length_a   7.51346000
_cell_length_b   8.15696000
_cell_length_c   20.08520000
_cell_angle_alpha   93.83920000
_cell_angle_beta   89.99980000
_cell_angle_gamma   89.99980000
_symmetry_Int_Tables_number   1
_chemical_formula_structural   AgH6C12N5O3
_chemical_formula_sum   'Ag4 H24 C48 N20 O12'
_cell_volume   1228.19909509
_cell_formula_units_Z   4
loop_
 _symmetry_equiv_pos_site_id
 _symmetry_equiv_pos_as_xyz
  1  'x, y, z'
loop_
 _atom_site_type_symbol
 _atom_site_label
 _atom_site_symmetry_multiplicity
 _atom_site_fract_x
 _atom_site_fract_y
 _atom_site_fract_z
 _atom_site_occupancy
  Ag  Ag0  1  0.58991000  0.68665000  0.92489000  1.0
  Ag  Ag1  1  0.91008000  0.18665000  0.42489000  1.0
  Ag  Ag2  1  0.41008000  0.31335000  0.07511000  1.0
  Ag  Ag3  1  0.08992000  0.81335000  0.57511000  1.0
  H  H4  1  0.74683000  0.83305000  0.06325000  1.0
  H  H5  1  0.75316000  0.33305000  0.56325000  1.0
  H  H6  1  0.25317000  0.16695000  0.93675000  1.0
  H  H7  1  0.24684000  0.66695000  0.43675000  1.0
  H  H8  1  0.93421000  0.32846000  0.04374000  1.0
  H  H9  1  0.56579000  0.82846000  0.54374000  1.0
  H  H10  1  0.06579000  0.67154000  0.95627000  1.0
  H  H11  1  0.43421000  0.17154000  0.45627000  1.0
  H  H12  1  0.79712000  0.31740000  0.93132000  1.0
  H  H13  1  0.70288000  0.81741000  0.43132000  1.0
  H  H14  1  0.20288000  0.68260000  0.06868000  1.0
  H  H15  1  0.29712000  0.18260000  0.56868000  1.0
  H  H16  1  0.63375000  0.31040000  0.84938000  1.0
  H  H17  1  0.86625000  0.81040000  0.34938000  1.0
  H  H18  1  0.36625000  0.68960000  0.15062000  1.0
  H  H19  1  0.13375000  0.18960000  0.65062000  1.0
  H  H20  1  0.50440000  0.26737000  0.73589000  1.0
  H  H21  1  0.99560000  0.76738000  0.23590000  1.0
  H  H22  1  0.49560000  0.73262000  0.26410000  1.0
  H  H23  1  0.00440000  0.23263000  0.76411000  1.0
  H  H24  1  0.44201000  0.75272000  0.77301000  1.0
  H  H25  1  0.05800000  0.25272000  0.27301000  1.0
  H  H26  1  0.55800000  0.24728000  0.22699000  1.0
  H  H27  1  0.94201000  0.74729000  0.72699000  1.0
  C  C28  1  0.75709000  0.94267000  0.03505000  1.0
  C  C29  1  0.74291000  0.44268000  0.53505000  1.0
  C  C30  1  0.24291000  0.05733000  0.96495000  1.0
  C  C31  1  0.25709000  0.55732000  0.46495000  1.0
  C  C32  1  0.84650000  0.08262000  0.06271000  1.0
  C  C33  1  0.65350000  0.58262000  0.56271000  1.0
  C  C34  1  0.15350000  0.91738000  0.93729000  1.0
  C  C35  1  0.34650000  0.41738000  0.43729000  1.0
  C  C36  1  0.86190000  0.21967000  0.02455000  1.0
  C  C37  1  0.63810000  0.71967000  0.52455000  1.0
  C  C38  1  0.13810000  0.78033000  0.97545000  1.0
  C  C39  1  0.36191000  0.28033000  0.47545000  1.0
  C  C40  1  0.78529000  0.21206000  0.96143000  1.0
  C  C41  1  0.71472000  0.71206000  0.46143000  1.0
  C  C42  1  0.21472000  0.78794000  0.03857000  1.0
  C  C43  1  0.28529000  0.28794000  0.53857000  1.0
  C  C44  1  0.69721000  0.06857000  0.93710000  1.0
  C  C45  1  0.80279000  0.56857000  0.43710000  1.0
  C  C46  1  0.30279000  0.93143000  0.06290000  1.0
  C  C47  1  0.19722000  0.43143000  0.56290000  1.0
  C  C48  1  0.61406000  0.05311000  0.86996000  1.0
  C  C49  1  0.88595000  0.55311000  0.36996000  1.0
  C  C50  1  0.38594000  0.94689000  0.13004000  1.0
  C  C51  1  0.11406000  0.44689000  0.63004000  1.0
  C  C52  1  0.59372000  0.18786000  0.83072000  1.0
  C  C53  1  0.90628000  0.68786000  0.33072000  1.0
  C  C54  1  0.40628000  0.81214000  0.16928000  1.0
  C  C55  1  0.09372000  0.31214000  0.66928000  1.0
  C  C56  1  0.51913000  0.16494000  0.76756000  1.0
  C  C57  1  0.98087000  0.66494000  0.26756000  1.0
  C  C58  1  0.48087000  0.83506000  0.23243000  1.0
  C  C59  1  0.01913000  0.33506000  0.73244000  1.0
  C  C60  1  0.46498000  0.00578000  0.74544000  1.0
  C  C61  1  0.03502000  0.50578000  0.24544000  1.0
  C  C62  1  0.53502000  0.99422000  0.25456000  1.0
  C  C63  1  0.96498000  0.49422000  0.75456000  1.0
  C  C64  1  0.48477000  0.87733000  0.78825000  1.0
  C  C65  1  0.01523000  0.37733000  0.28825000  1.0
  C  C66  1  0.51523000  0.12267000  0.21175000  1.0
  C  C67  1  0.98477000  0.62267000  0.71175000  1.0
  C  C68  1  0.91964000  0.07523000  0.12779000  1.0
  C  C69  1  0.58036000  0.57523000  0.62779000  1.0
  C  C70  1  0.08036000  0.92477000  0.87221000  1.0
  C  C71  1  0.41964000  0.42476000  0.37221000  1.0
  C  C72  1  0.39062000  0.97137000  0.68124000  1.0
  C  C73  1  0.10938000  0.47137000  0.18125000  1.0
  C  C74  1  0.60937000  0.02863000  0.31875000  1.0
  C  C75  1  0.89062000  0.52863000  0.81876000  1.0
  N  N76  1  0.68609000  0.93606000  0.97413000  1.0
  N  N77  1  0.81391000  0.43606000  0.47413000  1.0
  N  N78  1  0.31391000  0.06394000  0.02587000  1.0
  N  N79  1  0.18609000  0.56394000  0.52587000  1.0
  N  N80  1  0.55747000  0.90166000  0.84842000  1.0
  N  N81  1  0.94254000  0.40166000  0.34843000  1.0
  N  N82  1  0.44254000  0.09834000  0.15157000  1.0
  N  N83  1  0.05746000  0.59834000  0.65158000  1.0
  N  N84  1  0.97806000  0.05861000  0.18081000  1.0
  N  N85  1  0.52194000  0.55861000  0.68081000  1.0
  N  N86  1  0.02194000  0.94139000  0.81919000  1.0
  N  N87  1  0.47806000  0.44139000  0.31919000  1.0
  N  N88  1  0.32695000  0.94093000  0.62874000  1.0
  N  N89  1  0.17305000  0.44093000  0.12874000  1.0
  N  N90  1  0.67305000  0.05907000  0.37126000  1.0
  N  N91  1  0.82695000  0.55907000  0.87126000  1.0
  N  N92  1  0.29584000  0.45768000  0.88458000  1.0
  N  N93  1  0.20416000  0.95768000  0.38458000  1.0
  N  N94  1  0.70416000  0.54232000  0.11542000  1.0
  N  N95  1  0.79584000  0.04232000  0.61542000  1.0
  O  O96  1  0.40241000  0.45977000  0.93543000  1.0
  O  O97  1  0.09758000  0.95977000  0.43543000  1.0
  O  O98  1  0.59758000  0.54022000  0.06457000  1.0
  O  O99  1  0.90242000  0.04022000  0.56457000  1.0
  O  O100  1  0.30804000  0.56897000  0.84431000  1.0
  O  O101  1  0.19196000  0.06897000  0.34431000  1.0
  O  O102  1  0.69196000  0.43103000  0.15569000  1.0
  O  O103  1  0.80804000  0.93103000  0.65569000  1.0
  O  O104  1  0.18259000  0.34445000  0.87688000  1.0
  O  O105  1  0.31741000  0.84445000  0.37688000  1.0
  O  O106  1  0.81741000  0.65555000  0.12312000  1.0
  O  O107  1  0.68259000  0.15555000  0.62312000  1.0
