# generated using pymatgen
data_ZnCr2H22C32(NO5)2
_symmetry_space_group_name_H-M   'P 1'
_cell_length_a   6.07792000
_cell_length_b   22.14300000
_cell_length_c   28.74090000
_cell_angle_alpha   89.99940000
_cell_angle_beta   90.00030000
_cell_angle_gamma   89.99950000
_symmetry_Int_Tables_number   1
_chemical_formula_structural   ZnCr2H22C32(NO5)2
_chemical_formula_sum   'Zn4 Cr8 H88 C128 N8 O40'
_cell_volume   3868.04753941
_cell_formula_units_Z   4
loop_
 _symmetry_equiv_pos_site_id
 _symmetry_equiv_pos_as_xyz
  1  'x, y, z'
loop_
 _atom_site_type_symbol
 _atom_site_label
 _atom_site_symmetry_multiplicity
 _atom_site_fract_x
 _atom_site_fract_y
 _atom_site_fract_z
 _atom_site_occupancy
  Zn  Zn0  1  0.85322000  0.12204000  0.10274000  1.0
  Zn  Zn1  1  0.14678000  0.87796000  0.60274000  1.0
  Zn  Zn2  1  0.35322000  0.37796000  0.60275000  1.0
  Zn  Zn3  1  0.64679000  0.62204000  0.10275000  1.0
  Cr  Cr4  1  0.17210000  0.04992000  0.28710000  1.0
  Cr  Cr5  1  0.82792000  0.95008000  0.78710000  1.0
  Cr  Cr6  1  0.67206000  0.45008000  0.78711000  1.0
  Cr  Cr7  1  0.32801000  0.54992000  0.28711000  1.0
  Cr  Cr8  1  0.11709000  0.20316000  0.91539000  1.0
  Cr  Cr9  1  0.88285000  0.79683000  0.41540000  1.0
  Cr  Cr10  1  0.61710000  0.29683000  0.41540000  1.0
  Cr  Cr11  1  0.38289000  0.70316000  0.91540000  1.0
  H  H12  1  0.39668000  0.07435000  0.19577000  1.0
  H  H13  1  0.60336000  0.92566000  0.69577000  1.0
  H  H14  1  0.89659000  0.42566000  0.69578000  1.0
  H  H15  1  0.10345000  0.57434000  0.19578000  1.0
  H  H16  1  0.65139000  0.06531000  0.26387000  1.0
  H  H17  1  0.34863000  0.93470000  0.76387000  1.0
  H  H18  1  0.15135000  0.43470000  0.76387000  1.0
  H  H19  1  0.84872000  0.56529000  0.26388000  1.0
  H  H20  1  0.54310000  0.10777000  0.34127000  1.0
  H  H21  1  0.45690000  0.89224000  0.84126000  1.0
  H  H22  1  0.04311000  0.39224000  0.84127000  1.0
  H  H23  1  0.95696000  0.60776000  0.34128000  1.0
  H  H24  1  0.17617000  0.15835000  0.35025000  1.0
  H  H25  1  0.82382000  0.84165000  0.85025000  1.0
  H  H26  1  0.67619000  0.34165000  0.85026000  1.0
  H  H27  1  0.32387000  0.65835000  0.35026000  1.0
  H  H28  1  0.92316000  0.16797000  0.28172000  1.0
  H  H29  1  0.07685000  0.83203000  0.78173000  1.0
  H  H30  1  0.42315000  0.33203000  0.78174000  1.0
  H  H31  1  0.57690000  0.66797000  0.28174000  1.0
  H  H32  1  0.36166000  0.17557000  0.00509000  1.0
  H  H33  1  0.63830000  0.82444000  0.50510000  1.0
  H  H34  1  0.86168000  0.32443000  0.50509000  1.0
  H  H35  1  0.13831000  0.67557000  0.00509000  1.0
  H  H36  1  0.60129000  0.18816000  0.93500000  1.0
  H  H37  1  0.39867000  0.81185000  0.43500000  1.0
  H  H38  1  0.10130000  0.31184000  0.43500000  1.0
  H  H39  1  0.89869000  0.68815000  0.93500000  1.0
  H  H40  1  0.47780000  0.14818000  0.85775000  1.0
  H  H41  1  0.52216000  0.85182000  0.35776000  1.0
  H  H42  1  0.97779000  0.35183000  0.35775000  1.0
  H  H43  1  0.02220000  0.64817000  0.85775000  1.0
  H  H44  1  0.11570000  0.09614000  0.85076000  1.0
  H  H45  1  0.88427000  0.90385000  0.35075000  1.0
  H  H46  1  0.61567000  0.40385000  0.35076000  1.0
  H  H47  1  0.38431000  0.59614000  0.85076000  1.0
  H  H48  1  0.87275000  0.08424000  0.92163000  1.0
  H  H49  1  0.12721000  0.91576000  0.42163000  1.0
  H  H50  1  0.37274000  0.41575000  0.42164000  1.0
  H  H51  1  0.62723000  0.58424000  0.92164000  1.0
  H  H52  1  0.84745000  0.01024000  0.15768000  1.0
  H  H53  1  0.15256000  0.98976000  0.65767000  1.0
  H  H54  1  0.34743000  0.48976000  0.65768000  1.0
  H  H55  1  0.65258000  0.51024000  0.15768000  1.0
  H  H56  1  0.60457000  0.92145000  0.17004000  1.0
  H  H57  1  0.39544000  0.07855000  0.67004000  1.0
  H  H58  1  0.10455000  0.57855000  0.67004000  1.0
  H  H59  1  0.89545000  0.42145000  0.17004000  1.0
  H  H60  1  0.16872000  0.99633000  0.06581000  1.0
  H  H61  1  0.83127000  0.00367000  0.56580000  1.0
  H  H62  1  0.66871000  0.50367000  0.56581000  1.0
  H  H63  1  0.33127000  0.49633000  0.06580000  1.0
  H  H64  1  0.43141000  0.08170000  0.05739000  1.0
  H  H65  1  0.56859000  0.91830000  0.55739000  1.0
  H  H66  1  0.93140000  0.41830000  0.55739000  1.0
  H  H67  1  0.06861000  0.58171000  0.05740000  1.0
  H  H68  1  0.04562000  0.90967000  0.11762000  1.0
  H  H69  1  0.95438000  0.09034000  0.61762000  1.0
  H  H70  1  0.54561000  0.59033000  0.61761000  1.0
  H  H71  1  0.45438000  0.40966000  0.11762000  1.0
  H  H72  1  0.23297000  0.87646000  0.15730000  1.0
  H  H73  1  0.76703000  0.12354000  0.65729000  1.0
  H  H74  1  0.73293000  0.62354000  0.65729000  1.0
  H  H75  1  0.26702000  0.37646000  0.15729000  1.0
  H  H76  1  0.26589000  0.86853000  0.05041000  1.0
  H  H77  1  0.73409000  0.13148000  0.55041000  1.0
  H  H78  1  0.76591000  0.63148000  0.55041000  1.0
  H  H79  1  0.23411000  0.36852000  0.05041000  1.0
  H  H80  1  0.45233000  0.83500000  0.09014000  1.0
  H  H81  1  0.54766000  0.16500000  0.59013000  1.0
  H  H82  1  0.95232000  0.66500000  0.59014000  1.0
  H  H83  1  0.04767000  0.33500000  0.09013000  1.0
  H  H84  1  0.06724000  0.66158000  0.14754000  1.0
  H  H85  1  0.93277000  0.33842000  0.64755000  1.0
  H  H86  1  0.56721000  0.83842000  0.64755000  1.0
  H  H87  1  0.43279000  0.16158000  0.14755000  1.0
  H  H88  1  0.33099000  0.74678000  0.14013000  1.0
  H  H89  1  0.66902000  0.25321000  0.64014000  1.0
  H  H90  1  0.83097000  0.75321000  0.64014000  1.0
  H  H91  1  0.16904000  0.24679000  0.14014000  1.0
  H  H92  1  0.89151000  0.82504000  0.03814000  1.0
  H  H93  1  0.10847000  0.17497000  0.53814000  1.0
  H  H94  1  0.39152000  0.67497000  0.53814000  1.0
  H  H95  1  0.60847000  0.32503000  0.03814000  1.0
  H  H96  1  0.64847000  0.73595000  0.04917000  1.0
  H  H97  1  0.35152000  0.26406000  0.54917000  1.0
  H  H98  1  0.14846000  0.76406000  0.54917000  1.0
  H  H99  1  0.85152000  0.23594000  0.04916000  1.0
  C  C100  1  0.14501000  0.12294000  0.23423000  1.0
  C  C101  1  0.85500000  0.87706000  0.73423000  1.0
  C  C102  1  0.64497000  0.37706000  0.73424000  1.0
  C  C103  1  0.35508000  0.62294000  0.23425000  1.0
  C  C104  1  0.35307000  0.09398000  0.22914000  1.0
  C  C105  1  0.64696000  0.90604000  0.72914000  1.0
  C  C106  1  0.85301000  0.40603000  0.72915000  1.0
  C  C107  1  0.14704000  0.59396000  0.22915000  1.0
  C  C108  1  0.49510000  0.08877000  0.26754000  1.0
  C  C109  1  0.50492000  0.91124000  0.76753000  1.0
  C  C110  1  0.99505000  0.41124000  0.76754000  1.0
  C  C111  1  0.00500000  0.58876000  0.26754000  1.0
  C  C112  1  0.43451000  0.11313000  0.31147000  1.0
  C  C113  1  0.56550000  0.88688000  0.81146000  1.0
  C  C114  1  0.93449000  0.38688000  0.81147000  1.0
  C  C115  1  0.06556000  0.61312000  0.31148000  1.0
  C  C116  1  0.22891000  0.14162000  0.31652000  1.0
  C  C117  1  0.77109000  0.85838000  0.81652000  1.0
  C  C118  1  0.72891000  0.35838000  0.81653000  1.0
  C  C119  1  0.27114000  0.64161000  0.31653000  1.0
  C  C120  1  0.08395000  0.14693000  0.27800000  1.0
  C  C121  1  0.91606000  0.85307000  0.77801000  1.0
  C  C122  1  0.58393000  0.35307000  0.77802000  1.0
  C  C123  1  0.41612000  0.64693000  0.27802000  1.0
  C  C124  1  0.98896000  0.12844000  0.19358000  1.0
  C  C125  1  0.01105000  0.87156000  0.69358000  1.0
  C  C126  1  0.48892000  0.37155000  0.69359000  1.0
  C  C127  1  0.51113000  0.62845000  0.19359000  1.0
  C  C128  1  0.97448000  0.03775000  0.33398000  1.0
  C  C129  1  0.02557000  0.96225000  0.83398000  1.0
  C  C130  1  0.47443000  0.46225000  0.83399000  1.0
  C  C131  1  0.52571000  0.53776000  0.33399000  1.0
  C  C132  1  0.01742000  0.99700000  0.25171000  1.0
  C  C133  1  0.98259000  0.00300000  0.75171000  1.0
  C  C134  1  0.51739000  0.50300000  0.75171000  1.0
  C  C135  1  0.48263000  0.49699000  0.25172000  1.0
  C  C136  1  0.32212000  0.98320000  0.30571000  1.0
  C  C137  1  0.67787000  0.01681000  0.80571000  1.0
  C  C138  1  0.82210000  0.51681000  0.80571000  1.0
  C  C139  1  0.17797000  0.48319000  0.30573000  1.0
  C  C140  1  0.10309000  0.12845000  0.96765000  1.0
  C  C141  1  0.89688000  0.87155000  0.46766000  1.0
  C  C142  1  0.60310000  0.37154000  0.46766000  1.0
  C  C143  1  0.39688000  0.62845000  0.96766000  1.0
  C  C144  1  0.31100000  0.15767000  0.97158000  1.0
  C  C145  1  0.68896000  0.84234000  0.47158000  1.0
  C  C146  1  0.81100000  0.34233000  0.47158000  1.0
  C  C147  1  0.18898000  0.65766000  0.97158000  1.0
  C  C148  1  0.44484000  0.16462000  0.93211000  1.0
  C  C149  1  0.55513000  0.83539000  0.43212000  1.0
  C  C150  1  0.94484000  0.33538000  0.43211000  1.0
  C  C151  1  0.05515000  0.66461000  0.93211000  1.0
  C  C152  1  0.37606000  0.14160000  0.88834000  1.0
  C  C153  1  0.62389000  0.85840000  0.38834000  1.0
  C  C154  1  0.87605000  0.35840000  0.38834000  1.0
  C  C155  1  0.12393000  0.64160000  0.88834000  1.0
  C  C156  1  0.17110000  0.11238000  0.88450000  1.0
  C  C157  1  0.82886000  0.88762000  0.38450000  1.0
  C  C158  1  0.67109000  0.38762000  0.38450000  1.0
  C  C159  1  0.32889000  0.61237000  0.88450000  1.0
  C  C160  1  0.03357000  0.10564000  0.92410000  1.0
  C  C161  1  0.96638000  0.89436000  0.42410000  1.0
  C  C162  1  0.53357000  0.39436000  0.42410000  1.0
  C  C163  1  0.46641000  0.60563000  0.92411000  1.0
  C  C164  1  0.95744000  0.12098000  0.00977000  1.0
  C  C165  1  0.04253000  0.87902000  0.50977000  1.0
  C  C166  1  0.45744000  0.37902000  0.50977000  1.0
  C  C167  1  0.54256000  0.62098000  0.00978000  1.0
  C  C168  1  0.96623000  0.25555000  0.95198000  1.0
  C  C169  1  0.03370000  0.74445000  0.45199000  1.0
  C  C170  1  0.46624000  0.24445000  0.45199000  1.0
  C  C171  1  0.53374000  0.75555000  0.95199000  1.0
  C  C172  1  0.25490000  0.27075000  0.89466000  1.0
  C  C173  1  0.74503000  0.72925000  0.39466000  1.0
  C  C174  1  0.75491000  0.22925000  0.39466000  1.0
  C  C175  1  0.24508000  0.77074000  0.89465000  1.0
  C  C176  1  0.91325000  0.21461000  0.86988000  1.0
  C  C177  1  0.08668000  0.78538000  0.36988000  1.0
  C  C178  1  0.41327000  0.28539000  0.36988000  1.0
  C  C179  1  0.58673000  0.71461000  0.86988000  1.0
  C  C180  1  0.69659000  0.00482000  0.13770000  1.0
  C  C181  1  0.30342000  0.99517000  0.63770000  1.0
  C  C182  1  0.19657000  0.49517000  0.63770000  1.0
  C  C183  1  0.80343000  0.50483000  0.13770000  1.0
  C  C184  1  0.55976000  0.95535000  0.14421000  1.0
  C  C185  1  0.44024000  0.04465000  0.64420000  1.0
  C  C186  1  0.05975000  0.54465000  0.64421000  1.0
  C  C187  1  0.94025000  0.45535000  0.14421000  1.0
  C  C188  1  0.36555000  0.95056000  0.11817000  1.0
  C  C189  1  0.63444000  0.04944000  0.61816000  1.0
  C  C190  1  0.86554000  0.54944000  0.61816000  1.0
  C  C191  1  0.13444000  0.45056000  0.11816000  1.0
  C  C192  1  0.31879000  0.99701000  0.08661000  1.0
  C  C193  1  0.68120000  0.00300000  0.58661000  1.0
  C  C194  1  0.81878000  0.50299000  0.58661000  1.0
  C  C195  1  0.18122000  0.49701000  0.08661000  1.0
  C  C196  1  0.46352000  0.04513000  0.08174000  1.0
  C  C197  1  0.53647000  0.95487000  0.58173000  1.0
  C  C198  1  0.96351000  0.45487000  0.58173000  1.0
  C  C199  1  0.03649000  0.54513000  0.08174000  1.0
  C  C200  1  0.21857000  0.89638000  0.12237000  1.0
  C  C201  1  0.78142000  0.10363000  0.62237000  1.0
  C  C202  1  0.71856000  0.60362000  0.62237000  1.0
  C  C203  1  0.28142000  0.39637000  0.12237000  1.0
  C  C204  1  0.27954000  0.84839000  0.08527000  1.0
  C  C205  1  0.72045000  0.15162000  0.58527000  1.0
  C  C206  1  0.77954000  0.65161000  0.58528000  1.0
  C  C207  1  0.22046000  0.34839000  0.08527000  1.0
  C  C208  1  0.03424000  0.69885000  0.12396000  1.0
  C  C209  1  0.96578000  0.30114000  0.62397000  1.0
  C  C210  1  0.53422000  0.80114000  0.62397000  1.0
  C  C211  1  0.46580000  0.19886000  0.12396000  1.0
  C  C212  1  0.17994000  0.74685000  0.11964000  1.0
  C  C213  1  0.82005000  0.25315000  0.61964000  1.0
  C  C214  1  0.67993000  0.75315000  0.61964000  1.0
  C  C215  1  0.32006000  0.24685000  0.11965000  1.0
  C  C216  1  0.13211000  0.79425000  0.08904000  1.0
  C  C217  1  0.86788000  0.20575000  0.58904000  1.0
  C  C218  1  0.63211000  0.70575000  0.58904000  1.0
  C  C219  1  0.36790000  0.29425000  0.08903000  1.0
  C  C220  1  0.93677000  0.79039000  0.06330000  1.0
  C  C221  1  0.06321000  0.20962000  0.56330000  1.0
  C  C222  1  0.43677000  0.70962000  0.56330000  1.0
  C  C223  1  0.56321000  0.29038000  0.06330000  1.0
  C  C224  1  0.79981000  0.74077000  0.06909000  1.0
  C  C225  1  0.20018000  0.25924000  0.56909000  1.0
  C  C226  1  0.29982000  0.75923000  0.56909000  1.0
  C  C227  1  0.70019000  0.24076000  0.06908000  1.0
  N  N228  1  0.65023000  0.04896000  0.10689000  1.0
  N  N229  1  0.34977000  0.95104000  0.60689000  1.0
  N  N230  1  0.15023000  0.45104000  0.60689000  1.0
  N  N231  1  0.84979000  0.54897000  0.10689000  1.0
  N  N232  1  0.84665000  0.69583000  0.09910000  1.0
  N  N233  1  0.15334000  0.30418000  0.59910000  1.0
  N  N234  1  0.34663000  0.80418000  0.59910000  1.0
  N  N235  1  0.65335000  0.19582000  0.09910000  1.0
  O  O236  1  0.06749000  0.10953000  0.15395000  1.0
  O  O237  1  0.93252000  0.89047000  0.65395000  1.0
  O  O238  1  0.56745000  0.39045000  0.65396000  1.0
  O  O239  1  0.43259000  0.60955000  0.15397000  1.0
  O  O240  1  0.80259000  0.15066000  0.19909000  1.0
  O  O241  1  0.19742000  0.84934000  0.69909000  1.0
  O  O242  1  0.30252000  0.34933000  0.69911000  1.0
  O  O243  1  0.69751000  0.65066000  0.19911000  1.0
  O  O244  1  0.84770000  0.03016000  0.36425000  1.0
  O  O245  1  0.15235000  0.96985000  0.86425000  1.0
  O  O246  1  0.34765000  0.46985000  0.86426000  1.0
  O  O247  1  0.65252000  0.53017000  0.36426000  1.0
  O  O248  1  0.92135000  0.96036000  0.22985000  1.0
  O  O249  1  0.07869000  0.03964000  0.72985000  1.0
  O  O250  1  0.42133000  0.53963000  0.72984000  1.0
  O  O251  1  0.57869000  0.46036000  0.22984000  1.0
  O  O252  1  0.41791000  0.93907000  0.31580000  1.0
  O  O253  1  0.58207000  0.06093000  0.81581000  1.0
  O  O254  1  0.91790000  0.56093000  0.81581000  1.0
  O  O255  1  0.08217000  0.43907000  0.31583000  1.0
  O  O256  1  0.05453000  0.13256000  0.04922000  1.0
  O  O257  1  0.94544000  0.86744000  0.54922000  1.0
  O  O258  1  0.55456000  0.36744000  0.54923000  1.0
  O  O259  1  0.44543000  0.63256000  0.04923000  1.0
  O  O260  1  0.76312000  0.10419000  0.00537000  1.0
  O  O261  1  0.23685000  0.89581000  0.50537000  1.0
  O  O262  1  0.26315000  0.39580000  0.50537000  1.0
  O  O263  1  0.73683000  0.60420000  0.00538000  1.0
  O  O264  1  0.87177000  0.29210000  0.97421000  1.0
  O  O265  1  0.12815000  0.70790000  0.47422000  1.0
  O  O266  1  0.37180000  0.20789000  0.47421000  1.0
  O  O267  1  0.62819000  0.79209000  0.97421000  1.0
  O  O268  1  0.33826000  0.31577000  0.88203000  1.0
  O  O269  1  0.66165000  0.68423000  0.38204000  1.0
  O  O270  1  0.83826000  0.18424000  0.38202000  1.0
  O  O271  1  0.16172000  0.81576000  0.88202000  1.0
  O  O272  1  0.78367000  0.22123000  0.83995000  1.0
  O  O273  1  0.21622000  0.77875000  0.33995000  1.0
  O  O274  1  0.28371000  0.27875000  0.33995000  1.0
  O  O275  1  0.71629000  0.72124000  0.83995000  1.0
