# generated using pymatgen
data_CuH8C6(N5O)2
_symmetry_space_group_name_H-M   'P 1'
_cell_length_a   7.09270000
_cell_length_b   8.17086000
_cell_length_c   9.04314000
_cell_angle_alpha   90.00010000
_cell_angle_beta   90.00030000
_cell_angle_gamma   101.81400000
_symmetry_Int_Tables_number   1
_chemical_formula_structural   CuH8C6(N5O)2
_chemical_formula_sum   'Cu2 H16 C12 N20 O4'
_cell_volume   512.97983307
_cell_formula_units_Z   2
loop_
 _symmetry_equiv_pos_site_id
 _symmetry_equiv_pos_as_xyz
  1  'x, y, z'
loop_
 _atom_site_type_symbol
 _atom_site_label
 _atom_site_symmetry_multiplicity
 _atom_site_fract_x
 _atom_site_fract_y
 _atom_site_fract_z
 _atom_site_occupancy
  Cu  Cu0  1  0.00000000  0.50000000  0.00000000  1.0
  Cu  Cu1  1  0.50000000  0.00000000  0.50000000  1.0
  H  H2  1  0.51531000  0.64566000  0.21839000  1.0
  H  H3  1  0.98469000  0.85435000  0.71839000  1.0
  H  H4  1  0.48469000  0.35434000  0.78161000  1.0
  H  H5  1  0.01531000  0.14566000  0.28161000  1.0
  H  H6  1  0.53729000  0.88383000  0.10293000  1.0
  H  H7  1  0.96271000  0.61617000  0.60292000  1.0
  H  H8  1  0.46271000  0.11617000  0.89708000  1.0
  H  H9  1  0.03729000  0.38383000  0.39707000  1.0
  H  H10  1  0.59384000  0.87300000  0.91065000  1.0
  H  H11  1  0.90616000  0.62700000  0.41065000  1.0
  H  H12  1  0.40616000  0.12700000  0.08935000  1.0
  H  H13  1  0.09384000  0.37300000  0.58935000  1.0
  H  H14  1  0.77593000  0.96484000  0.03785000  1.0
  H  H15  1  0.72408000  0.53516000  0.53785000  1.0
  H  H16  1  0.22407000  0.03516000  0.96215000  1.0
  H  H17  1  0.27593000  0.46484000  0.46215000  1.0
  C  C18  1  0.64719000  0.86569000  0.02361000  1.0
  C  C19  1  0.85282000  0.63432000  0.52361000  1.0
  C  C20  1  0.35282000  0.13431000  0.97639000  1.0
  C  C21  1  0.14718000  0.36569000  0.47639000  1.0
  C  C22  1  0.70444000  0.70162000  0.04377000  1.0
  C  C23  1  0.79556000  0.79838000  0.54377000  1.0
  C  C24  1  0.29556000  0.29838000  0.95623000  1.0
  C  C25  1  0.20444000  0.20162000  0.45623000  1.0
  C  C26  1  0.66123000  0.45195000  0.19469000  1.0
  C  C27  1  0.83877000  0.04805000  0.69469000  1.0
  C  C28  1  0.33877000  0.54805000  0.80531000  1.0
  C  C29  1  0.16123000  0.95195000  0.30531000  1.0
  N  N30  1  0.61816000  0.60331000  0.15505000  1.0
  N  N31  1  0.88184000  0.89669000  0.65505000  1.0
  N  N32  1  0.38184000  0.39669000  0.84495000  1.0
  N  N33  1  0.11816000  0.10331000  0.34495000  1.0
  N  N34  1  0.65150000  0.22040000  0.30415000  1.0
  N  N35  1  0.84850000  0.27960000  0.80415000  1.0
  N  N36  1  0.34850000  0.77960000  0.69585000  1.0
  N  N37  1  0.15150000  0.72040000  0.19585000  1.0
  N  N38  1  0.55816000  0.34813000  0.29307000  1.0
  N  N39  1  0.94184000  0.15188000  0.79307000  1.0
  N  N40  1  0.44184000  0.65187000  0.70693000  1.0
  N  N41  1  0.05816000  0.84813000  0.20693000  1.0
  N  N42  1  0.81295000  0.39179000  0.14554000  1.0
  N  N43  1  0.68705000  0.10821000  0.64554000  1.0
  N  N44  1  0.18705000  0.60821000  0.85446000  1.0
  N  N45  1  0.31295000  0.89179000  0.35446000  1.0
  N  N46  1  0.80314000  0.24449000  0.21663000  1.0
  N  N47  1  0.69686000  0.25551000  0.71663000  1.0
  N  N48  1  0.19686000  0.75551000  0.78337000  1.0
  N  N49  1  0.30314000  0.74449000  0.28337000  1.0
  O  O50  1  0.82603000  0.66012000  0.95751000  1.0
  O  O51  1  0.67397000  0.83988000  0.45751000  1.0
  O  O52  1  0.17397000  0.33988000  0.04250000  1.0
  O  O53  1  0.32603000  0.16012000  0.54249000  1.0
