# generated using pymatgen
data_CuP2H48Au2C39S2(NO2)2
_symmetry_space_group_name_H-M   'P 1'
_cell_length_a   7.87276000
_cell_length_b   14.23690000
_cell_length_c   21.35810000
_cell_angle_alpha   77.40190000
_cell_angle_beta   81.07440000
_cell_angle_gamma   75.80310000
_symmetry_Int_Tables_number   1
_chemical_formula_structural   CuP2H48Au2C39S2(NO2)2
_chemical_formula_sum   'Cu2 P4 H96 Au4 C78 S4 N4 O8'
_cell_volume   2251.79444585
_cell_formula_units_Z   2
loop_
 _symmetry_equiv_pos_site_id
 _symmetry_equiv_pos_as_xyz
  1  'x, y, z'
loop_
 _atom_site_type_symbol
 _atom_site_label
 _atom_site_symmetry_multiplicity
 _atom_site_fract_x
 _atom_site_fract_y
 _atom_site_fract_z
 _atom_site_occupancy
  Cu  Cu0  1  0.32789000  0.80729000  0.76501000  1.0
  Cu  Cu1  1  0.63577000  0.74881000  0.42153000  1.0
  P  P2  1  0.07193000  0.19047000  0.84682000  1.0
  P  P3  1  0.26375000  0.91301000  0.00170000  1.0
  P  P4  1  0.84757000  0.45540000  0.26048000  1.0
  P  P5  1  0.65814000  0.35228000  0.48153000  1.0
  H  H6  1  0.96170000  0.13716000  0.95720000  1.0
  H  H7  1  0.81419000  0.24278000  0.91912000  1.0
  H  H8  1  0.01921000  0.31680000  0.94758000  1.0
  H  H9  1  0.40859000  0.22683000  0.79324000  1.0
  H  H10  1  0.93688000  0.40595000  0.80918000  1.0
  H  H11  1  0.96083000  0.14063000  0.73808000  1.0
  H  H12  1  0.73760000  0.13240000  0.85200000  1.0
  H  H13  1  0.87558000  0.03038000  0.89565000  1.0
  H  H14  1  0.20790000  0.42169000  0.96802000  1.0
  H  H15  1  0.59305000  0.33267000  0.81379000  1.0
  H  H16  1  0.77323000  0.50602000  0.71614000  1.0
  H  H17  1  0.79567000  0.24083000  0.64683000  1.0
  H  H18  1  0.68512000  0.07241000  0.99938000  1.0
  H  H19  1  0.54032000  0.16258000  0.95005000  1.0
  H  H20  1  0.49010000  0.43039000  0.90286000  1.0
  H  H21  1  0.70200000  0.42337000  0.63704000  1.0
  H  H22  1  0.63313000  0.93898000  0.95286000  1.0
  H  H23  1  0.50630000  0.02451000  0.89563000  1.0
  H  H24  1  0.28046000  0.08320000  0.98166000  1.0
  H  H25  1  0.41342000  0.01084000  0.04184000  1.0
  H  H26  1  0.23176000  0.00135000  0.12037000  1.0
  H  H27  1  0.91352000  0.87533000  0.02719000  1.0
  H  H28  1  0.44968000  0.74797000  0.94076000  1.0
  H  H29  1  0.41541000  0.82964000  0.12735000  1.0
  H  H30  1  0.99178000  0.03257000  0.20437000  1.0
  H  H31  1  0.66788000  0.90831000  0.11278000  1.0
  H  H32  1  0.63689000  0.58885000  0.97988000  1.0
  H  H33  1  0.61936000  0.67076000  0.16421000  1.0
  H  H34  1  0.70090000  0.99172000  0.20064000  1.0
  H  H35  1  0.72673000  0.54905000  0.09202000  1.0
  H  H36  1  0.34965000  0.63216000  0.74684000  1.0
  H  H37  1  0.14535000  0.69094000  0.73398000  1.0
  H  H38  1  0.38445000  0.85295000  0.64049000  1.0
  H  H39  1  0.52606000  0.75116000  0.66415000  1.0
  H  H40  1  0.15102000  0.57556000  0.84040000  1.0
  H  H41  1  0.83198000  0.64739000  0.82760000  1.0
  H  H42  1  0.74281000  0.77342000  0.82933000  1.0
  H  H43  1  0.89118000  0.74057000  0.76282000  1.0
  H  H44  1  0.93336000  0.62660000  0.93871000  1.0
  H  H45  1  0.83794000  0.75382000  0.93643000  1.0
  H  H46  1  0.06226000  0.70463000  0.95237000  1.0
  H  H47  1  0.26687000  0.00189000  0.66574000  1.0
  H  H48  1  0.32065000  0.10317000  0.68725000  1.0
  H  H49  1  0.41637000  0.06517000  0.61257000  1.0
  H  H50  1  0.71493000  0.83304000  0.69172000  1.0
  H  H51  1  0.78518000  0.97927000  0.72171000  1.0
  H  H52  1  0.62330000  0.09200000  0.71791000  1.0
  H  H53  1  0.73002000  0.05082000  0.64539000  1.0
  H  H54  1  0.40900000  0.90504000  0.43244000  1.0
  H  H55  1  0.54222000  0.93659000  0.36750000  1.0
  H  H56  1  0.86656000  0.82632000  0.45730000  1.0
  H  H57  1  0.67253000  0.85951000  0.49904000  1.0
  H  H58  1  0.21610000  0.88484000  0.37228000  1.0
  H  H59  1  0.66729000  0.83313000  0.27648000  1.0
  H  H60  1  0.60756000  0.75707000  0.23178000  1.0
  H  H61  1  0.51298000  0.88654000  0.21897000  1.0
  H  H62  1  0.14476000  0.77070000  0.31349000  1.0
  H  H63  1  0.19388000  0.86060000  0.24508000  1.0
  H  H64  1  0.29342000  0.73228000  0.24763000  1.0
  H  H65  1  0.85776000  0.73933000  0.56943000  1.0
  H  H66  1  0.85447000  0.50960000  0.55906000  1.0
  H  H67  1  0.08578000  0.48518000  0.53402000  1.0
  H  H68  1  0.99856000  0.54917000  0.59868000  1.0
  H  H69  1  0.11810000  0.74190000  0.45633000  1.0
  H  H70  1  0.16655000  0.68153000  0.53562000  1.0
  H  H71  1  0.23053000  0.61782000  0.46993000  1.0
  H  H72  1  0.89296000  0.23669000  0.26799000  1.0
  H  H73  1  0.69374000  0.14274000  0.24319000  1.0
  H  H74  1  0.42455000  0.22858000  0.19176000  1.0
  H  H75  1  0.34650000  0.41406000  0.16602000  1.0
  H  H76  1  0.53096000  0.50922000  0.19792000  1.0
  H  H77  1  0.99691000  0.40910000  0.13088000  1.0
  H  H78  1  0.16465000  0.50194000  0.03797000  1.0
  H  H79  1  0.22653000  0.65878000  0.04568000  1.0
  H  H80  1  0.12318000  0.72942000  0.14606000  1.0
  H  H81  1  0.95421000  0.64000000  0.23800000  1.0
  H  H82  1  0.99524000  0.34289000  0.52111000  1.0
  H  H83  1  0.25512000  0.20795000  0.54471000  1.0
  H  H84  1  0.25371000  0.03578000  0.53624000  1.0
  H  H85  1  0.97786000  0.99986000  0.51095000  1.0
  H  H86  1  0.72050000  0.13268000  0.48759000  1.0
  H  H87  1  0.49074000  0.52806000  0.53601000  1.0
  H  H88  1  0.31025000  0.55393000  0.63667000  1.0
  H  H89  1  0.21686000  0.41088000  0.71488000  1.0
  H  H90  1  0.31120000  0.24342000  0.68919000  1.0
  H  H91  1  0.50673000  0.21431000  0.58917000  1.0
  H  H92  1  0.63605000  0.28466000  0.39088000  1.0
  H  H93  1  0.49073000  0.24603000  0.45815000  1.0
  H  H94  1  0.29530000  0.42139000  0.43982000  1.0
  H  H95  1  0.43635000  0.45006000  0.36916000  1.0
  H  H96  1  0.22418000  0.28780000  0.39894000  1.0
  H  H97  1  0.37780000  0.30301000  0.33017000  1.0
  H  H98  1  0.20430000  0.46631000  0.28794000  1.0
  H  H99  1  0.06389000  0.46875000  0.36074000  1.0
  H  H100  1  0.95631000  0.32447000  0.34568000  1.0
  H  H101  1  0.09775000  0.31867000  0.27255000  1.0
  Au  Au102  1  0.25413000  0.05305000  0.81766000  1.0
  Au  Au103  1  0.15978000  0.88780000  0.91369000  1.0
  Au  Au104  1  0.66254000  0.57052000  0.31371000  1.0
  Au  Au105  1  0.76484000  0.49123000  0.44509000  1.0
  C  C106  1  0.20107000  0.26533000  0.86850000  1.0
  C  C107  1  0.95713000  0.26688000  0.77975000  1.0
  C  C108  1  0.89817000  0.17055000  0.91269000  1.0
  C  C109  1  0.14521000  0.31945000  0.91840000  1.0
  C  C110  1  0.36378000  0.26996000  0.83149000  1.0
  C  C111  1  0.90493000  0.36985000  0.77374000  1.0
  C  C112  1  0.91765000  0.22054000  0.73382000  1.0
  C  C113  1  0.78891000  0.10320000  0.89919000  1.0
  C  C114  1  0.25135000  0.37756000  0.93049000  1.0
  C  C115  1  0.46834000  0.32876000  0.84348000  1.0
  C  C116  1  0.81357000  0.42584000  0.72214000  1.0
  C  C117  1  0.82539000  0.27677000  0.68263000  1.0
  C  C118  1  0.63611000  0.09137000  0.95158000  1.0
  C  C119  1  0.41251000  0.38242000  0.89322000  1.0
  C  C120  1  0.77389000  0.37909000  0.67685000  1.0
  C  C121  1  0.54269000  0.01206000  0.94507000  1.0
  C  C122  1  0.37815000  0.01363000  0.99344000  1.0
  C  C123  1  0.08944000  0.93692000  0.06669000  1.0
  C  C124  1  0.42032000  0.80079000  0.03114000  1.0
  C  C125  1  0.10880000  0.98121000  0.11717000  1.0
  C  C126  1  0.92902000  0.91073000  0.06587000  1.0
  C  C127  1  0.48617000  0.73277000  0.98987000  1.0
  C  C128  1  0.46875000  0.77847000  0.09422000  1.0
  C  C129  1  0.96995000  0.00044000  0.16516000  1.0
  C  C130  1  0.79072000  0.93000000  0.11396000  1.0
  C  C131  1  0.59509000  0.64205000  0.01196000  1.0
  C  C132  1  0.58130000  0.68857000  0.11530000  1.0
  C  C133  1  0.01479000  0.72282000  0.85189000  1.0
  C  C134  1  0.80982000  0.97581000  0.16330000  1.0
  C  C135  1  0.64266000  0.62002000  0.07448000  1.0
  C  C136  1  0.53078000  0.97214000  0.69662000  1.0
  C  C137  1  0.18405000  0.64866000  0.83177000  1.0
  C  C138  1  0.86282000  0.72098000  0.81551000  1.0
  C  C139  1  0.95958000  0.70114000  0.92426000  1.0
  C  C140  1  0.37436000  0.03953000  0.66355000  1.0
  C  C141  1  0.60167000  0.87853000  0.66717000  1.0
  C  C142  1  0.67633000  0.02683000  0.69543000  1.0
  C  C143  1  0.33828000  0.63960000  0.87186000  1.0
  C  C144  1  0.66546000  0.90683000  0.59445000  1.0
  C  C145  1  0.40399000  0.80397000  0.30639000  1.0
  C  C146  1  0.34571000  0.88896000  0.34542000  1.0
  C  C147  1  0.33261000  0.99230000  0.29776000  1.0
  C  C148  1  0.55761000  0.82103000  0.25543000  1.0
  C  C149  1  0.24935000  0.79101000  0.27626000  1.0
  C  C150  1  0.95153000  0.63759000  0.50465000  1.0
  C  C151  1  0.80411000  0.71692000  0.53176000  1.0
  C  C152  1  0.63496000  0.67997000  0.56281000  1.0
  C  C153  1  0.97353000  0.53932000  0.55156000  1.0
  C  C154  1  0.12554000  0.67185000  0.49095000  1.0
  C  C155  1  0.72633000  0.38031000  0.23424000  1.0
  C  C156  1  0.77298000  0.27664000  0.24622000  1.0
  C  C157  1  0.66307000  0.22300000  0.23109000  1.0
  C  C158  1  0.51010000  0.27185000  0.20209000  1.0
  C  C159  1  0.46557000  0.37500000  0.18858000  1.0
  C  C160  1  0.57097000  0.42890000  0.20573000  1.0
  C  C161  1  0.96538000  0.51874000  0.19034000  1.0
  C  C162  1  0.02508000  0.47920000  0.13412000  1.0
  C  C163  1  0.11819000  0.53050000  0.08239000  1.0
  C  C164  1  0.15350000  0.62024000  0.08658000  1.0
  C  C165  1  0.09608000  0.65930000  0.14269000  1.0
  C  C166  1  0.00153000  0.60906000  0.19433000  1.0
  C  C167  1  0.83969000  0.24809000  0.50229000  1.0
  C  C168  1  0.99202000  0.26746000  0.51894000  1.0
  C  C169  1  0.13889000  0.19130000  0.53155000  1.0
  C  C170  1  0.13726000  0.09500000  0.52711000  1.0
  C  C171  1  0.98559000  0.07502000  0.51148000  1.0
  C  C172  1  0.83706000  0.15085000  0.49941000  1.0
  C  C173  1  0.51005000  0.36908000  0.55482000  1.0
  C  C174  1  0.45204000  0.46444000  0.56876000  1.0
  C  C175  1  0.34785000  0.47943000  0.62637000  1.0
  C  C176  1  0.29769000  0.39999000  0.66970000  1.0
  C  C177  1  0.35193000  0.30520000  0.65540000  1.0
  C  C178  1  0.45929000  0.28916000  0.59863000  1.0
  C  C179  1  0.53855000  0.31074000  0.42977000  1.0
  C  C180  1  0.38553000  0.38882000  0.40141000  1.0
  C  C181  1  0.28489000  0.34330000  0.36455000  1.0
  C  C182  1  0.14247000  0.41944000  0.32858000  1.0
  C  C183  1  0.02159000  0.36895000  0.30455000  1.0
  S  S184  1  0.05669000  0.85054000  0.82667000  1.0
  S  S185  1  0.46106000  0.92342000  0.78234000  1.0
  S  S186  1  0.47361000  0.68931000  0.36651000  1.0
  S  S187  1  0.89621000  0.62655000  0.42436000  1.0
  N  N188  1  0.24271000  0.68160000  0.76280000  1.0
  N  N189  1  0.46599000  0.81977000  0.67611000  1.0
  N  N190  1  0.47415000  0.88237000  0.39113000  1.0
  N  N191  1  0.75646000  0.80171000  0.47919000  1.0
  O  O192  1  0.45327000  0.68980000  0.84482000  1.0
  O  O193  1  0.33662000  0.58537000  0.92665000  1.0
  O  O194  1  0.54670000  0.92671000  0.55589000  1.0
  O  O195  1  0.82646000  0.90586000  0.58023000  1.0
  O  O196  1  0.46326000  0.03126000  0.29472000  1.0
  O  O197  1  0.19951000  0.02315000  0.26719000  1.0
  O  O198  1  0.52293000  0.68449000  0.52476000  1.0
  O  O199  1  0.62102000  0.64855000  0.62340000  1.0
