# generated using pymatgen
data_CdP2H10C4(N3O4)2
_symmetry_space_group_name_H-M   'P 1'
_cell_length_a   8.93488000
_cell_length_b   9.23586000
_cell_length_c   9.64149000
_cell_angle_alpha   117.61300000
_cell_angle_beta   90.00000000
_cell_angle_gamma   90.00000000
_symmetry_Int_Tables_number   1
_chemical_formula_structural   CdP2H10C4(N3O4)2
_chemical_formula_sum   'Cd2 P4 H20 C8 N12 O16'
_cell_volume   705.00499059
_cell_formula_units_Z   2
loop_
 _symmetry_equiv_pos_site_id
 _symmetry_equiv_pos_as_xyz
  1  'x, y, z'
loop_
 _atom_site_type_symbol
 _atom_site_label
 _atom_site_symmetry_multiplicity
 _atom_site_fract_x
 _atom_site_fract_y
 _atom_site_fract_z
 _atom_site_occupancy
  Cd  Cd0  1  0.00000000  0.00000000  0.50000000  1.0
  Cd  Cd1  1  0.50000000  0.00000000  0.00000000  1.0
  P  P2  1  0.81057000  0.58714000  0.33903000  1.0
  P  P3  1  0.31057000  0.41286000  0.16097000  1.0
  P  P4  1  0.18943000  0.41286000  0.66097000  1.0
  P  P5  1  0.68943000  0.58714000  0.83903000  1.0
  H  H6  1  0.74869000  0.58707000  0.56531000  1.0
  H  H7  1  0.24869000  0.41293000  0.93469000  1.0
  H  H8  1  0.25131000  0.41293000  0.43469000  1.0
  H  H9  1  0.75131000  0.58707000  0.06531000  1.0
  H  H10  1  0.02370000  0.44868000  0.30192000  1.0
  H  H11  1  0.52370000  0.55132000  0.19809000  1.0
  H  H12  1  0.97630000  0.55132000  0.69808000  1.0
  H  H13  1  0.47630000  0.44868000  0.80192000  1.0
  H  H14  1  0.76421000  0.33526000  0.55948000  1.0
  H  H15  1  0.26421000  0.66474000  0.94052000  1.0
  H  H16  1  0.23579000  0.66474000  0.44052000  1.0
  H  H17  1  0.73579000  0.33526000  0.05948000  1.0
  H  H18  1  0.55339000  0.32853000  0.37253000  1.0
  H  H19  1  0.05339000  0.67147000  0.12746000  1.0
  H  H20  1  0.44661000  0.67148000  0.62746000  1.0
  H  H21  1  0.94661000  0.32853000  0.87254000  1.0
  H  H22  1  0.76941000  0.87199000  0.18367000  1.0
  H  H23  1  0.26941000  0.12801000  0.31633000  1.0
  H  H24  1  0.23059000  0.12801000  0.81633000  1.0
  H  H25  1  0.73059000  0.87199000  0.68367000  1.0
  C  C26  1  0.62635000  0.22807000  0.35556000  1.0
  C  C27  1  0.12635000  0.77193000  0.14443000  1.0
  C  C28  1  0.37365000  0.77193000  0.64443000  1.0
  C  C29  1  0.87365000  0.22807000  0.85556000  1.0
  C  C30  1  0.73723000  0.99705000  0.26153000  1.0
  C  C31  1  0.23723000  0.00295000  0.23847000  1.0
  C  C32  1  0.26277000  0.00294000  0.73847000  1.0
  C  C33  1  0.76277000  0.99705000  0.76153000  1.0
  N  N34  1  0.73080000  0.23306000  0.45662000  1.0
  N  N35  1  0.23080000  0.76694000  0.04338000  1.0
  N  N36  1  0.26920000  0.76694000  0.54338000  1.0
  N  N37  1  0.76920000  0.23306000  0.95662000  1.0
  N  N38  1  0.80261000  0.08762000  0.39851000  1.0
  N  N39  1  0.30261000  0.91238000  0.10149000  1.0
  N  N40  1  0.19739000  0.91238000  0.60149000  1.0
  N  N41  1  0.69739000  0.08762000  0.89851000  1.0
  N  N42  1  0.62753000  0.07976000  0.23084000  1.0
  N  N43  1  0.12753000  0.92025000  0.26916000  1.0
  N  N44  1  0.37247000  0.92025000  0.76916000  1.0
  N  N45  1  0.87247000  0.07976000  0.73084000  1.0
  O  O46  1  0.70423000  0.61110000  0.48062000  1.0
  O  O47  1  0.20423000  0.38890000  0.01938000  1.0
  O  O48  1  0.29577000  0.38890000  0.51938000  1.0
  O  O49  1  0.79577000  0.61110000  0.98063000  1.0
  O  O50  1  0.91185000  0.43351000  0.30782000  1.0
  O  O51  1  0.41185000  0.56648000  0.19218000  1.0
  O  O52  1  0.08815000  0.56648000  0.69218000  1.0
  O  O53  1  0.58814000  0.43351000  0.80782000  1.0
  O  O54  1  0.70427000  0.53584000  0.19694000  1.0
  O  O55  1  0.20427000  0.46416000  0.30306000  1.0
  O  O56  1  0.29573000  0.46416000  0.80306000  1.0
  O  O57  1  0.79573000  0.53584000  0.69694000  1.0
  O  O58  1  0.90407000  0.73507000  0.37234000  1.0
  O  O59  1  0.40407000  0.26493000  0.12766000  1.0
  O  O60  1  0.09593000  0.26493000  0.62766000  1.0
  O  O61  1  0.59593000  0.73507000  0.87234000  1.0
