# generated using pymatgen
data_AgH6C8N3
_symmetry_space_group_name_H-M   'P 1'
_cell_length_a   4.70090000
_cell_length_b   16.77925631
_cell_length_c   21.30090000
_cell_angle_alpha   90.00085372
_cell_angle_beta   90.00160000
_cell_angle_gamma   84.77867568
_symmetry_Int_Tables_number   1
_chemical_formula_structural   AgH6C8N3
_chemical_formula_sum   'Ag8 H48 C64 N24'
_cell_volume   1673.19232075
_cell_formula_units_Z   8
loop_
 _symmetry_equiv_pos_site_id
 _symmetry_equiv_pos_as_xyz
  1  'x, y, z'
loop_
 _atom_site_type_symbol
 _atom_site_label
 _atom_site_symmetry_multiplicity
 _atom_site_fract_x
 _atom_site_fract_y
 _atom_site_fract_z
 _atom_site_occupancy
  Ag  Ag0  1  0.25352000  0.45338000  0.47147000  1.0
  Ag  Ag1  1  0.24651000  0.04663000  0.97146000  1.0
  Ag  Ag2  1  0.74649000  0.54662000  0.52854000  1.0
  Ag  Ag3  1  0.75353000  0.95339000  0.02854000  1.0
  Ag  Ag4  1  0.77069000  0.37349000  0.40831000  1.0
  Ag  Ag5  1  0.72932000  0.12652000  0.90832000  1.0
  Ag  Ag6  1  0.22932000  0.62651000  0.59169000  1.0
  Ag  Ag7  1  0.27073000  0.87349000  0.09168000  1.0
  H  H8  1  0.80274000  0.19709000  0.50106000  1.0
  H  H9  1  0.69719000  0.30294000  0.00107000  1.0
  H  H10  1  0.19723000  0.80291000  0.49894000  1.0
  H  H11  1  0.30283000  0.69709000  0.99893000  1.0
  H  H12  1  0.46215000  0.32346000  0.59000000  1.0
  H  H13  1  0.03787000  0.17653000  0.09000000  1.0
  H  H14  1  0.53788000  0.67653000  0.41000000  1.0
  H  H15  1  0.96220000  0.82347000  0.91000000  1.0
  H  H16  1  0.20965000  0.96008000  0.62115000  1.0
  H  H17  1  0.29006000  0.53994000  0.12116000  1.0
  H  H18  1  0.79027000  0.03992000  0.37885000  1.0
  H  H19  1  0.70978000  0.46009000  0.87882000  1.0
  H  H20  1  0.01148000  0.07368000  0.55563000  1.0
  H  H21  1  0.48841000  0.42634000  0.05565000  1.0
  H  H22  1  0.98851000  0.92632000  0.44437000  1.0
  H  H23  1  0.51155000  0.57369000  0.94435000  1.0
  H  H24  1  0.54658000  0.22319000  0.66036000  1.0
  H  H25  1  0.95337000  0.27680000  0.16036000  1.0
  H  H26  1  0.45340000  0.77680000  0.33964000  1.0
  H  H27  1  0.04669000  0.72320000  0.83963000  1.0
  H  H28  1  0.72147000  0.10375000  0.72055000  1.0
  H  H29  1  0.77837000  0.39623000  0.22055000  1.0
  H  H30  1  0.27845000  0.89625000  0.27945000  1.0
  H  H31  1  0.22157000  0.60377000  0.77944000  1.0
  H  H32  1  0.06564000  0.61458000  0.37591000  1.0
  H  H33  1  0.43435000  0.88542000  0.87592000  1.0
  H  H34  1  0.93432000  0.38541000  0.62408000  1.0
  H  H35  1  0.56568000  0.11458000  0.12409000  1.0
  H  H36  1  0.80961000  0.50562000  0.27658000  1.0
  H  H37  1  0.69032000  0.99437000  0.77659000  1.0
  H  H38  1  0.19034000  0.49437000  0.72342000  1.0
  H  H39  1  0.30969000  0.00561000  0.22342000  1.0
  H  H40  1  0.93332000  0.81120000  0.21488000  1.0
  H  H41  1  0.56672000  0.68880000  0.71489000  1.0
  H  H42  1  0.06668000  0.18879000  0.78512000  1.0
  H  H43  1  0.43337000  0.31120000  0.28512000  1.0
  H  H44  1  0.99552000  0.70946000  0.29873000  1.0
  H  H45  1  0.50455000  0.79056000  0.79873000  1.0
  H  H46  1  0.00446000  0.29052000  0.70126000  1.0
  H  H47  1  0.49554000  0.20945000  0.20128000  1.0
  H  H48  1  0.70388000  0.59441000  0.19212000  1.0
  H  H49  1  0.79606000  0.90557000  0.69212000  1.0
  H  H50  1  0.29606000  0.40557000  0.80787000  1.0
  H  H51  1  0.20399000  0.09442000  0.30789000  1.0
  H  H52  1  0.60720000  0.70123000  0.11197000  1.0
  H  H53  1  0.89278000  0.79875000  0.61198000  1.0
  H  H54  1  0.39281000  0.29877000  0.88803000  1.0
  H  H55  1  0.10730000  0.20124000  0.38803000  1.0
  C  C56  1  0.95256000  0.23857000  0.51666000  1.0
  C  C57  1  0.54740000  0.26144000  0.01667000  1.0
  C  C58  1  0.04741000  0.76144000  0.48334000  1.0
  C  C59  1  0.45264000  0.73857000  0.98333000  1.0
  C  C60  1  0.16814000  0.22921000  0.56301000  1.0
  C  C61  1  0.33183000  0.27080000  0.06302000  1.0
  C  C62  1  0.83186000  0.77079000  0.43699000  1.0
  C  C63  1  0.66820000  0.72921000  0.93698000  1.0
  C  C64  1  0.28670000  0.30342000  0.56296000  1.0
  C  C65  1  0.21331000  0.19660000  0.06296000  1.0
  C  C66  1  0.71331000  0.69658000  0.43704000  1.0
  C  C67  1  0.78673000  0.80342000  0.93704000  1.0
  C  C68  1  0.28153000  0.01955000  0.62832000  1.0
  C  C69  1  0.21830000  0.48046000  0.12834000  1.0
  C  C70  1  0.71843000  0.98045000  0.37168000  1.0
  C  C71  1  0.78162000  0.51956000  0.87166000  1.0
  C  C72  1  0.17011000  0.08352000  0.59150000  1.0
  C  C73  1  0.32976000  0.41649000  0.09152000  1.0
  C  C74  1  0.82986000  0.91648000  0.40850000  1.0
  C  C75  1  0.67020000  0.58353000  0.90848000  1.0
  C  C76  1  0.26356000  0.15995000  0.60107000  1.0
  C  C77  1  0.23637000  0.34004000  0.10108000  1.0
  C  C78  1  0.73641000  0.84004000  0.39892000  1.0
  C  C79  1  0.76364000  0.65997000  0.89891000  1.0
  C  C80  1  0.46467000  0.16614000  0.64942000  1.0
  C  C81  1  0.03523000  0.33385000  0.14943000  1.0
  C  C82  1  0.53529000  0.83385000  0.35058000  1.0
  C  C83  1  0.96478000  0.66616000  0.85056000  1.0
  C  C84  1  0.56283000  0.09869000  0.68354000  1.0
  C  C85  1  0.93700000  0.40130000  0.18355000  1.0
  C  C86  1  0.43711000  0.90130000  0.31646000  1.0
  C  C87  1  0.06295000  0.59871000  0.81644000  1.0
  C  C88  1  0.25552000  0.57928000  0.35950000  1.0
  C  C89  1  0.24444000  0.92072000  0.85950000  1.0
  C  C90  1  0.74443000  0.42071000  0.64050000  1.0
  C  C91  1  0.75558000  0.07928000  0.14051000  1.0
  C  C92  1  0.41325000  0.58452000  0.30366000  1.0
  C  C93  1  0.08675000  0.91547000  0.80366000  1.0
  C  C94  1  0.58669000  0.41546000  0.69633000  1.0
  C  C95  1  0.91332000  0.08452000  0.19635000  1.0
  C  C96  1  0.63483000  0.52196000  0.30885000  1.0
  C  C97  1  0.86513000  0.97804000  0.80885000  1.0
  C  C98  1  0.36511000  0.47803000  0.69115000  1.0
  C  C99  1  0.13490000  0.02195000  0.19116000  1.0
  C  C100  1  0.10231000  0.76223000  0.21138000  1.0
  C  C101  1  0.39773000  0.73777000  0.71138000  1.0
  C  C102  1  0.89769000  0.23776000  0.78862000  1.0
  C  C103  1  0.60237000  0.26223000  0.28863000  1.0
  C  C104  1  0.13857000  0.70508000  0.25839000  1.0
  C  C105  1  0.36145000  0.79494000  0.75839000  1.0
  C  C106  1  0.86139000  0.29491000  0.74160000  1.0
  C  C107  1  0.63863000  0.20507000  0.24162000  1.0
  C  C108  1  0.36015000  0.64279000  0.25388000  1.0
  C  C109  1  0.13983000  0.85721000  0.75388000  1.0
  C  C110  1  0.63980000  0.35719000  0.74611000  1.0
  C  C111  1  0.86023000  0.14279000  0.24613000  1.0
  C  C112  1  0.52979000  0.64138000  0.19924000  1.0
  C  C113  1  0.97019000  0.85861000  0.69924000  1.0
  C  C114  1  0.47018000  0.35860000  0.80076000  1.0
  C  C115  1  0.02987000  0.14139000  0.30078000  1.0
  C  C116  1  0.47622000  0.70088000  0.15437000  1.0
  C  C117  1  0.02375000  0.79911000  0.65438000  1.0
  C  C118  1  0.52377000  0.29911000  0.84562000  1.0
  C  C119  1  0.97633000  0.20088000  0.34564000  1.0
  N  N120  1  0.15077000  0.35222000  0.52065000  1.0
  N  N121  1  0.34926000  0.14779000  0.02064000  1.0
  N  N122  1  0.84923000  0.64779000  0.47936000  1.0
  N  N123  1  0.65081000  0.85222000  0.97936000  1.0
  N  N124  1  0.94364000  0.31236000  0.49177000  1.0
  N  N125  1  0.55637000  0.18765000  0.99177000  1.0
  N  N126  1  0.05635000  0.68764000  0.50824000  1.0
  N  N127  1  0.44370000  0.81236000  0.00824000  1.0
  N  N128  1  0.47648000  0.02542000  0.67393000  1.0
  N  N129  1  0.02330000  0.47457000  0.17393000  1.0
  N  N130  1  0.52345000  0.97457000  0.32607000  1.0
  N  N131  1  0.97659000  0.52544000  0.82605000  1.0
  N  N132  1  0.60959000  0.48319000  0.36335000  1.0
  N  N133  1  0.89037000  0.01681000  0.86336000  1.0
  N  N134  1  0.39038000  0.51681000  0.63665000  1.0
  N  N135  1  0.10964000  0.98318000  0.13665000  1.0
  N  N136  1  0.37573000  0.51935000  0.39476000  1.0
  N  N137  1  0.12425000  0.98065000  0.89477000  1.0
  N  N138  1  0.62425000  0.48065000  0.60524000  1.0
  N  N139  1  0.87576000  0.01935000  0.10524000  1.0
  N  N140  1  0.26842000  0.76150000  0.15977000  1.0
  N  N141  1  0.23158000  0.73849000  0.65977000  1.0
  N  N142  1  0.73159000  0.23849000  0.84023000  1.0
  N  N143  1  0.76851000  0.26151000  0.34024000  1.0
