# generated using pymatgen
data_Zn2H21C41S3N2O17
_symmetry_space_group_name_H-M   'P 1'
_cell_length_a   13.22450000
_cell_length_b   13.78650000
_cell_length_c   28.50570000
_cell_angle_alpha   90.72110000
_cell_angle_beta   89.89930000
_cell_angle_gamma   89.85780000
_symmetry_Int_Tables_number   1
_chemical_formula_structural   Zn2H21C41S3N2O17
_chemical_formula_sum   'Zn4 H42 C82 S6 N4 O34'
_cell_volume   5196.71102513
_cell_formula_units_Z   2
loop_
 _symmetry_equiv_pos_site_id
 _symmetry_equiv_pos_as_xyz
  1  'x, y, z'
loop_
 _atom_site_type_symbol
 _atom_site_label
 _atom_site_symmetry_multiplicity
 _atom_site_fract_x
 _atom_site_fract_y
 _atom_site_fract_z
 _atom_site_occupancy
  Zn  Zn0  1  0.50927000  0.41327000  0.49693000  1.0
  Zn  Zn1  1  0.48963000  0.61106000  0.50141000  1.0
  Zn  Zn2  1  0.50904000  0.58725000  0.03683000  1.0
  Zn  Zn3  1  0.49061000  0.38951000  0.03254000  1.0
  H  H4  1  0.40935000  0.26703000  0.55610000  1.0
  H  H5  1  0.34196000  0.11290000  0.59332000  1.0
  H  H6  1  0.62662000  0.25703000  0.45208000  1.0
  H  H7  1  0.59451000  0.75841000  0.44647000  1.0
  H  H8  1  0.67413000  0.91270000  0.41413000  1.0
  H  H9  1  0.39760000  0.76747000  0.55880000  1.0
  H  H10  1  0.50265000  0.62261000  0.18961000  1.0
  H  H11  1  0.50278000  0.31211000  0.17787000  1.0
  H  H12  1  0.50431000  0.29780000  0.26504000  1.0
  H  H13  1  0.50373000  0.37741000  0.34411000  1.0
  H  H14  1  0.50244000  0.68792000  0.35594000  1.0
  H  H15  1  0.50342000  0.70227000  0.26878000  1.0
  H  H16  1  0.48722000  0.67191000  0.65427000  1.0
  H  H17  1  0.48662000  0.75191000  0.73234000  1.0
  H  H18  1  0.49428000  0.36217000  0.64162000  1.0
  H  H19  1  0.48728000  0.32800000  0.87968000  1.0
  H  H20  1  0.48552000  0.24805000  0.80167000  1.0
  H  H21  1  0.49665000  0.63755000  0.89233000  1.0
  H  H22  1  0.83731000  0.37187000  0.49483000  1.0
  H  H23  1  0.80283000  0.68146000  0.50258000  1.0
  H  H24  1  0.99039000  0.70250000  0.50181000  1.0
  H  H25  1  0.16248000  0.62942000  0.49962000  1.0
  H  H26  1  0.19771000  0.32003000  0.49388000  1.0
  H  H27  1  0.01031000  0.29863000  0.49307000  1.0
  H  H28  1  0.40902000  0.73451000  0.97799000  1.0
  H  H29  1  0.34265000  0.88910000  0.94077000  1.0
  H  H30  1  0.62745000  0.74238000  0.08112000  1.0
  H  H31  1  0.59605000  0.24140000  0.08746000  1.0
  H  H32  1  0.67624000  0.08624000  0.11922000  1.0
  H  H33  1  0.39910000  0.23392000  0.97545000  1.0
  H  H34  1  0.83680000  0.62904000  0.03985000  1.0
  H  H35  1  0.80442000  0.31942000  0.03207000  1.0
  H  H36  1  0.99212000  0.29858000  0.03308000  1.0
  H  H37  1  0.16360000  0.37190000  0.03486000  1.0
  H  H38  1  0.19689000  0.68138000  0.04017000  1.0
  H  H39  1  0.00935000  0.70254000  0.04158000  1.0
  H  H40  1  0.21856000  0.80005000  0.57990000  1.0
  H  H41  1  0.66150000  0.23487000  0.36911000  1.0
  H  H42  1  0.33221000  0.81985000  0.83791000  1.0
  H  H43  1  0.33056000  0.18043000  0.69642000  1.0
  H  H44  1  0.21961000  0.20199000  0.95511000  1.0
  H  H45  1  0.66342000  0.76406000  0.16393000  1.0
  C  C46  1  0.49269000  0.52270000  0.59119000  1.0
  C  C47  1  0.30270000  0.48837000  0.49790000  1.0
  C  C48  1  0.50338000  0.52395000  0.40710000  1.0
  C  C49  1  0.69765000  0.51457000  0.49907000  1.0
  C  C50  1  0.49412000  0.47724000  0.94271000  1.0
  C  C51  1  0.30296000  0.51301000  0.03587000  1.0
  C  C52  1  0.50263000  0.47601000  0.12672000  1.0
  C  C53  1  0.69814000  0.48621000  0.03518000  1.0
  C  C54  1  0.45524000  0.22027000  0.53336000  1.0
  C  C55  1  0.45054000  0.11900000  0.53567000  1.0
  C  C56  1  0.38665000  0.07031000  0.56832000  1.0
  C  C57  1  0.57637000  0.21391000  0.47370000  1.0
  C  C58  1  0.57598000  0.11226000  0.47170000  1.0
  C  C59  1  0.63543000  0.05390000  0.43953000  1.0
  C  C60  1  0.55353000  0.80519000  0.47117000  1.0
  C  C61  1  0.56302000  0.90629000  0.47089000  1.0
  C  C62  1  0.62867000  0.95497000  0.43897000  1.0
  C  C63  1  0.43982000  0.81096000  0.53392000  1.0
  C  C64  1  0.44065000  0.91271000  0.53619000  1.0
  C  C65  1  0.38193000  0.97126000  0.56863000  1.0
  C  C66  1  0.51056000  0.06393000  0.50356000  1.0
  C  C67  1  0.50450000  0.96121000  0.50370000  1.0
  C  C68  1  0.50438000  0.55218000  0.20664000  1.0
  C  C69  1  0.50409000  0.37639000  0.20045000  1.0
  C  C70  1  0.50472000  0.36883000  0.24850000  1.0
  C  C71  1  0.50520000  0.45318000  0.27763000  1.0
  C  C72  1  0.50511000  0.44788000  0.32712000  1.0
  C  C73  1  0.50401000  0.62363000  0.33337000  1.0
  C  C74  1  0.50427000  0.63122000  0.28531000  1.0
  C  C75  1  0.50490000  0.54692000  0.25613000  1.0
  C  C76  1  0.50410000  0.46895000  0.17906000  1.0
  C  C77  1  0.50469000  0.53107000  0.35474000  1.0
  C  C78  1  0.48856000  0.60139000  0.67115000  1.0
  C  C79  1  0.48853000  0.59552000  0.72022000  1.0
  C  C80  1  0.48781000  0.68123000  0.74906000  1.0
  C  C81  1  0.49104000  0.42577000  0.66449000  1.0
  C  C82  1  0.48928000  0.41634000  0.71337000  1.0
  C  C83  1  0.48751000  0.32425000  0.73703000  1.0
  C  C84  1  0.48897000  0.39849000  0.86280000  1.0
  C  C85  1  0.48847000  0.40441000  0.81373000  1.0
  C  C86  1  0.48689000  0.31869000  0.78491000  1.0
  C  C87  1  0.49277000  0.57406000  0.86944000  1.0
  C  C88  1  0.49049000  0.58352000  0.82058000  1.0
  C  C89  1  0.48892000  0.67563000  0.79695000  1.0
  C  C90  1  0.49054000  0.51695000  0.64365000  1.0
  C  C91  1  0.48893000  0.50261000  0.74205000  1.0
  C  C92  1  0.49178000  0.48289000  0.89028000  1.0
  C  C93  1  0.48922000  0.49730000  0.79189000  1.0
  C  C94  1  0.87169000  0.44368000  0.49647000  1.0
  C  C95  1  0.85345000  0.61911000  0.50072000  1.0
  C  C96  1  0.95670000  0.63029000  0.50047000  1.0
  C  C97  1  0.02180000  0.54821000  0.49853000  1.0
  C  C98  1  0.12819000  0.55756000  0.49867000  1.0
  C  C99  1  0.14705000  0.38242000  0.49528000  1.0
  C  C100  1  0.04373000  0.37093000  0.49481000  1.0
  C  C101  1  0.97823000  0.45286000  0.49656000  1.0
  C  C102  1  0.81013000  0.52503000  0.49865000  1.0
  C  C103  1  0.19024000  0.47669000  0.49731000  1.0
  C  C104  1  0.45548000  0.78081000  0.00050000  1.0
  C  C105  1  0.45150000  0.88211000  0.99810000  1.0
  C  C106  1  0.38764000  0.93133000  0.96563000  1.0
  C  C107  1  0.57721000  0.78599000  0.05968000  1.0
  C  C108  1  0.57741000  0.88766000  0.06165000  1.0
  C  C109  1  0.63724000  0.94546000  0.09369000  1.0
  C  C110  1  0.55517000  0.19493000  0.06273000  1.0
  C  C111  1  0.56483000  0.09378000  0.06277000  1.0
  C  C112  1  0.63059000  0.04445000  0.09444000  1.0
  C  C113  1  0.44141000  0.19008000  0.00017000  1.0
  C  C114  1  0.44228000  0.08839000  0.99774000  1.0
  C  C115  1  0.38327000  0.03041000  0.96540000  1.0
  C  C116  1  0.51202000  0.93662000  0.03000000  1.0
  C  C117  1  0.50623000  0.03938000  0.03000000  1.0
  C  C118  1  0.87167000  0.55727000  0.03817000  1.0
  C  C119  1  0.85465000  0.38181000  0.03397000  1.0
  C  C120  1  0.95797000  0.37075000  0.03437000  1.0
  C  C121  1  0.02247000  0.45295000  0.03620000  1.0
  C  C122  1  0.12890000  0.44374000  0.03585000  1.0
  C  C123  1  0.14665000  0.61892000  0.03896000  1.0
  C  C124  1  0.04324000  0.63028000  0.03973000  1.0
  C  C125  1  0.97827000  0.54826000  0.03814000  1.0
  C  C126  1  0.81069000  0.47584000  0.03586000  1.0
  C  C127  1  0.19045000  0.52468000  0.03688000  1.0
  S  S128  1  0.30099000  0.91755000  0.61130000  1.0
  S  S129  1  0.72391000  0.10736000  0.40005000  1.0
  S  S130  1  0.48983000  0.78790000  0.82873000  1.0
  S  S131  1  0.48815000  0.21179000  0.70537000  1.0
  S  S132  1  0.30201000  0.08469000  0.92305000  1.0
  S  S133  1  0.72586000  0.89112000  0.13278000  1.0
  N  N134  1  0.51605000  0.26464000  0.50284000  1.0
  N  N135  1  0.49346000  0.76056000  0.50192000  1.0
  N  N136  1  0.51624000  0.73584000  0.03083000  1.0
  N  N137  1  0.49504000  0.24000000  0.03215000  1.0
  O  O138  1  0.50342000  0.44331000  0.56851000  1.0
  O  O139  1  0.48375000  0.60644000  0.57327000  1.0
  O  O140  1  0.33833000  0.57428000  0.49951000  1.0
  O  O141  1  0.35503000  0.41052000  0.49682000  1.0
  O  O142  1  0.49709000  0.60400000  0.42988000  1.0
  O  O143  1  0.50830000  0.43990000  0.42507000  1.0
  O  O144  1  0.66180000  0.42894000  0.49575000  1.0
  O  O145  1  0.64533000  0.59211000  0.50282000  1.0
  O  O146  1  0.50468000  0.55665000  0.96533000  1.0
  O  O147  1  0.48540000  0.39356000  0.96071000  1.0
  O  O148  1  0.33909000  0.42711000  0.03428000  1.0
  O  O149  1  0.35486000  0.59089000  0.03660000  1.0
  O  O150  1  0.49693000  0.39588000  0.10400000  1.0
  O  O151  1  0.50694000  0.56001000  0.10867000  1.0
  O  O152  1  0.66169000  0.57180000  0.03847000  1.0
  O  O153  1  0.64632000  0.40864000  0.03129000  1.0
  O  O154  1  0.21444000  0.87087000  0.57781000  1.0
  O  O155  1  0.25405000  0.99433000  0.63778000  1.0
  O  O156  1  0.35298000  0.83863000  0.63366000  1.0
  O  O157  1  0.64889000  0.16517000  0.36521000  1.0
  O  O158  1  0.76961000  0.03057000  0.37315000  1.0
  O  O159  1  0.78319000  0.17847000  0.42520000  1.0
  O  O160  1  0.38227000  0.78580000  0.85698000  1.0
  O  O161  1  0.48503000  0.86613000  0.79590000  1.0
  O  O162  1  0.56478000  0.78505000  0.86510000  1.0
  O  O163  1  0.38060000  0.21440000  0.67731000  1.0
  O  O164  1  0.48323000  0.13373000  0.73829000  1.0
  O  O165  1  0.56313000  0.21406000  0.66889000  1.0
  O  O166  1  0.21543000  0.13114000  0.95688000  1.0
  O  O167  1  0.25520000  0.00822000  0.89654000  1.0
  O  O168  1  0.35362000  0.16375000  0.90075000  1.0
  O  O169  1  0.65090000  0.83384000  0.16782000  1.0
  O  O170  1  0.77220000  0.96737000  0.15959000  1.0
  O  O171  1  0.78460000  0.81961000  0.10735000  1.0
