# generated using pymatgen
data_MnH8(C3O2)2
_symmetry_space_group_name_H-M   'P 1'
_cell_length_a   4.88788000
_cell_length_b   8.93558000
_cell_length_c   8.93559000
_cell_angle_alpha   81.37660000
_cell_angle_beta   76.37580000
_cell_angle_gamma   76.37570000
_symmetry_Int_Tables_number   1
_chemical_formula_structural   MnH8(C3O2)2
_chemical_formula_sum   'Mn2 H16 C12 O8'
_cell_volume   366.76903926
_cell_formula_units_Z   2
loop_
 _symmetry_equiv_pos_site_id
 _symmetry_equiv_pos_as_xyz
  1  'x, y, z'
loop_
 _atom_site_type_symbol
 _atom_site_label
 _atom_site_symmetry_multiplicity
 _atom_site_fract_x
 _atom_site_fract_y
 _atom_site_fract_z
 _atom_site_occupancy
  Mn  Mn0  1  0.25000000  0.07926000  0.92074000  1.0
  Mn  Mn1  1  0.75000000  0.92074000  0.07926000  1.0
  H  H2  1  0.26572000  0.98298000  0.56902000  1.0
  H  H3  1  0.23428000  0.43098000  0.01702000  1.0
  H  H4  1  0.73428000  0.01702000  0.43098000  1.0
  H  H5  1  0.76572000  0.56902000  0.98298000  1.0
  H  H6  1  0.82907000  0.27463000  0.48341000  1.0
  H  H7  1  0.67093000  0.51659000  0.72537000  1.0
  H  H8  1  0.17093000  0.72537000  0.51659000  1.0
  H  H9  1  0.32907000  0.48341000  0.27463000  1.0
  H  H10  1  0.19618000  0.22219000  0.38613000  1.0
  H  H11  1  0.30382000  0.61387000  0.77781000  1.0
  H  H12  1  0.80382000  0.77781000  0.61387000  1.0
  H  H13  1  0.69618000  0.38613000  0.22219000  1.0
  H  H14  1  0.11190000  0.27023000  0.57972000  1.0
  H  H15  1  0.38810000  0.42028000  0.72977000  1.0
  H  H16  1  0.88810000  0.72977000  0.42028000  1.0
  H  H17  1  0.61190000  0.57972000  0.27023000  1.0
  C  C18  1  0.84975000  0.03034000  0.71443000  1.0
  C  C19  1  0.65025000  0.28557000  0.96966000  1.0
  C  C20  1  0.15025000  0.96966000  0.28557000  1.0
  C  C21  1  0.34975000  0.71443000  0.03034000  1.0
  C  C22  1  0.04733000  0.04194000  0.55601000  1.0
  C  C23  1  0.45267000  0.44399000  0.95806000  1.0
  C  C24  1  0.95267000  0.95806000  0.44399000  1.0
  C  C25  1  0.54733000  0.55601000  0.04194000  1.0
  C  C26  1  0.04519000  0.21286000  0.49796000  1.0
  C  C27  1  0.45481000  0.50204000  0.78714000  1.0
  C  C28  1  0.95481000  0.78714000  0.50204000  1.0
  C  C29  1  0.54519000  0.49796000  0.21286000  1.0
  O  O30  1  0.96668000  0.97299000  0.83123000  1.0
  O  O31  1  0.53332000  0.16877000  0.02701000  1.0
  O  O32  1  0.03332000  0.02701000  0.16877000  1.0
  O  O33  1  0.46668000  0.83123000  0.97299000  1.0
  O  O34  1  0.58111000  0.07844000  0.72342000  1.0
  O  O35  1  0.91889000  0.27658000  0.92156000  1.0
  O  O36  1  0.41889000  0.92156000  0.27658000  1.0
  O  O37  1  0.08111000  0.72342000  0.07844000  1.0
