# generated using pymatgen
data_ZnH26C30(NO)10
_symmetry_space_group_name_H-M   'P 1'
_cell_length_a   7.58035000
_cell_length_b   9.07963000
_cell_length_c   11.30580000
_cell_angle_alpha   97.35480000
_cell_angle_beta   105.79600000
_cell_angle_gamma   95.24790000
_symmetry_Int_Tables_number   1
_chemical_formula_structural   ZnH26C30(NO)10
_chemical_formula_sum   'Zn1 H26 C30 N10 O10'
_cell_volume   736.06295127
_cell_formula_units_Z   1
loop_
 _symmetry_equiv_pos_site_id
 _symmetry_equiv_pos_as_xyz
  1  'x, y, z'
loop_
 _atom_site_type_symbol
 _atom_site_label
 _atom_site_symmetry_multiplicity
 _atom_site_fract_x
 _atom_site_fract_y
 _atom_site_fract_z
 _atom_site_occupancy
  Zn  Zn0  1  0.49999000  0.50000000  0.00000000  1.0
  H  H1  1  0.92759000  0.17326000  0.71204000  1.0
  H  H2  1  0.07250000  0.82671000  0.28797000  1.0
  H  H3  1  0.70584000  0.71917000  0.63143000  1.0
  H  H4  1  0.29413000  0.28083000  0.36856000  1.0
  H  H5  1  0.65737000  0.48374000  0.42261000  1.0
  H  H6  1  0.34260000  0.51626000  0.57739000  1.0
  H  H7  1  0.87379000  0.62973000  0.90259000  1.0
  H  H8  1  0.12616000  0.37025000  0.09740000  1.0
  H  H9  1  0.46379000  0.85966000  0.00090000  1.0
  H  H10  1  0.53620000  0.14035000  0.99910000  1.0
  H  H11  1  0.04304000  0.84070000  0.83754000  1.0
  H  H12  1  0.95694000  0.15926000  0.16246000  1.0
  H  H13  1  0.01107000  0.02745000  0.89373000  1.0
  H  H14  1  0.98893000  0.97251000  0.10627000  1.0
  H  H15  1  0.54049000  0.71132000  0.36084000  1.0
  H  H16  1  0.45950000  0.28871000  0.63914000  1.0
  H  H17  1  0.51214000  0.87341000  0.19986000  1.0
  H  H18  1  0.48789000  0.12662000  0.80013000  1.0
  H  H19  1  0.67166000  0.13582000  0.24910000  1.0
  H  H20  1  0.32844000  0.86420000  0.75090000  1.0
  H  H21  1  0.85771000  0.24449000  0.46560000  1.0
  H  H22  1  0.14240000  0.75550000  0.53440000  1.0
  H  H23  1  0.77306000  0.35910000  0.01347000  1.0
  H  H24  1  0.22694000  0.64091000  0.98654000  1.0
  H  H25  1  0.72216000  0.37458000  0.86234000  1.0
  H  H26  1  0.27783000  0.62542000  0.13767000  1.0
  C  C27  1  0.18489000  0.53457000  0.76784000  1.0
  C  C28  1  0.81509000  0.46543000  0.23217000  1.0
  C  C29  1  0.08872000  0.50767000  0.62891000  1.0
  C  C30  1  0.91125000  0.49233000  0.37110000  1.0
  C  C31  1  0.89513000  0.49940000  0.58400000  1.0
  C  C32  1  0.10484000  0.50061000  0.41600000  1.0
  C  C33  1  0.80811000  0.49444000  0.45670000  1.0
  C  C34  1  0.19186000  0.50557000  0.54330000  1.0
  C  C35  1  0.77776000  0.48345000  0.67062000  1.0
  C  C36  1  0.22221000  0.51656000  0.32938000  1.0
  C  C37  1  0.78638000  0.71305000  0.92028000  1.0
  C  C38  1  0.21359000  0.28693000  0.07971000  1.0
  C  C39  1  0.58157000  0.83493000  0.96836000  1.0
  C  C40  1  0.41842000  0.16507000  0.03165000  1.0
  C  C41  1  0.94074000  0.91967000  0.83870000  1.0
  C  C42  1  0.05925000  0.08030000  0.16129000  1.0
  C  C43  1  0.85172000  0.94094000  0.70856000  1.0
  C  C44  1  0.14829000  0.05904000  0.29143000  1.0
  C  C45  1  0.70716000  0.89085000  0.50653000  1.0
  C  C46  1  0.29284000  0.10916000  0.49346000  1.0
  C  C47  1  0.60591000  0.82702000  0.38523000  1.0
  C  C48  1  0.39410000  0.17301000  0.61476000  1.0
  C  C49  1  0.59363000  0.91912000  0.29469000  1.0
  C  C50  1  0.40640000  0.08090000  0.70530000  1.0
  C  C51  1  0.68293000  0.06784000  0.32291000  1.0
  C  C52  1  0.31712000  0.93218000  0.67709000  1.0
  C  C53  1  0.78595000  0.13111000  0.44341000  1.0
  C  C54  1  0.21411000  0.86890000  0.55660000  1.0
  C  C55  1  0.79259000  0.04101000  0.53475000  1.0
  C  C56  1  0.20744000  0.95899000  0.46524000  1.0
  N  N57  1  0.64252000  0.69780000  0.96595000  1.0
  N  N58  1  0.35745000  0.30220000  0.03406000  1.0
  N  N59  1  0.67985000  0.93432000  0.92716000  1.0
  N  N60  1  0.32014000  0.06567000  0.07284000  1.0
  N  N61  1  0.81030000  0.85466000  0.89707000  1.0
  N  N62  1  0.18967000  0.14532000  0.10292000  1.0
  N  N63  1  0.87895000  0.06797000  0.66199000  1.0
  N  N64  1  0.12109000  0.93202000  0.33801000  1.0
  N  N65  1  0.74906000  0.83318000  0.61748000  1.0
  N  N66  1  0.25092000  0.16681000  0.38250000  1.0
  O  O67  1  0.31770000  0.46233000  0.80839000  1.0
  O  O68  1  0.68228000  0.53768000  0.19161000  1.0
  O  O69  1  0.12617000  0.63377000  0.83351000  1.0
  O  O70  1  0.87382000  0.36623000  0.16650000  1.0
  O  O71  1  0.80601000  0.38148000  0.73832000  1.0
  O  O72  1  0.19395000  0.61853000  0.26169000  1.0
  O  O73  1  0.65477000  0.57126000  0.66828000  1.0
  O  O74  1  0.34520000  0.42875000  0.33172000  1.0
  O  O75  1  0.67302000  0.35847000  0.93423000  1.0
  O  O76  1  0.32697000  0.64153000  0.06578000  1.0
