# generated using pymatgen
data_ZnH4C6(N2O)2
_symmetry_space_group_name_H-M   'P 1'
_cell_length_a   5.88682000
_cell_length_b   10.37130000
_cell_length_c   12.62750000
_cell_angle_alpha   90.00020000
_cell_angle_beta   89.99990000
_cell_angle_gamma   89.99990000
_symmetry_Int_Tables_number   1
_chemical_formula_structural   ZnH4C6(N2O)2
_chemical_formula_sum   'Zn4 H16 C24 N16 O8'
_cell_volume   770.95908529
_cell_formula_units_Z   4
loop_
 _symmetry_equiv_pos_site_id
 _symmetry_equiv_pos_as_xyz
  1  'x, y, z'
loop_
 _atom_site_type_symbol
 _atom_site_label
 _atom_site_symmetry_multiplicity
 _atom_site_fract_x
 _atom_site_fract_y
 _atom_site_fract_z
 _atom_site_occupancy
  Zn  Zn0  1  0.79381000  0.32880000  0.50960000  1.0
  Zn  Zn1  1  0.70619000  0.67120000  0.00961000  1.0
  Zn  Zn2  1  0.20619000  0.82880000  0.99040000  1.0
  Zn  Zn3  1  0.29381000  0.17119000  0.49039000  1.0
  H  H4  1  0.70831000  0.46811000  0.71123000  1.0
  H  H5  1  0.79168000  0.53189000  0.21123000  1.0
  H  H6  1  0.29168000  0.96811000  0.78877000  1.0
  H  H7  1  0.20833000  0.03189000  0.28877000  1.0
  H  H8  1  0.17997000  0.74460000  0.65205000  1.0
  H  H9  1  0.32002000  0.25539000  0.15204000  1.0
  H  H10  1  0.82003000  0.24460000  0.84796000  1.0
  H  H11  1  0.67997000  0.75540000  0.34795000  1.0
  H  H12  1  0.19716000  0.68060000  0.45792000  1.0
  H  H13  1  0.30283000  0.31940000  0.95792000  1.0
  H  H14  1  0.80284000  0.18060000  0.04208000  1.0
  H  H15  1  0.69716000  0.81940000  0.54208000  1.0
  H  H16  1  0.47410000  0.51210000  0.40288000  1.0
  H  H17  1  0.02590000  0.48790000  0.90288000  1.0
  H  H18  1  0.52590000  0.01210000  0.09712000  1.0
  H  H19  1  0.97410000  0.98790000  0.59712000  1.0
  C  C20  1  0.59538000  0.51861000  0.65713000  1.0
  C  C21  1  0.90462000  0.48139000  0.15713000  1.0
  C  C22  1  0.40462000  0.01861000  0.84287000  1.0
  C  C23  1  0.09538000  0.98139000  0.34287000  1.0
  C  C24  1  0.44786000  0.61306000  0.69499000  1.0
  C  C25  1  0.05214000  0.38694000  0.19499000  1.0
  C  C26  1  0.55214000  0.11306000  0.80501000  1.0
  C  C27  1  0.94786000  0.88694000  0.30501000  1.0
  C  C28  1  0.29961000  0.67237000  0.62332000  1.0
  C  C29  1  0.20038000  0.32763000  0.12332000  1.0
  C  C30  1  0.70039000  0.17237000  0.87668000  1.0
  C  C31  1  0.79962000  0.82763000  0.37668000  1.0
  C  C32  1  0.30838000  0.63718000  0.51679000  1.0
  C  C33  1  0.19162000  0.36282000  0.01679000  1.0
  C  C34  1  0.69162000  0.13718000  0.98321000  1.0
  C  C35  1  0.80838000  0.86283000  0.48321000  1.0
  C  C36  1  0.46195000  0.54286000  0.48510000  1.0
  C  C37  1  0.03805000  0.45714000  0.98510000  1.0
  C  C38  1  0.53805000  0.04286000  0.01490000  1.0
  C  C39  1  0.96195000  0.95714000  0.51490000  1.0
  C  C40  1  0.45212000  0.64886000  0.81049000  1.0
  C  C41  1  0.04788000  0.35114000  0.31049000  1.0
  C  C42  1  0.54788000  0.14886000  0.68951000  1.0
  C  C43  1  0.95212000  0.85114000  0.18951000  1.0
  N  N44  1  0.60144000  0.48360000  0.55457000  1.0
  N  N45  1  0.89855000  0.51640000  0.05457000  1.0
  N  N46  1  0.39855000  0.98360000  0.94544000  1.0
  N  N47  1  0.10145000  0.01640000  0.44543000  1.0
  N  N48  1  0.61192000  0.19134000  0.42846000  1.0
  N  N49  1  0.88808000  0.80866000  0.92846000  1.0
  N  N50  1  0.38808000  0.69134000  0.07154000  1.0
  N  N51  1  0.11193000  0.30866000  0.57154000  1.0
  N  N52  1  0.63799000  0.17523000  0.33387000  1.0
  N  N53  1  0.86201000  0.82477000  0.83387000  1.0
  N  N54  1  0.36201000  0.67523000  0.16613000  1.0
  N  N55  1  0.13800000  0.32477000  0.66613000  1.0
  N  N56  1  0.66663000  0.15793000  0.24442000  1.0
  N  N57  1  0.83338000  0.84207000  0.74442000  1.0
  N  N58  1  0.33333333  0.65793000  0.25558000  1.0
  N  N59  1  0.16662000  0.34207000  0.75558000  1.0
  O  O60  1  0.59748000  0.59005000  0.86809000  1.0
  O  O61  1  0.90252000  0.40995000  0.36809000  1.0
  O  O62  1  0.40253000  0.09004000  0.63191000  1.0
  O  O63  1  0.09748000  0.90995000  0.13191000  1.0
  O  O64  1  0.31519000  0.73541000  0.84056000  1.0
  O  O65  1  0.18481000  0.26458000  0.34056000  1.0
  O  O66  1  0.68481000  0.23541000  0.65944000  1.0
  O  O67  1  0.81519000  0.76459000  0.15944000  1.0
