# generated using pymatgen
data_Al4H27C46IO20
_symmetry_space_group_name_H-M   'P 1'
_cell_length_a   6.74974000
_cell_length_b   18.44260000
_cell_length_c   20.44540000
_cell_angle_alpha   72.32670000
_cell_angle_beta   89.93840000
_cell_angle_gamma   89.86260000
_symmetry_Int_Tables_number   1
_chemical_formula_structural   Al4H27C46IO20
_chemical_formula_sum   'Al4 H27 C46 I1 O20'
_cell_volume   2424.97166034
_cell_formula_units_Z   1
loop_
 _symmetry_equiv_pos_site_id
 _symmetry_equiv_pos_as_xyz
  1  'x, y, z'
loop_
 _atom_site_type_symbol
 _atom_site_label
 _atom_site_symmetry_multiplicity
 _atom_site_fract_x
 _atom_site_fract_y
 _atom_site_fract_z
 _atom_site_occupancy
  Al  Al0  1  0.10117000  0.49994000  0.50043000  1.0
  Al  Al1  1  0.60142000  0.50051000  0.49929000  1.0
  Al  Al2  1  0.64423000  0.00035000  0.99908000  1.0
  Al  Al3  1  0.14387000  0.99952000  0.00020000  1.0
  H  H4  1  0.11534000  0.85093000  0.70704000  1.0
  H  H5  1  0.97413000  0.67036000  0.86572000  1.0
  H  H6  1  0.63222000  0.64670000  0.79547000  1.0
  H  H7  1  0.54669000  0.80515000  0.75872000  1.0
  H  H8  1  0.26019000  0.17183000  0.36337000  1.0
  H  H9  1  0.60823000  0.14544000  0.29504000  1.0
  H  H10  1  0.04484000  0.19680000  0.23900000  1.0
  H  H11  1  0.13672000  0.35453000  0.20308000  1.0
  H  H12  1  0.73463000  0.29097000  0.37342000  1.0
  H  H13  1  0.86156000  0.21892000  0.34852000  1.0
  H  H14  1  0.97693000  0.30798000  0.34007000  1.0
  H  H15  1  0.85122000  0.30176000  0.22424000  1.0
  H  H16  1  0.73416000  0.37471000  0.24923000  1.0
  H  H17  1  0.58440000  0.92575000  0.64925000  1.0
  H  H18  1  0.83701000  0.95108000  0.63414000  1.0
  H  H19  1  0.67449000  0.96049000  0.56380000  1.0
  H  H20  1  0.88434000  0.84334000  0.58160000  1.0
  H  H21  1  0.63340000  0.81806000  0.59780000  1.0
  H  H22  1  0.22983000  0.69781000  0.63125000  1.0
  H  H23  1  0.35102000  0.77355000  0.65181000  1.0
  H  H24  1  0.47451000  0.68523000  0.66321000  1.0
  H  H25  1  0.35242000  0.69576000  0.77753000  1.0
  H  H26  1  0.23338000  0.62042000  0.75666000  1.0
  H  H27  1  0.35041000  0.59810000  0.49018000  1.0
  H  H28  1  0.85143000  0.40146000  0.51233000  1.0
  H  H29  1  0.39553000  0.90293000  0.00627000  1.0
  H  H30  1  0.89434000  0.09719000  0.99307000  1.0
  C  C31  1  0.35145000  0.42294000  0.42335000  1.0
  C  C32  1  0.35264000  0.39565000  0.60501000  1.0
  C  C33  1  0.84959000  0.57725000  0.57653000  1.0
  C  C34  1  0.85227000  0.60450000  0.39459000  1.0
  C  C35  1  0.85653000  0.66647000  0.33140000  1.0
  C  C36  1  0.86711000  0.72029000  0.27891000  1.0
  C  C37  1  0.87835000  0.77964000  0.22095000  1.0
  C  C38  1  0.88890000  0.83355000  0.16852000  1.0
  C  C39  1  0.81607000  0.79378000  0.68727000  1.0
  C  C40  1  0.00720000  0.80520000  0.72637000  1.0
  C  C41  1  0.89535000  0.87743000  0.87754000  1.0
  C  C42  1  0.84880000  0.62127000  0.62372000  1.0
  C  C43  1  0.69134000  0.77984000  0.75486000  1.0
  C  C44  1  0.88228000  0.79330000  0.79425000  1.0
  C  C45  1  0.73824000  0.69286000  0.77594000  1.0
  C  C46  1  0.86134000  0.70467000  0.70774000  1.0
  C  C47  1  0.92870000  0.70489000  0.81433000  1.0
  C  C48  1  0.05359000  0.71789000  0.74728000  1.0
  C  C49  1  0.89163000  0.83836000  0.83903000  1.0
  C  C50  1  0.85183000  0.65963000  0.66295000  1.0
  C  C51  1  0.50247000  0.19206000  0.27550000  1.0
  C  C52  1  0.30973000  0.20595000  0.31243000  1.0
  C  C53  1  0.35086000  0.37830000  0.37647000  1.0
  C  C54  1  0.39339000  0.12184000  0.12254000  1.0
  C  C55  1  0.55425000  0.27889000  0.25546000  1.0
  C  C56  1  0.35954000  0.29397000  0.29312000  1.0
  C  C57  1  0.43218000  0.29311000  0.18761000  1.0
  C  C58  1  0.38176000  0.20495000  0.20661000  1.0
  C  C59  1  0.23967000  0.30742000  0.22391000  1.0
  C  C60  1  0.18967000  0.22073000  0.24437000  1.0
  C  C61  1  0.35148000  0.33940000  0.33775000  1.0
  C  C62  1  0.39075000  0.16006000  0.16174000  1.0
  C  C63  1  0.35695000  0.33380000  0.66829000  1.0
  C  C64  1  0.36735000  0.28001000  0.72083000  1.0
  C  C65  1  0.37832000  0.22061000  0.77877000  1.0
  C  C66  1  0.38848000  0.16667000  0.83118000  1.0
  C  C67  1  0.39284000  0.10451000  0.89438000  1.0
  C  C68  1  0.39374000  0.07722000  0.07572000  1.0
  C  C69  1  0.89319000  0.89564000  0.10527000  1.0
  C  C70  1  0.89539000  0.92241000  0.92384000  1.0
  C  C71  1  0.75074000  0.31237000  0.26278000  1.0
  C  C72  1  0.83599000  0.28061000  0.33518000  1.0
  C  C73  1  0.76025000  0.84322000  0.61685000  1.0
  C  C74  1  0.71147000  0.92462000  0.61588000  1.0
  C  C75  1  0.24945000  0.68290000  0.74087000  1.0
  C  C76  1  0.33127000  0.71148000  0.66776000  1.0
  I  I77  1  0.52994000  0.36049000  0.08936000  1.0
  O  O78  1  0.52101000  0.41942000  0.57933000  1.0
  O  O79  1  0.18271000  0.43967000  0.44291000  1.0
  O  O80  1  0.02074000  0.58061000  0.42022000  1.0
  O  O81  1  0.18242000  0.41919000  0.58087000  1.0
  O  O82  1  0.01933000  0.55981000  0.55802000  1.0
  O  O83  1  0.52089000  0.44049000  0.44150000  1.0
  O  O84  1  0.35088000  0.54474000  0.49289000  1.0
  O  O85  1  0.68116000  0.56061000  0.55674000  1.0
  O  O86  1  0.68221000  0.58099000  0.41870000  1.0
  O  O87  1  0.85139000  0.45553000  0.50671000  1.0
  O  O88  1  0.22461000  0.05937000  0.05768000  1.0
  O  O89  1  0.56318000  0.08115000  0.91840000  1.0
  O  O90  1  0.72599000  0.94048000  0.94200000  1.0
  O  O91  1  0.56263000  0.06057000  0.05626000  1.0
  O  O92  1  0.72467000  0.91959000  0.07980000  1.0
  O  O93  1  0.22448000  0.08055000  0.91982000  1.0
  O  O94  1  0.39463000  0.95534000  0.00663000  1.0
  O  O95  1  0.06337000  0.91892000  0.08121000  1.0
  O  O96  1  0.06402000  0.93932000  0.94321000  1.0
  O  O97  1  0.89410000  0.04471000  0.99290000  1.0
