# generated using pymatgen
data_NaH16C10NO2
_symmetry_space_group_name_H-M   'P 1'
_cell_length_a   6.90425000
_cell_length_b   12.34070000
_cell_length_c   13.16090000
_cell_angle_alpha   90.00000000
_cell_angle_beta   90.00000000
_cell_angle_gamma   101.11900000
_symmetry_Int_Tables_number   1
_chemical_formula_structural   NaH16C10NO2
_chemical_formula_sum   'Na4 H64 C40 N4 O8'
_cell_volume   1100.30266517
_cell_formula_units_Z   4
loop_
 _symmetry_equiv_pos_site_id
 _symmetry_equiv_pos_as_xyz
  1  'x, y, z'
loop_
 _atom_site_type_symbol
 _atom_site_label
 _atom_site_symmetry_multiplicity
 _atom_site_fract_x
 _atom_site_fract_y
 _atom_site_fract_z
 _atom_site_occupancy
  Na  Na0  1  0.25794000  0.46987000  0.99844000  1.0
  Na  Na1  1  0.74206000  0.03013000  0.49844000  1.0
  Na  Na2  1  0.74206000  0.53013000  0.00156000  1.0
  Na  Na3  1  0.25794000  0.96987000  0.50156000  1.0
  H  H4  1  0.48496000  0.43295000  0.80843000  1.0
  H  H5  1  0.51504000  0.06705000  0.30843000  1.0
  H  H6  1  0.51504000  0.56705000  0.19157000  1.0
  H  H7  1  0.48497000  0.93295000  0.69157000  1.0
  H  H8  1  0.42356000  0.41358000  0.62354000  1.0
  H  H9  1  0.57645000  0.08642000  0.12354000  1.0
  H  H10  1  0.57644000  0.58642000  0.37646000  1.0
  H  H11  1  0.42356000  0.91358000  0.87646000  1.0
  H  H12  1  0.36606000  0.57249000  0.51959000  1.0
  H  H13  1  0.63394000  0.92751000  0.01959000  1.0
  H  H14  1  0.63394000  0.42751000  0.48041000  1.0
  H  H15  1  0.36606000  0.07249000  0.98041000  1.0
  H  H16  1  0.37546000  0.75535000  0.60522000  1.0
  H  H17  1  0.62454000  0.74465000  0.10522000  1.0
  H  H18  1  0.62453000  0.24465000  0.39478000  1.0
  H  H19  1  0.37546000  0.25535000  0.89478000  1.0
  H  H20  1  0.44179000  0.77680000  0.78876000  1.0
  H  H21  1  0.55821000  0.72320000  0.28876000  1.0
  H  H22  1  0.55820000  0.22320000  0.21124000  1.0
  H  H23  1  0.44179000  0.27680000  0.71125000  1.0
  H  H24  1  0.18129000  0.22234000  0.10321000  1.0
  H  H25  1  0.81872000  0.27766000  0.60321000  1.0
  H  H26  1  0.81872000  0.77766000  0.89679000  1.0
  H  H27  1  0.18128000  0.72234000  0.39679000  1.0
  H  H28  1  0.04046000  0.12220000  0.01884000  1.0
  H  H29  1  0.95954000  0.37780000  0.51884000  1.0
  H  H30  1  0.95955000  0.87780000  0.98116000  1.0
  H  H31  1  0.04045000  0.62220000  0.48116000  1.0
  H  H32  1  0.91597000  0.19781000  0.10532000  1.0
  H  H33  1  0.08403000  0.30219000  0.60532000  1.0
  H  H34  1  0.08403000  0.80219000  0.89468000  1.0
  H  H35  1  0.91597000  0.69781000  0.39468000  1.0
  H  H36  1  0.75843000  0.28661000  0.96734000  1.0
  H  H37  1  0.24157000  0.21339000  0.46734000  1.0
  H  H38  1  0.24157000  0.71339000  0.03266000  1.0
  H  H39  1  0.75843000  0.78661000  0.53266000  1.0
  H  H40  1  0.85262000  0.19117000  0.88851000  1.0
  H  H41  1  0.14738000  0.30883000  0.38851000  1.0
  H  H42  1  0.14738000  0.80883000  0.11149000  1.0
  H  H43  1  0.85262000  0.69117000  0.61149000  1.0
  H  H44  1  0.04937000  0.34609000  0.78903000  1.0
  H  H45  1  0.95063000  0.15391000  0.28903000  1.0
  H  H46  1  0.95063000  0.65391000  0.21097000  1.0
  H  H47  1  0.04937000  0.84609000  0.71097000  1.0
  H  H48  1  0.78893000  0.34486000  0.78662000  1.0
  H  H49  1  0.21107000  0.15514000  0.28662000  1.0
  H  H50  1  0.21107000  0.65514000  0.21338000  1.0
  H  H51  1  0.78893000  0.84486000  0.71338000  1.0
  H  H52  1  0.08371000  0.53160000  0.73750000  1.0
  H  H53  1  0.91629000  0.96840000  0.23750000  1.0
  H  H54  1  0.91629000  0.46840000  0.26250000  1.0
  H  H55  1  0.08371000  0.03160000  0.76250000  1.0
  H  H56  1  0.03659000  0.62901000  0.82964000  1.0
  H  H57  1  0.96341000  0.87099000  0.32964000  1.0
  H  H58  1  0.96341000  0.37099000  0.17036000  1.0
  H  H59  1  0.03659000  0.12901000  0.67036000  1.0
  H  H60  1  0.83319000  0.54861000  0.76072000  1.0
  H  H61  1  0.16682000  0.95139000  0.26072000  1.0
  H  H62  1  0.16681000  0.45139000  0.23928000  1.0
  H  H63  1  0.83319000  0.04861000  0.73928000  1.0
  H  H64  1  0.49806000  0.69341000  0.94035000  1.0
  H  H65  1  0.50194000  0.80659000  0.44036000  1.0
  H  H66  1  0.50194000  0.30659000  0.05964000  1.0
  H  H67  1  0.49806000  0.19341000  0.55965000  1.0
  C  C68  1  0.46806000  0.60696000  0.81575000  1.0
  C  C69  1  0.53194000  0.89304000  0.31575000  1.0
  C  C70  1  0.53194000  0.39304000  0.18425000  1.0
  C  C71  1  0.46806000  0.10696000  0.68425000  1.0
  C  C72  1  0.46219000  0.50427000  0.76392000  1.0
  C  C73  1  0.53781000  0.99573000  0.26393000  1.0
  C  C74  1  0.53781000  0.49573000  0.23608000  1.0
  C  C75  1  0.46219000  0.00427000  0.73607000  1.0
  C  C76  1  0.42695000  0.49345000  0.65998000  1.0
  C  C77  1  0.57305000  0.00655000  0.15998000  1.0
  C  C78  1  0.57304000  0.50655000  0.34002000  1.0
  C  C79  1  0.42695000  0.99345000  0.84002000  1.0
  C  C80  1  0.39474000  0.58263000  0.60070000  1.0
  C  C81  1  0.60526000  0.91737000  0.10070000  1.0
  C  C82  1  0.60526000  0.41737000  0.39930000  1.0
  C  C83  1  0.39474000  0.08263000  0.89930000  1.0
  C  C84  1  0.40231000  0.68463000  0.64908000  1.0
  C  C85  1  0.59769000  0.81537000  0.14907000  1.0
  C  C86  1  0.59769000  0.31537000  0.35092000  1.0
  C  C87  1  0.40231000  0.18463000  0.85093000  1.0
  C  C88  1  0.43980000  0.69695000  0.75261000  1.0
  C  C89  1  0.56019000  0.80305000  0.25261000  1.0
  C  C90  1  0.56019000  0.30305000  0.24740000  1.0
  C  C91  1  0.43981000  0.19695000  0.74739000  1.0
  C  C92  1  0.04748000  0.20263000  0.05662000  1.0
  C  C93  1  0.95252000  0.29737000  0.55662000  1.0
  C  C94  1  0.95252000  0.79737000  0.94338000  1.0
  C  C95  1  0.04748000  0.70263000  0.44338000  1.0
  C  C96  1  0.88652000  0.27525000  0.92095000  1.0
  C  C97  1  0.11348000  0.22475000  0.42095000  1.0
  C  C98  1  0.11349000  0.72475000  0.07905000  1.0
  C  C99  1  0.88652000  0.77525000  0.57905000  1.0
  C  C100  1  0.92141000  0.35769000  0.83535000  1.0
  C  C101  1  0.07859000  0.14231000  0.33535000  1.0
  C  C102  1  0.07859000  0.64231000  0.16465000  1.0
  C  C103  1  0.92141000  0.85769000  0.66465000  1.0
  C  C104  1  0.97856000  0.54866000  0.79527000  1.0
  C  C105  1  0.02144000  0.95134000  0.29527000  1.0
  C  C106  1  0.02144000  0.45134000  0.20473000  1.0
  C  C107  1  0.97856000  0.04866000  0.70473000  1.0
  N  N108  1  0.49576000  0.61357000  0.91803000  1.0
  N  N109  1  0.50424000  0.88643000  0.41803000  1.0
  N  N110  1  0.50424000  0.38643000  0.08197000  1.0
  N  N111  1  0.49576000  0.11357000  0.58197000  1.0
  O  O112  1  0.95966000  0.46800000  0.87596000  1.0
  O  O113  1  0.04034000  0.03200000  0.37596000  1.0
  O  O114  1  0.04034000  0.53200000  0.12404000  1.0
  O  O115  1  0.95966000  0.96800000  0.62404000  1.0
  O  O116  1  0.05909000  0.28899000  0.98339000  1.0
  O  O117  1  0.94091000  0.21101000  0.48339000  1.0
  O  O118  1  0.94091000  0.71101000  0.01661000  1.0
  O  O119  1  0.05909000  0.78899000  0.51661000  1.0
