# generated using pymatgen
data_Zn2H21C40N3O10
_symmetry_space_group_name_H-M   'P 1'
_cell_length_a   9.72621000
_cell_length_b   11.00530000
_cell_length_c   14.69000000
_cell_angle_alpha   86.67980000
_cell_angle_beta   77.08660000
_cell_angle_gamma   88.24040000
_symmetry_Int_Tables_number   1
_chemical_formula_structural   Zn2H21C40N3O10
_chemical_formula_sum   'Zn2 H21 C40 N3 O10'
_cell_volume   1529.81993134
_cell_formula_units_Z   1
loop_
 _symmetry_equiv_pos_site_id
 _symmetry_equiv_pos_as_xyz
  1  'x, y, z'
loop_
 _atom_site_type_symbol
 _atom_site_label
 _atom_site_symmetry_multiplicity
 _atom_site_fract_x
 _atom_site_fract_y
 _atom_site_fract_z
 _atom_site_occupancy
  Zn  Zn0  1  0.13566000  0.49168000  0.50649000  1.0
  Zn  Zn1  1  0.85277000  0.49631000  0.49239000  1.0
  H  H2  1  0.73331000  0.76795000  0.06523000  1.0
  H  H3  1  0.91697000  0.48412000  0.18739000  1.0
  H  H4  1  0.20498000  0.48660000  0.87921000  1.0
  H  H5  1  0.94673000  0.72924000  0.94315000  1.0
  H  H6  1  0.05997000  0.64488000  0.78910000  1.0
  H  H7  1  0.66550000  0.50279000  0.76701000  1.0
  H  H8  1  0.48850000  0.72767000  0.13713000  1.0
  H  H9  1  0.45686000  0.51247000  0.81030000  1.0
  H  H10  1  0.00881000  0.47901000  0.01446000  1.0
  H  H11  1  0.79226000  0.12035000  0.48588000  1.0
  H  H12  1  0.27619000  0.19735000  0.48845000  1.0
  H  H13  1  0.47675000  0.07092000  0.51755000  1.0
  H  H14  1  0.44267000  0.84911000  0.56432000  1.0
  H  H15  1  0.21878000  0.75346000  0.55955000  1.0
  H  H16  1  0.78152000  0.89300000  0.48770000  1.0
  H  H17  1  0.65111000  0.61818000  0.39907000  1.0
  H  H18  1  0.71733000  0.32033000  0.62415000  1.0
  H  H19  1  0.55613000  0.18858000  0.74075000  1.0
  H  H20  1  0.29626000  0.20179000  0.75265000  1.0
  H  H21  1  0.19721000  0.34331000  0.64558000  1.0
  H  H22  1  0.38933000  0.62306000  0.40512000  1.0
  C  C23  1  0.99993000  0.25841000  0.49772000  1.0
  C  C24  1  0.93170000  0.52116000  0.67762000  1.0
  C  C25  1  0.98056000  0.72911000  0.49982000  1.0
  C  C26  1  0.06518000  0.51444000  0.31783000  1.0
  C  C27  1  0.86656000  0.56836000  0.77104000  1.0
  C  C28  1  0.11580000  0.53484000  0.21351000  1.0
  C  C29  1  0.88508000  0.67917000  0.90468000  1.0
  C  C30  1  0.94830000  0.63250000  0.82009000  1.0
  C  C31  1  0.72337000  0.55298000  0.80759000  1.0
  C  C32  1  0.65588000  0.59847000  0.89443000  1.0
  C  C33  1  0.73947000  0.66283000  0.94380000  1.0
  C  C34  1  0.50747000  0.58005000  0.93543000  1.0
  C  C35  1  0.45087000  0.61335000  0.02858000  1.0
  C  C36  1  0.53504000  0.68597000  0.07183000  1.0
  C  C37  1  0.67275000  0.71079000  0.03084000  1.0
  C  C38  1  0.41569000  0.53267000  0.88317000  1.0
  C  C39  1  0.27521000  0.51709000  0.92140000  1.0
  C  C40  1  0.21849000  0.53419000  0.01813000  1.0
  C  C41  1  0.30921000  0.57545000  0.07421000  1.0
  C  C42  1  0.07655000  0.50590000  0.05950000  1.0
  C  C43  1  0.02527000  0.50830000  0.15479000  1.0
  C  C44  1  0.25342000  0.56869000  0.17223000  1.0
  C  C45  1  0.26340000  0.10037000  0.50394000  1.0
  C  C46  1  0.37508000  0.02941000  0.52100000  1.0
  C  C47  1  0.35713000  0.90402000  0.54502000  1.0
  C  C48  1  0.23189000  0.85028000  0.54287000  1.0
  C  C49  1  0.11757000  0.91909000  0.51877000  1.0
  C  C50  1  0.12928000  0.04978000  0.50709000  1.0
  C  C51  1  0.00670000  0.12176000  0.49769000  1.0
  C  C52  1  0.88372000  0.06404000  0.49303000  1.0
  C  C53  1  0.87696000  0.93672000  0.49550000  1.0
  C  C54  1  0.99109000  0.86386000  0.50719000  1.0
  C  C55  1  0.60432000  0.32448000  0.62892000  1.0
  C  C56  1  0.51355000  0.25228000  0.69397000  1.0
  C  C57  1  0.36621000  0.25988000  0.70092000  1.0
  C  C58  1  0.30995000  0.33859000  0.64194000  1.0
  C  C59  1  0.40030000  0.41304000  0.57388000  1.0
  C  C60  1  0.54953000  0.40772000  0.56831000  1.0
  C  C61  1  0.57998000  0.55877000  0.44895000  1.0
  C  C62  1  0.43373000  0.56173000  0.45256000  1.0
  N  N63  1  0.63649000  0.48333000  0.50458000  1.0
  N  N64  1  0.34667000  0.48995000  0.51308000  1.0
  N  N65  1  0.34731000  0.59271000  0.23540000  1.0
  O  O66  1  0.09553000  0.31244000  0.52638000  1.0
  O  O67  1  0.89592000  0.31273000  0.47253000  1.0
  O  O68  1  0.06397000  0.53391000  0.64651000  1.0
  O  O69  1  0.85008000  0.47251000  0.63362000  1.0
  O  O70  1  0.09622000  0.66916000  0.47646000  1.0
  O  O71  1  0.85840000  0.68287000  0.51410000  1.0
  O  O72  1  0.15681000  0.47557000  0.36245000  1.0
  O  O73  1  0.93448000  0.53405000  0.35169000  1.0
  O  O74  1  0.44507000  0.51941000  0.23878000  1.0
  O  O75  1  0.32416000  0.68787000  0.27832000  1.0
