# generated using pymatgen
data_FeH20C26(SN3)2
_symmetry_space_group_name_H-M   'P 1'
_cell_length_a   14.45740000
_cell_length_b   15.60760000
_cell_length_c   15.87180000
_cell_angle_alpha   90.00000000
_cell_angle_beta   90.00040000
_cell_angle_gamma   90.00000000
_symmetry_Int_Tables_number   1
_chemical_formula_structural   FeH20C26(SN3)2
_chemical_formula_sum   'Fe4 H80 C104 S8 N24'
_cell_volume   3581.39733021
_cell_formula_units_Z   4
loop_
 _symmetry_equiv_pos_site_id
 _symmetry_equiv_pos_as_xyz
  1  'x, y, z'
loop_
 _atom_site_type_symbol
 _atom_site_label
 _atom_site_symmetry_multiplicity
 _atom_site_fract_x
 _atom_site_fract_y
 _atom_site_fract_z
 _atom_site_occupancy
  Fe  Fe0  1  0.25000000  0.24880000  0.75000000  1.0
  Fe  Fe1  1  0.75000000  0.25120000  0.25000000  1.0
  Fe  Fe2  1  0.75000000  0.75120000  0.25000000  1.0
  Fe  Fe3  1  0.25000000  0.74880000  0.75000000  1.0
  H  H4  1  0.44453000  0.28265000  0.78874000  1.0
  H  H5  1  0.05547000  0.28265000  0.71126000  1.0
  H  H6  1  0.94453000  0.21735000  0.21126000  1.0
  H  H7  1  0.55547000  0.21735000  0.28874000  1.0
  H  H8  1  0.55547000  0.71735000  0.21126000  1.0
  H  H9  1  0.94453000  0.71735000  0.28874000  1.0
  H  H10  1  0.05547000  0.78265000  0.78874000  1.0
  H  H11  1  0.44453000  0.78265000  0.71126000  1.0
  H  H12  1  0.53288000  0.37756000  0.88299000  1.0
  H  H13  1  0.96712000  0.37756000  0.61701000  1.0
  H  H14  1  0.03288000  0.12244000  0.11701000  1.0
  H  H15  1  0.46712000  0.12244000  0.38299000  1.0
  H  H16  1  0.46712000  0.62243000  0.11701000  1.0
  H  H17  1  0.03288000  0.62243000  0.38299000  1.0
  H  H18  1  0.96712000  0.87756000  0.88299000  1.0
  H  H19  1  0.53288000  0.87756000  0.61701000  1.0
  H  H20  1  0.27504000  0.50430000  0.94367000  1.0
  H  H21  1  0.22496000  0.50430000  0.55633000  1.0
  H  H22  1  0.77504000  0.99570000  0.05633000  1.0
  H  H23  1  0.72496000  0.99570000  0.44367000  1.0
  H  H24  1  0.72496000  0.49570000  0.05633000  1.0
  H  H25  1  0.77504000  0.49570000  0.44367000  1.0
  H  H26  1  0.22496000  0.00430000  0.94367000  1.0
  H  H27  1  0.27504000  0.00430000  0.55633000  1.0
  H  H28  1  0.19665000  0.40138000  0.84853000  1.0
  H  H29  1  0.30335000  0.40138000  0.65147000  1.0
  H  H30  1  0.69665000  0.09861000  0.15147000  1.0
  H  H31  1  0.80335000  0.09861000  0.34853000  1.0
  H  H32  1  0.80335000  0.59862000  0.15147000  1.0
  H  H33  1  0.69665000  0.59861000  0.34853000  1.0
  H  H34  1  0.30335000  0.90139000  0.84853000  1.0
  H  H35  1  0.19665000  0.90139000  0.65147000  1.0
  H  H36  1  0.41563000  0.56012000  0.00630000  1.0
  H  H37  1  0.08437000  0.56012000  0.49370000  1.0
  H  H38  1  0.91562000  0.93988000  0.99370000  1.0
  H  H39  1  0.58438000  0.93988000  0.50630000  1.0
  H  H40  1  0.58438000  0.43988000  0.99370000  1.0
  H  H41  1  0.91562000  0.43988000  0.50630000  1.0
  H  H42  1  0.08438000  0.06012000  0.00630000  1.0
  H  H43  1  0.41562000  0.06012000  0.49370000  1.0
  H  H44  1  0.13949000  0.09394000  0.79012000  1.0
  H  H45  1  0.36051000  0.09394000  0.70988000  1.0
  H  H46  1  0.63949000  0.40606000  0.20988000  1.0
  H  H47  1  0.86051000  0.40606000  0.29012000  1.0
  H  H48  1  0.86052000  0.90606000  0.20988000  1.0
  H  H49  1  0.63948000  0.90606000  0.29012000  1.0
  H  H50  1  0.36051000  0.59394000  0.79012000  1.0
  H  H51  1  0.13949000  0.59394000  0.70988000  1.0
  H  H52  1  0.04155000  0.99232000  0.70958000  1.0
  H  H53  1  0.45845000  0.99232000  0.79042000  1.0
  H  H54  1  0.54155000  0.50768000  0.29042000  1.0
  H  H55  1  0.95845000  0.50768000  0.20958000  1.0
  H  H56  1  0.95845000  0.00768000  0.29042000  1.0
  H  H57  1  0.54155000  0.00768000  0.20958000  1.0
  H  H58  1  0.45845000  0.49232000  0.70958000  1.0
  H  H59  1  0.04155000  0.49232000  0.79042000  1.0
  H  H60  1  0.12864000  0.12312000  0.48233000  1.0
  H  H61  1  0.37135000  0.12312000  0.01767000  1.0
  H  H62  1  0.62865000  0.37688000  0.51767000  1.0
  H  H63  1  0.87135000  0.37688000  0.98233000  1.0
  H  H64  1  0.87135000  0.87688000  0.51767000  1.0
  H  H65  1  0.62865000  0.87688000  0.98233000  1.0
  H  H66  1  0.37135000  0.62312000  0.48233000  1.0
  H  H67  1  0.12865000  0.62312000  0.01767000  1.0
  H  H68  1  0.22410000  0.21697000  0.57173000  1.0
  H  H69  1  0.27590000  0.21697000  0.92827000  1.0
  H  H70  1  0.72410000  0.28303000  0.42827000  1.0
  H  H71  1  0.77590000  0.28303000  0.07173000  1.0
  H  H72  1  0.77590000  0.78303000  0.42827000  1.0
  H  H73  1  0.72410000  0.78303000  0.07173000  1.0
  H  H74  1  0.27590000  0.71697000  0.57173000  1.0
  H  H75  1  0.22410000  0.71697000  0.92827000  1.0
  H  H76  1  0.98456000  0.93875000  0.57515000  1.0
  H  H77  1  0.51544000  0.93875000  0.92485000  1.0
  H  H78  1  0.48456000  0.56125000  0.42485000  1.0
  H  H79  1  0.01544000  0.56125000  0.07515000  1.0
  H  H80  1  0.01544000  0.06125000  0.42485000  1.0
  H  H81  1  0.48456000  0.06125000  0.07515000  1.0
  H  H82  1  0.51544000  0.43875000  0.57515000  1.0
  H  H83  1  0.98456000  0.43875000  0.92485000  1.0
  C  C84  1  0.40968000  0.33225000  0.82487000  1.0
  C  C85  1  0.09032000  0.33225000  0.67513000  1.0
  C  C86  1  0.90968000  0.16775000  0.17513000  1.0
  C  C87  1  0.59032000  0.16775000  0.32487000  1.0
  C  C88  1  0.59031000  0.66775000  0.17513000  1.0
  C  C89  1  0.90968000  0.66775000  0.32487000  1.0
  C  C90  1  0.09032000  0.83225000  0.82487000  1.0
  C  C91  1  0.40968000  0.83225000  0.67513000  1.0
  C  C92  1  0.45841000  0.38615000  0.87780000  1.0
  C  C93  1  0.04159000  0.38615000  0.62220000  1.0
  C  C94  1  0.95841000  0.11385000  0.12220000  1.0
  C  C95  1  0.54159000  0.11385000  0.37780000  1.0
  C  C96  1  0.54159000  0.61384000  0.12220000  1.0
  C  C97  1  0.95841000  0.61385000  0.37780000  1.0
  C  C98  1  0.04159000  0.88615000  0.87780000  1.0
  C  C99  1  0.45841000  0.88615000  0.62220000  1.0
  C  C100  1  0.41176000  0.44980000  0.92439000  1.0
  C  C101  1  0.08824000  0.44980000  0.57561000  1.0
  C  C102  1  0.91176000  0.05020000  0.07561000  1.0
  C  C103  1  0.58824000  0.05020000  0.42439000  1.0
  C  C104  1  0.58824000  0.55019000  0.07561000  1.0
  C  C105  1  0.91176000  0.55019000  0.42439000  1.0
  C  C106  1  0.08824000  0.94980000  0.92439000  1.0
  C  C107  1  0.41176000  0.94980000  0.57561000  1.0
  C  C108  1  0.31577000  0.45600000  0.91071000  1.0
  C  C109  1  0.18423000  0.45600000  0.58929000  1.0
  C  C110  1  0.81577000  0.04400000  0.08929000  1.0
  C  C111  1  0.68423000  0.04400000  0.41071000  1.0
  C  C112  1  0.68423000  0.54400000  0.08929000  1.0
  C  C113  1  0.81577000  0.54400000  0.41071000  1.0
  C  C114  1  0.18423000  0.95601000  0.91071000  1.0
  C  C115  1  0.31577000  0.95601000  0.58929000  1.0
  C  C116  1  0.27114000  0.39920000  0.85736000  1.0
  C  C117  1  0.22886000  0.39920000  0.64264000  1.0
  C  C118  1  0.77114000  0.10080000  0.14265000  1.0
  C  C119  1  0.72886000  0.10081000  0.35735000  1.0
  C  C120  1  0.72886000  0.60080000  0.14264000  1.0
  C  C121  1  0.77114000  0.60080000  0.35736000  1.0
  C  C122  1  0.22886000  0.89920000  0.85735000  1.0
  C  C123  1  0.27114000  0.89919000  0.64265000  1.0
  C  C124  1  0.45671000  0.50566000  0.98464000  1.0
  C  C125  1  0.04329000  0.50566000  0.51536000  1.0
  C  C126  1  0.95671000  0.99434000  0.01536000  1.0
  C  C127  1  0.54329000  0.99434000  0.48464000  1.0
  C  C128  1  0.54329000  0.49434000  0.01536000  1.0
  C  C129  1  0.95671000  0.49434000  0.48464000  1.0
  C  C130  1  0.04329000  0.00566000  0.98464000  1.0
  C  C131  1  0.45671000  0.00566000  0.51536000  1.0
  C  C132  1  0.13536000  0.09765000  0.72183000  1.0
  C  C133  1  0.36464000  0.09765000  0.77817000  1.0
  C  C134  1  0.63536000  0.40235000  0.27817000  1.0
  C  C135  1  0.86464000  0.40235000  0.22183000  1.0
  C  C136  1  0.86464000  0.90235000  0.27817000  1.0
  C  C137  1  0.63536000  0.90235000  0.22183000  1.0
  C  C138  1  0.36464000  0.59765000  0.72183000  1.0
  C  C139  1  0.13536000  0.59765000  0.77817000  1.0
  C  C140  1  0.08065000  0.04147000  0.67613000  1.0
  C  C141  1  0.41935000  0.04147000  0.82387000  1.0
  C  C142  1  0.58065000  0.45853000  0.32387000  1.0
  C  C143  1  0.91935000  0.45853000  0.17613000  1.0
  C  C144  1  0.91935000  0.95853000  0.32387000  1.0
  C  C145  1  0.58065000  0.95853000  0.17613000  1.0
  C  C146  1  0.41935000  0.54147000  0.67613000  1.0
  C  C147  1  0.08065000  0.54147000  0.82387000  1.0
  C  C148  1  0.07362000  0.04917000  0.58792000  1.0
  C  C149  1  0.42638000  0.04917000  0.91208000  1.0
  C  C150  1  0.57362000  0.45084000  0.41208000  1.0
  C  C151  1  0.92638000  0.45084000  0.08792000  1.0
  C  C152  1  0.92638000  0.95084000  0.41208000  1.0
  C  C153  1  0.57362000  0.95084000  0.08792000  1.0
  C  C154  1  0.42638000  0.54916000  0.58792000  1.0
  C  C155  1  0.07362000  0.54916000  0.91208000  1.0
  C  C156  1  0.12832000  0.11342000  0.55021000  1.0
  C  C157  1  0.37168000  0.11342000  0.94979000  1.0
  C  C158  1  0.62832000  0.38659000  0.44979000  1.0
  C  C159  1  0.87168000  0.38659000  0.05021000  1.0
  C  C160  1  0.87168000  0.88659000  0.44979000  1.0
  C  C161  1  0.62832000  0.88659000  0.05021000  1.0
  C  C162  1  0.37168000  0.61341000  0.55021000  1.0
  C  C163  1  0.12832000  0.61341000  0.94979000  1.0
  C  C164  1  0.18172000  0.16685000  0.59955000  1.0
  C  C165  1  0.31828000  0.16685000  0.90045000  1.0
  C  C166  1  0.68172000  0.33315000  0.40045000  1.0
  C  C167  1  0.81828000  0.33315000  0.09955000  1.0
  C  C168  1  0.81828000  0.83315000  0.40045000  1.0
  C  C169  1  0.68172000  0.83315000  0.09955000  1.0
  C  C170  1  0.31828000  0.66685000  0.59955000  1.0
  C  C171  1  0.18172000  0.66685000  0.90045000  1.0
  C  C172  1  0.01222000  0.99383000  0.54080000  1.0
  C  C173  1  0.48778000  0.99383000  0.95920000  1.0
  C  C174  1  0.51222000  0.50618000  0.45920000  1.0
  C  C175  1  0.98777000  0.50618000  0.04080000  1.0
  C  C176  1  0.98777000  0.00618000  0.45920000  1.0
  C  C177  1  0.51223000  0.00618000  0.04080000  1.0
  C  C178  1  0.48778000  0.49382000  0.54080000  1.0
  C  C179  1  0.01223000  0.49382000  0.95920000  1.0
  C  C180  1  0.08911000  0.24538000  0.87760000  1.0
  C  C181  1  0.41089000  0.24538000  0.62240000  1.0
  C  C182  1  0.58910000  0.25462000  0.12241000  1.0
  C  C183  1  0.91089000  0.25462000  0.37759000  1.0
  C  C184  1  0.91089000  0.75462000  0.12241000  1.0
  C  C185  1  0.58911000  0.75462000  0.37759000  1.0
  C  C186  1  0.41089000  0.74538000  0.87759000  1.0
  C  C187  1  0.08911000  0.74538000  0.62241000  1.0
  S  S188  1  0.00266000  0.24092000  0.94200000  1.0
  S  S189  1  0.49734000  0.24092000  0.55800000  1.0
  S  S190  1  0.50266000  0.25908000  0.05801000  1.0
  S  S191  1  0.99734000  0.25908000  0.44199000  1.0
  S  S192  1  0.99734000  0.75908000  0.05801000  1.0
  S  S193  1  0.50266000  0.75908000  0.44199000  1.0
  S  S194  1  0.49734000  0.74092000  0.94200000  1.0
  S  S195  1  0.00266000  0.74092000  0.55800000  1.0
  N  N196  1  0.31644000  0.33658000  0.81516000  1.0
  N  N197  1  0.18357000  0.33658000  0.68484000  1.0
  N  N198  1  0.81643000  0.16342000  0.18484000  1.0
  N  N199  1  0.68356000  0.16342000  0.31516000  1.0
  N  N200  1  0.68356000  0.66342000  0.18484000  1.0
  N  N201  1  0.81644000  0.66342000  0.31516000  1.0
  N  N202  1  0.18357000  0.83658000  0.81516000  1.0
  N  N203  1  0.31643000  0.83658000  0.68484000  1.0
  N  N204  1  0.18462000  0.16122000  0.68490000  1.0
  N  N205  1  0.31538000  0.16122000  0.81510000  1.0
  N  N206  1  0.68462000  0.33878000  0.31510000  1.0
  N  N207  1  0.81538000  0.33878000  0.18490000  1.0
  N  N208  1  0.81538000  0.83879000  0.31510000  1.0
  N  N209  1  0.68462000  0.83879000  0.18490000  1.0
  N  N210  1  0.31538000  0.66121000  0.68490000  1.0
  N  N211  1  0.18462000  0.66121000  0.81510000  1.0
  N  N212  1  0.15299000  0.24866000  0.83047000  1.0
  N  N213  1  0.34701000  0.24866000  0.66953000  1.0
  N  N214  1  0.65299000  0.25134000  0.16953000  1.0
  N  N215  1  0.84701000  0.25134000  0.33047000  1.0
  N  N216  1  0.84701000  0.75134000  0.16953000  1.0
  N  N217  1  0.65299000  0.75134000  0.33047000  1.0
  N  N218  1  0.34701000  0.74866000  0.83047000  1.0
  N  N219  1  0.15299000  0.74866000  0.66953000  1.0
