# generated using pymatgen
data_BiH17C13(NO5)2
_symmetry_space_group_name_H-M   'P 1'
_cell_length_a   9.69072000
_cell_length_b   9.93793000
_cell_length_c   11.58760000
_cell_angle_alpha   65.49780000
_cell_angle_beta   66.96260000
_cell_angle_gamma   63.86360000
_symmetry_Int_Tables_number   1
_chemical_formula_structural   BiH17C13(NO5)2
_chemical_formula_sum   'Bi2 H34 C26 N4 O20'
_cell_volume   881.38823435
_cell_formula_units_Z   2
loop_
 _symmetry_equiv_pos_site_id
 _symmetry_equiv_pos_as_xyz
  1  'x, y, z'
loop_
 _atom_site_type_symbol
 _atom_site_label
 _atom_site_symmetry_multiplicity
 _atom_site_fract_x
 _atom_site_fract_y
 _atom_site_fract_z
 _atom_site_occupancy
  Bi  Bi0  1  0.27786000  0.38038000  0.27132000  1.0
  Bi  Bi1  1  0.72214000  0.61962000  0.72868000  1.0
  H  H2  1  0.76567000  0.16979000  0.84123000  1.0
  H  H3  1  0.23433000  0.83020000  0.15876000  1.0
  H  H4  1  0.96270000  0.10950000  0.73855000  1.0
  H  H5  1  0.03730000  0.89050000  0.26145000  1.0
  H  H6  1  0.93382000  0.11511000  0.89935000  1.0
  H  H7  1  0.06618000  0.88488000  0.10065000  1.0
  H  H8  1  0.58816000  0.10737000  0.42953000  1.0
  H  H9  1  0.41184000  0.89263000  0.57047000  1.0
  H  H10  1  0.59461000  0.48293000  0.39070000  1.0
  H  H11  1  0.40539000  0.51707000  0.60930000  1.0
  H  H12  1  0.80850000  0.40898000  0.34989000  1.0
  H  H13  1  0.19150000  0.59102000  0.65011000  1.0
  H  H14  1  0.69872000  0.39501000  0.51627000  1.0
  H  H15  1  0.30128000  0.60499000  0.48373000  1.0
  H  H16  1  0.82251000  0.99872000  0.46789000  1.0
  H  H17  1  0.17749000  0.00129000  0.53211000  1.0
  H  H18  1  0.85176000  0.09055000  0.55641000  1.0
  H  H19  1  0.14824000  0.90945000  0.44359000  1.0
  H  H20  1  0.94190000  0.12489000  0.38487000  1.0
  H  H21  1  0.05810000  0.87511000  0.61513000  1.0
  H  H22  1  0.34696000  0.04809000  0.20217000  1.0
  H  H23  1  0.65304000  0.95191000  0.79783000  1.0
  H  H24  1  0.46397000  0.87115000  0.10254000  1.0
  H  H25  1  0.53603000  0.12885000  0.89745000  1.0
  H  H26  1  0.57880000  0.69043000  0.19262000  1.0
  H  H27  1  0.42119000  0.30958000  0.80738000  1.0
  H  H28  1  0.67565000  0.81312000  0.05153000  1.0
  H  H29  1  0.32435000  0.18688000  0.94847000  1.0
  H  H30  1  0.69988000  0.91892000  0.31058000  1.0
  H  H31  1  0.30012000  0.08108000  0.68942000  1.0
  H  H32  1  0.81600000  0.83488000  0.17867000  1.0
  H  H33  1  0.18399000  0.16512000  0.82133000  1.0
  H  H34  1  0.72706000  0.72031000  0.33309000  1.0
  H  H35  1  0.27293000  0.27969000  0.66691000  1.0
  C  C36  1  0.06465000  0.55143000  0.06022000  1.0
  C  C37  1  0.93535000  0.44857000  0.93978000  1.0
  C  C38  1  0.00832000  0.65910000  0.94938000  1.0
  C  C39  1  0.99169000  0.34090000  0.05061000  1.0
  C  C40  1  0.94037000  0.61589000  0.88835000  1.0
  C  C41  1  0.05965000  0.38410000  0.11164000  1.0
  C  C42  1  0.02537000  0.81731000  0.89606000  1.0
  C  C43  1  0.97463000  0.18269000  0.10395000  1.0
  C  C44  1  0.88814000  0.09187000  0.83933000  1.0
  C  C45  1  0.11187000  0.90812000  0.16067000  1.0
  C  C46  1  0.01556000  0.58023000  0.46845000  1.0
  C  C47  1  0.98443000  0.41978000  0.53155000  1.0
  C  C48  1  0.50239000  0.43718000  0.97459000  1.0
  C  C49  1  0.49761000  0.56282000  0.02541000  1.0
  C  C50  1  0.57323000  0.22637000  0.42313000  1.0
  C  C51  1  0.42677000  0.77364000  0.57687000  1.0
  C  C52  1  0.69918000  0.39125000  0.42267000  1.0
  C  C53  1  0.30083000  0.60876000  0.57733000  1.0
  C  C54  1  0.83612000  0.10513000  0.46241000  1.0
  C  C55  1  0.16389000  0.89487000  0.53758000  1.0
  C  C56  1  0.44374000  0.01463000  0.24674000  1.0
  C  C57  1  0.55625000  0.98537000  0.75326000  1.0
  C  C58  1  0.57250000  0.81236000  0.13678000  1.0
  C  C59  1  0.42750000  0.18765000  0.86322000  1.0
  C  C60  1  0.71167000  0.83831000  0.26306000  1.0
  C  C61  1  0.28833000  0.16169000  0.73693000  1.0
  N  N62  1  0.69672000  0.24015000  0.43588000  1.0
  N  N63  1  0.30329000  0.75985000  0.56412000  1.0
  N  N64  1  0.57002000  0.89343000  0.21777000  1.0
  N  N65  1  0.42998000  0.10657000  0.78223000  1.0
  O  O66  1  0.11587000  0.58787000  0.12469000  1.0
  O  O67  1  0.88413000  0.41213000  0.87532000  1.0
  O  O68  1  0.88663000  0.70617000  0.78862000  1.0
  O  O69  1  0.11339000  0.29382000  0.21137000  1.0
  O  O70  1  0.15207000  0.84062000  0.85821000  1.0
  O  O71  1  0.84793000  0.15938000  0.14181000  1.0
  O  O72  1  0.88277000  0.93301000  0.89473000  1.0
  O  O73  1  0.11723000  0.06698000  0.10527000  1.0
  O  O74  1  0.92459000  0.68882000  0.52119000  1.0
  O  O75  1  0.07540000  0.31118000  0.47881000  1.0
  O  O76  1  0.13117000  0.59221000  0.36798000  1.0
  O  O77  1  0.86883000  0.40779000  0.63202000  1.0
  O  O78  1  0.43080000  0.34056000  0.05364000  1.0
  O  O79  1  0.56920000  0.65944000  0.94636000  1.0
  O  O80  1  0.57674000  0.43925000  0.85659000  1.0
  O  O81  1  0.42326000  0.56075000  0.14342000  1.0
  O  O82  1  0.44701000  0.33937000  0.40627000  1.0
  O  O83  1  0.55298000  0.66063000  0.59373000  1.0
  O  O84  1  0.43094000  0.08701000  0.31968000  1.0
  O  O85  1  0.56905000  0.91299000  0.68033000  1.0
