# generated using pymatgen
data_SnH10C5(SN)2
_symmetry_space_group_name_H-M   'P 1'
_cell_length_a   8.76241000
_cell_length_b   10.10100000
_cell_length_c   10.91460000
_cell_angle_alpha   90.00060000
_cell_angle_beta   90.00010000
_cell_angle_gamma   87.38330000
_symmetry_Int_Tables_number   1
_chemical_formula_structural   SnH10C5(SN)2
_chemical_formula_sum   'Sn4 H40 C20 S8 N8'
_cell_volume   965.03417382
_cell_formula_units_Z   4
loop_
 _symmetry_equiv_pos_site_id
 _symmetry_equiv_pos_as_xyz
  1  'x, y, z'
loop_
 _atom_site_type_symbol
 _atom_site_label
 _atom_site_symmetry_multiplicity
 _atom_site_fract_x
 _atom_site_fract_y
 _atom_site_fract_z
 _atom_site_occupancy
  Sn  Sn0  1  0.20296000  0.66058000  0.21940000  1.0
  Sn  Sn1  1  0.29705000  0.83942000  0.71939000  1.0
  Sn  Sn2  1  0.79703000  0.33941000  0.78060000  1.0
  Sn  Sn3  1  0.70297000  0.16058000  0.28060000  1.0
  H  H4  1  0.87731000  0.83891000  0.69698000  1.0
  H  H5  1  0.62273000  0.66109000  0.19700000  1.0
  H  H6  1  0.12271000  0.16110000  0.30301000  1.0
  H  H7  1  0.37728000  0.33890000  0.80303000  1.0
  H  H8  1  0.16277000  0.60039000  0.45905000  1.0
  H  H9  1  0.33721000  0.89959000  0.95905000  1.0
  H  H10  1  0.83720000  0.39958000  0.54094000  1.0
  H  H11  1  0.66279000  0.10042000  0.04095000  1.0
  H  H12  1  0.23100000  0.45486000  0.37967000  1.0
  H  H13  1  0.26899000  0.04513000  0.87968000  1.0
  H  H14  1  0.76897000  0.54513000  0.62031000  1.0
  H  H15  1  0.73102000  0.95487000  0.12031000  1.0
  H  H16  1  0.03291000  0.50663000  0.37041000  1.0
  H  H17  1  0.46708000  0.99336000  0.87043000  1.0
  H  H18  1  0.96706000  0.49334000  0.62957000  1.0
  H  H19  1  0.53293000  0.00665000  0.12957000  1.0
  H  H20  1  0.27061000  0.53662000  0.00400000  1.0
  H  H21  1  0.22939000  0.96339000  0.50399000  1.0
  H  H22  1  0.72940000  0.46339000  0.99599000  1.0
  H  H23  1  0.77060000  0.03662000  0.49600000  1.0
  H  H24  1  0.42312000  0.50216000  0.11154000  1.0
  H  H25  1  0.07688000  0.99784000  0.61154000  1.0
  H  H26  1  0.57688000  0.49785000  0.88847000  1.0
  H  H27  1  0.92312000  0.00215000  0.38847000  1.0
  H  H28  1  0.40656000  0.65882000  0.03401000  1.0
  H  H29  1  0.09344000  0.84118000  0.53401000  1.0
  H  H30  1  0.59343000  0.34119000  0.96600000  1.0
  H  H31  1  0.90657000  0.15881000  0.46600000  1.0
  H  H32  1  0.28221000  0.91782000  0.22025000  1.0
  H  H33  1  0.21780000  0.58218000  0.72024000  1.0
  H  H34  1  0.71779000  0.08216000  0.77976000  1.0
  H  H35  1  0.78220000  0.41784000  0.27975000  1.0
  H  H36  1  0.11312000  0.90280000  0.30880000  1.0
  H  H37  1  0.38687000  0.59721000  0.80880000  1.0
  H  H38  1  0.88687000  0.09720000  0.69120000  1.0
  H  H39  1  0.61312000  0.40279000  0.19119000  1.0
  H  H40  1  0.10166000  0.90390000  0.14435000  1.0
  H  H41  1  0.39835000  0.59609000  0.64435000  1.0
  H  H42  1  0.89834000  0.09610000  0.85565000  1.0
  H  H43  1  0.60165000  0.40390000  0.35564000  1.0
  C  C44  1  0.94388000  0.70586000  0.98760000  1.0
  C  C45  1  0.55614000  0.79415000  0.48760000  1.0
  C  C46  1  0.05612000  0.29414000  0.01240000  1.0
  C  C47  1  0.44387000  0.20585000  0.51242000  1.0
  C  C48  1  0.91338000  0.80069000  0.78594000  1.0
  C  C49  1  0.58665000  0.69931000  0.28596000  1.0
  C  C50  1  0.08664000  0.19932000  0.21405000  1.0
  C  C51  1  0.41336000  0.30068000  0.71407000  1.0
  C  C52  1  0.14971000  0.54072000  0.37611000  1.0
  C  C53  1  0.35029000  0.95927000  0.87611000  1.0
  C  C54  1  0.85028000  0.45926000  0.62388000  1.0
  C  C55  1  0.64971000  0.04073000  0.12389000  1.0
  C  C56  1  0.34323000  0.57840000  0.07447000  1.0
  C  C57  1  0.15678000  0.92160000  0.57447000  1.0
  C  C58  1  0.65676000  0.42161000  0.92553000  1.0
  C  C59  1  0.84323000  0.07840000  0.42553000  1.0
  C  C60  1  0.17084000  0.87276000  0.22363000  1.0
  C  C61  1  0.32916000  0.62724000  0.72362000  1.0
  C  C62  1  0.82915000  0.12723000  0.77637000  1.0
  C  C63  1  0.67084000  0.37277000  0.27637000  1.0
  S  S64  1  0.92508000  0.62817000  0.12574000  1.0
  S  S65  1  0.57493000  0.87185000  0.62576000  1.0
  S  S66  1  0.07491000  0.37183000  0.87424000  1.0
  S  S67  1  0.42508000  0.12816000  0.37426000  1.0
  S  S68  1  0.78915000  0.73204000  0.88583000  1.0
  S  S69  1  0.71088000  0.76796000  0.38585000  1.0
  S  S70  1  0.21086000  0.26796000  0.11415000  1.0
  S  S71  1  0.28913000  0.23203000  0.61418000  1.0
  N  N72  1  0.07228000  0.75059000  0.94241000  1.0
  N  N73  1  0.42774000  0.74943000  0.44243000  1.0
  N  N74  1  0.92771000  0.24942000  0.05758000  1.0
  N  N75  1  0.57226000  0.25059000  0.55760000  1.0
  N  N76  1  0.05336000  0.80287000  0.82819000  1.0
  N  N77  1  0.44666000  0.69713000  0.32820000  1.0
  N  N78  1  0.94664000  0.19714000  0.17181000  1.0
  N  N79  1  0.55334000  0.30287000  0.67182000  1.0
