# generated using pymatgen
data_Ni2H30C28N2O13
_symmetry_space_group_name_H-M   'P 1'
_cell_length_a   10.07330000
_cell_length_b   13.13680000
_cell_length_c   15.08830000
_cell_angle_alpha   77.34090000
_cell_angle_beta   77.72010000
_cell_angle_gamma   67.62900000
_symmetry_Int_Tables_number   1
_chemical_formula_structural   Ni2H30C28N2O13
_chemical_formula_sum   'Ni4 H60 C56 N4 O26'
_cell_volume   1782.90701262
_cell_formula_units_Z   2
loop_
 _symmetry_equiv_pos_site_id
 _symmetry_equiv_pos_as_xyz
  1  'x, y, z'
loop_
 _atom_site_type_symbol
 _atom_site_label
 _atom_site_symmetry_multiplicity
 _atom_site_fract_x
 _atom_site_fract_y
 _atom_site_fract_z
 _atom_site_occupancy
  Ni  Ni0  1  0.02147000  0.57612000  0.34447000  1.0
  Ni  Ni1  1  0.97854000  0.42388000  0.65553000  1.0
  Ni  Ni2  1  0.74013000  0.79910000  0.25826000  1.0
  Ni  Ni3  1  0.25985000  0.20091000  0.74174000  1.0
  H  H4  1  0.35286000  0.68447000  0.02995000  1.0
  H  H5  1  0.64715000  0.31552000  0.97005000  1.0
  H  H6  1  0.61120000  0.63712000  0.95659000  1.0
  H  H7  1  0.38881000  0.36287000  0.04342000  1.0
  H  H8  1  0.49166000  0.50928000  0.28884000  1.0
  H  H9  1  0.50835000  0.49072000  0.71116000  1.0
  H  H10  1  0.74970000  0.46790000  0.21765000  1.0
  H  H11  1  0.25030000  0.53210000  0.78235000  1.0
  H  H12  1  0.82763000  0.46771000  0.92409000  1.0
  H  H13  1  0.17239000  0.53230000  0.07592000  1.0
  H  H14  1  0.73469000  0.41065000  0.40841000  1.0
  H  H15  1  0.26530000  0.58934000  0.59159000  1.0
  H  H16  1  0.81043000  0.23261000  0.48966000  1.0
  H  H17  1  0.18956000  0.76739000  0.51034000  1.0
  H  H18  1  0.89715000  0.04264000  0.44529000  1.0
  H  H19  1  0.10285000  0.95736000  0.55471000  1.0
  H  H20  1  0.37886000  0.28399000  0.44593000  1.0
  H  H21  1  0.62115000  0.71600000  0.55407000  1.0
  H  H22  1  0.46852000  0.09576000  0.39967000  1.0
  H  H23  1  0.53148000  0.90423000  0.60032000  1.0
  H  H24  1  0.24472000  0.39004000  0.25811000  1.0
  H  H25  1  0.75527000  0.60996000  0.74189000  1.0
  H  H26  1  0.35228000  0.25460000  0.18032000  1.0
  H  H27  1  0.64771000  0.74539000  0.81968000  1.0
  H  H28  1  0.25066000  0.16658000  0.18838000  1.0
  H  H29  1  0.74933000  0.83341000  0.81162000  1.0
  H  H30  1  0.40673000  0.11788000  0.24573000  1.0
  H  H31  1  0.59327000  0.88212000  0.75427000  1.0
  H  H32  1  0.12206000  0.19589000  0.44019000  1.0
  H  H33  1  0.87794000  0.80411000  0.55981000  1.0
  H  H34  1  0.23910000  0.08081000  0.38468000  1.0
  H  H35  1  0.76090000  0.91919000  0.61532000  1.0
  H  H36  1  0.06501000  0.16035000  0.35025000  1.0
  H  H37  1  0.93499000  0.83965000  0.64975000  1.0
  H  H38  1  0.42495000  0.85621000  0.33164000  1.0
  H  H39  1  0.57503000  0.14379000  0.66836000  1.0
  H  H40  1  0.39193000  0.91455000  0.09136000  1.0
  H  H41  1  0.60807000  0.08545000  0.90865000  1.0
  H  H42  1  0.21361000  0.01631000  0.11312000  1.0
  H  H43  1  0.78640000  0.98369000  0.88688000  1.0
  H  H44  1  0.23496000  0.87339000  0.11782000  1.0
  H  H45  1  0.76504000  0.12661000  0.88218000  1.0
  H  H46  1  0.13052000  0.84373000  0.28507000  1.0
  H  H47  1  0.86945000  0.15627000  0.71493000  1.0
  H  H48  1  0.08228000  0.98924000  0.28384000  1.0
  H  H49  1  0.91770000  0.01078000  0.71615000  1.0
  H  H50  1  0.19461000  0.89106000  0.36412000  1.0
  H  H51  1  0.80537000  0.10894000  0.63589000  1.0
  H  H52  1  0.13116000  0.54080000  0.49353000  1.0
  H  H53  1  0.86883000  0.45920000  0.50647000  1.0
  H  H54  1  0.98556000  0.63582000  0.50279000  1.0
  H  H55  1  0.01444000  0.36418000  0.49720000  1.0
  H  H56  1  0.02419000  0.74380000  0.24115000  1.0
  H  H57  1  0.97580000  0.25619000  0.75886000  1.0
  H  H58  1  0.92529000  0.79523000  0.34283000  1.0
  H  H59  1  0.07471000  0.20475000  0.65716000  1.0
  H  H60  1  0.73648000  0.92739000  0.10618000  1.0
  H  H61  1  0.26352000  0.07260000  0.89383000  1.0
  H  H62  1  0.72937000  0.98668000  0.18629000  1.0
  H  H63  1  0.27062000  0.01332000  0.81370000  1.0
  C  C64  1  0.25262000  0.62968000  0.20881000  1.0
  C  C65  1  0.74739000  0.37032000  0.79119000  1.0
  C  C66  1  0.40686000  0.60065000  0.16400000  1.0
  C  C67  1  0.59316000  0.39934000  0.83600000  1.0
  C  C68  1  0.44079000  0.63650000  0.07029000  1.0
  C  C69  1  0.55923000  0.36350000  0.92970000  1.0
  C  C70  1  0.58501000  0.61008000  0.02973000  1.0
  C  C71  1  0.41500000  0.38991000  0.97027000  1.0
  C  C72  1  0.51917000  0.53794000  0.21623000  1.0
  C  C73  1  0.48084000  0.46206000  0.78377000  1.0
  C  C74  1  0.66302000  0.51506000  0.17605000  1.0
  C  C75  1  0.33698000  0.48494000  0.82396000  1.0
  C  C76  1  0.69841000  0.55137000  0.08220000  1.0
  C  C77  1  0.30159000  0.44863000  0.91780000  1.0
  C  C78  1  0.85158000  0.52758000  0.03990000  1.0
  C  C79  1  0.14842000  0.47242000  0.96010000  1.0
  C  C80  1  0.90213000  0.48417000  0.95721000  1.0
  C  C81  1  0.09788000  0.51584000  0.04279000  1.0
  C  C82  1  0.95232000  0.54409000  0.08217000  1.0
  C  C83  1  0.04768000  0.45592000  0.91783000  1.0
  C  C84  1  0.90894000  0.59724000  0.16749000  1.0
  C  C85  1  0.09107000  0.40276000  0.83251000  1.0
  C  C86  1  0.69525000  0.61829000  0.40909000  1.0
  C  C87  1  0.30474000  0.38171000  0.59091000  1.0
  C  C88  1  0.59245000  0.56022000  0.46024000  1.0
  C  C89  1  0.40756000  0.43978000  0.53976000  1.0
  C  C90  1  0.63197000  0.44892000  0.45030000  1.0
  C  C91  1  0.36802000  0.55108000  0.54970000  1.0
  C  C92  1  0.54189000  0.38666000  0.48875000  1.0
  C  C93  1  0.45811000  0.61333000  0.51125000  1.0
  C  C94  1  0.58903000  0.27174000  0.46981000  1.0
  C  C95  1  0.41096000  0.72826000  0.53019000  1.0
  C  C96  1  0.73541000  0.20256000  0.46974000  1.0
  C  C97  1  0.26458000  0.79744000  0.53027000  1.0
  C  C98  1  0.78400000  0.09688000  0.44522000  1.0
  C  C99  1  0.21601000  0.90312000  0.55478000  1.0
  C  C100  1  0.49256000  0.23129000  0.44617000  1.0
  C  C101  1  0.50743000  0.76870000  0.55382000  1.0
  C  C102  1  0.54213000  0.12653000  0.41993000  1.0
  C  C103  1  0.45787000  0.87346000  0.58006000  1.0
  C  C104  1  0.68853000  0.05875000  0.41809000  1.0
  C  C105  1  0.31147000  0.94126000  0.58191000  1.0
  C  C106  1  0.74611000  0.94958000  0.38306000  1.0
  C  C107  1  0.25390000  0.05042000  0.61694000  1.0
  C  C108  1  0.19314000  0.34316000  0.31511000  1.0
  C  C109  1  0.80686000  0.65684000  0.68488000  1.0
  C  C110  1  0.31314000  0.19142000  0.22590000  1.0
  C  C111  1  0.68686000  0.80858000  0.77410000  1.0
  C  C112  1  0.15806000  0.16502000  0.37433000  1.0
  C  C113  1  0.84194000  0.83499000  0.62566000  1.0
  C  C114  1  0.42656000  0.87774000  0.25671000  1.0
  C  C115  1  0.57345000  0.12226000  0.74330000  1.0
  C  C116  1  0.28389000  0.92929000  0.13141000  1.0
  C  C117  1  0.71611000  0.07070000  0.86860000  1.0
  C  C118  1  0.16922000  0.90770000  0.29412000  1.0
  C  C119  1  0.83076000  0.09230000  0.70588000  1.0
  N  N120  1  0.22247000  0.23708000  0.30687000  1.0
  N  N121  1  0.77752000  0.76293000  0.69313000  1.0
  N  N122  1  0.29836000  0.90643000  0.22847000  1.0
  N  N123  1  0.70164000  0.09357000  0.77153000  1.0
  O  O124  1  0.15893000  0.71937000  0.17532000  1.0
  O  O125  1  0.84107000  0.28061000  0.82469000  1.0
  O  O126  1  0.22605000  0.56173000  0.27896000  1.0
  O  O127  1  0.77393000  0.43828000  0.72104000  1.0
  O  O128  1  0.81424000  0.69467000  0.16349000  1.0
  O  O129  1  0.18577000  0.30533000  0.83652000  1.0
  O  O130  1  0.97625000  0.53795000  0.23415000  1.0
  O  O131  1  0.02374000  0.46206000  0.76585000  1.0
  O  O132  1  0.82711000  0.56955000  0.42330000  1.0
  O  O133  1  0.17288000  0.43046000  0.57669000  1.0
  O  O134  1  0.64464000  0.70674000  0.35460000  1.0
  O  O135  1  0.35537000  0.29326000  0.64540000  1.0
  O  O136  1  0.86919000  0.88158000  0.40289000  1.0
  O  O137  1  0.13082000  0.11842000  0.59710000  1.0
  O  O138  1  0.66927000  0.93435000  0.33281000  1.0
  O  O139  1  0.33077000  0.06562000  0.66719000  1.0
  O  O140  1  0.11467000  0.38934000  0.38216000  1.0
  O  O141  1  0.88534000  0.61067000  0.61783000  1.0
  O  O142  1  0.54238000  0.87372000  0.20345000  1.0
  O  O143  1  0.45763000  0.12628000  0.79656000  1.0
  O  O144  1  0.07370000  0.61208000  0.45775000  1.0
  O  O145  1  0.92629000  0.38791000  0.54225000  1.0
  O  O146  1  0.93998000  0.74282000  0.29598000  1.0
  O  O147  1  0.06005000  0.25720000  0.70401000  1.0
  O  O148  1  0.79464000  0.92947000  0.14940000  1.0
  O  O149  1  0.20534000  0.07052000  0.85061000  1.0
