# generated using pymatgen
data_HgH16C24(N7O)2
_symmetry_space_group_name_H-M   'P 1'
_cell_length_a   7.33067000
_cell_length_b   10.64660000
_cell_length_c   15.92170000
_cell_angle_alpha   90.00010000
_cell_angle_beta   90.00040000
_cell_angle_gamma   87.15490000
_symmetry_Int_Tables_number   1
_chemical_formula_structural   HgH16C24(N7O)2
_chemical_formula_sum   'Hg2 H32 C48 N28 O4'
_cell_volume   1241.10461885
_cell_formula_units_Z   2
loop_
 _symmetry_equiv_pos_site_id
 _symmetry_equiv_pos_as_xyz
  1  'x, y, z'
loop_
 _atom_site_type_symbol
 _atom_site_label
 _atom_site_symmetry_multiplicity
 _atom_site_fract_x
 _atom_site_fract_y
 _atom_site_fract_z
 _atom_site_occupancy
  Hg  Hg0  1  0.00000000  0.50000000  0.00000000  1.0
  Hg  Hg1  1  0.50001000  0.50000000  0.50000000  1.0
  H  H2  1  0.54995000  0.20759000  0.77547000  1.0
  H  H3  1  0.95005000  0.79241000  0.27547000  1.0
  H  H4  1  0.45006000  0.79241000  0.22453000  1.0
  H  H5  1  0.04995000  0.20758000  0.72453000  1.0
  H  H6  1  0.50859000  0.27619000  0.62862000  1.0
  H  H7  1  0.99141000  0.72381000  0.12862000  1.0
  H  H8  1  0.49140000  0.72381000  0.37138000  1.0
  H  H9  1  0.00859000  0.27619000  0.87138000  1.0
  H  H10  1  0.25238000  0.61526000  0.69811000  1.0
  H  H11  1  0.24761000  0.38473000  0.19811000  1.0
  H  H12  1  0.74762000  0.38474000  0.30189000  1.0
  H  H13  1  0.75238000  0.61526000  0.80189000  1.0
  H  H14  1  0.28806000  0.56389000  0.85166000  1.0
  H  H15  1  0.21194000  0.43611000  0.35166000  1.0
  H  H16  1  0.71194000  0.43611000  0.14834000  1.0
  H  H17  1  0.78806000  0.56389000  0.64834000  1.0
  H  H18  1  0.49986000  0.18448000  0.18761000  1.0
  H  H19  1  0.00014000  0.81552000  0.68761000  1.0
  H  H20  1  0.50015000  0.81552000  0.81239000  1.0
  H  H21  1  0.99986000  0.18448000  0.31239000  1.0
  H  H22  1  0.65755000  0.00547000  0.26154000  1.0
  H  H23  1  0.84245000  0.99453000  0.76154000  1.0
  H  H24  1  0.34245000  0.99453000  0.73846000  1.0
  H  H25  1  0.15755000  0.00547000  0.23846000  1.0
  H  H26  1  0.90321000  0.87363000  0.04189000  1.0
  H  H27  1  0.59679000  0.12637000  0.54189000  1.0
  H  H28  1  0.09679000  0.12637000  0.95811000  1.0
  H  H29  1  0.40320000  0.87363000  0.45811000  1.0
  H  H30  1  0.75327000  0.04570000  0.95757000  1.0
  H  H31  1  0.74673000  0.95430000  0.45757000  1.0
  H  H32  1  0.24674000  0.95430000  0.04243000  1.0
  H  H33  1  0.25327000  0.04570000  0.54243000  1.0
  C  C34  1  0.43820000  0.34426000  0.91344000  1.0
  C  C35  1  0.06181000  0.65574000  0.41344000  1.0
  C  C36  1  0.56181000  0.65574000  0.08656000  1.0
  C  C37  1  0.93819000  0.34425000  0.58656000  1.0
  C  C38  1  0.52263000  0.23242000  0.02013000  1.0
  C  C39  1  0.97737000  0.76758000  0.52012000  1.0
  C  C40  1  0.47738000  0.76758000  0.97987000  1.0
  C  C41  1  0.02263000  0.23242000  0.47987000  1.0
  C  C42  1  0.42114000  0.38098000  0.82609000  1.0
  C  C43  1  0.07886000  0.61902000  0.32608000  1.0
  C  C44  1  0.57887000  0.61903000  0.17392000  1.0
  C  C45  1  0.92113000  0.38097000  0.67391000  1.0
  C  C46  1  0.48379000  0.29909000  0.76238000  1.0
  C  C47  1  0.01621000  0.70091000  0.26238000  1.0
  C  C48  1  0.51621000  0.70091000  0.23762000  1.0
  C  C49  1  0.98379000  0.29909000  0.73762000  1.0
  C  C50  1  0.46030000  0.33744000  0.67958000  1.0
  C  C51  1  0.03970000  0.66256000  0.17958000  1.0
  C  C52  1  0.53970000  0.66256000  0.32042000  1.0
  C  C53  1  0.96030000  0.33744000  0.82042000  1.0
  C  C54  1  0.31882000  0.52677000  0.71875000  1.0
  C  C55  1  0.18118000  0.47323000  0.21875000  1.0
  C  C56  1  0.68118000  0.47323000  0.28125000  1.0
  C  C57  1  0.81881000  0.52677000  0.78125000  1.0
  C  C58  1  0.33720000  0.49763000  0.80366000  1.0
  C  C59  1  0.16280000  0.50237000  0.30366000  1.0
  C  C60  1  0.66280000  0.50237000  0.19634000  1.0
  C  C61  1  0.83720000  0.49763000  0.69634000  1.0
  C  C62  1  0.61355000  0.12971000  0.06600000  1.0
  C  C63  1  0.88645000  0.87028000  0.56600000  1.0
  C  C64  1  0.38645000  0.87029000  0.93400000  1.0
  C  C65  1  0.11355000  0.12971000  0.43400000  1.0
  C  C66  1  0.58754000  0.11748000  0.15280000  1.0
  C  C67  1  0.91246000  0.88252000  0.65280000  1.0
  C  C68  1  0.41246000  0.88253000  0.84720000  1.0
  C  C69  1  0.08754000  0.11747000  0.34720000  1.0
  C  C70  1  0.67688000  0.01665000  0.19405000  1.0
  C  C71  1  0.82312000  0.98336000  0.69405000  1.0
  C  C72  1  0.32312000  0.98336000  0.80595000  1.0
  C  C73  1  0.17688000  0.01664000  0.30595000  1.0
  C  C74  1  0.81210000  0.94405000  0.07233000  1.0
  C  C75  1  0.68790000  0.05595000  0.57233000  1.0
  C  C76  1  0.18790000  0.05595000  0.92767000  1.0
  C  C77  1  0.31210000  0.94405000  0.42767000  1.0
  C  C78  1  0.72874000  0.04038000  0.02486000  1.0
  C  C79  1  0.77125000  0.95962000  0.52486000  1.0
  C  C80  1  0.27126000  0.95962000  0.97514000  1.0
  C  C81  1  0.22874000  0.04038000  0.47514000  1.0
  N  N82  1  0.35730000  0.39508000  0.97968000  1.0
  N  N83  1  0.14271000  0.60492000  0.47968000  1.0
  N  N84  1  0.64271000  0.60492000  0.02032000  1.0
  N  N85  1  0.85729000  0.39508000  0.52032000  1.0
  N  N86  1  0.41144000  0.32308000  0.04857000  1.0
  N  N87  1  0.08856000  0.67692000  0.54857000  1.0
  N  N88  1  0.58857000  0.67692000  0.95143000  1.0
  N  N89  1  0.91144000  0.32308000  0.45143000  1.0
  N  N90  1  0.38010000  0.44856000  0.65728000  1.0
  N  N91  1  0.11990000  0.55144000  0.15728000  1.0
  N  N92  1  0.61990000  0.55144000  0.34272000  1.0
  N  N93  1  0.88010000  0.44856000  0.84272000  1.0
  N  N94  1  0.78751000  0.93043000  0.15543000  1.0
  N  N95  1  0.71249000  0.06958000  0.65543000  1.0
  N  N96  1  0.21249000  0.06957000  0.84457000  1.0
  N  N97  1  0.28751000  0.93042000  0.34457000  1.0
  N  N98  1  0.07896000  0.68393000  0.96704000  1.0
  N  N99  1  0.42104000  0.31607000  0.46704000  1.0
  N  N100  1  0.92104000  0.31607000  0.03296000  1.0
  N  N101  1  0.57897000  0.68393000  0.53296000  1.0
  N  N102  1  0.00121000  0.74305000  0.91124000  1.0
  N  N103  1  0.49879000  0.25695000  0.41124000  1.0
  N  N104  1  0.99878000  0.25695000  0.08876000  1.0
  N  N105  1  0.50122000  0.74305000  0.58876000  1.0
  N  N106  1  0.93755000  0.80870000  0.85951000  1.0
  N  N107  1  0.56245000  0.19130000  0.35951000  1.0
  N  N108  1  0.06246000  0.19130000  0.14049000  1.0
  N  N109  1  0.43754000  0.80870000  0.64049000  1.0
  O  O110  1  0.54561000  0.24036000  0.93483000  1.0
  O  O111  1  0.95438000  0.75964000  0.43483000  1.0
  O  O112  1  0.45439000  0.75964000  0.06517000  1.0
  O  O113  1  0.04561000  0.24036000  0.56516000  1.0
