# generated using pymatgen
data_CdH18C14(NCl)2
_symmetry_space_group_name_H-M   'P 1'
_cell_length_a   3.84767000
_cell_length_b   14.00130000
_cell_length_c   14.00110000
_cell_angle_alpha   89.99940000
_cell_angle_beta   90.00050000
_cell_angle_gamma   89.99940000
_symmetry_Int_Tables_number   1
_chemical_formula_structural   CdH18C14(NCl)2
_chemical_formula_sum   'Cd2 H36 C28 N4 Cl4'
_cell_volume   754.27260710
_cell_formula_units_Z   2
loop_
 _symmetry_equiv_pos_site_id
 _symmetry_equiv_pos_as_xyz
  1  'x, y, z'
loop_
 _atom_site_type_symbol
 _atom_site_label
 _atom_site_symmetry_multiplicity
 _atom_site_fract_x
 _atom_site_fract_y
 _atom_site_fract_z
 _atom_site_occupancy
  Cd  Cd0  1  0.50002000  0.50000000  0.00000000  1.0
  Cd  Cd1  1  0.50000000  0.00000000  0.50000000  1.0
  H  H2  1  0.27161000  0.52825000  0.78310000  1.0
  H  H3  1  0.27153000  0.47176000  0.21689000  1.0
  H  H4  1  0.72844000  0.21689000  0.52825000  1.0
  H  H5  1  0.72845000  0.78310000  0.47175000  1.0
  H  H6  1  0.27154000  0.02825000  0.71689000  1.0
  H  H7  1  0.27153000  0.97174000  0.28311000  1.0
  H  H8  1  0.72842000  0.71689000  0.97176000  1.0
  H  H9  1  0.72841000  0.28311000  0.02825000  1.0
  H  H10  1  0.50002000  0.81385000  0.68616000  1.0
  H  H11  1  0.49997000  0.18616000  0.31384000  1.0
  H  H12  1  0.50001000  0.31384000  0.81384000  1.0
  H  H13  1  0.49998000  0.68615000  0.18616000  1.0
  H  H14  1  0.44382000  0.62240000  0.57399000  1.0
  H  H15  1  0.44375000  0.37760000  0.42600000  1.0
  H  H16  1  0.55621000  0.42599000  0.62239000  1.0
  H  H17  1  0.55623000  0.57400000  0.37761000  1.0
  H  H18  1  0.44378000  0.12239000  0.92600000  1.0
  H  H19  1  0.44377000  0.87760000  0.07400000  1.0
  H  H20  1  0.55624000  0.92599000  0.87761000  1.0
  H  H21  1  0.55623000  0.07400000  0.12240000  1.0
  H  H22  1  0.10419000  0.70603000  0.59086000  1.0
  H  H23  1  0.10412000  0.29398000  0.40913000  1.0
  H  H24  1  0.89584000  0.40913000  0.70602000  1.0
  H  H25  1  0.89584000  0.59087000  0.29398000  1.0
  H  H26  1  0.10416000  0.20602000  0.90913000  1.0
  H  H27  1  0.10415000  0.79398000  0.09086000  1.0
  H  H28  1  0.89586000  0.90913000  0.79399000  1.0
  H  H29  1  0.89583000  0.09087000  0.20603000  1.0
  H  H30  1  0.04699000  0.58420000  0.62606000  1.0
  H  H31  1  0.04692000  0.41581000  0.37394000  1.0
  H  H32  1  0.95305000  0.37394000  0.58419000  1.0
  H  H33  1  0.95304000  0.62606000  0.41581000  1.0
  H  H34  1  0.04696000  0.08419000  0.87394000  1.0
  H  H35  1  0.04696000  0.91580000  0.12606000  1.0
  H  H36  1  0.95305000  0.87394000  0.91581000  1.0
  H  H37  1  0.95304000  0.12606000  0.08420000  1.0
  C  C38  1  0.37560000  0.60007000  0.79337000  1.0
  C  C39  1  0.37553000  0.39993000  0.20662000  1.0
  C  C40  1  0.62448000  0.20662000  0.60006000  1.0
  C  C41  1  0.62446000  0.79338000  0.39994000  1.0
  C  C42  1  0.37554000  0.10007000  0.70662000  1.0
  C  C43  1  0.37552000  0.89993000  0.29338000  1.0
  C  C44  1  0.62449000  0.70662000  0.89994000  1.0
  C  C45  1  0.62445000  0.29338000  0.10006000  1.0
  C  C46  1  0.37072000  0.66785000  0.72016000  1.0
  C  C47  1  0.37064000  0.33216000  0.27984000  1.0
  C  C48  1  0.62933000  0.27983000  0.66784000  1.0
  C  C49  1  0.62929000  0.72017000  0.33217000  1.0
  C  C50  1  0.37070000  0.16784000  0.77983000  1.0
  C  C51  1  0.37067000  0.83216000  0.22017000  1.0
  C  C52  1  0.62930000  0.77983000  0.83217000  1.0
  C  C53  1  0.62928000  0.22017000  0.16784000  1.0
  C  C54  1  0.50004000  0.75879000  0.74120000  1.0
  C  C55  1  0.49999000  0.24121000  0.25880000  1.0
  C  C56  1  0.50002000  0.25878000  0.75879000  1.0
  C  C57  1  0.49998000  0.74121000  0.24121000  1.0
  C  C58  1  0.23265000  0.64364000  0.62271000  1.0
  C  C59  1  0.23258000  0.35637000  0.37729000  1.0
  C  C60  1  0.76739000  0.37728000  0.64362000  1.0
  C  C61  1  0.76739000  0.62271000  0.35638000  1.0
  C  C62  1  0.23262000  0.14362000  0.87729000  1.0
  C  C63  1  0.23260000  0.85637000  0.12270000  1.0
  C  C64  1  0.76742000  0.87729000  0.85638000  1.0
  C  C65  1  0.76738000  0.12271000  0.14363000  1.0
  N  N66  1  0.50001000  0.61908000  0.88092000  1.0
  N  N67  1  0.49999000  0.38092000  0.11908000  1.0
  N  N68  1  0.50000000  0.11908000  0.61908000  1.0
  N  N69  1  0.49998000  0.88092000  0.38092000  1.0
  Cl  Cl70  1  0.00002000  0.40642000  0.90641000  1.0
  Cl  Cl71  1  0.00002000  0.59358000  0.09358000  1.0
  Cl  Cl72  1  0.99999000  0.09358000  0.40641000  1.0
  Cl  Cl73  1  0.00000000  0.90642000  0.59358000  1.0
