# generated using pymatgen
data_CuH9C14NO5
_symmetry_space_group_name_H-M   'P 1'
_cell_length_a   5.25572000
_cell_length_b   8.32785000
_cell_length_c   13.39050000
_cell_angle_alpha   83.24010000
_cell_angle_beta   89.99990000
_cell_angle_gamma   89.99880000
_symmetry_Int_Tables_number   1
_chemical_formula_structural   CuH9C14NO5
_chemical_formula_sum   'Cu2 H18 C28 N2 O10'
_cell_volume   582.01235926
_cell_formula_units_Z   2
loop_
 _symmetry_equiv_pos_site_id
 _symmetry_equiv_pos_as_xyz
  1  'x, y, z'
loop_
 _atom_site_type_symbol
 _atom_site_label
 _atom_site_symmetry_multiplicity
 _atom_site_fract_x
 _atom_site_fract_y
 _atom_site_fract_z
 _atom_site_occupancy
  Cu  Cu0  1  0.36679000  0.04271000  0.86437000  1.0
  Cu  Cu1  1  0.86677000  0.95729000  0.13562000  1.0
  H  H2  1  0.98180000  0.54970000  0.96637000  1.0
  H  H3  1  0.48180000  0.45029000  0.03363000  1.0
  H  H4  1  0.91467000  0.33107000  0.85277000  1.0
  H  H5  1  0.41465000  0.66891000  0.14723000  1.0
  H  H6  1  0.54118000  0.36053000  0.73477000  1.0
  H  H7  1  0.04118000  0.63946000  0.26523000  1.0
  H  H8  1  0.09195000  0.67758000  0.72501000  1.0
  H  H9  1  0.59193000  0.32241000  0.27500000  1.0
  H  H10  1  0.17278000  0.48413000  0.68996000  1.0
  H  H11  1  0.67276000  0.51588000  0.31004000  1.0
  H  H12  1  0.99430000  0.84210000  0.57746000  1.0
  H  H13  1  0.49431000  0.15791000  0.42254000  1.0
  H  H14  1  0.09030000  0.95256000  0.39994000  1.0
  H  H15  1  0.59028000  0.04747000  0.60006000  1.0
  H  H16  1  0.77899000  0.67417000  0.41338000  1.0
  H  H17  1  0.27899000  0.32583000  0.58662000  1.0
  H  H18  1  0.67486000  0.55107000  0.58447000  1.0
  H  H19  1  0.17486000  0.44894000  0.41553000  1.0
  C  C20  1  0.70095000  0.81091000  0.97909000  1.0
  C  C21  1  0.20094000  0.18908000  0.02091000  1.0
  C  C22  1  0.48756000  0.71921000  0.82603000  1.0
  C  C23  1  0.98754000  0.28079000  0.17397000  1.0
  C  C24  1  0.67895000  0.69673000  0.90247000  1.0
  C  C25  1  0.17894000  0.30325000  0.09754000  1.0
  C  C26  1  0.83390000  0.56084000  0.90903000  1.0
  C  C27  1  0.33390000  0.43915000  0.09097000  1.0
  C  C28  1  0.79695000  0.43904000  0.84691000  1.0
  C  C29  1  0.29695000  0.56095000  0.15309000  1.0
  C  C30  1  0.59740000  0.45524000  0.77993000  1.0
  C  C31  1  0.09740000  0.54475000  0.22008000  1.0
  C  C32  1  0.24332000  0.60700000  0.69488000  1.0
  C  C33  1  0.74332000  0.39300000  0.30512000  1.0
  C  C34  1  0.32310000  0.68635000  0.59259000  1.0
  C  C35  1  0.82308000  0.31366000  0.40741000  1.0
  C  C36  1  0.16386000  0.80228000  0.54039000  1.0
  C  C37  1  0.66384000  0.19773000  0.45961000  1.0
  C  C38  1  0.21770000  0.86528000  0.44147000  1.0
  C  C39  1  0.71768000  0.13473000  0.55854000  1.0
  C  C40  1  0.43781000  0.81673000  0.39404000  1.0
  C  C41  1  0.93781000  0.18328000  0.60596000  1.0
  C  C42  1  0.60219000  0.70618000  0.44814000  1.0
  C  C43  1  0.10218000  0.29383000  0.55186000  1.0
  C  C44  1  0.54447000  0.63952000  0.54565000  1.0
  C  C45  1  0.04447000  0.36048000  0.45435000  1.0
  C  C46  1  0.49701000  0.88483000  0.28716000  1.0
  C  C47  1  0.99702000  0.11518000  0.71283000  1.0
  N  N48  1  0.45091000  0.59043000  0.76926000  1.0
  N  N49  1  0.95091000  0.40957000  0.23074000  1.0
  O  O50  1  0.57568000  0.94260000  0.97334000  1.0
  O  O51  1  0.07567000  0.05739000  0.02666000  1.0
  O  O52  1  0.84276000  0.76836000  0.05545000  1.0
  O  O53  1  0.34272000  0.23164000  0.94455000  1.0
  O  O54  1  0.34254000  0.83996000  0.80508000  1.0
  O  O55  1  0.84250000  0.16004000  0.19491000  1.0
  O  O56  1  0.34203000  0.97520000  0.23771000  1.0
  O  O57  1  0.84205000  0.02484000  0.76231000  1.0
  O  O58  1  0.71610000  0.83849000  0.25426000  1.0
  O  O59  1  0.21614000  0.16152000  0.74573000  1.0
