# generated using pymatgen
data_CoH20C30S(NO3)2
_symmetry_space_group_name_H-M   'P 1'
_cell_length_a   15.60580000
_cell_length_b   15.60580000
_cell_length_c   16.66390000
_cell_angle_alpha   101.21300000
_cell_angle_beta   101.21400000
_cell_angle_gamma   119.83200000
_symmetry_Int_Tables_number   1
_chemical_formula_structural   CoH20C30S(NO3)2
_chemical_formula_sum   'Co4 H80 C120 S4 N8 O24'
_cell_volume   3244.83921932
_cell_formula_units_Z   4
loop_
 _symmetry_equiv_pos_site_id
 _symmetry_equiv_pos_as_xyz
  1  'x, y, z'
loop_
 _atom_site_type_symbol
 _atom_site_label
 _atom_site_symmetry_multiplicity
 _atom_site_fract_x
 _atom_site_fract_y
 _atom_site_fract_z
 _atom_site_occupancy
  Co  Co0  1  0.50461000  0.06880000  0.61941000  1.0
  Co  Co1  1  0.93120000  0.49540000  0.88059000  1.0
  Co  Co2  1  0.49539000  0.93121000  0.38059000  1.0
  Co  Co3  1  0.06880000  0.50461000  0.11941000  1.0
  H  H4  1  0.67356000  0.30092000  0.65845000  1.0
  H  H5  1  0.68284000  0.46500000  0.66425000  1.0
  H  H6  1  0.34268000  0.28058000  0.57457000  1.0
  H  H7  1  0.34855000  0.12401000  0.57291000  1.0
  H  H8  1  0.65893000  0.56491000  0.59536000  1.0
  H  H9  1  0.65606000  0.72162000  0.59785000  1.0
  H  H10  1  0.36520000  0.58083000  0.65137000  1.0
  H  H11  1  0.36848000  0.42584000  0.64940000  1.0
  H  H12  1  0.67603000  0.86981000  0.68437000  1.0
  H  H13  1  0.66486000  0.02284000  0.68301000  1.0
  H  H14  1  0.34022000  0.83473000  0.57893000  1.0
  H  H15  1  0.33770000  0.67208000  0.56920000  1.0
  H  H16  1  0.76435000  0.03361000  0.45131000  1.0
  H  H17  1  0.95469000  0.12834000  0.46692000  1.0
  H  H18  1  0.02054000  0.39146000  0.67256000  1.0
  H  H19  1  0.83276000  0.29158000  0.66342000  1.0
  H  H20  1  0.10773000  0.23901000  0.40363000  1.0
  H  H21  1  0.08178000  0.28619000  0.26852000  1.0
  H  H22  1  0.13115000  0.57292000  0.42092000  1.0
  H  H23  1  0.14507000  0.52070000  0.55435000  1.0
  H  H24  1  0.69908000  0.32644000  0.84155000  1.0
  H  H25  1  0.53499000  0.31716000  0.83575000  1.0
  H  H26  1  0.71942000  0.65732000  0.92543000  1.0
  H  H27  1  0.87599000  0.65145000  0.92709000  1.0
  H  H28  1  0.43508000  0.34107000  0.90463000  1.0
  H  H29  1  0.27838000  0.34394000  0.90214000  1.0
  H  H30  1  0.41917000  0.63480000  0.84864000  1.0
  H  H31  1  0.57417000  0.63152000  0.85061000  1.0
  H  H32  1  0.13020000  0.32397000  0.81563000  1.0
  H  H33  1  0.97716000  0.33514000  0.81699000  1.0
  H  H34  1  0.16526000  0.65978000  0.92107000  1.0
  H  H35  1  0.32792000  0.66230000  0.93079000  1.0
  H  H36  1  0.96639000  0.23565000  0.04869000  1.0
  H  H37  1  0.87165000  0.04531000  0.03308000  1.0
  H  H38  1  0.60854000  0.97946000  0.82744000  1.0
  H  H39  1  0.70842000  0.16723000  0.83658000  1.0
  H  H40  1  0.76099000  0.89227000  0.09637000  1.0
  H  H41  1  0.71381000  0.91822000  0.23148000  1.0
  H  H42  1  0.42708000  0.86885000  0.07908000  1.0
  H  H43  1  0.47930000  0.85493000  0.94566000  1.0
  H  H44  1  0.32644000  0.69907000  0.34154000  1.0
  H  H45  1  0.31715000  0.53498000  0.33574000  1.0
  H  H46  1  0.65732000  0.71942000  0.42544000  1.0
  H  H47  1  0.65144000  0.87599000  0.42709000  1.0
  H  H48  1  0.34106000  0.43508000  0.40463000  1.0
  H  H49  1  0.34394000  0.27837000  0.40214000  1.0
  H  H50  1  0.63480000  0.41917000  0.34864000  1.0
  H  H51  1  0.63152000  0.57417000  0.35061000  1.0
  H  H52  1  0.32397000  0.13021000  0.31563000  1.0
  H  H53  1  0.33513000  0.97716000  0.31699000  1.0
  H  H54  1  0.65977000  0.16526000  0.42106000  1.0
  H  H55  1  0.66230000  0.32792000  0.43079000  1.0
  H  H56  1  0.23566000  0.96640000  0.54868000  1.0
  H  H57  1  0.04532000  0.87166000  0.53307000  1.0
  H  H58  1  0.97946000  0.60854000  0.32744000  1.0
  H  H59  1  0.16723000  0.70842000  0.33658000  1.0
  H  H60  1  0.89228000  0.76100000  0.59637000  1.0
  H  H61  1  0.91822000  0.71382000  0.73148000  1.0
  H  H62  1  0.86886000  0.42709000  0.57909000  1.0
  H  H63  1  0.85494000  0.47931000  0.44566000  1.0
  H  H64  1  0.30093000  0.67356000  0.15846000  1.0
  H  H65  1  0.46502000  0.68285000  0.16425000  1.0
  H  H66  1  0.28058000  0.34268000  0.07457000  1.0
  H  H67  1  0.12401000  0.34856000  0.07291000  1.0
  H  H68  1  0.56491000  0.65894000  0.09537000  1.0
  H  H69  1  0.72162000  0.65606000  0.09786000  1.0
  H  H70  1  0.58083000  0.36520000  0.15136000  1.0
  H  H71  1  0.42583000  0.36848000  0.14939000  1.0
  H  H72  1  0.86980000  0.67603000  0.18437000  1.0
  H  H73  1  0.02284000  0.66486000  0.18300000  1.0
  H  H74  1  0.83474000  0.34023000  0.07893000  1.0
  H  H75  1  0.67208000  0.33770000  0.06921000  1.0
  H  H76  1  0.03360000  0.76434000  0.95131000  1.0
  H  H77  1  0.12834000  0.95468000  0.96692000  1.0
  H  H78  1  0.39146000  0.02054000  0.17256000  1.0
  H  H79  1  0.29158000  0.83277000  0.16342000  1.0
  H  H80  1  0.23901000  0.10772000  0.90363000  1.0
  H  H81  1  0.28619000  0.08177000  0.76852000  1.0
  H  H82  1  0.57292000  0.13114000  0.92092000  1.0
  H  H83  1  0.52070000  0.14506000  0.05435000  1.0
  C  C84  1  0.60194000  0.29955000  0.63966000  1.0
  C  C85  1  0.60627000  0.39113000  0.64201000  1.0
  C  C86  1  0.51318000  0.38808000  0.61920000  1.0
  C  C87  1  0.41830000  0.28940000  0.59386000  1.0
  C  C88  1  0.42072000  0.20155000  0.59277000  1.0
  C  C89  1  0.51362000  0.48317000  0.62182000  1.0
  C  C90  1  0.59524000  0.56889000  0.60912000  1.0
  C  C91  1  0.59354000  0.65735000  0.61039000  1.0
  C  C92  1  0.51004000  0.66296000  0.62393000  1.0
  C  C93  1  0.42902000  0.57758000  0.63725000  1.0
  C  C94  1  0.43097000  0.48947000  0.63644000  1.0
  C  C95  1  0.50737000  0.75618000  0.62520000  1.0
  C  C96  1  0.59976000  0.85751000  0.65739000  1.0
  C  C97  1  0.59404000  0.94345000  0.65789000  1.0
  C  C98  1  0.41323000  0.83876000  0.59990000  1.0
  C  C99  1  0.41229000  0.74855000  0.59607000  1.0
  C  C100  1  0.67478000  0.09656000  0.55252000  1.0
  C  C101  1  0.78762000  0.15518000  0.55830000  1.0
  C  C102  1  0.82165000  0.11003000  0.50173000  1.0
  C  C103  1  0.92705000  0.16391000  0.50890000  1.0
  C  C104  1  0.99762000  0.26499000  0.57085000  1.0
  C  C105  1  0.96433000  0.31228000  0.62564000  1.0
  C  C106  1  0.85946000  0.25611000  0.62036000  1.0
  C  C107  1  0.12610000  0.37675000  0.48515000  1.0
  C  C108  1  0.11008000  0.31046000  0.40597000  1.0
  C  C109  1  0.09700000  0.33726000  0.33170000  1.0
  C  C110  1  0.10365000  0.43133000  0.33718000  1.0
  C  C111  1  0.12392000  0.49904000  0.41767000  1.0
  C  C112  1  0.13278000  0.47081000  0.49173000  1.0
  C  C113  1  0.08818000  0.45787000  0.25632000  1.0
  C  C114  1  0.70045000  0.39806000  0.86033000  1.0
  C  C115  1  0.60887000  0.39373000  0.85798000  1.0
  C  C116  1  0.61192000  0.48682000  0.88080000  1.0
  C  C117  1  0.71060000  0.58169000  0.90614000  1.0
  C  C118  1  0.79845000  0.57928000  0.90723000  1.0
  C  C119  1  0.51683000  0.48638000  0.87818000  1.0
  C  C120  1  0.43111000  0.40476000  0.89088000  1.0
  C  C121  1  0.34265000  0.40646000  0.88961000  1.0
  C  C122  1  0.33704000  0.48996000  0.87607000  1.0
  C  C123  1  0.42242000  0.57099000  0.86276000  1.0
  C  C124  1  0.51053000  0.56903000  0.86356000  1.0
  C  C125  1  0.24382000  0.49263000  0.87480000  1.0
  C  C126  1  0.14249000  0.40025000  0.84261000  1.0
  C  C127  1  0.05655000  0.40597000  0.84211000  1.0
  C  C128  1  0.16124000  0.58677000  0.90010000  1.0
  C  C129  1  0.25145000  0.58771000  0.90393000  1.0
  C  C130  1  0.90344000  0.32522000  0.94748000  1.0
  C  C131  1  0.84483000  0.21238000  0.94170000  1.0
  C  C132  1  0.88997000  0.17834000  0.99827000  1.0
  C  C133  1  0.83608000  0.07295000  0.99109000  1.0
  C  C134  1  0.73501000  0.00238000  0.92915000  1.0
  C  C135  1  0.68772000  0.03566000  0.87435000  1.0
  C  C136  1  0.74389000  0.14053000  0.87964000  1.0
  C  C137  1  0.62325000  0.87390000  0.01485000  1.0
  C  C138  1  0.68954000  0.88992000  0.09403000  1.0
  C  C139  1  0.66274000  0.90299000  0.16830000  1.0
  C  C140  1  0.56867000  0.89635000  0.16282000  1.0
  C  C141  1  0.50097000  0.87608000  0.08233000  1.0
  C  C142  1  0.52919000  0.86722000  0.00827000  1.0
  C  C143  1  0.54213000  0.91182000  0.24368000  1.0
  C  C144  1  0.39806000  0.70045000  0.36034000  1.0
  C  C145  1  0.39373000  0.60887000  0.35798000  1.0
  C  C146  1  0.48682000  0.61191000  0.38080000  1.0
  C  C147  1  0.58169000  0.71059000  0.40614000  1.0
  C  C148  1  0.57927000  0.79845000  0.40723000  1.0
  C  C149  1  0.48638000  0.51683000  0.37818000  1.0
  C  C150  1  0.40475000  0.43111000  0.39088000  1.0
  C  C151  1  0.40645000  0.34265000  0.38960000  1.0
  C  C152  1  0.48996000  0.33705000  0.37607000  1.0
  C  C153  1  0.57099000  0.42243000  0.36276000  1.0
  C  C154  1  0.56903000  0.51053000  0.36356000  1.0
  C  C155  1  0.49263000  0.24382000  0.37480000  1.0
  C  C156  1  0.40024000  0.14250000  0.34260000  1.0
  C  C157  1  0.40596000  0.05655000  0.34211000  1.0
  C  C158  1  0.58677000  0.16124000  0.40009000  1.0
  C  C159  1  0.58771000  0.25146000  0.40392000  1.0
  C  C160  1  0.32523000  0.90344000  0.44747000  1.0
  C  C161  1  0.21238000  0.84482000  0.44169000  1.0
  C  C162  1  0.17835000  0.88997000  0.49827000  1.0
  C  C163  1  0.07295000  0.83609000  0.49109000  1.0
  C  C164  1  0.00238000  0.73501000  0.42915000  1.0
  C  C165  1  0.03567000  0.68773000  0.37435000  1.0
  C  C166  1  0.14053000  0.74389000  0.37963000  1.0
  C  C167  1  0.87391000  0.62326000  0.51486000  1.0
  C  C168  1  0.88992000  0.68955000  0.59403000  1.0
  C  C169  1  0.90300000  0.66275000  0.66831000  1.0
  C  C170  1  0.89635000  0.56868000  0.66283000  1.0
  C  C171  1  0.87609000  0.50098000  0.58234000  1.0
  C  C172  1  0.86723000  0.52920000  0.50828000  1.0
  C  C173  1  0.91182000  0.54214000  0.74368000  1.0
  C  C174  1  0.29955000  0.60194000  0.13966000  1.0
  C  C175  1  0.39113000  0.60627000  0.14202000  1.0
  C  C176  1  0.38808000  0.51318000  0.11920000  1.0
  C  C177  1  0.28941000  0.41831000  0.09386000  1.0
  C  C178  1  0.20155000  0.42073000  0.09277000  1.0
  C  C179  1  0.48317000  0.51362000  0.12182000  1.0
  C  C180  1  0.56889000  0.59524000  0.10912000  1.0
  C  C181  1  0.65735000  0.59354000  0.11039000  1.0
  C  C182  1  0.66295000  0.51004000  0.12393000  1.0
  C  C183  1  0.57757000  0.42901000  0.13724000  1.0
  C  C184  1  0.48947000  0.43097000  0.13644000  1.0
  C  C185  1  0.75618000  0.50737000  0.12520000  1.0
  C  C186  1  0.85750000  0.59976000  0.15739000  1.0
  C  C187  1  0.94345000  0.59404000  0.15789000  1.0
  C  C188  1  0.83876000  0.41323000  0.09990000  1.0
  C  C189  1  0.74854000  0.41229000  0.09607000  1.0
  C  C190  1  0.09656000  0.67478000  0.05253000  1.0
  C  C191  1  0.15518000  0.78762000  0.05830000  1.0
  C  C192  1  0.11003000  0.82165000  0.00173000  1.0
  C  C193  1  0.16391000  0.92705000  0.00891000  1.0
  C  C194  1  0.26499000  0.99761000  0.07085000  1.0
  C  C195  1  0.31228000  0.96433000  0.12565000  1.0
  C  C196  1  0.25611000  0.85947000  0.12037000  1.0
  C  C197  1  0.37674000  0.12609000  0.98514000  1.0
  C  C198  1  0.31046000  0.11007000  0.90597000  1.0
  C  C199  1  0.33726000  0.09700000  0.83170000  1.0
  C  C200  1  0.43133000  0.10364000  0.83717000  1.0
  C  C201  1  0.49903000  0.12391000  0.91766000  1.0
  C  C202  1  0.47081000  0.13276000  0.99172000  1.0
  C  C203  1  0.45787000  0.08818000  0.75632000  1.0
  S  S204  1  0.13186000  0.33677000  0.57808000  1.0
  S  S205  1  0.66323000  0.86814000  0.92193000  1.0
  S  S206  1  0.86815000  0.66323000  0.42192000  1.0
  S  S207  1  0.33677000  0.13185000  0.07808000  1.0
  N  N208  1  0.51064000  0.20549000  0.61550000  1.0
  N  N209  1  0.50256000  0.93541000  0.62906000  1.0
  N  N210  1  0.79450000  0.48936000  0.88449000  1.0
  N  N211  1  0.06459000  0.49744000  0.87094000  1.0
  N  N212  1  0.48936000  0.79450000  0.38450000  1.0
  N  N213  1  0.49743000  0.06459000  0.37094000  1.0
  N  N214  1  0.20550000  0.51064000  0.11551000  1.0
  N  N215  1  0.93541000  0.50257000  0.12906000  1.0
  O  O216  1  0.61004000  0.00735000  0.49309000  1.0
  O  O217  1  0.65017000  0.13872000  0.60943000  1.0
  O  O218  1  0.16439000  0.26403000  0.56501000  1.0
  O  O219  1  0.19009000  0.42989000  0.65562000  1.0
  O  O220  1  0.02978000  0.38360000  0.18352000  1.0
  O  O221  1  0.13435000  0.55410000  0.26129000  1.0
  O  O222  1  0.99266000  0.38996000  0.00691000  1.0
  O  O223  1  0.86129000  0.34983000  0.89057000  1.0
  O  O224  1  0.73597000  0.83561000  0.93499000  1.0
  O  O225  1  0.57011000  0.80991000  0.84438000  1.0
  O  O226  1  0.61641000  0.97023000  0.31648000  1.0
  O  O227  1  0.44591000  0.86566000  0.23871000  1.0
  O  O228  1  0.38996000  0.99265000  0.50691000  1.0
  O  O229  1  0.34984000  0.86129000  0.39056000  1.0
  O  O230  1  0.83562000  0.73597000  0.43499000  1.0
  O  O231  1  0.80991000  0.57011000  0.34439000  1.0
  O  O232  1  0.97021000  0.61640000  0.81649000  1.0
  O  O233  1  0.86566000  0.44590000  0.73871000  1.0
  O  O234  1  0.00735000  0.61004000  0.99310000  1.0
  O  O235  1  0.13871000  0.65017000  0.10944000  1.0
  O  O236  1  0.26403000  0.16438000  0.06501000  1.0
  O  O237  1  0.42989000  0.19009000  0.15562000  1.0
  O  O238  1  0.38360000  0.02979000  0.68352000  1.0
  O  O239  1  0.55410000  0.13434000  0.76129000  1.0
