# generated using pymatgen
data_Zn3H46C70(NO3)6
_symmetry_space_group_name_H-M   'P 1'
_cell_length_a   11.09080000
_cell_length_b   14.80700000
_cell_length_c   19.53900000
_cell_angle_alpha   90.00000000
_cell_angle_beta   101.61600000
_cell_angle_gamma   90.00000000
_symmetry_Int_Tables_number   1
_chemical_formula_structural   Zn3H46C70(NO3)6
_chemical_formula_sum   'Zn6 H92 C140 N12 O36'
_cell_volume   3143.00573962
_cell_formula_units_Z   2
loop_
 _symmetry_equiv_pos_site_id
 _symmetry_equiv_pos_as_xyz
  1  'x, y, z'
loop_
 _atom_site_type_symbol
 _atom_site_label
 _atom_site_symmetry_multiplicity
 _atom_site_fract_x
 _atom_site_fract_y
 _atom_site_fract_z
 _atom_site_occupancy
  Zn  Zn0  1  0.00000000  0.00000000  0.50000000  1.0
  Zn  Zn1  1  0.50000000  0.50000000  0.00000000  1.0
  Zn  Zn2  1  0.70900000  0.04267000  0.38213000  1.0
  Zn  Zn3  1  0.79100000  0.54267000  0.11787000  1.0
  Zn  Zn4  1  0.29100000  0.95733000  0.61787000  1.0
  Zn  Zn5  1  0.20900000  0.45733000  0.88213000  1.0
  H  H6  1  0.50127000  0.87257000  0.49441000  1.0
  H  H7  1  0.99873000  0.37257000  0.00559000  1.0
  H  H8  1  0.49873000  0.12743000  0.50559000  1.0
  H  H9  1  0.00127000  0.62743000  0.99441000  1.0
  H  H10  1  0.42986000  0.77050000  0.57928000  1.0
  H  H11  1  0.07014000  0.27050000  0.92072000  1.0
  H  H12  1  0.57014000  0.22950000  0.42072000  1.0
  H  H13  1  0.92986000  0.72950000  0.07928000  1.0
  H  H14  1  0.80295000  0.74693000  0.69458000  1.0
  H  H15  1  0.69705000  0.24693000  0.80543000  1.0
  H  H16  1  0.19705000  0.25307000  0.30542000  1.0
  H  H17  1  0.30295000  0.75307000  0.19458000  1.0
  H  H18  1  0.87424000  0.84558000  0.60716000  1.0
  H  H19  1  0.62576000  0.34558000  0.89284000  1.0
  H  H20  1  0.12576000  0.15442000  0.39284000  1.0
  H  H21  1  0.37424000  0.65442000  0.10716000  1.0
  H  H22  1  0.69827000  0.73844000  0.78263000  1.0
  H  H23  1  0.80173000  0.23844000  0.71737000  1.0
  H  H24  1  0.30173000  0.26156000  0.21737000  1.0
  H  H25  1  0.19827000  0.76156000  0.28263000  1.0
  H  H26  1  0.62007000  0.63657000  0.86631000  1.0
  H  H27  1  0.87993000  0.13658000  0.63369000  1.0
  H  H28  1  0.37993000  0.36343000  0.13369000  1.0
  H  H29  1  0.12007000  0.86342000  0.36631000  1.0
  H  H30  1  0.35418000  0.52491000  0.69683000  1.0
  H  H31  1  0.14582000  0.02491000  0.80317000  1.0
  H  H32  1  0.64582000  0.47509000  0.30318000  1.0
  H  H33  1  0.85418000  0.97509000  0.19683000  1.0
  H  H34  1  0.43664000  0.62185000  0.61247000  1.0
  H  H35  1  0.06336000  0.12185000  0.88753000  1.0
  H  H36  1  0.56336000  0.37815000  0.38753000  1.0
  H  H37  1  0.93664000  0.87815000  0.11247000  1.0
  H  H38  1  0.04466000  0.23588000  0.54943000  1.0
  H  H39  1  0.45534000  0.73588000  0.95057000  1.0
  H  H40  1  0.95534000  0.76412000  0.45057000  1.0
  H  H41  1  0.54466000  0.26412000  0.04943000  1.0
  H  H42  1  0.12013000  0.39109000  0.57312000  1.0
  H  H43  1  0.37986000  0.89109000  0.92688000  1.0
  H  H44  1  0.87987000  0.60891000  0.42688000  1.0
  H  H45  1  0.62013000  0.10891000  0.07312000  1.0
  H  H46  1  0.82624000  0.48706000  0.40815000  1.0
  H  H47  1  0.67376000  0.98706000  0.09185000  1.0
  H  H48  1  0.17376000  0.51294000  0.59185000  1.0
  H  H49  1  0.32623000  0.01294000  0.90815000  1.0
  H  H50  1  0.75690000  0.32979000  0.38511000  1.0
  H  H51  1  0.74310000  0.82979000  0.11489000  1.0
  H  H52  1  0.24310000  0.67020000  0.61489000  1.0
  H  H53  1  0.25690000  0.17021000  0.88511000  1.0
  H  H54  1  0.44484000  0.98847000  0.37327000  1.0
  H  H55  1  0.05516000  0.48847000  0.12673000  1.0
  H  H56  1  0.55516000  0.01153000  0.62673000  1.0
  H  H57  1  0.94484000  0.51153000  0.87327000  1.0
  H  H58  1  0.25342000  0.97806000  0.27874000  1.0
  H  H59  1  0.24658000  0.47806000  0.22126000  1.0
  H  H60  1  0.74658000  0.02194000  0.72126000  1.0
  H  H61  1  0.75342000  0.52194000  0.77874000  1.0
  H  H62  1  0.45758000  0.10790000  0.13995000  1.0
  H  H63  1  0.04242000  0.60790000  0.36006000  1.0
  H  H64  1  0.54242000  0.89210000  0.86005000  1.0
  H  H65  1  0.95758000  0.39210000  0.63995000  1.0
  H  H66  1  0.64080000  0.11055000  0.23813000  1.0
  H  H67  1  0.85921000  0.61055000  0.26187000  1.0
  H  H68  1  0.35921000  0.88945000  0.76187000  1.0
  H  H69  1  0.14079000  0.38945000  0.73813000  1.0
  H  H70  1  0.94021000  0.19101000  0.10201000  1.0
  H  H71  1  0.55979000  0.69101000  0.39799000  1.0
  H  H72  1  0.05979000  0.80899000  0.89799000  1.0
  H  H73  1  0.44021000  0.30899000  0.60201000  1.0
  H  H74  1  0.23290000  0.83025000  0.00174000  1.0
  H  H75  1  0.26710000  0.33025000  0.49826000  1.0
  H  H76  1  0.76710000  0.16975000  0.99826000  1.0
  H  H77  1  0.73290000  0.66975000  0.50174000  1.0
  H  H78  1  0.19942000  0.62933000  0.77881000  1.0
  H  H79  1  0.30059000  0.12932000  0.72119000  1.0
  H  H80  1  0.80058000  0.37067000  0.22119000  1.0
  H  H81  1  0.69941000  0.87067000  0.27881000  1.0
  H  H82  1  0.01732000  0.67396000  0.70186000  1.0
  H  H83  1  0.48268000  0.17396000  0.79814000  1.0
  H  H84  1  0.98268000  0.32604000  0.29814000  1.0
  H  H85  1  0.51732000  0.82604000  0.20186000  1.0
  H  H86  1  0.09049000  0.78051000  0.69665000  1.0
  H  H87  1  0.40952000  0.28051000  0.80335000  1.0
  H  H88  1  0.90952000  0.21949000  0.30335000  1.0
  H  H89  1  0.59049000  0.71949000  0.19665000  1.0
  H  H90  1  0.00322000  0.76240000  0.76255000  1.0
  H  H91  1  0.49678000  0.26240000  0.73745000  1.0
  H  H92  1  0.99679000  0.23760000  0.23745000  1.0
  H  H93  1  0.50322000  0.73760000  0.26255000  1.0
  H  H94  1  0.33040000  0.71193000  0.85409000  1.0
  H  H95  1  0.16960000  0.21193000  0.64591000  1.0
  H  H96  1  0.66960000  0.28807000  0.14591000  1.0
  H  H97  1  0.83040000  0.78807000  0.35409000  1.0
  C  C98  1  0.73662000  0.92061000  0.49255000  1.0
  C  C99  1  0.76338000  0.42061000  0.00745000  1.0
  C  C100  1  0.26338000  0.07939000  0.50745000  1.0
  C  C101  1  0.23662000  0.57939000  0.99255000  1.0
  C  C102  1  0.69239000  0.86337000  0.54501000  1.0
  C  C103  1  0.80761000  0.36337000  0.95499000  1.0
  C  C104  1  0.30761000  0.13663000  0.45499000  1.0
  C  C105  1  0.19239000  0.63663000  0.04501000  1.0
  C  C106  1  0.56688000  0.84298000  0.53761000  1.0
  C  C107  1  0.93312000  0.34298000  0.96239000  1.0
  C  C108  1  0.43312000  0.15702000  0.46239000  1.0
  C  C109  1  0.06688000  0.65703000  0.03761000  1.0
  C  C110  1  0.52757000  0.78568000  0.58501000  1.0
  C  C111  1  0.97243000  0.28568000  0.91499000  1.0
  C  C112  1  0.47243000  0.21432000  0.41499000  1.0
  C  C113  1  0.02757000  0.71432000  0.08501000  1.0
  C  C114  1  0.61227000  0.75006000  0.64205000  1.0
  C  C115  1  0.88773000  0.25006000  0.85795000  1.0
  C  C116  1  0.38773000  0.24994000  0.35795000  1.0
  C  C117  1  0.11227000  0.74994000  0.14205000  1.0
  C  C118  1  0.73697000  0.77391000  0.65049000  1.0
  C  C119  1  0.76303000  0.27391000  0.84951000  1.0
  C  C120  1  0.26302000  0.22608000  0.34951000  1.0
  C  C121  1  0.23698000  0.72609000  0.15049000  1.0
  C  C122  1  0.77725000  0.82858000  0.60187000  1.0
  C  C123  1  0.72276000  0.32858000  0.89813000  1.0
  C  C124  1  0.22276000  0.17141000  0.39813000  1.0
  C  C125  1  0.27725000  0.67142000  0.10187000  1.0
  C  C126  1  0.57075000  0.68847000  0.69185000  1.0
  C  C127  1  0.92926000  0.18847000  0.80815000  1.0
  C  C128  1  0.42926000  0.31153000  0.30815000  1.0
  C  C129  1  0.07075000  0.81154000  0.19185000  1.0
  C  C130  1  0.62441000  0.69056000  0.76355000  1.0
  C  C131  1  0.87560000  0.19056000  0.73645000  1.0
  C  C132  1  0.37560000  0.30944000  0.23645000  1.0
  C  C133  1  0.12441000  0.80944000  0.26355000  1.0
  C  C134  1  0.58088000  0.63438000  0.81040000  1.0
  C  C135  1  0.91912000  0.13438000  0.68960000  1.0
  C  C136  1  0.41912000  0.36562000  0.18960000  1.0
  C  C137  1  0.08089000  0.86562000  0.31040000  1.0
  C  C138  1  0.48112000  0.57659000  0.78651000  1.0
  C  C139  1  0.01889000  0.07659000  0.71349000  1.0
  C  C140  1  0.51888000  0.42341000  0.21349000  1.0
  C  C141  1  0.98112000  0.92341000  0.28651000  1.0
  C  C142  1  0.42942000  0.57203000  0.71497000  1.0
  C  C143  1  0.07059000  0.07203000  0.78503000  1.0
  C  C144  1  0.57058000  0.42797000  0.28503000  1.0
  C  C145  1  0.92941000  0.92797000  0.21497000  1.0
  C  C146  1  0.47518000  0.62658000  0.66824000  1.0
  C  C147  1  0.02482000  0.12658000  0.83176000  1.0
  C  C148  1  0.52482000  0.37342000  0.33176000  1.0
  C  C149  1  0.97518000  0.87342000  0.16824000  1.0
  C  C150  1  0.42527000  0.52524000  0.83799000  1.0
  C  C151  1  0.07472000  0.02524000  0.66201000  1.0
  C  C152  1  0.57473000  0.47476000  0.16201000  1.0
  C  C153  1  0.92527000  0.97476000  0.33799000  1.0
  C  C154  1  0.85002000  0.17911000  0.45530000  1.0
  C  C155  1  0.64998000  0.67911000  0.04470000  1.0
  C  C156  1  0.14998000  0.82089000  0.54470000  1.0
  C  C157  1  0.35002000  0.32089000  0.95530000  1.0
  C  C158  1  0.89436000  0.27366000  0.46751000  1.0
  C  C159  1  0.60564000  0.77366000  0.03249000  1.0
  C  C160  1  0.10564000  0.72634000  0.53249000  1.0
  C  C161  1  0.39436000  0.22634000  0.96751000  1.0
  C  C162  1  0.99730000  0.29227000  0.51983000  1.0
  C  C163  1  0.50270000  0.79228000  0.98017000  1.0
  C  C164  1  0.00270000  0.70772000  0.48017000  1.0
  C  C165  1  0.49730000  0.20773000  0.01983000  1.0
  C  C166  1  0.03891000  0.38037000  0.53218000  1.0
  C  C167  1  0.46109000  0.88037000  0.96782000  1.0
  C  C168  1  0.96110000  0.61963000  0.46782000  1.0
  C  C169  1  0.53891000  0.11963000  0.03218000  1.0
  C  C170  1  0.97812000  0.45315000  0.49320000  1.0
  C  C171  1  0.52188000  0.95315000  0.00680000  1.0
  C  C172  1  0.02188000  0.54685000  0.50680000  1.0
  C  C173  1  0.47812000  0.04686000  0.99320000  1.0
  C  C174  1  0.87510000  0.43317000  0.44023000  1.0
  C  C175  1  0.62490000  0.93317000  0.05977000  1.0
  C  C176  1  0.12490000  0.56683000  0.55977000  1.0
  C  C177  1  0.37510000  0.06683000  0.94023000  1.0
  C  C178  1  0.83477000  0.34493000  0.42713000  1.0
  C  C179  1  0.66523000  0.84493000  0.07287000  1.0
  C  C180  1  0.16523000  0.65507000  0.57287000  1.0
  C  C181  1  0.33477000  0.15507000  0.92713000  1.0
  C  C182  1  0.44266000  0.01392000  0.32070000  1.0
  C  C183  1  0.05734000  0.51392000  0.17930000  1.0
  C  C184  1  0.55734000  0.98608000  0.67930000  1.0
  C  C185  1  0.94266000  0.48608000  0.82070000  1.0
  C  C186  1  0.33722000  0.00879000  0.26853000  1.0
  C  C187  1  0.16279000  0.50878000  0.23147000  1.0
  C  C188  1  0.66279000  0.99121000  0.73147000  1.0
  C  C189  1  0.83721000  0.49121000  0.76853000  1.0
  C  C190  1  0.34369000  0.04180000  0.20265000  1.0
  C  C191  1  0.15631000  0.54180000  0.29735000  1.0
  C  C192  1  0.65631000  0.95820000  0.79735000  1.0
  C  C193  1  0.84369000  0.45820000  0.70265000  1.0
  C  C194  1  0.45151000  0.08130000  0.19106000  1.0
  C  C195  1  0.04849000  0.58130000  0.30894000  1.0
  C  C196  1  0.54849000  0.91870000  0.80894000  1.0
  C  C197  1  0.95151000  0.41870000  0.69106000  1.0
  C  C198  1  0.55307000  0.08323000  0.24571000  1.0
  C  C199  1  0.94693000  0.58323000  0.25429000  1.0
  C  C200  1  0.44693000  0.91677000  0.75429000  1.0
  C  C201  1  0.05307000  0.41677000  0.74571000  1.0
  C  C202  1  0.14510000  0.09327000  0.13659000  1.0
  C  C203  1  0.35490000  0.59327000  0.36341000  1.0
  C  C204  1  0.85490000  0.90673000  0.86341000  1.0
  C  C205  1  0.64510000  0.40673000  0.63660000  1.0
  C  C206  1  0.04359000  0.07877000  0.07585000  1.0
  C  C207  1  0.45641000  0.57877000  0.42415000  1.0
  C  C208  1  0.95641000  0.92123000  0.92415000  1.0
  C  C209  1  0.54359000  0.42123000  0.57585000  1.0
  C  C210  1  0.04945000  0.00647000  0.02903000  1.0
  C  C211  1  0.45055000  0.50647000  0.47097000  1.0
  C  C212  1  0.95055000  0.99353000  0.97097000  1.0
  C  C213  1  0.54945000  0.49353000  0.52903000  1.0
  C  C214  1  0.15094000  0.94635000  0.03888000  1.0
  C  C215  1  0.34906000  0.44636000  0.46112000  1.0
  C  C216  1  0.84906000  0.05365000  0.96112000  1.0
  C  C217  1  0.65094000  0.55365000  0.53888000  1.0
  C  C218  1  0.25333000  0.95785000  0.09937000  1.0
  C  C219  1  0.24667000  0.45785000  0.40063000  1.0
  C  C220  1  0.74667000  0.04215000  0.90063000  1.0
  C  C221  1  0.75333000  0.54215000  0.59937000  1.0
  C  C222  1  0.94291000  0.13658000  0.06501000  1.0
  C  C223  1  0.55709000  0.63658000  0.43499000  1.0
  C  C224  1  0.05709000  0.86342000  0.93499000  1.0
  C  C225  1  0.44291000  0.36342000  0.56501000  1.0
  C  C226  1  0.15424000  0.87579000  0.99246000  1.0
  C  C227  1  0.34576000  0.37579000  0.50754000  1.0
  C  C228  1  0.84575000  0.12421000  0.00754000  1.0
  C  C229  1  0.65425000  0.62421000  0.49246000  1.0
  C  C230  1  0.06509000  0.72999000  0.73249000  1.0
  C  C231  1  0.43490000  0.22999000  0.76751000  1.0
  C  C232  1  0.93490000  0.27001000  0.26751000  1.0
  C  C233  1  0.56510000  0.77001000  0.23249000  1.0
  C  C234  1  0.25155000  0.74951000  0.82305000  1.0
  C  C235  1  0.24845000  0.24951000  0.67695000  1.0
  C  C236  1  0.74846000  0.25048000  0.17695000  1.0
  C  C237  1  0.75155000  0.75049000  0.32305000  1.0
  N  N238  1  0.54870000  0.04919000  0.30910000  1.0
  N  N239  1  0.95130000  0.54919000  0.19090000  1.0
  N  N240  1  0.45130000  0.95081000  0.69090000  1.0
  N  N241  1  0.04870000  0.45081000  0.80910000  1.0
  N  N242  1  0.24193000  0.03061000  0.14468000  1.0
  N  N243  1  0.25808000  0.53061000  0.35532000  1.0
  N  N244  1  0.75808000  0.96939000  0.85532000  1.0
  N  N245  1  0.74192000  0.46939000  0.64468000  1.0
  N  N246  1  0.17461000  0.69576000  0.77932000  1.0
  N  N247  1  0.32539000  0.19576000  0.72068000  1.0
  N  N248  1  0.82539000  0.30424000  0.22068000  1.0
  N  N249  1  0.67461000  0.80424000  0.27932000  1.0
  O  O250  1  0.65545000  0.97163000  0.45452000  1.0
  O  O251  1  0.84455000  0.47163000  0.04548000  1.0
  O  O252  1  0.34455000  0.02837000  0.54548000  1.0
  O  O253  1  0.15545000  0.52837000  0.95452000  1.0
  O  O254  1  0.84781000  0.91447000  0.48672000  1.0
  O  O255  1  0.65219000  0.41447000  0.01327000  1.0
  O  O256  1  0.15219000  0.08553000  0.51327000  1.0
  O  O257  1  0.34781000  0.58553000  0.98673000  1.0
  O  O258  1  0.30653000  0.51967000  0.82239000  1.0
  O  O259  1  0.19347000  0.01967000  0.67761000  1.0
  O  O260  1  0.69348000  0.48032000  0.17761000  1.0
  O  O261  1  0.80653000  0.98033000  0.32239000  1.0
  O  O262  1  0.49383000  0.49340000  0.89182000  1.0
  O  O263  1  0.00616000  0.99340000  0.60818000  1.0
  O  O264  1  0.50617000  0.50660000  0.10818000  1.0
  O  O265  1  0.99383000  0.00660000  0.39182000  1.0
  O  O266  1  0.89115000  0.11862000  0.49945000  1.0
  O  O267  1  0.60885000  0.61862000  0.00055000  1.0
  O  O268  1  0.10885000  0.88138000  0.50055000  1.0
  O  O269  1  0.39115000  0.38139000  0.99945000  1.0
  O  O270  1  0.76779000  0.16592000  0.39915000  1.0
  O  O271  1  0.73221000  0.66592000  0.10085000  1.0
  O  O272  1  0.23221000  0.83408000  0.60085000  1.0
  O  O273  1  0.26779000  0.33408000  0.89915000  1.0
  O  O274  1  0.34433000  0.90873000  0.11185000  1.0
  O  O275  1  0.15567000  0.40873000  0.38815000  1.0
  O  O276  1  0.65567000  0.09127000  0.88815000  1.0
  O  O277  1  0.84433000  0.59126000  0.61185000  1.0
  O  O278  1  0.14831000  0.15611000  0.17830000  1.0
  O  O279  1  0.35169000  0.65611000  0.32170000  1.0
  O  O280  1  0.85169000  0.84389000  0.82170000  1.0
  O  O281  1  0.64830000  0.34390000  0.67830000  1.0
  O  O282  1  0.23836000  0.83250000  0.82938000  1.0
  O  O283  1  0.26164000  0.33250000  0.67062000  1.0
  O  O284  1  0.76164000  0.16750000  0.17062000  1.0
  O  O285  1  0.73836000  0.66750000  0.32939000  1.0
