# generated using pymatgen
data_NiH6C8(NO)4
_symmetry_space_group_name_H-M   'P 1'
_cell_length_a   7.21537000
_cell_length_b   7.42900000
_cell_length_c   18.10610000
_cell_angle_alpha   90.00010000
_cell_angle_beta   90.00020000
_cell_angle_gamma   89.99960000
_symmetry_Int_Tables_number   1
_chemical_formula_structural   NiH6C8(NO)4
_chemical_formula_sum   'Ni4 H24 C32 N16 O16'
_cell_volume   970.54098368
_cell_formula_units_Z   4
loop_
 _symmetry_equiv_pos_site_id
 _symmetry_equiv_pos_as_xyz
  1  'x, y, z'
loop_
 _atom_site_type_symbol
 _atom_site_label
 _atom_site_symmetry_multiplicity
 _atom_site_fract_x
 _atom_site_fract_y
 _atom_site_fract_z
 _atom_site_occupancy
  Ni  Ni0  1  0.00000000  0.50000000  0.50000000  1.0
  Ni  Ni1  1  0.00000000  0.00000000  0.00000000  1.0
  Ni  Ni2  1  0.50000000  0.00000000  0.00000000  1.0
  Ni  Ni3  1  0.50000000  0.50000000  0.50000000  1.0
  H  H4  1  0.04882000  0.48436000  0.27192000  1.0
  H  H5  1  0.95117000  0.01564000  0.77191000  1.0
  H  H6  1  0.45118000  0.98437000  0.22808000  1.0
  H  H7  1  0.54883000  0.51564000  0.72808000  1.0
  H  H8  1  0.95118000  0.51563000  0.72808000  1.0
  H  H9  1  0.04883000  0.98436000  0.22808000  1.0
  H  H10  1  0.54882000  0.01563000  0.77192000  1.0
  H  H11  1  0.45117000  0.48436000  0.27192000  1.0
  H  H12  1  0.03808000  0.51737000  0.13343000  1.0
  H  H13  1  0.96192000  0.98263000  0.63342000  1.0
  H  H14  1  0.46192000  0.01737000  0.36657000  1.0
  H  H15  1  0.53808000  0.48263000  0.86657000  1.0
  H  H16  1  0.96192000  0.48263000  0.86657000  1.0
  H  H17  1  0.03808000  0.01737000  0.36657000  1.0
  H  H18  1  0.53808000  0.98263000  0.63343000  1.0
  H  H19  1  0.46192000  0.51737000  0.13343000  1.0
  H  H20  1  0.62557000  0.59821000  0.03102000  1.0
  H  H21  1  0.37443000  0.90179000  0.53102000  1.0
  H  H22  1  0.87443000  0.09821000  0.46899000  1.0
  H  H23  1  0.12557000  0.40179000  0.96898000  1.0
  H  H24  1  0.37443000  0.40179000  0.96899000  1.0
  H  H25  1  0.62557000  0.09821000  0.46899000  1.0
  H  H26  1  0.12557000  0.90179000  0.53102000  1.0
  H  H27  1  0.87443000  0.59821000  0.03102000  1.0
  C  C28  1  0.74999000  0.45711000  0.36511000  1.0
  C  C29  1  0.24999000  0.04289000  0.86511000  1.0
  C  C30  1  0.75001000  0.95712000  0.13489000  1.0
  C  C31  1  0.25001000  0.54289000  0.63489000  1.0
  C  C32  1  0.74999000  0.47913000  0.28198000  1.0
  C  C33  1  0.24999000  0.02087000  0.78198000  1.0
  C  C34  1  0.75001000  0.97913000  0.21802000  1.0
  C  C35  1  0.25001000  0.52087000  0.71802000  1.0
  C  C36  1  0.91703000  0.49058000  0.24290000  1.0
  C  C37  1  0.08296000  0.00942000  0.74290000  1.0
  C  C38  1  0.58297000  0.99058000  0.25710000  1.0
  C  C39  1  0.41704000  0.50943000  0.75710000  1.0
  C  C40  1  0.08297000  0.50942000  0.75710000  1.0
  C  C41  1  0.91704000  0.99057000  0.25710000  1.0
  C  C42  1  0.41703000  0.00943000  0.74290000  1.0
  C  C43  1  0.58296000  0.49058000  0.24290000  1.0
  C  C44  1  0.91373000  0.51086000  0.16709000  1.0
  C  C45  1  0.08626000  0.98914000  0.66708000  1.0
  C  C46  1  0.58627000  0.01085000  0.33291000  1.0
  C  C47  1  0.41374000  0.48915000  0.83291000  1.0
  C  C48  1  0.08627000  0.48915000  0.83291000  1.0
  C  C49  1  0.91374000  0.01085000  0.33291000  1.0
  C  C50  1  0.41373000  0.98915000  0.66709000  1.0
  C  C51  1  0.58626000  0.51086000  0.16709000  1.0
  C  C52  1  0.75000000  0.52657000  0.04934000  1.0
  C  C53  1  0.25000000  0.97343000  0.54934000  1.0
  C  C54  1  0.75000000  0.02656000  0.45066000  1.0
  C  C55  1  0.25000000  0.47344000  0.95066000  1.0
  C  C56  1  0.75000000  0.33042000  0.02124000  1.0
  C  C57  1  0.25000000  0.16958000  0.52124000  1.0
  C  C58  1  0.75000000  0.83042000  0.47876000  1.0
  C  C59  1  0.25000000  0.66958000  0.97876000  1.0
  N  N60  1  0.75000000  0.42172000  0.54584000  1.0
  N  N61  1  0.25000000  0.07828000  0.04584000  1.0
  N  N62  1  0.75000000  0.92172000  0.95416000  1.0
  N  N63  1  0.25000000  0.57828000  0.45416000  1.0
  N  N64  1  0.75000000  0.33557000  0.60207000  1.0
  N  N65  1  0.25000000  0.16443000  0.10207000  1.0
  N  N66  1  0.75000000  0.83557000  0.89793000  1.0
  N  N67  1  0.25000000  0.66443000  0.39793000  1.0
  N  N68  1  0.75000000  0.25111000  0.65670000  1.0
  N  N69  1  0.25000000  0.24889000  0.15670000  1.0
  N  N70  1  0.75000000  0.75111000  0.84330000  1.0
  N  N71  1  0.25000000  0.74889000  0.34330000  1.0
  N  N72  1  0.75000000  0.51994000  0.13045000  1.0
  N  N73  1  0.25000000  0.98006000  0.63045000  1.0
  N  N74  1  0.75000000  0.01993000  0.36955000  1.0
  N  N75  1  0.25000000  0.48007000  0.86955000  1.0
  O  O76  1  0.90905000  0.44876000  0.39481000  1.0
  O  O77  1  0.09092000  0.05127000  0.89480000  1.0
  O  O78  1  0.59095000  0.94876000  0.10519000  1.0
  O  O79  1  0.40907000  0.55128000  0.60520000  1.0
  O  O80  1  0.09095000  0.55123000  0.60519000  1.0
  O  O81  1  0.90908000  0.94873000  0.10520000  1.0
  O  O82  1  0.40904000  0.05125000  0.89481000  1.0
  O  O83  1  0.59093000  0.44871000  0.39480000  1.0
  O  O84  1  0.90862000  0.26075000  0.01271000  1.0
  O  O85  1  0.09138000  0.23924000  0.51270000  1.0
  O  O86  1  0.59138000  0.76074000  0.48729000  1.0
  O  O87  1  0.40862000  0.73925000  0.98729000  1.0
  O  O88  1  0.09138000  0.73926000  0.98729000  1.0
  O  O89  1  0.90862000  0.76075000  0.48730000  1.0
  O  O90  1  0.40862000  0.23926000  0.51271000  1.0
  O  O91  1  0.59138000  0.26075000  0.01271000  1.0
