# generated using pymatgen
data_Cu3H14C9SI4N
_symmetry_space_group_name_H-M   'P 1'
_cell_length_a   10.97990000
_cell_length_b   11.01590000
_cell_length_c   15.52530000
_cell_angle_alpha   90.00000000
_cell_angle_beta   90.00000000
_cell_angle_gamma   108.38700000
_symmetry_Int_Tables_number   1
_chemical_formula_structural   Cu3H14C9SI4N
_chemical_formula_sum   'Cu12 H56 C36 S4 I16 N4'
_cell_volume   1781.97088883
_cell_formula_units_Z   4
loop_
 _symmetry_equiv_pos_site_id
 _symmetry_equiv_pos_as_xyz
  1  'x, y, z'
loop_
 _atom_site_type_symbol
 _atom_site_label
 _atom_site_symmetry_multiplicity
 _atom_site_fract_x
 _atom_site_fract_y
 _atom_site_fract_z
 _atom_site_occupancy
  Cu  Cu0  1  0.81782000  0.74080000  0.78105000  1.0
  Cu  Cu1  1  0.31782000  0.74080000  0.71895000  1.0
  Cu  Cu2  1  0.18217000  0.25920000  0.21895000  1.0
  Cu  Cu3  1  0.68218000  0.25920000  0.28105000  1.0
  Cu  Cu4  1  0.57736000  0.73543000  0.78838000  1.0
  Cu  Cu5  1  0.07736000  0.73543000  0.71163000  1.0
  Cu  Cu6  1  0.42264000  0.26457000  0.21163000  1.0
  Cu  Cu7  1  0.92264000  0.26457000  0.28837000  1.0
  Cu  Cu8  1  0.64968000  0.59902000  0.67700000  1.0
  Cu  Cu9  1  0.14968000  0.59902000  0.82300000  1.0
  Cu  Cu10  1  0.35032000  0.40098000  0.32300000  1.0
  Cu  Cu11  1  0.85032000  0.40098000  0.17700000  1.0
  H  H12  1  0.81874000  0.45606000  0.53387000  1.0
  H  H13  1  0.31874000  0.45606000  0.96613000  1.0
  H  H14  1  0.18126000  0.54394000  0.46613000  1.0
  H  H15  1  0.68126000  0.54394000  0.03387000  1.0
  H  H16  1  0.49775000  0.15971000  0.64753000  1.0
  H  H17  1  0.99776000  0.15971000  0.85246000  1.0
  H  H18  1  0.50224000  0.84029000  0.35247000  1.0
  H  H19  1  0.00225000  0.84029000  0.14753000  1.0
  H  H20  1  0.79935000  0.96950000  0.60691000  1.0
  H  H21  1  0.29935000  0.96950000  0.89309000  1.0
  H  H22  1  0.20065000  0.03050000  0.39309000  1.0
  H  H23  1  0.70065000  0.03050000  0.10691000  1.0
  H  H24  1  0.87453000  0.04648000  0.51129000  1.0
  H  H25  1  0.37453000  0.04648000  0.98871000  1.0
  H  H26  1  0.12547000  0.95352000  0.48871000  1.0
  H  H27  1  0.62547000  0.95352000  0.01129000  1.0
  H  H28  1  0.93592000  0.29687000  0.52854000  1.0
  H  H29  1  0.43593000  0.29687000  0.97146000  1.0
  H  H30  1  0.06408000  0.70313000  0.47146000  1.0
  H  H31  1  0.56408000  0.70313000  0.02854000  1.0
  H  H32  1  0.03566000  0.03191000  0.62295000  1.0
  H  H33  1  0.53566000  0.03191000  0.87704000  1.0
  H  H34  1  0.96434000  0.96809000  0.37704000  1.0
  H  H35  1  0.46434000  0.96809000  0.12295000  1.0
  H  H36  1  0.97213000  0.11789000  0.69701000  1.0
  H  H37  1  0.47213000  0.11789000  0.80299000  1.0
  H  H38  1  0.02787000  0.88212000  0.30299000  1.0
  H  H39  1  0.52787000  0.88211000  0.19701000  1.0
  H  H40  1  0.05296000  0.19513000  0.60197000  1.0
  H  H41  1  0.55296000  0.19513000  0.89803000  1.0
  H  H42  1  0.94704000  0.80487000  0.39803000  1.0
  H  H43  1  0.44704000  0.80487000  0.10197000  1.0
  H  H44  1  0.34684000  0.40321000  0.57616000  1.0
  H  H45  1  0.84684000  0.40321000  0.92384000  1.0
  H  H46  1  0.65316000  0.59679000  0.42385000  1.0
  H  H47  1  0.15316000  0.59679000  0.07616000  1.0
  H  H48  1  0.37697000  0.25460000  0.57244000  1.0
  H  H49  1  0.87698000  0.25460000  0.92756000  1.0
  H  H50  1  0.62302000  0.74540000  0.42756000  1.0
  H  H51  1  0.12303000  0.74540000  0.07244000  1.0
  H  H52  1  0.63127000  0.01676000  0.64327000  1.0
  H  H53  1  0.13128000  0.01676000  0.85673000  1.0
  H  H54  1  0.36872000  0.98324000  0.35673000  1.0
  H  H55  1  0.86872000  0.98324000  0.14327000  1.0
  H  H56  1  0.26311000  0.26874000  0.70880000  1.0
  H  H57  1  0.76311000  0.26874000  0.79120000  1.0
  H  H58  1  0.73689000  0.73126000  0.29121000  1.0
  H  H59  1  0.23689000  0.73126000  0.20880000  1.0
  H  H60  1  0.37578000  0.42034000  0.73376000  1.0
  H  H61  1  0.87578000  0.42035000  0.76624000  1.0
  H  H62  1  0.62422000  0.57965000  0.26624000  1.0
  H  H63  1  0.12422000  0.57965000  0.23376000  1.0
  H  H64  1  0.42315000  0.28073000  0.73808000  1.0
  H  H65  1  0.92315000  0.28073000  0.76192000  1.0
  H  H66  1  0.57685000  0.71927000  0.26192000  1.0
  H  H67  1  0.07685000  0.71927000  0.23808000  1.0
  C  C68  1  0.64680000  0.32235000  0.59082000  1.0
  C  C69  1  0.14681000  0.32236000  0.90918000  1.0
  C  C70  1  0.35319000  0.67765000  0.40918000  1.0
  C  C71  1  0.85319000  0.67764000  0.09082000  1.0
  C  C72  1  0.77344000  0.36000000  0.55875000  1.0
  C  C73  1  0.27345000  0.36000000  0.94125000  1.0
  C  C74  1  0.22655000  0.64000000  0.44125000  1.0
  C  C75  1  0.72656000  0.64000000  0.05875000  1.0
  C  C76  1  0.59492000  0.19698000  0.62231000  1.0
  C  C77  1  0.09492000  0.19699000  0.87769000  1.0
  C  C78  1  0.40508000  0.80302000  0.37769000  1.0
  C  C79  1  0.90508000  0.80302000  0.12231000  1.0
  C  C80  1  0.86104000  0.06040000  0.58043000  1.0
  C  C81  1  0.36105000  0.06040000  0.91957000  1.0
  C  C82  1  0.13896000  0.93960000  0.41957000  1.0
  C  C83  1  0.63896000  0.93960000  0.08042000  1.0
  C  C84  1  0.84022000  0.27353000  0.55630000  1.0
  C  C85  1  0.34022000  0.27353000  0.94369000  1.0
  C  C86  1  0.15978000  0.72647000  0.44370000  1.0
  C  C87  1  0.65978000  0.72647000  0.05630000  1.0
  C  C88  1  0.98796000  0.10547000  0.62824000  1.0
  C  C89  1  0.48796000  0.10547000  0.87176000  1.0
  C  C90  1  0.01204000  0.89453000  0.37176000  1.0
  C  C91  1  0.51204000  0.89453000  0.12824000  1.0
  C  C92  1  0.39879000  0.34519000  0.60814000  1.0
  C  C93  1  0.89879000  0.34519000  0.89186000  1.0
  C  C94  1  0.60121000  0.65481000  0.39186000  1.0
  C  C95  1  0.10121000  0.65481000  0.10814000  1.0
  C  C96  1  0.66749000  0.11500000  0.61994000  1.0
  C  C97  1  0.16749000  0.11500000  0.88006000  1.0
  C  C98  1  0.33251000  0.88501000  0.38006000  1.0
  C  C99  1  0.83251000  0.88500000  0.11994000  1.0
  C  C100  1  0.36411000  0.32786000  0.70290000  1.0
  C  C101  1  0.86412000  0.32786000  0.79711000  1.0
  C  C102  1  0.63588000  0.67214000  0.29711000  1.0
  C  C103  1  0.13588000  0.67214000  0.20290000  1.0
  S  S104  1  0.56523000  0.43422000  0.58327000  1.0
  S  S105  1  0.06524000  0.43423000  0.91673000  1.0
  S  S106  1  0.43476000  0.56577000  0.41673000  1.0
  S  S107  1  0.93476000  0.56577000  0.08327000  1.0
  I  I108  1  0.63912000  0.52120000  0.83661000  1.0
  I  I109  1  0.13912000  0.52120000  0.66339000  1.0
  I  I110  1  0.36089000  0.47880000  0.16339000  1.0
  I  I111  1  0.86089000  0.47879000  0.33661000  1.0
  I  I112  1  0.01668000  0.74834000  0.87669000  1.0
  I  I113  1  0.51668000  0.74834000  0.62331000  1.0
  I  I114  1  0.98332000  0.25166000  0.12331000  1.0
  I  I115  1  0.48332000  0.25166000  0.37669000  1.0
  I  I116  1  0.76238000  0.94668000  0.82831000  1.0
  I  I117  1  0.26238000  0.94668000  0.67169000  1.0
  I  I118  1  0.23762000  0.05332000  0.17169000  1.0
  I  I119  1  0.73762000  0.05332000  0.32830000  1.0
  I  I120  1  0.87955000  0.72266000  0.61248000  1.0
  I  I121  1  0.37956000  0.72266000  0.88752000  1.0
  I  I122  1  0.12044000  0.27734000  0.38752000  1.0
  I  I123  1  0.62044000  0.27733000  0.11248000  1.0
  N  N124  1  0.78768000  0.15241000  0.58664000  1.0
  N  N125  1  0.28769000  0.15241000  0.91336000  1.0
  N  N126  1  0.21232000  0.84759000  0.41336000  1.0
  N  N127  1  0.71232000  0.84759000  0.08664000  1.0
