# generated using pymatgen
data_AgH14C16(NO)5
_symmetry_space_group_name_H-M   'P 1'
_cell_length_a   8.11184000
_cell_length_b   8.87467000
_cell_length_c   12.38050000
_cell_angle_alpha   86.01070000
_cell_angle_beta   80.95400000
_cell_angle_gamma   66.13050000
_symmetry_Int_Tables_number   1
_chemical_formula_structural   AgH14C16(NO)5
_chemical_formula_sum   'Ag2 H28 C32 N10 O10'
_cell_volume   804.88556104
_cell_formula_units_Z   2
loop_
 _symmetry_equiv_pos_site_id
 _symmetry_equiv_pos_as_xyz
  1  'x, y, z'
loop_
 _atom_site_type_symbol
 _atom_site_label
 _atom_site_symmetry_multiplicity
 _atom_site_fract_x
 _atom_site_fract_y
 _atom_site_fract_z
 _atom_site_occupancy
  Ag  Ag0  1  0.36169000  0.53648000  0.91536000  1.0
  Ag  Ag1  1  0.63831000  0.46352000  0.08464000  1.0
  H  H2  1  0.35520000  0.20633000  0.88822000  1.0
  H  H3  1  0.64481000  0.79366000  0.11178000  1.0
  H  H4  1  0.48524000  0.97342000  0.75741000  1.0
  H  H5  1  0.51476000  0.02658000  0.24259000  1.0
  H  H6  1  0.82070000  0.21486000  0.58606000  1.0
  H  H7  1  0.17930000  0.78514000  0.41394000  1.0
  H  H8  1  0.66854000  0.44170000  0.71843000  1.0
  H  H9  1  0.33146000  0.55830000  0.28157000  1.0
  H  H10  1  0.85710000  0.95276000  0.51640000  1.0
  H  H11  1  0.14290000  0.04724000  0.48360000  1.0
  H  H12  1  0.57121000  0.81214000  0.60915000  1.0
  H  H13  1  0.42878000  0.18787000  0.39085000  1.0
  H  H14  1  0.03388000  0.59953000  0.08849000  1.0
  H  H15  1  0.96612000  0.40047000  0.91151000  1.0
  H  H16  1  0.84959000  0.80590000  0.23323000  1.0
  H  H17  1  0.15041000  0.19409000  0.76677000  1.0
  H  H18  1  0.15233000  0.09881000  0.10328000  1.0
  H  H19  1  0.84767000  0.90119000  0.89673000  1.0
  H  H20  1  0.33737000  0.87161000  0.97268000  1.0
  H  H21  1  0.66263000  0.12840000  0.02733000  1.0
  H  H22  1  0.75742000  0.07012000  0.31316000  1.0
  H  H23  1  0.24258000  0.92988000  0.68684000  1.0
  H  H24  1  0.98610000  0.27205000  0.23021000  1.0
  H  H25  1  0.01390000  0.72795000  0.76979000  1.0
  H  H26  1  0.92874000  0.48283000  0.33944000  1.0
  H  H27  1  0.07127000  0.51717000  0.66057000  1.0
  H  H28  1  0.59727000  0.59297000  0.50066000  1.0
  H  H29  1  0.40273000  0.40703000  0.49934000  1.0
  C  C30  1  0.45278000  0.20571000  0.81666000  1.0
  C  C31  1  0.54722000  0.79429000  0.18334000  1.0
  C  C32  1  0.52611000  0.07680000  0.74313000  1.0
  C  C33  1  0.47390000  0.92320000  0.25687000  1.0
  C  C34  1  0.65832000  0.07729000  0.65471000  1.0
  C  C35  1  0.34168000  0.92271000  0.34529000  1.0
  C  C36  1  0.71266000  0.20949000  0.64856000  1.0
  C  C37  1  0.28734000  0.79051000  0.35144000  1.0
  C  C38  1  0.62953000  0.33710000  0.72345000  1.0
  C  C39  1  0.37047000  0.66290000  0.27655000  1.0
  C  C40  1  0.74105000  0.94833000  0.57282000  1.0
  C  C41  1  0.25896000  0.05167000  0.42717000  1.0
  C  C42  1  0.68750000  0.82621000  0.55909000  1.0
  C  C43  1  0.31251000  0.17379000  0.44091000  1.0
  C  C44  1  0.05568000  0.71155000  0.09544000  1.0
  C  C45  1  0.94432000  0.28845000  0.90456000  1.0
  C  C46  1  0.95095000  0.82891000  0.17411000  1.0
  C  C47  1  0.04905000  0.17108000  0.82589000  1.0
  C  C48  1  0.98040000  0.97325000  0.18021000  1.0
  C  C49  1  0.01959000  0.02675000  0.81980000  1.0
  C  C50  1  0.12146000  0.98995000  0.10502000  1.0
  C  C51  1  0.87854000  0.01005000  0.89498000  1.0
  C  C52  1  0.22407000  0.86566000  0.03063000  1.0
  C  C53  1  0.77593000  0.13433000  0.96938000  1.0
  C  C54  1  0.86496000  0.09639000  0.26144000  1.0
  C  C55  1  0.13504000  0.90361000  0.73856000  1.0
  C  C56  1  0.87979000  0.23908000  0.27725000  1.0
  C  C57  1  0.12020000  0.76091000  0.72275000  1.0
  C  C58  1  0.79057000  0.70384000  0.47283000  1.0
  C  C59  1  0.20943000  0.29616000  0.52718000  1.0
  C  C60  1  0.75667000  0.35492000  0.36267000  1.0
  C  C61  1  0.24334000  0.64508000  0.63733000  1.0
  N  N62  1  0.49930000  0.33693000  0.80611000  1.0
  N  N63  1  0.50070000  0.66307000  0.19390000  1.0
  N  N64  1  0.19233000  0.72811000  0.02501000  1.0
  N  N65  1  0.80767000  0.27189000  0.97499000  1.0
  N  N66  1  0.80939000  0.47760000  0.37898000  1.0
  N  N67  1  0.19061000  0.52240000  0.62103000  1.0
  N  N68  1  0.71795000  0.59321000  0.45808000  1.0
  N  N69  1  0.28206000  0.40679000  0.54192000  1.0
  N  N70  1  0.71800000  0.66796000  0.83383000  1.0
  N  N71  1  0.28201000  0.33204000  0.16617000  1.0
  O  O72  1  0.93412000  0.69726000  0.41504000  1.0
  O  O73  1  0.06589000  0.30273000  0.58496000  1.0
  O  O74  1  0.61789000  0.34344000  0.41636000  1.0
  O  O75  1  0.38210000  0.65656000  0.58364000  1.0
  O  O76  1  0.82428000  0.59361000  0.74992000  1.0
  O  O77  1  0.17572000  0.40639000  0.25008000  1.0
  O  O78  1  0.78226000  0.68687000  0.91677000  1.0
  O  O79  1  0.21775000  0.31312000  0.08322000  1.0
  O  O80  1  0.54685000  0.72146000  0.83462000  1.0
  O  O81  1  0.45315000  0.27854000  0.16538000  1.0
