# generated using pymatgen
data_CdH28C26(NO)4
_symmetry_space_group_name_H-M   'P 1'
_cell_length_a   9.34176000
_cell_length_b   11.13140000
_cell_length_c   12.57700000
_cell_angle_alpha   87.43080000
_cell_angle_beta   82.51070000
_cell_angle_gamma   72.43830000
_symmetry_Int_Tables_number   1
_chemical_formula_structural   CdH28C26(NO)4
_chemical_formula_sum   'Cd2 H56 C52 N8 O8'
_cell_volume   1236.22981139
_cell_formula_units_Z   2
loop_
 _symmetry_equiv_pos_site_id
 _symmetry_equiv_pos_as_xyz
  1  'x, y, z'
loop_
 _atom_site_type_symbol
 _atom_site_label
 _atom_site_symmetry_multiplicity
 _atom_site_fract_x
 _atom_site_fract_y
 _atom_site_fract_z
 _atom_site_occupancy
  Cd  Cd0  1  0.94993000  0.65194000  0.91574000  1.0
  Cd  Cd1  1  0.05007000  0.34806000  0.08425000  1.0
  H  H2  1  0.59054000  0.75346000  0.94037000  1.0
  H  H3  1  0.40946000  0.24654000  0.05963000  1.0
  H  H4  1  0.36972000  0.88046000  0.06477000  1.0
  H  H5  1  0.63028000  0.11954000  0.93523000  1.0
  H  H6  1  0.68316000  0.88488000  0.28582000  1.0
  H  H7  1  0.31684000  0.11512000  0.71418000  1.0
  H  H8  1  0.89129000  0.75795000  0.15295000  1.0
  H  H9  1  0.10871000  0.24205000  0.84705000  1.0
  H  H10  1  0.27989000  0.00995000  0.22451000  1.0
  H  H11  1  0.72011000  0.99005000  0.77550000  1.0
  H  H12  1  0.34537000  0.89143000  0.31983000  1.0
  H  H13  1  0.65463000  0.10857000  0.68017000  1.0
  H  H14  1  0.33333333  0.21196000  0.23776000  1.0
  H  H15  1  0.66666667  0.78804000  0.76225000  1.0
  H  H16  1  0.52805000  0.12593000  0.20351000  1.0
  H  H17  1  0.47195000  0.87407000  0.79648000  1.0
  H  H18  1  0.59818000  0.19436000  0.36477000  1.0
  H  H19  1  0.40182000  0.80564000  0.63523000  1.0
  H  H20  1  0.49456000  0.32819000  0.29293000  1.0
  H  H21  1  0.50544000  0.67181000  0.70707000  1.0
  H  H22  1  0.25502000  0.21279000  0.56039000  1.0
  H  H23  1  0.74498000  0.78721000  0.43961000  1.0
  H  H24  1  0.44839000  0.12179000  0.53113000  1.0
  H  H25  1  0.55161000  0.87821000  0.46887000  1.0
  H  H26  1  0.28764000  0.01052000  0.47060000  1.0
  H  H27  1  0.71236000  0.98948000  0.52940000  1.0
  H  H28  1  0.19016000  0.14332000  0.39539000  1.0
  H  H29  1  0.80984000  0.85669000  0.60461000  1.0
  H  H30  1  0.45918000  0.43586000  0.44967000  1.0
  H  H31  1  0.54082000  0.56414000  0.55033000  1.0
  H  H32  1  0.53783000  0.30542000  0.53183000  1.0
  H  H33  1  0.46218000  0.69458000  0.46816000  1.0
  H  H34  1  0.29912000  0.51090000  0.85507000  1.0
  H  H35  1  0.70088000  0.48910000  0.14493000  1.0
  H  H36  1  0.48808000  0.39751000  0.70452000  1.0
  H  H37  1  0.51192000  0.60249000  0.29548000  1.0
  H  H38  1  0.12233000  0.46473000  0.51241000  1.0
  H  H39  1  0.87768000  0.53527000  0.48759000  1.0
  H  H40  1  0.94547000  0.57337000  0.67283000  1.0
  H  H41  1  0.05453000  0.42663000  0.32717000  1.0
  H  H42  1  0.73329000  0.40583000  0.66838000  1.0
  H  H43  1  0.26670000  0.59417000  0.33162000  1.0
  H  H44  1  0.88397000  0.25685000  0.52422000  1.0
  H  H45  1  0.11603000  0.74315000  0.47578000  1.0
  H  H46  1  0.05216000  0.04736000  0.57174000  1.0
  H  H47  1  0.94783000  0.95264000  0.42826000  1.0
  H  H48  1  0.90989000  0.13176000  0.90721000  1.0
  H  H49  1  0.09012000  0.86824000  0.09279000  1.0
  H  H50  1  0.72254000  0.31526000  0.96318000  1.0
  H  H51  1  0.27746000  0.68474000  0.03682000  1.0
  H  H52  1  0.60102000  0.40708000  0.87068000  1.0
  H  H53  1  0.39898000  0.59292000  0.12932000  1.0
  H  H54  1  0.18135000  0.97325000  0.82462000  1.0
  H  H55  1  0.81865000  0.02675000  0.17538000  1.0
  H  H56  1  0.17588000  0.90780000  0.70054000  1.0
  H  H57  1  0.82412000  0.09220000  0.29946000  1.0
  C  C58  1  0.60551000  0.78548000  0.01765000  1.0
  C  C59  1  0.39449000  0.21452000  0.98235000  1.0
  C  C60  1  0.48389000  0.85506000  0.08747000  1.0
  C  C61  1  0.51611000  0.14494000  0.91253000  1.0
  C  C62  1  0.50899000  0.89206000  0.18667000  1.0
  C  C63  1  0.49102000  0.10794000  0.81333000  1.0
  C  C64  1  0.65848000  0.85707000  0.21008000  1.0
  C  C65  1  0.34152000  0.14293000  0.78992000  1.0
  C  C66  1  0.77412000  0.78744000  0.13623000  1.0
  C  C67  1  0.22588000  0.21256000  0.86377000  1.0
  C  C68  1  0.37918000  0.96208000  0.26612000  1.0
  C  C69  1  0.62083000  0.03792000  0.73388000  1.0
  C  C70  1  0.43839000  0.15856000  0.27086000  1.0
  C  C71  1  0.56161000  0.84144000  0.72914000  1.0
  C  C72  1  0.48491000  0.24491000  0.34024000  1.0
  C  C73  1  0.51509000  0.75509000  0.65976000  1.0
  C  C74  1  0.34662000  0.17809000  0.49470000  1.0
  C  C75  1  0.65337000  0.82191000  0.50530000  1.0
  C  C76  1  0.30077000  0.09303000  0.42331000  1.0
  C  C77  1  0.69923000  0.90697000  0.57669000  1.0
  C  C78  1  0.43037000  0.36183000  0.50160000  1.0
  C  C79  1  0.56964000  0.63817000  0.49840000  1.0
  C  C80  1  0.26484000  0.49906000  0.77745000  1.0
  C  C81  1  0.73516000  0.50094000  0.22255000  1.0
  C  C82  1  0.36910000  0.43720000  0.69332000  1.0
  C  C83  1  0.63090000  0.56280000  0.30668000  1.0
  C  C84  1  0.31947000  0.42431000  0.59539000  1.0
  C  C85  1  0.68054000  0.57569000  0.40461000  1.0
  C  C86  1  0.16469000  0.47434000  0.58730000  1.0
  C  C87  1  0.83532000  0.52566000  0.41270000  1.0
  C  C88  1  0.06716000  0.53390000  0.67543000  1.0
  C  C89  1  0.93284000  0.46610000  0.32457000  1.0
  C  C90  1  0.80757000  0.27602000  0.79733000  1.0
  C  C91  1  0.19243000  0.72398000  0.20267000  1.0
  C  C92  1  0.80221000  0.31164000  0.68893000  1.0
  C  C93  1  0.19779000  0.68836000  0.31107000  1.0
  C  C94  1  0.88854000  0.22892000  0.60834000  1.0
  C  C95  1  0.11145000  0.77107000  0.39166000  1.0
  C  C96  1  0.98345000  0.11104000  0.63504000  1.0
  C  C97  1  0.01654000  0.88896000  0.36496000  1.0
  C  C98  1  0.99331000  0.07486000  0.74250000  1.0
  C  C99  1  0.00669000  0.92514000  0.25750000  1.0
  C  C100  1  0.90292000  0.15766000  0.82263000  1.0
  C  C101  1  0.09708000  0.84234000  0.17737000  1.0
  C  C102  1  0.71902000  0.36579000  0.88620000  1.0
  C  C103  1  0.28098000  0.63421000  0.11380000  1.0
  C  C104  1  0.78783000  0.47335000  0.89192000  1.0
  C  C105  1  0.21217000  0.52665000  0.10808000  1.0
  C  C106  1  0.10488000  0.95359000  0.77312000  1.0
  C  C107  1  0.89513000  0.04641000  0.22688000  1.0
  C  C108  1  0.03837000  0.85499000  0.83029000  1.0
  C  C109  1  0.96163000  0.14501000  0.16971000  1.0
  N  N110  1  0.74895000  0.75256000  0.04104000  1.0
  N  N111  1  0.25105000  0.24744000  0.95897000  1.0
  N  N112  1  0.11644000  0.54600000  0.76917000  1.0
  N  N113  1  0.88356000  0.45399000  0.23083000  1.0
  N  N114  1  0.41825000  0.04886000  0.33283000  1.0
  N  N115  1  0.58174000  0.95114000  0.66717000  1.0
  N  N116  1  0.37428000  0.28679000  0.43501000  1.0
  N  N117  1  0.62572000  0.71321000  0.56499000  1.0
  O  O118  1  0.74504000  0.57063000  0.83521000  1.0
  O  O119  1  0.25496000  0.42937000  0.16479000  1.0
  O  O120  1  0.89163000  0.45886000  0.95371000  1.0
  O  O121  1  0.10837000  0.54114000  0.04629000  1.0
  O  O122  1  0.10270000  0.79454000  0.90838000  1.0
  O  O123  1  0.89730000  0.20546000  0.09162000  1.0
  O  O124  1  0.92685000  0.83306000  0.79531000  1.0
  O  O125  1  0.07315000  0.16694000  0.20469000  1.0
