# generated using pymatgen
data_CuH16C16(NO)4
_symmetry_space_group_name_H-M   'P 1'
_cell_length_a   7.44171000
_cell_length_b   7.95222000
_cell_length_c   8.38308000
_cell_angle_alpha   92.64700000
_cell_angle_beta   105.59600000
_cell_angle_gamma   116.03800000
_symmetry_Int_Tables_number   1
_chemical_formula_structural   CuH16C16(NO)4
_chemical_formula_sum   'Cu1 H16 C16 N4 O4'
_cell_volume   421.53255992
_cell_formula_units_Z   1
loop_
 _symmetry_equiv_pos_site_id
 _symmetry_equiv_pos_as_xyz
  1  'x, y, z'
loop_
 _atom_site_type_symbol
 _atom_site_label
 _atom_site_symmetry_multiplicity
 _atom_site_fract_x
 _atom_site_fract_y
 _atom_site_fract_z
 _atom_site_occupancy
  Cu  Cu0  1  0.50000000  0.50001000  0.49999000  1.0
  H  H1  1  0.95928000  0.58652000  0.70381000  1.0
  H  H2  1  0.04072000  0.41350000  0.29619000  1.0
  H  H3  1  0.19292000  0.72980000  0.00293000  1.0
  H  H4  1  0.80710000  0.27022000  0.99709000  1.0
  H  H5  1  0.05799000  0.84614000  0.20323000  1.0
  H  H6  1  0.94199000  0.15385000  0.79678000  1.0
  H  H7  1  0.69271000  0.81154000  0.09859000  1.0
  H  H8  1  0.30728000  0.18846000  0.90139000  1.0
  H  H9  1  0.32041000  0.56821000  0.84108000  1.0
  H  H10  1  0.67961000  0.43175000  0.15891000  1.0
  H  H11  1  0.42135000  0.80232000  0.79836000  1.0
  H  H12  1  0.57861000  0.19764000  0.20164000  1.0
  H  H13  1  0.29151000  0.68025000  0.52808000  1.0
  H  H14  1  0.70850000  0.31976000  0.47192000  1.0
  H  H15  1  0.17999000  0.46369000  0.57100000  1.0
  H  H16  1  0.81999000  0.53632000  0.42898000  1.0
  C  C17  1  0.90720000  0.64010000  0.79457000  1.0
  C  C18  1  0.09281000  0.35990000  0.20540000  1.0
  C  C19  1  0.03645000  0.72022000  0.96063000  1.0
  C  C20  1  0.96355000  0.27978000  0.03935000  1.0
  C  C21  1  0.96107000  0.78522000  0.07201000  1.0
  C  C22  1  0.03890000  0.21478000  0.92797000  1.0
  C  C23  1  0.75850000  0.76686000  0.01344000  1.0
  C  C24  1  0.24149000  0.23313000  0.98655000  1.0
  C  C25  1  0.63845000  0.68746000  0.84416000  1.0
  C  C26  1  0.36157000  0.31253000  0.15584000  1.0
  C  C27  1  0.41871000  0.66393000  0.77310000  1.0
  C  C28  1  0.58125000  0.33606000  0.22690000  1.0
  C  C29  1  0.83558000  0.91014000  0.44525000  1.0
  C  C30  1  0.16445000  0.08990000  0.55479000  1.0
  C  C31  1  0.97243000  0.11642000  0.51477000  1.0
  C  C32  1  0.02759000  0.88359000  0.48525000  1.0
  N  N33  1  0.71254000  0.62532000  0.73701000  1.0
  N  N34  1  0.28747000  0.37468000  0.26298000  1.0
  N  N35  1  0.32523000  0.58433000  0.59151000  1.0
  N  N36  1  0.67479000  0.41567000  0.40849000  1.0
  O  O37  1  0.64035000  0.80321000  0.37932000  1.0
  O  O38  1  0.35968000  0.19680000  0.62073000  1.0
  O  O39  1  0.94021000  0.25846000  0.53494000  1.0
  O  O40  1  0.05978000  0.74156000  0.46506000  1.0
