# generated using pymatgen
data_Hf3H8(CO2)8
_symmetry_space_group_name_H-M   'P 1'
_cell_length_a   11.64220000
_cell_length_b   13.43300000
_cell_length_c   19.18660000
_cell_angle_alpha   89.34990000
_cell_angle_beta   89.99500000
_cell_angle_gamma   89.98600000
_symmetry_Int_Tables_number   1
_chemical_formula_structural   Hf3H8(CO2)8
_chemical_formula_sum   'Hf12 H32 C32 O64'
_cell_volume   3000.39284568
_cell_formula_units_Z   4
loop_
 _symmetry_equiv_pos_site_id
 _symmetry_equiv_pos_as_xyz
  1  'x, y, z'
loop_
 _atom_site_type_symbol
 _atom_site_label
 _atom_site_symmetry_multiplicity
 _atom_site_fract_x
 _atom_site_fract_y
 _atom_site_fract_z
 _atom_site_occupancy
  Hf  Hf0  1  0.14042000  0.13412000  0.99136000  1.0
  Hf  Hf1  1  0.84024000  0.12391000  0.99664000  1.0
  Hf  Hf2  1  0.16333000  0.87370000  0.99310000  1.0
  Hf  Hf3  1  0.85852000  0.86461000  0.00221000  1.0
  Hf  Hf4  1  0.00844000  0.99776000  0.12473000  1.0
  Hf  Hf5  1  0.99354000  0.99354000  0.86559000  1.0
  Hf  Hf6  1  0.64053000  0.35581000  0.49873000  1.0
  Hf  Hf7  1  0.34032000  0.36599000  0.49357000  1.0
  Hf  Hf8  1  0.66318000  0.61616000  0.49648000  1.0
  Hf  Hf9  1  0.35848000  0.62526000  0.48733000  1.0
  Hf  Hf10  1  0.50843000  0.49157000  0.36507000  1.0
  Hf  Hf11  1  0.49363000  0.49672000  0.62430000  1.0
  H  H12  1  0.99429000  0.20692000  0.89299000  1.0
  H  H13  1  0.76355000  0.99263000  0.10302000  1.0
  H  H14  1  0.98479000  0.78305000  0.90139000  1.0
  H  H15  1  0.25809000  0.00315000  0.08441000  1.0
  H  H16  1  0.62523000  0.11792000  0.04270000  1.0
  H  H17  1  0.65826000  0.97499000  0.98854000  1.0
  H  H18  1  0.76028000  0.68991000  0.96982000  1.0
  H  H19  1  0.20962000  0.67947000  0.95673000  1.0
  H  H20  1  0.38978000  0.87381000  0.96715000  1.0
  H  H21  1  0.35692000  0.20288000  0.03086000  1.0
  H  H22  1  0.13197000  0.32587000  0.02442000  1.0
  H  H23  1  0.97297000  0.29553000  0.99358000  1.0
  H  H24  1  0.19870000  0.68522000  0.03946000  1.0
  H  H25  1  0.36205000  0.18146000  0.94899000  1.0
  H  H26  1  0.84654000  0.32600000  0.95958000  1.0
  H  H27  1  0.66947000  0.89575000  0.92836000  1.0
  H  H28  1  0.49442000  0.28335000  0.59730000  1.0
  H  H29  1  0.26349000  0.49677000  0.38690000  1.0
  H  H30  1  0.48482000  0.70716000  0.58799000  1.0
  H  H31  1  0.75804000  0.48657000  0.40539000  1.0
  H  H32  1  0.12523000  0.37182000  0.44764000  1.0
  H  H33  1  0.15830000  0.51497000  0.50139000  1.0
  H  H34  1  0.26010000  0.80009000  0.51948000  1.0
  H  H35  1  0.70929000  0.81040000  0.53255000  1.0
  H  H36  1  0.88964000  0.61630000  0.52244000  1.0
  H  H37  1  0.85687000  0.28702000  0.45935000  1.0
  H  H38  1  0.63212000  0.16403000  0.46590000  1.0
  H  H39  1  0.47332000  0.19444000  0.49689000  1.0
  H  H40  1  0.69839000  0.80451000  0.44982000  1.0
  H  H41  1  0.86180000  0.30848000  0.54122000  1.0
  H  H42  1  0.34685000  0.16393000  0.53088000  1.0
  H  H43  1  0.16960000  0.59431000  0.56147000  1.0
  C  C44  1  0.18098000  0.17658000  0.15971000  1.0
  C  C45  1  0.80409000  0.15915000  0.82942000  1.0
  C  C46  1  0.82265000  0.16042000  0.16700000  1.0
  C  C47  1  0.18058000  0.15740000  0.82171000  1.0
  C  C48  1  0.18662000  0.83230000  0.82786000  1.0
  C  C49  1  0.83576000  0.81971000  0.16497000  1.0
  C  C50  1  0.78057000  0.86495000  0.80655000  1.0
  C  C51  1  0.18648000  0.82952000  0.16505000  1.0
  C  C52  1  0.68120000  0.31274000  0.33046000  1.0
  C  C53  1  0.30420000  0.33145000  0.66104000  1.0
  C  C54  1  0.32272000  0.32856000  0.32326000  1.0
  C  C55  1  0.68084000  0.33288000  0.66846000  1.0
  C  C56  1  0.68637000  0.65824000  0.66173000  1.0
  C  C57  1  0.33573000  0.66926000  0.32426000  1.0
  C  C58  1  0.28075000  0.62539000  0.68314000  1.0
  C  C59  1  0.68636000  0.65975000  0.32428000  1.0
  C  C60  1  0.75563000  0.78916000  0.75519000  1.0
  C  C61  1  0.72783000  0.72576000  0.71366000  1.0
  C  C62  1  0.25578000  0.70157000  0.73419000  1.0
  C  C63  1  0.22817000  0.76503000  0.77575000  1.0
  C  C64  1  0.72758000  0.27344000  0.72512000  1.0
  C  C65  1  0.75841000  0.22101000  0.77360000  1.0
  C  C66  1  0.78307000  0.76212000  0.22034000  1.0
  C  C67  1  0.73844000  0.71621000  0.26796000  1.0
  C  C68  1  0.23269000  0.23263000  0.21552000  1.0
  C  C69  1  0.27232000  0.27452000  0.26586000  1.0
  C  C70  1  0.23856000  0.77278000  0.22122000  1.0
  C  C71  1  0.28319000  0.72660000  0.26870000  1.0
  C  C72  1  0.25844000  0.26978000  0.71692000  1.0
  C  C73  1  0.22740000  0.21705000  0.76519000  1.0
  C  C74  1  0.73285000  0.25641000  0.27477000  1.0
  C  C75  1  0.77228000  0.21423000  0.22450000  1.0
  O  O76  1  0.20471000  0.20209000  0.09696000  1.0
  O  O77  1  0.11639000  0.10559000  0.17934000  1.0
  O  O78  1  0.77730000  0.18225000  0.89155000  1.0
  O  O79  1  0.87048000  0.08936000  0.81019000  1.0
  O  O80  1  0.79075000  0.18375000  0.10574000  1.0
  O  O81  1  0.89416000  0.09275000  0.18509000  1.0
  O  O82  1  0.21765000  0.17422000  0.88308000  1.0
  O  O83  1  0.10288000  0.09585000  0.80447000  1.0
  O  O84  1  0.09773000  0.28690000  0.98744000  1.0
  O  O85  1  0.33518000  0.15662000  0.99429000  1.0
  O  O86  1  0.88190000  0.28690000  0.99678000  1.0
  O  O87  1  0.66628000  0.09971000  0.00072000  1.0
  O  O88  1  0.99715000  0.10780000  0.04981000  1.0
  O  O89  1  0.99406000  0.14625000  0.92092000  1.0
  O  O90  1  0.22042000  0.81459000  0.89036000  1.0
  O  O91  1  0.11808000  0.90082000  0.80864000  1.0
  O  O92  1  0.80900000  0.79647000  0.10268000  1.0
  O  O93  1  0.90273000  0.88916000  0.18402000  1.0
  O  O94  1  0.69876000  0.89674000  0.84194000  1.0
  O  O95  1  0.88731000  0.89119000  0.80946000  1.0
  O  O96  1  0.20336000  0.79968000  0.10348000  1.0
  O  O97  1  0.12932000  0.90608000  0.18329000  1.0
  O  O98  1  0.16071000  0.70104000  0.99506000  1.0
  O  O99  1  0.33255000  0.88689000  0.00254000  1.0
  O  O100  1  0.82357000  0.73446000  0.95958000  1.0
  O  O101  1  0.67265000  0.90156000  0.98041000  1.0
  O  O102  1  0.00048000  0.84338000  0.92746000  1.0
  O  O103  1  0.01141000  0.88725000  0.05341000  1.0
  O  O104  1  0.12480000  0.00036000  0.93807000  1.0
  O  O105  1  0.82928000  0.99253000  0.07203000  1.0
  O  O106  1  0.18269000  0.00667000  0.06270000  1.0
  O  O107  1  0.87286000  0.99528000  0.94357000  1.0
  O  O108  1  0.70498000  0.28754000  0.39328000  1.0
  O  O109  1  0.61656000  0.38363000  0.31069000  1.0
  O  O110  1  0.27741000  0.30816000  0.59894000  1.0
  O  O111  1  0.37066000  0.40127000  0.68010000  1.0
  O  O112  1  0.29067000  0.30568000  0.38458000  1.0
  O  O113  1  0.39435000  0.39603000  0.30506000  1.0
  O  O114  1  0.71797000  0.31584000  0.60711000  1.0
  O  O115  1  0.60308000  0.39451000  0.68554000  1.0
  O  O116  1  0.59802000  0.20304000  0.50292000  1.0
  O  O117  1  0.83521000  0.33338000  0.49587000  1.0
  O  O118  1  0.38223000  0.20306000  0.49371000  1.0
  O  O119  1  0.16637000  0.39027000  0.48952000  1.0
  O  O120  1  0.49723000  0.38191000  0.44029000  1.0
  O  O121  1  0.49420000  0.34391000  0.56927000  1.0
  O  O122  1  0.72012000  0.67570000  0.59918000  1.0
  O  O123  1  0.61794000  0.58975000  0.68111000  1.0
  O  O124  1  0.30914000  0.69295000  0.38649000  1.0
  O  O125  1  0.40253000  0.59952000  0.30541000  1.0
  O  O126  1  0.19895000  0.59303000  0.64802000  1.0
  O  O127  1  0.38758000  0.59939000  0.68023000  1.0
  O  O128  1  0.70338000  0.68977000  0.38578000  1.0
  O  O129  1  0.62903000  0.58319000  0.30624000  1.0
  O  O130  1  0.66040000  0.78875000  0.49424000  1.0
  O  O131  1  0.83239000  0.60314000  0.48710000  1.0
  O  O132  1  0.32335000  0.75552000  0.52980000  1.0
  O  O133  1  0.17268000  0.58843000  0.50943000  1.0
  O  O134  1  0.50042000  0.64673000  0.56202000  1.0
  O  O135  1  0.51135000  0.60243000  0.43612000  1.0
  O  O136  1  0.62493000  0.48970000  0.55182000  1.0
  O  O137  1  0.32924000  0.49704000  0.41785000  1.0
  O  O138  1  0.68265000  0.48300000  0.42711000  1.0
  O  O139  1  0.37299000  0.49484000  0.54631000  1.0
