# generated using pymatgen
data_ZnH5C16N5O8F3
_symmetry_space_group_name_H-M   'P 1'
_cell_length_a   9.53967000
_cell_length_b   10.88760000
_cell_length_c   19.34750000
_cell_angle_alpha   91.98500000
_cell_angle_beta   90.32960000
_cell_angle_gamma   91.29450000
_symmetry_Int_Tables_number   1
_chemical_formula_structural   ZnH5C16N5O8F3
_chemical_formula_sum   'Zn2 H10 C32 N10 O16 F6'
_cell_volume   2007.74953884
_cell_formula_units_Z   2
loop_
 _symmetry_equiv_pos_site_id
 _symmetry_equiv_pos_as_xyz
  1  'x, y, z'
loop_
 _atom_site_type_symbol
 _atom_site_label
 _atom_site_symmetry_multiplicity
 _atom_site_fract_x
 _atom_site_fract_y
 _atom_site_fract_z
 _atom_site_occupancy
  Zn  Zn0  1  0.64554000  0.49661000  0.50203000  1.0
  Zn  Zn1  1  0.35445000  0.50339000  0.49797000  1.0
  H  H2  1  0.72912000  0.46159000  0.28140000  1.0
  H  H3  1  0.27082000  0.53841000  0.71861000  1.0
  H  H4  1  0.28167000  0.51308000  0.27666000  1.0
  H  H5  1  0.71828000  0.48694000  0.72332000  1.0
  H  H6  1  0.75315000  0.95314000  0.50258000  1.0
  H  H7  1  0.24689000  0.04687000  0.49743000  1.0
  H  H8  1  0.89651000  0.68516000  0.55019000  1.0
  H  H9  1  0.10349000  0.31483000  0.44981000  1.0
  H  H10  1  0.89448000  0.47052000  0.38529000  1.0
  H  H11  1  0.10551000  0.52947000  0.61471000  1.0
  C  C12  1  0.52358000  0.73935000  0.49759000  1.0
  C  C13  1  0.47647000  0.26064000  0.50240000  1.0
  C  C14  1  0.50211000  0.48831000  0.36517000  1.0
  C  C15  1  0.49782000  0.51172000  0.63483000  1.0
  C  C16  1  0.63204000  0.47308000  0.25303000  1.0
  C  C17  1  0.36791000  0.52693000  0.74698000  1.0
  C  C18  1  0.63358000  0.47222000  0.18127000  1.0
  C  C19  1  0.36640000  0.52779000  0.81874000  1.0
  C  C20  1  0.51159000  0.48651000  0.14170000  1.0
  C  C21  1  0.48840000  0.51351000  0.85829000  1.0
  C  C22  1  0.38685000  0.50084000  0.17861000  1.0
  C  C23  1  0.61313000  0.49917000  0.82137000  1.0
  C  C24  1  0.38109000  0.50080000  0.25030000  1.0
  C  C25  1  0.61886000  0.49922000  0.74969000  1.0
  C  C26  1  0.50513000  0.48704000  0.28776000  1.0
  C  C27  1  0.49481000  0.51298000  0.71223000  1.0
  C  C28  1  0.49202000  0.50754000  0.93474000  1.0
  C  C29  1  0.50798000  0.49248000  0.06525000  1.0
  C  C30  1  0.64199000  0.97449000  0.50101000  1.0
  C  C31  1  0.35805000  0.02550000  0.49899000  1.0
  C  C32  1  0.56231000  0.05101000  0.55700000  1.0
  C  C33  1  0.43774000  0.94898000  0.44300000  1.0
  C  C34  1  0.48106000  0.12339000  0.50132000  1.0
  C  C35  1  0.51898000  0.87661000  0.49869000  1.0
  C  C36  1  0.56314000  0.04655000  0.44491000  1.0
  C  C37  1  0.43689000  0.95344000  0.55509000  1.0
  C  C38  1  0.03960000  0.59265000  0.46301000  1.0
  C  C39  1  0.96039000  0.40733000  0.53699000  1.0
  C  C40  1  0.94968000  0.60453000  0.52914000  1.0
  C  C41  1  0.05032000  0.39546000  0.47086000  1.0
  C  C42  1  0.94837000  0.48227000  0.43508000  1.0
  C  C43  1  0.05162000  0.51772000  0.56493000  1.0
  N  N44  1  0.44204000  0.39870000  0.03022000  1.0
  N  N45  1  0.55798000  0.60132000  0.96977000  1.0
  N  N46  1  0.43479000  0.40609000  0.96222000  1.0
  N  N47  1  0.56524000  0.59392000  0.03777000  1.0
  N  N48  1  0.85946000  0.49325000  0.50158000  1.0
  N  N49  1  0.14054000  0.50674000  0.49842000  1.0
  N  N50  1  0.76931000  0.45002000  0.14672000  1.0
  N  N51  1  0.23067000  0.54999000  0.85330000  1.0
  N  N52  1  0.62026000  0.10907000  0.62093000  1.0
  N  N53  1  0.37981000  0.89090000  0.37907000  1.0
  O  O54  1  0.64169000  0.68903000  0.49990000  1.0
  O  O55  1  0.35837000  0.31097000  0.50007000  1.0
  O  O56  1  0.40271000  0.68786000  0.49564000  1.0
  O  O57  1  0.59734000  0.31212000  0.50437000  1.0
  O  O58  1  0.61988000  0.49026000  0.39673000  1.0
  O  O59  1  0.38003000  0.50976000  0.60327000  1.0
  O  O60  1  0.38214000  0.48765000  0.39361000  1.0
  O  O61  1  0.61777000  0.51240000  0.60638000  1.0
  O  O62  1  0.76577000  0.41446000  0.08524000  1.0
  O  O63  1  0.87727000  0.46640000  0.18206000  1.0
  O  O64  1  0.23424000  0.58556000  0.91477000  1.0
  O  O65  1  0.12270000  0.53360000  0.81796000  1.0
  O  O66  1  0.73941000  0.08024000  0.63886000  1.0
  O  O67  1  0.54180000  0.18041000  0.65250000  1.0
  O  O68  1  0.26069000  0.91973000  0.36112000  1.0
  O  O69  1  0.45829000  0.81954000  0.34754000  1.0
  F  F70  1  0.26723000  0.51776000  0.14276000  1.0
  F  F71  1  0.73275000  0.48223000  0.85722000  1.0
  F  F72  1  0.62171000  0.09563000  0.38822000  1.0
  F  F73  1  0.37833000  0.90434000  0.61178000  1.0
  F  F74  1  0.09336000  0.68467000  0.42650000  1.0
  F  F75  1  0.90662000  0.31531000  0.57350000  1.0
