# generated using pymatgen
data_Cu4SiH24(C11N2)4
_symmetry_space_group_name_H-M   'P 1'
_cell_length_a   31.92170000
_cell_length_b   31.95710000
_cell_length_c   32.87910000
_cell_angle_alpha   89.97140000
_cell_angle_beta   90.00180000
_cell_angle_gamma   89.94020000
_symmetry_Int_Tables_number   1
_chemical_formula_structural   Cu4SiH24(C11N2)4
_chemical_formula_sum   'Cu12 Si3 H72 C132 N24'
_cell_volume   33540.76807767
_cell_formula_units_Z   3
loop_
 _symmetry_equiv_pos_site_id
 _symmetry_equiv_pos_as_xyz
  1  'x, y, z'
loop_
 _atom_site_type_symbol
 _atom_site_label
 _atom_site_symmetry_multiplicity
 _atom_site_fract_x
 _atom_site_fract_y
 _atom_site_fract_z
 _atom_site_occupancy
  Cu  Cu0  1  0.76785000  0.76770000  0.83388000  1.0
  Cu  Cu1  1  0.84080000  0.77145000  0.76882000  1.0
  Cu  Cu2  1  0.76976000  0.84215000  0.77044000  1.0
  Cu  Cu3  1  0.76785000  0.23249000  0.16446000  1.0
  Cu  Cu4  1  0.84148000  0.23039000  0.22885000  1.0
  Cu  Cu5  1  0.77046000  0.15964000  0.22972000  1.0
  Cu  Cu6  1  0.23285000  0.76675000  0.16809000  1.0
  Cu  Cu7  1  0.15811000  0.76994000  0.23147000  1.0
  Cu  Cu8  1  0.22902000  0.84044000  0.23239000  1.0
  Cu  Cu9  1  0.23354000  0.23142000  0.83314000  1.0
  Cu  Cu10  1  0.15960000  0.22904000  0.76881000  1.0
  Cu  Cu11  1  0.23006000  0.15763000  0.76931000  1.0
  Si  Si12  1  0.99877000  0.00095000  0.49999000  1.0
  Si  Si13  1  0.00121000  0.50039000  0.99861000  1.0
  Si  Si14  1  0.49954000  0.99890000  0.00159000  1.0
  H  H15  1  0.79638000  0.68998000  0.88668000  1.0
  H  H16  1  0.90036000  0.69860000  0.80230000  1.0
  H  H17  1  0.69642000  0.89987000  0.80594000  1.0
  H  H18  1  0.69153000  0.79494000  0.88937000  1.0
  H  H19  1  0.89450000  0.80193000  0.69324000  1.0
  H  H20  1  0.79892000  0.89834000  0.69614000  1.0
  H  H21  1  0.79570000  0.30881000  0.10943000  1.0
  H  H22  1  0.89975000  0.30364000  0.19398000  1.0
  H  H23  1  0.69704000  0.10094000  0.19602000  1.0
  H  H24  1  0.69083000  0.20409000  0.11060000  1.0
  H  H25  1  0.89665000  0.20094000  0.30391000  1.0
  H  H26  1  0.80019000  0.10560000  0.30532000  1.0
  H  H27  1  0.20538000  0.68979000  0.11370000  1.0
  H  H28  1  0.09959000  0.69749000  0.19601000  1.0
  H  H29  1  0.30188000  0.89940000  0.19841000  1.0
  H  H30  1  0.31076000  0.79481000  0.11498000  1.0
  H  H31  1  0.10214000  0.79984000  0.30580000  1.0
  H  H32  1  0.19861000  0.89518000  0.30735000  1.0
  H  H33  1  0.20586000  0.30841000  0.88733000  1.0
  H  H34  1  0.10155000  0.30269000  0.80312000  1.0
  H  H35  1  0.30249000  0.09830000  0.80404000  1.0
  H  H36  1  0.31108000  0.20334000  0.88696000  1.0
  H  H37  1  0.10475000  0.19926000  0.69361000  1.0
  H  H38  1  0.19996000  0.10247000  0.69487000  1.0
  H  H39  1  0.98132000  0.61584000  0.89792000  1.0
  H  H40  1  0.02232000  0.56617000  0.93958000  1.0
  H  H41  1  0.90758000  0.51376000  0.98683000  1.0
  H  H42  1  0.86672000  0.56409000  0.94553000  1.0
  H  H43  1  0.89666000  0.38544000  0.01840000  1.0
  H  H44  1  0.93910000  0.43506000  0.97818000  1.0
  H  H45  1  0.98918000  0.48731000  0.08901000  1.0
  H  H46  1  0.94710000  0.43703000  0.12914000  1.0
  H  H47  1  0.13541000  0.56405000  0.05230000  1.0
  H  H48  1  0.09483000  0.51376000  0.01082000  1.0
  H  H49  1  0.97978000  0.56625000  0.05738000  1.0
  H  H50  1  0.02045000  0.61592000  0.09921000  1.0
  H  H51  1  0.10517000  0.38491000  0.97796000  1.0
  H  H52  1  0.06323000  0.43470000  0.01854000  1.0
  H  H53  1  0.01278000  0.48769000  0.90810000  1.0
  H  H54  1  0.05436000  0.43727000  0.86762000  1.0
  H  H55  1  0.56297000  0.94588000  0.87089000  1.0
  H  H56  1  0.51233000  0.98748000  0.91129000  1.0
  H  H57  1  0.56539000  0.93744000  0.02187000  1.0
  H  H58  1  0.61537000  0.89545000  0.98137000  1.0
  H  H59  1  0.38420000  0.01834000  0.90073000  1.0
  H  H60  1  0.43368000  0.97751000  0.94286000  1.0
  H  H61  1  0.48641000  0.09226000  0.98937000  1.0
  H  H62  1  0.43629000  0.13298000  0.94763000  1.0
  H  H63  1  0.56324000  0.05253000  0.13193000  1.0
  H  H64  1  0.51266000  0.01063000  0.09186000  1.0
  H  H65  1  0.56517000  0.06028000  0.98093000  1.0
  H  H66  1  0.61509000  0.10255000  0.02110000  1.0
  H  H67  1  0.43666000  0.86477000  0.05547000  1.0
  H  H68  1  0.48679000  0.90557000  0.01386000  1.0
  H  H69  1  0.43373000  0.02025000  0.06036000  1.0
  H  H70  1  0.38422000  0.97938000  0.10234000  1.0
  H  H71  1  0.89472000  0.98224000  0.61231000  1.0
  H  H72  1  0.93669000  0.02271000  0.56303000  1.0
  H  H73  1  0.98625000  0.90769000  0.51366000  1.0
  H  H74  1  0.94460000  0.86736000  0.56356000  1.0
  H  H75  1  0.01792000  0.89692000  0.38787000  1.0
  H  H76  1  0.97729000  0.93908000  0.43690000  1.0
  H  H77  1  0.09235000  0.98829000  0.48659000  1.0
  H  H78  1  0.13281000  0.94642000  0.43698000  1.0
  H  H79  1  0.10281000  0.01918000  0.61241000  1.0
  H  H80  1  0.06058000  0.97892000  0.56321000  1.0
  H  H81  1  0.01167000  0.09417000  0.51366000  1.0
  H  H82  1  0.05363000  0.13431000  0.56343000  1.0
  H  H83  1  0.98007000  0.10466000  0.38746000  1.0
  H  H84  1  0.02044000  0.06271000  0.43682000  1.0
  H  H85  1  0.90519000  0.01367000  0.48624000  1.0
  H  H86  1  0.86493000  0.05527000  0.43626000  1.0
  C  C87  1  0.81809000  0.69748000  0.86238000  1.0
  C  C88  1  0.85762000  0.67992000  0.85381000  1.0
  C  C89  1  0.87141000  0.70207000  0.81923000  1.0
  C  C90  1  0.70068000  0.87074000  0.82238000  1.0
  C  C91  1  0.67974000  0.85627000  0.85739000  1.0
  C  C92  1  0.69826000  0.81709000  0.86525000  1.0
  C  C93  1  0.86779000  0.82192000  0.69950000  1.0
  C  C94  1  0.85546000  0.85927000  0.68005000  1.0
  C  C95  1  0.81895000  0.87138000  0.70111000  1.0
  C  C96  1  0.81764000  0.30203000  0.13375000  1.0
  C  C97  1  0.85679000  0.32048000  0.14201000  1.0
  C  C98  1  0.87083000  0.29945000  0.17717000  1.0
  C  C99  1  0.70101000  0.12973000  0.17898000  1.0
  C  C100  1  0.67962000  0.14343000  0.14391000  1.0
  C  C101  1  0.69792000  0.18247000  0.13509000  1.0
  C  C102  1  0.86974000  0.18100000  0.29855000  1.0
  C  C103  1  0.85739000  0.14445000  0.31935000  1.0
  C  C104  1  0.82026000  0.13228000  0.29939000  1.0
  C  C105  1  0.18312000  0.69703000  0.13761000  1.0
  C  C106  1  0.14342000  0.67940000  0.14513000  1.0
  C  C107  1  0.12886000  0.70116000  0.17966000  1.0
  C  C108  1  0.29844000  0.87033000  0.18173000  1.0
  C  C109  1  0.32063000  0.85624000  0.14729000  1.0
  C  C110  1  0.30314000  0.81669000  0.13908000  1.0
  C  C111  1  0.12914000  0.81971000  0.30056000  1.0
  C  C112  1  0.14129000  0.85642000  0.32114000  1.0
  C  C113  1  0.17861000  0.86845000  0.30145000  1.0
  C  C114  1  0.18385000  0.30145000  0.86313000  1.0
  C  C115  1  0.14468000  0.31992000  0.85481000  1.0
  C  C116  1  0.13053000  0.29859000  0.81989000  1.0
  C  C117  1  0.29901000  0.12747000  0.82055000  1.0
  C  C118  1  0.32101000  0.14166000  0.85506000  1.0
  C  C119  1  0.30357000  0.18136000  0.86293000  1.0
  C  C120  1  0.13148000  0.17915000  0.69944000  1.0
  C  C121  1  0.14346000  0.14192000  0.67958000  1.0
  C  C122  1  0.18012000  0.12949000  0.70020000  1.0
  C  C123  1  0.92115000  0.59323000  0.91864000  1.0
  C  C124  1  0.96537000  0.59317000  0.91724000  1.0
  C  C125  1  0.98812000  0.56496000  0.94065000  1.0
  C  C126  1  0.87897000  0.64868000  0.87561000  1.0
  C  C127  1  0.92408000  0.53584000  0.96721000  1.0
  C  C128  1  0.90085000  0.56410000  0.94411000  1.0
  C  C129  1  0.89804000  0.62250000  0.89535000  1.0
  C  C130  1  0.96811000  0.53556000  0.96599000  1.0
  C  C131  1  0.91900000  0.40771000  0.07663000  1.0
  C  C132  1  0.91681000  0.40801000  0.03372000  1.0
  C  C133  1  0.94070000  0.43618000  0.01137000  1.0
  C  C134  1  0.87753000  0.35170000  0.11961000  1.0
  C  C135  1  0.96885000  0.46517000  0.07325000  1.0
  C  C136  1  0.94530000  0.43699000  0.09604000  1.0
  C  C137  1  0.89616000  0.37801000  0.09968000  1.0
  C  C138  1  0.96728000  0.46534000  0.03053000  1.0
  C  C139  1  0.08082000  0.59326000  0.07890000  1.0
  C  C140  1  0.10127000  0.56409000  0.05355000  1.0
  C  C141  1  0.07819000  0.53584000  0.03035000  1.0
  C  C142  1  0.12249000  0.64844000  0.12262000  1.0
  C  C143  1  0.01399000  0.56500000  0.05653000  1.0
  C  C144  1  0.03656000  0.59322000  0.08002000  1.0
  C  C145  1  0.10370000  0.62246000  0.10244000  1.0
  C  C146  1  0.03417000  0.53554000  0.03134000  1.0
  C  C147  1  0.08267000  0.40759000  0.91991000  1.0
  C  C148  1  0.08509000  0.40771000  0.96280000  1.0
  C  C149  1  0.06147000  0.43598000  0.98536000  1.0
  C  C150  1  0.12397000  0.35136000  0.87698000  1.0
  C  C151  1  0.03311000  0.46537000  0.92370000  1.0
  C  C152  1  0.05638000  0.43710000  0.90071000  1.0
  C  C153  1  0.10536000  0.37783000  0.89676000  1.0
  C  C154  1  0.03497000  0.46543000  0.96641000  1.0
  C  C155  1  0.59254000  0.91780000  0.92332000  1.0
  C  C156  1  0.56304000  0.94396000  0.90398000  1.0
  C  C157  1  0.53468000  0.96717000  0.92689000  1.0
  C  C158  1  0.64854000  0.87674000  0.88001000  1.0
  C  C159  1  0.56413000  0.93901000  0.98868000  1.0
  C  C160  1  0.59248000  0.91545000  0.96621000  1.0
  C  C161  1  0.62224000  0.89518000  0.90013000  1.0
  C  C162  1  0.53461000  0.96530000  0.96957000  1.0
  C  C163  1  0.40700000  0.07851000  0.92109000  1.0
  C  C164  1  0.40689000  0.03433000  0.92001000  1.0
  C  C165  1  0.43496000  0.01168000  0.94365000  1.0
  C  C166  1  0.35197000  0.12045000  0.87736000  1.0
  C  C167  1  0.46426000  0.07576000  0.96983000  1.0
  C  C168  1  0.43614000  0.09889000  0.94649000  1.0
  C  C169  1  0.37793000  0.10151000  0.89749000  1.0
  C  C170  1  0.46437000  0.03180000  0.96891000  1.0
  C  C171  1  0.59252000  0.08047000  0.07930000  1.0
  C  C172  1  0.56322000  0.05430000  0.09883000  1.0
  C  C173  1  0.53488000  0.03091000  0.07611000  1.0
  C  C174  1  0.64835000  0.12239000  0.12193000  1.0
  C  C175  1  0.56403000  0.05885000  0.01412000  1.0
  C  C176  1  0.59235000  0.08257000  0.03640000  1.0
  C  C177  1  0.62213000  0.10343000  0.10223000  1.0
  C  C178  1  0.53468000  0.03258000  0.03342000  1.0
  C  C179  1  0.40721000  0.91923000  0.08199000  1.0
  C  C180  1  0.43646000  0.89885000  0.05668000  1.0
  C  C181  1  0.46458000  0.92202000  0.03341000  1.0
  C  C182  1  0.35184000  0.87739000  0.12532000  1.0
  C  C183  1  0.43509000  0.98608000  0.05958000  1.0
  C  C184  1  0.40701000  0.96342000  0.08313000  1.0
  C  C185  1  0.37799000  0.89626000  0.10542000  1.0
  C  C186  1  0.46459000  0.96597000  0.03438000  1.0
  C  C187  1  0.91676000  0.92193000  0.59144000  1.0
  C  C188  1  0.91460000  0.96607000  0.59040000  1.0
  C  C189  1  0.93824000  0.98855000  0.56241000  1.0
  C  C190  1  0.87574000  0.88032000  0.64810000  1.0
  C  C191  1  0.96608000  0.92437000  0.53503000  1.0
  C  C192  1  0.94275000  0.90142000  0.56304000  1.0
  C  C193  1  0.89422000  0.89913000  0.62121000  1.0
  C  C194  1  0.96458000  0.96834000  0.53415000  1.0
  C  C195  1  0.07827000  0.91875000  0.40892000  1.0
  C  C196  1  0.03407000  0.91678000  0.40978000  1.0
  C  C197  1  0.01149000  0.94052000  0.43762000  1.0
  C  C198  1  0.12019000  0.87713000  0.35284000  1.0
  C  C199  1  0.07566000  0.96818000  0.46520000  1.0
  C  C200  1  0.09870000  0.94472000  0.43734000  1.0
  C  C201  1  0.10123000  0.89594000  0.37942000  1.0
  C  C202  1  0.03163000  0.96683000  0.46592000  1.0
  C  C203  1  0.08116000  0.07962000  0.59141000  1.0
  C  C204  1  0.08301000  0.03545000  0.59047000  1.0
  C  C205  1  0.05922000  0.01309000  0.56253000  1.0
  C  C206  1  0.12276000  0.12110000  0.64774000  1.0
  C  C207  1  0.03175000  0.07739000  0.53504000  1.0
  C  C208  1  0.05526000  0.10023000  0.56299000  1.0
  C  C209  1  0.10399000  0.10233000  0.62103000  1.0
  C  C210  1  0.03299000  0.03342000  0.53422000  1.0
  C  C211  1  0.91958000  0.08289000  0.40829000  1.0
  C  C212  1  0.96379000  0.08490000  0.40938000  1.0
  C  C213  1  0.98623000  0.06126000  0.43743000  1.0
  C  C214  1  0.87815000  0.12402000  0.35146000  1.0
  C  C215  1  0.92198000  0.03370000  0.46485000  1.0
  C  C216  1  0.89904000  0.05702000  0.43676000  1.0
  C  C217  1  0.89684000  0.10551000  0.37845000  1.0
  C  C218  1  0.96600000  0.03506000  0.46577000  1.0
  N  N219  1  0.84238000  0.73051000  0.80837000  1.0
  N  N220  1  0.80938000  0.72770000  0.83516000  1.0
  N  N221  1  0.72785000  0.80912000  0.83716000  1.0
  N  N222  1  0.72942000  0.84239000  0.81063000  1.0
  N  N223  1  0.81054000  0.84351000  0.73068000  1.0
  N  N224  1  0.84085000  0.81289000  0.72974000  1.0
  N  N225  1  0.84232000  0.27077000  0.18862000  1.0
  N  N226  1  0.80933000  0.27244000  0.16172000  1.0
  N  N227  1  0.72780000  0.19108000  0.16269000  1.0
  N  N228  1  0.72978000  0.15837000  0.18987000  1.0
  N  N229  1  0.81160000  0.15932000  0.26914000  1.0
  N  N230  1  0.84224000  0.18958000  0.26865000  1.0
  N  N231  1  0.15762000  0.72943000  0.19145000  1.0
  N  N232  1  0.19121000  0.72690000  0.16532000  1.0
  N  N233  1  0.27289000  0.80822000  0.16636000  1.0
  N  N234  1  0.27002000  0.84144000  0.19285000  1.0
  N  N235  1  0.18759000  0.84116000  0.27153000  1.0
  N  N236  1  0.15695000  0.81091000  0.27101000  1.0
  N  N237  1  0.15899000  0.26972000  0.80866000  1.0
  N  N238  1  0.19207000  0.27155000  0.83545000  1.0
  N  N239  1  0.27355000  0.18982000  0.83541000  1.0
  N  N240  1  0.27078000  0.15646000  0.80908000  1.0
  N  N241  1  0.18895000  0.15707000  0.72990000  1.0
  N  N242  1  0.15876000  0.18782000  0.72948000  1.0
