# generated using pymatgen
data_CdH4C2S(NO)4
_symmetry_space_group_name_H-M   'P 1'
_cell_length_a   6.68868000
_cell_length_b   6.74308000
_cell_length_c   14.04920000
_cell_angle_alpha   90.00010000
_cell_angle_beta   90.00000000
_cell_angle_gamma   90.00000000
_symmetry_Int_Tables_number   1
_chemical_formula_structural   CdH4C2S(NO)4
_chemical_formula_sum   'Cd4 H16 C8 S4 N16 O16'
_cell_volume   633.65129405
_cell_formula_units_Z   4
loop_
 _symmetry_equiv_pos_site_id
 _symmetry_equiv_pos_as_xyz
  1  'x, y, z'
loop_
 _atom_site_type_symbol
 _atom_site_label
 _atom_site_symmetry_multiplicity
 _atom_site_fract_x
 _atom_site_fract_y
 _atom_site_fract_z
 _atom_site_occupancy
  Cd  Cd0  1  0.44063000  0.82622000  0.38904000  1.0
  Cd  Cd1  1  0.44063000  0.17378000  0.61096000  1.0
  Cd  Cd2  1  0.44063000  0.67378000  0.88904000  1.0
  Cd  Cd3  1  0.44063000  0.32622000  0.11096000  1.0
  H  H4  1  0.74908000  0.99948000  0.23320000  1.0
  H  H5  1  0.74908000  0.00052000  0.76680000  1.0
  H  H6  1  0.74908000  0.50052000  0.73320000  1.0
  H  H7  1  0.74908000  0.49948000  0.26681000  1.0
  H  H8  1  0.82431000  0.67412000  0.53171000  1.0
  H  H9  1  0.82431000  0.32588000  0.46829000  1.0
  H  H10  1  0.82430000  0.82588000  0.03171000  1.0
  H  H11  1  0.82431000  0.17412000  0.96829000  1.0
  H  H12  1  0.08216000  0.67832000  0.52543000  1.0
  H  H13  1  0.08216000  0.32168000  0.47457000  1.0
  H  H14  1  0.08216000  0.82168000  0.02543000  1.0
  H  H15  1  0.08216000  0.17832000  0.97457000  1.0
  H  H16  1  0.13020000  0.04440000  0.23495000  1.0
  H  H17  1  0.13020000  0.95560000  0.76505000  1.0
  H  H18  1  0.13020000  0.45560000  0.73495000  1.0
  H  H19  1  0.13020000  0.54440000  0.26505000  1.0
  C  C20  1  0.04003000  0.98205000  0.29171000  1.0
  C  C21  1  0.04003000  0.01795000  0.70829000  1.0
  C  C22  1  0.04003000  0.51795000  0.79171000  1.0
  C  C23  1  0.04003000  0.48205000  0.20829000  1.0
  C  C24  1  0.94261000  0.82736000  0.41805000  1.0
  C  C25  1  0.94261000  0.17263000  0.58195000  1.0
  C  C26  1  0.94261000  0.67263000  0.91805000  1.0
  C  C27  1  0.94261000  0.32737000  0.08195000  1.0
  S  S28  1  0.45589000  0.34263000  0.37324000  1.0
  S  S29  1  0.45589000  0.65737000  0.62676000  1.0
  S  S30  1  0.45589000  0.15737000  0.87324000  1.0
  S  S31  1  0.45589000  0.84263000  0.12676000  1.0
  N  N32  1  0.77446000  0.87524000  0.37005000  1.0
  N  N33  1  0.77446000  0.12475000  0.62995000  1.0
  N  N34  1  0.77446000  0.62475000  0.87005000  1.0
  N  N35  1  0.77446000  0.37524000  0.12995000  1.0
  N  N36  1  0.84204000  0.97596000  0.29138000  1.0
  N  N37  1  0.84204000  0.02404000  0.70862000  1.0
  N  N38  1  0.84204000  0.52404000  0.79138000  1.0
  N  N39  1  0.84204000  0.47596000  0.20862000  1.0
  N  N40  1  0.11015000  0.89167000  0.36984000  1.0
  N  N41  1  0.11015000  0.10833000  0.63016000  1.0
  N  N42  1  0.11015000  0.60833000  0.86984000  1.0
  N  N43  1  0.11015000  0.39167000  0.13017000  1.0
  N  N44  1  0.94972000  0.73542000  0.50239000  1.0
  N  N45  1  0.94972000  0.26457000  0.49761000  1.0
  N  N46  1  0.94972000  0.76458000  0.00239000  1.0
  N  N47  1  0.94972000  0.23543000  0.99762000  1.0
  O  O48  1  0.28723000  0.48155000  0.39124000  1.0
  O  O49  1  0.28723000  0.51845000  0.60876000  1.0
  O  O50  1  0.28723000  0.01845000  0.89124000  1.0
  O  O51  1  0.28722000  0.98155000  0.10875000  1.0
  O  O52  1  0.43903000  0.24411000  0.27890000  1.0
  O  O53  1  0.43903000  0.75589000  0.72110000  1.0
  O  O54  1  0.43903000  0.25589000  0.77890000  1.0
  O  O55  1  0.43903000  0.74411000  0.22110000  1.0
  O  O56  1  0.64695000  0.45556000  0.38077000  1.0
  O  O57  1  0.64695000  0.54444000  0.61923000  1.0
  O  O58  1  0.64695000  0.04445000  0.88077000  1.0
  O  O59  1  0.64695000  0.95556000  0.11923000  1.0
  O  O60  1  0.45252000  0.17981000  0.44674000  1.0
  O  O61  1  0.45252000  0.82019000  0.55325000  1.0
  O  O62  1  0.45252000  0.32019000  0.94674000  1.0
  O  O63  1  0.45252000  0.67981000  0.05326000  1.0
