# generated using pymatgen
data_Tb2H16C12S3O14
_symmetry_space_group_name_H-M   'P 1'
_cell_length_a   7.93794000
_cell_length_b   10.51780000
_cell_length_c   14.15880000
_cell_angle_alpha   71.24820000
_cell_angle_beta   75.99250000
_cell_angle_gamma   77.40400000
_symmetry_Int_Tables_number   1
_chemical_formula_structural   Tb2H16C12S3O14
_chemical_formula_sum   'Tb4 H32 C24 S6 O28'
_cell_volume   1073.35026042
_cell_formula_units_Z   2
loop_
 _symmetry_equiv_pos_site_id
 _symmetry_equiv_pos_as_xyz
  1  'x, y, z'
loop_
 _atom_site_type_symbol
 _atom_site_label
 _atom_site_symmetry_multiplicity
 _atom_site_fract_x
 _atom_site_fract_y
 _atom_site_fract_z
 _atom_site_occupancy
  Tb  Tb0  1  0.91020000  0.40733000  0.64134000  1.0
  Tb  Tb1  1  0.08980000  0.59267000  0.35866000  1.0
  Tb  Tb2  1  0.49337000  0.19661000  0.90297000  1.0
  Tb  Tb3  1  0.50663000  0.80339000  0.09703000  1.0
  H  H4  1  0.51472000  0.27260000  0.67534000  1.0
  H  H5  1  0.48528000  0.72740000  0.32466000  1.0
  H  H6  1  0.31146000  0.26852000  0.72906000  1.0
  H  H7  1  0.68853000  0.73148000  0.27095000  1.0
  H  H8  1  0.31339000  0.10279000  0.11176000  1.0
  H  H9  1  0.68661000  0.89721000  0.88824000  1.0
  H  H10  1  0.21453000  0.23928000  0.05232000  1.0
  H  H11  1  0.78547000  0.76072000  0.94768000  1.0
  H  H12  1  0.02161000  0.52961000  0.91027000  1.0
  H  H13  1  0.97840000  0.47039000  0.08972000  1.0
  H  H14  1  0.84778000  0.43433000  0.93691000  1.0
  H  H15  1  0.15222000  0.56568000  0.06309000  1.0
  H  H16  1  0.58729000  0.63555000  0.88428000  1.0
  H  H17  1  0.41272000  0.36445000  0.11572000  1.0
  H  H18  1  0.56711000  0.67235000  0.75495000  1.0
  H  H19  1  0.43289000  0.32765000  0.24505000  1.0
  H  H20  1  0.25419000  0.01822000  0.79302000  1.0
  H  H21  1  0.74581000  0.98178000  0.20698000  1.0
  H  H22  1  0.06549000  0.04734000  0.88414000  1.0
  H  H23  1  0.93450000  0.95266000  0.11586000  1.0
  H  H24  1  0.08009000  0.97088000  0.67026000  1.0
  H  H25  1  0.91991000  0.02912000  0.32974000  1.0
  H  H26  1  0.90465000  0.87226000  0.72456000  1.0
  H  H27  1  0.09535000  0.12774000  0.27544000  1.0
  H  H28  1  0.77146000  0.41407000  0.32210000  1.0
  H  H29  1  0.22854000  0.58593000  0.67790000  1.0
  H  H30  1  0.55600000  0.45288000  0.39048000  1.0
  H  H31  1  0.44400000  0.54712000  0.60952000  1.0
  H  H32  1  0.40632000  0.09932000  0.49087000  1.0
  H  H33  1  0.59368000  0.90069000  0.50913000  1.0
  H  H34  1  0.48743000  0.15735000  0.57288000  1.0
  H  H35  1  0.51257000  0.84265000  0.42712000  1.0
  C  C36  1  0.08532000  0.36231000  0.84696000  1.0
  C  C37  1  0.91467000  0.63769000  0.15304000  1.0
  C  C38  1  0.95410000  0.47819000  0.87746000  1.0
  C  C39  1  0.04590000  0.52182000  0.12254000  1.0
  C  C40  1  0.57928000  0.46296000  0.83579000  1.0
  C  C41  1  0.42072000  0.53704000  0.16421000  1.0
  C  C42  1  0.63140000  0.59978000  0.81642000  1.0
  C  C43  1  0.36860000  0.40022000  0.18358000  1.0
  C  C44  1  0.27807000  0.91457000  0.94679000  1.0
  C  C45  1  0.72193000  0.08543000  0.05321000  1.0
  C  C46  1  0.17095000  0.96785000  0.86368000  1.0
  C  C47  1  0.82905000  0.03215000  0.13632000  1.0
  C  C48  1  0.85758000  0.06645000  0.75671000  1.0
  C  C49  1  0.14242000  0.93355000  0.24329000  1.0
  C  C50  1  0.97879000  0.94019000  0.73743000  1.0
  C  C51  1  0.02121000  0.05981000  0.26257000  1.0
  C  C52  1  0.75681000  0.38358000  0.48078000  1.0
  C  C53  1  0.24319000  0.61642000  0.51922000  1.0
  C  C54  1  0.67995000  0.38166000  0.39363000  1.0
  C  C55  1  0.32005000  0.61834000  0.60637000  1.0
  C  C56  1  0.29396000  0.30101000  0.49432000  1.0
  C  C57  1  0.70604000  0.69899000  0.50568000  1.0
  C  C58  1  0.45133000  0.18729000  0.49790000  1.0
  C  C59  1  0.54867000  0.81271000  0.50209000  1.0
  S  S60  1  0.86389000  0.59977000  0.77109000  1.0
  S  S61  1  0.13611000  0.40023000  0.22890000  1.0
  S  S62  1  0.08013000  0.83599000  0.84483000  1.0
  S  S63  1  0.91987000  0.16401000  0.15517000  1.0
  S  S64  1  0.63891000  0.21712000  0.39659000  1.0
  S  S65  1  0.36109000  0.78288000  0.60341000  1.0
  O  O66  1  0.09438000  0.34482000  0.76044000  1.0
  O  O67  1  0.90561000  0.65517000  0.23956000  1.0
  O  O68  1  0.18311000  0.29005000  0.90847000  1.0
  O  O69  1  0.81689000  0.70995000  0.09153000  1.0
  O  O70  1  0.67093000  0.37934000  0.78593000  1.0
  O  O71  1  0.32907000  0.62066000  0.21407000  1.0
  O  O72  1  0.44558000  0.43034000  0.90202000  1.0
  O  O73  1  0.55442000  0.56967000  0.09798000  1.0
  O  O74  1  0.89848000  0.17905000  0.70114000  1.0
  O  O75  1  0.10152000  0.82095000  0.29886000  1.0
  O  O76  1  0.72290000  0.05209000  0.82863000  1.0
  O  O77  1  0.27710000  0.94791000  0.17137000  1.0
  O  O78  1  0.37425000  0.99435000  0.95303000  1.0
  O  O79  1  0.62574000  0.00565000  0.04697000  1.0
  O  O80  1  0.27468000  0.79756000  0.00879000  1.0
  O  O81  1  0.72532000  0.20244000  0.99122000  1.0
  O  O82  1  0.67462000  0.34987000  0.57161000  1.0
  O  O83  1  0.32538000  0.65013000  0.42839000  1.0
  O  O84  1  0.90644000  0.42433000  0.46164000  1.0
  O  O85  1  0.09355000  0.57566000  0.53836000  1.0
  O  O86  1  0.18735000  0.29325000  0.57748000  1.0
  O  O87  1  0.81264000  0.70675000  0.42252000  1.0
  O  O88  1  0.28111000  0.39234000  0.41084000  1.0
  O  O89  1  0.71889000  0.60766000  0.58916000  1.0
  O  O90  1  0.43508000  0.23224000  0.73830000  1.0
  O  O91  1  0.56492000  0.76776000  0.26170000  1.0
  O  O92  1  0.33160000  0.19722000  0.06813000  1.0
  O  O93  1  0.66840000  0.80278000  0.93187000  1.0
