# generated using pymatgen
data_BaH16C12(NO)8
_symmetry_space_group_name_H-M   'P 1'
_cell_length_a   9.08371000
_cell_length_b   10.35960000
_cell_length_c   11.68290000
_cell_angle_alpha   102.55900000
_cell_angle_beta   95.46280000
_cell_angle_gamma   105.26400000
_symmetry_Int_Tables_number   1
_chemical_formula_structural   BaH16C12(NO)8
_chemical_formula_sum   'Ba2 H32 C24 N16 O16'
_cell_volume   1021.58482228
_cell_formula_units_Z   2
loop_
 _symmetry_equiv_pos_site_id
 _symmetry_equiv_pos_as_xyz
  1  'x, y, z'
loop_
 _atom_site_type_symbol
 _atom_site_label
 _atom_site_symmetry_multiplicity
 _atom_site_fract_x
 _atom_site_fract_y
 _atom_site_fract_z
 _atom_site_occupancy
  Ba  Ba0  1  0.75123000  0.50980000  0.00046000  1.0
  Ba  Ba1  1  0.24877000  0.49020000  0.99954000  1.0
  H  H2  1  0.42264000  0.46514000  0.36182000  1.0
  H  H3  1  0.57736000  0.53486000  0.63818000  1.0
  H  H4  1  0.35856000  0.31002000  0.24575000  1.0
  H  H5  1  0.64143000  0.68998000  0.75425000  1.0
  H  H6  1  0.50452000  0.93270000  0.27415000  1.0
  H  H7  1  0.49549000  0.06730000  0.72585000  1.0
  H  H8  1  0.56524000  0.71239000  0.27279000  1.0
  H  H9  1  0.43477000  0.28761000  0.72721000  1.0
  H  H10  1  0.75384000  0.70079000  0.43785000  1.0
  H  H11  1  0.24616000  0.29921000  0.56215000  1.0
  H  H12  1  0.82823000  0.13439000  0.59718000  1.0
  H  H13  1  0.17176000  0.86561000  0.40282000  1.0
  H  H14  1  0.22526000  0.80658000  0.84351000  1.0
  H  H15  1  0.77475000  0.19343000  0.15650000  1.0
  H  H16  1  0.12106000  0.66155000  0.72564000  1.0
  H  H17  1  0.87895000  0.33846000  0.27436000  1.0
  H  H18  1  0.62238000  0.18688000  0.91025000  1.0
  H  H19  1  0.37762000  0.81312000  0.08975000  1.0
  H  H20  1  0.48283000  0.21051000  0.97494000  1.0
  H  H21  1  0.51717000  0.78949000  0.02506000  1.0
  H  H22  1  0.87239000  0.33133000  0.78092000  1.0
  H  H23  1  0.12761000  0.66868000  0.21908000  1.0
  H  H24  1  0.72840000  0.32985000  0.69582000  1.0
  H  H25  1  0.27160000  0.67015000  0.30418000  1.0
  H  H26  1  0.95322000  0.78801000  0.24967000  1.0
  H  H27  1  0.04678000  0.21199000  0.75033000  1.0
  H  H28  1  0.86893000  0.63162000  0.25593000  1.0
  H  H29  1  0.13108000  0.36838000  0.74406000  1.0
  H  H30  1  0.76964000  0.79296000  0.97849000  1.0
  H  H31  1  0.23036000  0.20704000  0.02151000  1.0
  H  H32  1  0.77173000  0.88383000  0.10564000  1.0
  H  H33  1  0.22826000  0.11617000  0.89436000  1.0
  C  C34  1  0.57144000  0.45845000  0.22852000  1.0
  C  C35  1  0.42855000  0.54155000  0.77148000  1.0
  C  C36  1  0.46090000  0.38673000  0.30253000  1.0
  C  C37  1  0.53910000  0.61326000  0.69747000  1.0
  C  C38  1  0.62661000  0.17540000  0.43274000  1.0
  C  C39  1  0.37338000  0.82460000  0.56726000  1.0
  C  C40  1  0.66337000  0.04708000  0.43495000  1.0
  C  C41  1  0.33662000  0.95292000  0.56505000  1.0
  C  C42  1  0.58940000  0.92746000  0.34403000  1.0
  C  C43  1  0.41060000  0.07254000  0.65597000  1.0
  C  C44  1  0.62250000  0.80391000  0.34462000  1.0
  C  C45  1  0.37750000  0.19609000  0.65538000  1.0
  C  C46  1  0.72816000  0.79748000  0.43633000  1.0
  C  C47  1  0.27184000  0.20252000  0.56367000  1.0
  C  C48  1  0.80259000  0.91676000  0.52769000  1.0
  C  C49  1  0.19741000  0.08324000  0.47231000  1.0
  C  C50  1  0.77045000  0.04158000  0.52675000  1.0
  C  C51  1  0.22955000  0.95842000  0.47325000  1.0
  C  C52  1  0.91512000  0.91099000  0.62271000  1.0
  C  C53  1  0.08488000  0.08901000  0.37729000  1.0
  C  C54  1  0.11009000  0.75003000  0.79188000  1.0
  C  C55  1  0.88991000  0.24997000  0.20812000  1.0
  C  C56  1  0.99879000  0.69866000  0.87484000  1.0
  C  C57  1  0.00121000  0.30135000  0.12516000  1.0
  N  N58  1  0.54120000  0.19094000  0.33917000  1.0
  N  N59  1  0.45880000  0.80905000  0.66083000  1.0
  N  N60  1  0.53482000  0.31948000  0.37703000  1.0
  N  N61  1  0.46518000  0.68052000  0.62297000  1.0
  N  N62  1  0.61199000  0.38346000  0.48608000  1.0
  N  N63  1  0.38801000  0.61654000  0.51391000  1.0
  N  N64  1  0.67043000  0.29307000  0.52305000  1.0
  N  N65  1  0.32957000  0.70693000  0.47695000  1.0
  N  N66  1  0.94538000  0.79444000  0.63613000  1.0
  N  N67  1  0.05462000  0.20556000  0.36387000  1.0
  N  N68  1  0.05459000  0.84032000  0.73132000  1.0
  N  N69  1  0.94542000  0.15968000  0.26868000  1.0
  N  N70  1  0.09120000  0.97609000  0.77700000  1.0
  N  N71  1  0.90880000  0.02391000  0.22300000  1.0
  N  N72  1  0.00471000  0.02277000  0.70892000  1.0
  N  N73  1  0.99529000  0.97722000  0.29107000  1.0
  O  O74  1  0.71521000  0.48437000  0.25996000  1.0
  O  O75  1  0.28479000  0.51562000  0.74004000  1.0
  O  O76  1  0.50744000  0.49023000  0.14108000  1.0
  O  O77  1  0.49256000  0.50977000  0.85892000  1.0
  O  O78  1  0.03994000  0.62303000  0.93568000  1.0
  O  O79  1  0.96007000  0.37698000  0.06432000  1.0
  O  O80  1  0.87491000  0.73277000  0.87505000  1.0
  O  O81  1  0.12510000  0.26723000  0.12495000  1.0
  O  O82  1  0.59798000  0.23139000  0.98541000  1.0
  O  O83  1  0.40202000  0.76861000  0.01459000  1.0
  O  O84  1  0.76502000  0.33850000  0.78032000  1.0
  O  O85  1  0.23498000  0.66150000  0.21968000  1.0
  O  O86  1  0.94537000  0.68878000  0.21823000  1.0
  O  O87  1  0.05463000  0.31122000  0.78177000  1.0
  O  O88  1  0.70876000  0.80030000  0.04456000  1.0
  O  O89  1  0.29124000  0.19970000  0.95544000  1.0
