# generated using pymatgen
data_CuH9C14N3
_symmetry_space_group_name_H-M   'P 1'
_cell_length_a   4.74937000
_cell_length_b   11.91920000
_cell_length_c   21.12030000
_cell_angle_alpha   85.02480000
_cell_angle_beta   83.57710000
_cell_angle_gamma   78.56210000
_symmetry_Int_Tables_number   1
_chemical_formula_structural   CuH9C14N3
_chemical_formula_sum   'Cu4 H36 C56 N12'
_cell_volume   1161.93351924
_cell_formula_units_Z   4
loop_
 _symmetry_equiv_pos_site_id
 _symmetry_equiv_pos_as_xyz
  1  'x, y, z'
loop_
 _atom_site_type_symbol
 _atom_site_label
 _atom_site_symmetry_multiplicity
 _atom_site_fract_x
 _atom_site_fract_y
 _atom_site_fract_z
 _atom_site_occupancy
  Cu  Cu0  1  0.65803000  0.90374000  0.86732000  1.0
  Cu  Cu1  1  0.42962000  0.59633000  0.63287000  1.0
  Cu  Cu2  1  0.34195000  0.09626000  0.13268000  1.0
  Cu  Cu3  1  0.57039000  0.40367000  0.36713000  1.0
  H  H4  1  0.88607000  0.05163000  0.75612000  1.0
  H  H5  1  0.69274000  0.44806000  0.74387000  1.0
  H  H6  1  0.11394000  0.94837000  0.24388000  1.0
  H  H7  1  0.30726000  0.55194000  0.25613000  1.0
  H  H8  1  0.84565000  0.09096000  0.63948000  1.0
  H  H9  1  0.57554000  0.40886000  0.86053000  1.0
  H  H10  1  0.15437000  0.90903000  0.36052000  1.0
  H  H11  1  0.42447000  0.59114000  0.13947000  1.0
  H  H12  1  0.29325000  0.84039000  0.65379000  1.0
  H  H13  1  0.78905000  0.66004000  0.84627000  1.0
  H  H14  1  0.70675000  0.15960000  0.34621000  1.0
  H  H15  1  0.21096000  0.33996000  0.15374000  1.0
  H  H16  1  0.35529000  0.81276000  0.76957000  1.0
  H  H17  1  0.93802000  0.68724000  0.73044000  1.0
  H  H18  1  0.64471000  0.18724000  0.23043000  1.0
  H  H19  1  0.06198000  0.31276000  0.26956000  1.0
  H  H20  1  0.53146000  0.81127000  0.55950000  1.0
  H  H21  1  0.90484000  0.68894000  0.94063000  1.0
  H  H22  1  0.46854000  0.18873000  0.44050000  1.0
  H  H23  1  0.09517000  0.31107000  0.05937000  1.0
  H  H24  1  0.82955000  0.26103000  0.48956000  1.0
  H  H25  1  0.57800000  0.23897000  0.01060000  1.0
  H  H26  1  0.17046000  0.73897000  0.51044000  1.0
  H  H27  1  0.42199000  0.76103000  0.98940000  1.0
  H  H28  1  0.80174000  0.44824000  0.53514000  1.0
  H  H29  1  0.78376000  0.05206000  0.96479000  1.0
  H  H30  1  0.19827000  0.55176000  0.46487000  1.0
  H  H31  1  0.21621000  0.94794000  0.03521000  1.0
  H  H32  1  0.16294000  0.38511000  0.67595000  1.0
  H  H33  1  0.22346000  0.11518000  0.82374000  1.0
  H  H34  1  0.83706000  0.61489000  0.32405000  1.0
  H  H35  1  0.77652000  0.88483000  0.17625000  1.0
  H  H36  1  0.17349000  0.19140000  0.63893000  1.0
  H  H37  1  0.00240000  0.30854000  0.86100000  1.0
  H  H38  1  0.82651000  0.80859000  0.36107000  1.0
  H  H39  1  0.99759000  0.69147000  0.13900000  1.0
  C  C40  1  0.75405000  0.00745000  0.73153000  1.0
  C  C41  1  0.49252000  0.49241000  0.76848000  1.0
  C  C42  1  0.24595000  0.99254000  0.26847000  1.0
  C  C43  1  0.50748000  0.50760000  0.23152000  1.0
  C  C44  1  0.72945000  0.02956000  0.66653000  1.0
  C  C45  1  0.42535000  0.47040000  0.83349000  1.0
  C  C46  1  0.27056000  0.97044000  0.33347000  1.0
  C  C47  1  0.57465000  0.52960000  0.16651000  1.0
  C  C48  1  0.55800000  0.97160000  0.63598000  1.0
  C  C49  1  0.16621000  0.52860000  0.86406000  1.0
  C  C50  1  0.44201000  0.02840000  0.36402000  1.0
  C  C51  1  0.83379000  0.47140000  0.13594000  1.0
  C  C52  1  0.42632000  0.89011000  0.67410000  1.0
  C  C53  1  0.99144000  0.61009000  0.82594000  1.0
  C  C54  1  0.57369000  0.10988000  0.32590000  1.0
  C  C55  1  0.00856000  0.38991000  0.17406000  1.0
  C  C56  1  0.46217000  0.87324000  0.73884000  1.0
  C  C57  1  0.07462000  0.62680000  0.76117000  1.0
  C  C58  1  0.53784000  0.12676000  0.26116000  1.0
  C  C59  1  0.92537000  0.37320000  0.23883000  1.0
  C  C60  1  0.52181000  0.99080000  0.56705000  1.0
  C  C61  1  0.08017000  0.50931000  0.93299000  1.0
  C  C62  1  0.47819000  0.00920000  0.43295000  1.0
  C  C63  1  0.91983000  0.49069000  0.06701000  1.0
  C  C64  1  0.50933000  0.89548000  0.53368000  1.0
  C  C65  1  0.94010000  0.60463000  0.96639000  1.0
  C  C66  1  0.49067000  0.10451000  0.46632000  1.0
  C  C67  1  0.05990000  0.39537000  0.03361000  1.0
  C  C68  1  0.50995000  0.09848000  0.53222000  1.0
  C  C69  1  0.13967000  0.40150000  0.96775000  1.0
  C  C70  1  0.49006000  0.90152000  0.46778000  1.0
  C  C71  1  0.86033000  0.59850000  0.03225000  1.0
  C  C72  1  0.50470000  0.20823000  0.56073000  1.0
  C  C73  1  0.27223000  0.29177000  0.93926000  1.0
  C  C74  1  0.49531000  0.79177000  0.43927000  1.0
  C  C75  1  0.72776000  0.70823000  0.06074000  1.0
  C  C76  1  0.68076000  0.28339000  0.53166000  1.0
  C  C77  1  0.49408000  0.21664000  0.96840000  1.0
  C  C78  1  0.31925000  0.71661000  0.46834000  1.0
  C  C79  1  0.50590000  0.78336000  0.03160000  1.0
  C  C80  1  0.66487000  0.38890000  0.55668000  1.0
  C  C81  1  0.60913000  0.11135000  0.94326000  1.0
  C  C82  1  0.33514000  0.61110000  0.44332000  1.0
  C  C83  1  0.39085000  0.88865000  0.05674000  1.0
  C  C84  1  0.31228000  0.35281000  0.63555000  1.0
  C  C85  1  0.29983000  0.14743000  0.86424000  1.0
  C  C86  1  0.68773000  0.64719000  0.36445000  1.0
  C  C87  1  0.70015000  0.85258000  0.13576000  1.0
  C  C88  1  0.31756000  0.24525000  0.61437000  1.0
  C  C89  1  0.17585000  0.25480000  0.88554000  1.0
  C  C90  1  0.68245000  0.75475000  0.38563000  1.0
  C  C91  1  0.82414000  0.74520000  0.11446000  1.0
  C  C92  1  0.04095000  0.86301000  0.88472000  1.0
  C  C93  1  0.78931000  0.63731000  0.61546000  1.0
  C  C94  1  0.95903000  0.13700000  0.11528000  1.0
  C  C95  1  0.21070000  0.36269000  0.38454000  1.0
  N  N96  1  0.62104000  0.93129000  0.76811000  1.0
  N  N97  1  0.32023000  0.56859000  0.73190000  1.0
  N  N98  1  0.37896000  0.06871000  0.23189000  1.0
  N  N99  1  0.67976000  0.43141000  0.26810000  1.0
  N  N100  1  0.48315000  0.42445000  0.60764000  1.0
  N  N101  1  0.51464000  0.07597000  0.89209000  1.0
  N  N102  1  0.51686000  0.57554000  0.39237000  1.0
  N  N103  1  0.48534000  0.92403000  0.10790000  1.0
  N  N104  1  0.29124000  0.85418000  0.88815000  1.0
  N  N105  1  0.03423000  0.64620000  0.61193000  1.0
  N  N106  1  0.70875000  0.14582000  0.11185000  1.0
  N  N107  1  0.96579000  0.35379000  0.38807000  1.0
