# generated using pymatgen
data_CdH22C24S2(NO)4
_symmetry_space_group_name_H-M   'P 1'
_cell_length_a   9.09714000
_cell_length_b   10.90740000
_cell_length_c   14.01030000
_cell_angle_alpha   73.88990000
_cell_angle_beta   72.99610000
_cell_angle_gamma   68.12790000
_symmetry_Int_Tables_number   1
_chemical_formula_structural   CdH22C24S2(NO)4
_chemical_formula_sum   'Cd2 H44 C48 S4 N8 O8'
_cell_volume   1211.26816751
_cell_formula_units_Z   2
loop_
 _symmetry_equiv_pos_site_id
 _symmetry_equiv_pos_as_xyz
  1  'x, y, z'
loop_
 _atom_site_type_symbol
 _atom_site_label
 _atom_site_symmetry_multiplicity
 _atom_site_fract_x
 _atom_site_fract_y
 _atom_site_fract_z
 _atom_site_occupancy
  Cd  Cd0  1  0.44616000  0.23373000  0.48830000  1.0
  Cd  Cd1  1  0.55384000  0.76627000  0.51171000  1.0
  H  H2  1  0.74913000  0.23330000  0.53584000  1.0
  H  H3  1  0.25086000  0.76670000  0.46416000  1.0
  H  H4  1  0.99777000  0.07877000  0.59976000  1.0
  H  H5  1  0.00222000  0.92123000  0.40024000  1.0
  H  H6  1  0.01277000  0.83901000  0.67701000  1.0
  H  H7  1  0.98723000  0.16099000  0.32299000  1.0
  H  H8  1  0.77395000  0.76569000  0.69175000  1.0
  H  H9  1  0.22605000  0.23431000  0.30825000  1.0
  H  H10  1  0.15922000  0.19518000  0.78033000  1.0
  H  H11  1  0.84079000  0.80482000  0.21967000  1.0
  H  H12  1  0.10711000  0.19230000  0.96547000  1.0
  H  H13  1  0.89290000  0.80770000  0.03453000  1.0
  H  H14  1  0.40529000  0.77718000  0.01129000  1.0
  H  H15  1  0.59471000  0.22282000  0.98870000  1.0
  H  H16  1  0.45255000  0.77893000  0.82698000  1.0
  H  H17  1  0.54745000  0.22107000  0.17302000  1.0
  H  H18  1  0.14487000  0.08269000  0.13161000  1.0
  H  H19  1  0.85513000  0.91731000  0.86839000  1.0
  H  H20  1  0.33650000  0.95762000  0.13756000  1.0
  H  H21  1  0.66350000  0.04237000  0.86244000  1.0
  H  H22  1  0.16196000  0.91021000  0.15913000  1.0
  H  H23  1  0.83804000  0.08979000  0.84087000  1.0
  H  H24  1  0.03680000  0.38334000  0.43464000  1.0
  H  H25  1  0.96321000  0.61665000  0.56535000  1.0
  H  H26  1  0.90876000  0.61065000  0.33956000  1.0
  H  H27  1  0.09124000  0.38935000  0.66044000  1.0
  H  H28  1  0.07600000  0.76716000  0.26262000  1.0
  H  H29  1  0.92400000  0.23283000  0.73738000  1.0
  H  H30  1  0.36145000  0.69161000  0.28240000  1.0
  H  H31  1  0.63854000  0.30838000  0.71760000  1.0
  H  H32  1  0.77754000  0.28752000  0.23303000  1.0
  H  H33  1  0.22246000  0.71248000  0.76697000  1.0
  H  H34  1  0.84942000  0.29495000  0.04703000  1.0
  H  H35  1  0.15058000  0.70505000  0.95297000  1.0
  H  H36  1  0.70062000  0.72739000  0.99286000  1.0
  H  H37  1  0.29938000  0.27261000  0.00715000  1.0
  H  H38  1  0.62880000  0.72016000  0.17997000  1.0
  H  H39  1  0.37120000  0.27984000  0.82003000  1.0
  H  H40  1  0.80213000  0.61863000  0.85058000  1.0
  H  H41  1  0.19787000  0.38137000  0.14942000  1.0
  H  H42  1  0.75667000  0.46688000  0.87222000  1.0
  H  H43  1  0.24333000  0.53312000  0.12778000  1.0
  H  H44  1  0.95478000  0.46099000  0.86932000  1.0
  H  H45  1  0.04522000  0.53902000  0.13068000  1.0
  C  C46  1  0.75928000  0.12926000  0.57282000  1.0
  C  C47  1  0.24072000  0.87075000  0.42718000  1.0
  C  C48  1  0.89676000  0.04338000  0.60820000  1.0
  C  C49  1  0.10324000  0.95662000  0.39180000  1.0
  C  C50  1  0.90451000  0.90974000  0.65117000  1.0
  C  C51  1  0.09549000  0.09027000  0.34883000  1.0
  C  C52  1  0.77400000  0.86847000  0.65857000  1.0
  C  C53  1  0.22600000  0.13153000  0.34142000  1.0
  C  C54  1  0.63838000  0.95995000  0.62042000  1.0
  C  C55  1  0.36162000  0.04005000  0.37958000  1.0
  C  C56  1  0.30605000  0.98706000  0.79357000  1.0
  C  C57  1  0.69395000  0.01294000  0.20643000  1.0
  C  C58  1  0.20973000  0.10352000  0.83188000  1.0
  C  C59  1  0.79027000  0.89648000  0.16812000  1.0
  C  C60  1  0.18219000  0.10110000  0.93558000  1.0
  C  C61  1  0.81781000  0.89890000  0.06442000  1.0
  C  C62  1  0.25164000  0.98478000  0.00171000  1.0
  C  C63  1  0.74836000  0.01521000  0.99829000  1.0
  C  C64  1  0.34987000  0.86899000  0.96109000  1.0
  C  C65  1  0.65013000  0.13101000  0.03891000  1.0
  C  C66  1  0.37733000  0.86929000  0.85790000  1.0
  C  C67  1  0.62268000  0.13071000  0.14210000  1.0
  C  C68  1  0.22236000  0.98428000  0.11295000  1.0
  C  C69  1  0.77764000  0.01572000  0.88705000  1.0
  C  C70  1  0.10484000  0.45399000  0.39960000  1.0
  C  C71  1  0.89517000  0.54600000  0.60040000  1.0
  C  C72  1  0.03442000  0.58037000  0.34557000  1.0
  C  C73  1  0.96558000  0.41963000  0.65443000  1.0
  C  C74  1  0.12868000  0.66607000  0.30327000  1.0
  C  C75  1  0.87131000  0.33393000  0.69673000  1.0
  C  C76  1  0.28804000  0.62491000  0.31376000  1.0
  C  C77  1  0.71196000  0.37509000  0.68624000  1.0
  C  C78  1  0.35156000  0.49565000  0.37025000  1.0
  C  C79  1  0.64844000  0.50435000  0.62975000  1.0
  C  C80  1  0.70091000  0.50399000  0.21684000  1.0
  C  C81  1  0.29909000  0.49601000  0.78316000  1.0
  C  C82  1  0.76315000  0.38360000  0.18005000  1.0
  C  C83  1  0.23684000  0.61640000  0.81995000  1.0
  C  C84  1  0.80273000  0.38875000  0.07561000  1.0
  C  C85  1  0.19727000  0.61125000  0.92439000  1.0
  C  C86  1  0.78147000  0.51197000  0.00633000  1.0
  C  C87  1  0.21853000  0.48803000  0.99367000  1.0
  C  C88  1  0.71816000  0.63068000  0.04528000  1.0
  C  C89  1  0.28184000  0.36932000  0.95472000  1.0
  C  C90  1  0.67716000  0.62765000  0.14993000  1.0
  C  C91  1  0.32284000  0.37236000  0.85007000  1.0
  C  C92  1  0.82556000  0.51519000  0.89392000  1.0
  C  C93  1  0.17443000  0.48481000  0.10608000  1.0
  S  S94  1  0.32953000  0.98432000  0.66346000  1.0
  S  S95  1  0.67047000  0.01568000  0.33654000  1.0
  S  S96  1  0.64772000  0.49679000  0.35073000  1.0
  S  S97  1  0.35228000  0.50321000  0.64927000  1.0
  N  N98  1  0.51516000  0.91191000  0.62209000  1.0
  N  N99  1  0.48485000  0.08809000  0.37791000  1.0
  N  N100  1  0.63348000  0.08867000  0.57778000  1.0
  N  N101  1  0.36652000  0.91133000  0.42223000  1.0
  N  N102  1  0.50280000  0.43403000  0.39217000  1.0
  N  N103  1  0.49720000  0.56597000  0.60783000  1.0
  N  N104  1  0.25756000  0.41367000  0.41196000  1.0
  N  N105  1  0.74244000  0.58633000  0.58804000  1.0
  O  O106  1  0.24291000  0.89783000  0.65986000  1.0
  O  O107  1  0.75709000  0.10217000  0.34014000  1.0
  O  O108  1  0.26431000  0.12651000  0.61467000  1.0
  O  O109  1  0.73569000  0.87349000  0.38533000  1.0
  O  O110  1  0.60059000  0.63640000  0.36350000  1.0
  O  O111  1  0.39940000  0.36360000  0.63650000  1.0
  O  O112  1  0.78306000  0.40005000  0.39381000  1.0
  O  O113  1  0.21694000  0.59996000  0.60619000  1.0
