# generated using pymatgen
data_CuH16C12N2(ClO5)2
_symmetry_space_group_name_H-M   'P 1'
_cell_length_a   6.36695000
_cell_length_b   10.31440000
_cell_length_c   13.29090000
_cell_angle_alpha   90.00020000
_cell_angle_beta   90.00050000
_cell_angle_gamma   100.80100000
_symmetry_Int_Tables_number   1
_chemical_formula_structural   CuH16C12N2(ClO5)2
_chemical_formula_sum   'Cu2 H32 C24 N4 Cl4 O20'
_cell_volume   857.36719179
_cell_formula_units_Z   2
loop_
 _symmetry_equiv_pos_site_id
 _symmetry_equiv_pos_as_xyz
  1  'x, y, z'
loop_
 _atom_site_type_symbol
 _atom_site_label
 _atom_site_symmetry_multiplicity
 _atom_site_fract_x
 _atom_site_fract_y
 _atom_site_fract_z
 _atom_site_occupancy
  Cu  Cu0  1  0.50000000  0.00000000  0.00000000  1.0
  Cu  Cu1  1  0.00000000  0.50000000  0.50000000  1.0
  H  H2  1  0.22387000  0.99017000  0.14987000  1.0
  H  H3  1  0.72386000  0.49016000  0.35013000  1.0
  H  H4  1  0.77614000  0.00983000  0.85013000  1.0
  H  H5  1  0.27614000  0.50983000  0.64987000  1.0
  H  H6  1  0.36376000  0.88017000  0.17211000  1.0
  H  H7  1  0.86376000  0.38016000  0.32789000  1.0
  H  H8  1  0.63625000  0.11984000  0.82789000  1.0
  H  H9  1  0.13626000  0.61984000  0.67211000  1.0
  H  H10  1  0.50749000  0.78151000  0.86142000  1.0
  H  H11  1  0.00746000  0.28150000  0.63859000  1.0
  H  H12  1  0.49252000  0.21850000  0.13858000  1.0
  H  H13  1  0.99253000  0.71850000  0.36142000  1.0
  H  H14  1  0.64323000  0.57004000  0.86384000  1.0
  H  H15  1  0.14320000  0.07003000  0.63616000  1.0
  H  H16  1  0.35680000  0.42997000  0.13615000  1.0
  H  H17  1  0.85679000  0.92997000  0.36385000  1.0
  H  H18  1  0.91048000  0.67994000  0.15675000  1.0
  H  H19  1  0.41049000  0.17994000  0.34326000  1.0
  H  H20  1  0.08951000  0.32006000  0.84325000  1.0
  H  H21  1  0.58951000  0.82006000  0.65675000  1.0
  H  H22  1  0.75936000  0.88450000  0.14467000  1.0
  H  H23  1  0.25938000  0.38450000  0.35534000  1.0
  H  H24  1  0.24062000  0.11550000  0.85533000  1.0
  H  H25  1  0.74063000  0.61550000  0.64467000  1.0
  H  H26  1  0.79496000  0.40922000  0.96354000  1.0
  H  H27  1  0.29497000  0.90922000  0.53647000  1.0
  H  H28  1  0.20503000  0.59078000  0.03645000  1.0
  H  H29  1  0.70503000  0.09078000  0.46355000  1.0
  H  H30  1  0.86808000  0.44228000  0.09145000  1.0
  H  H31  1  0.36807000  0.94227000  0.40856000  1.0
  H  H32  1  0.13192000  0.55772000  0.90855000  1.0
  H  H33  1  0.63193000  0.05773000  0.59145000  1.0
  C  C34  1  0.59529000  0.75410000  0.92580000  1.0
  C  C35  1  0.09528000  0.25410000  0.57419000  1.0
  C  C36  1  0.40471000  0.24590000  0.07419000  1.0
  C  C37  1  0.90471000  0.74590000  0.42581000  1.0
  C  C38  1  0.67161000  0.63682000  0.92788000  1.0
  C  C39  1  0.17159000  0.13681000  0.57211000  1.0
  C  C40  1  0.32840000  0.36319000  0.07211000  1.0
  C  C41  1  0.82840000  0.86319000  0.42789000  1.0
  C  C42  1  0.78687000  0.60647000  0.01154000  1.0
  C  C43  1  0.28688000  0.10647000  0.48845000  1.0
  C  C44  1  0.21312000  0.39353000  0.98845000  1.0
  C  C45  1  0.71312000  0.89353000  0.51155000  1.0
  C  C46  1  0.82071000  0.69808000  0.09017000  1.0
  C  C47  1  0.32071000  0.19808000  0.40983000  1.0
  C  C48  1  0.17928000  0.30192000  0.90982000  1.0
  C  C49  1  0.67929000  0.80191000  0.59018000  1.0
  C  C50  1  0.73845000  0.81298000  0.08376000  1.0
  C  C51  1  0.23846000  0.31298000  0.41624000  1.0
  C  C52  1  0.26154000  0.18702000  0.91624000  1.0
  C  C53  1  0.76155000  0.68702000  0.58377000  1.0
  C  C54  1  0.88066000  0.48392000  0.01515000  1.0
  C  C55  1  0.38065000  0.98392000  0.48485000  1.0
  C  C56  1  0.11934000  0.51608000  0.98484000  1.0
  C  C57  1  0.61934000  0.01608000  0.51516000  1.0
  N  N58  1  0.62663000  0.84054000  0.00301000  1.0
  N  N59  1  0.12663000  0.34054000  0.49698000  1.0
  N  N60  1  0.37336000  0.15945000  0.99698000  1.0
  N  N61  1  0.87337000  0.65946000  0.50302000  1.0
  Cl  Cl62  1  0.11803000  0.85191000  0.79790000  1.0
  Cl  Cl63  1  0.61802000  0.35190000  0.70209000  1.0
  Cl  Cl64  1  0.88198000  0.14810000  0.20210000  1.0
  Cl  Cl65  1  0.38197000  0.64809000  0.29791000  1.0
  O  O66  1  0.30849000  0.93048000  0.11791000  1.0
  O  O67  1  0.80848000  0.43047000  0.38209000  1.0
  O  O68  1  0.69152000  0.06953000  0.88209000  1.0
  O  O69  1  0.19152000  0.56953000  0.61791000  1.0
  O  O70  1  0.15971000  0.86323000  0.90568000  1.0
  O  O71  1  0.65968000  0.36323000  0.59430000  1.0
  O  O72  1  0.84031000  0.13678000  0.09430000  1.0
  O  O73  1  0.34033000  0.63677000  0.40570000  1.0
  O  O74  1  0.31073000  0.90594000  0.74137000  1.0
  O  O75  1  0.81073000  0.40594000  0.75862000  1.0
  O  O76  1  0.68927000  0.09407000  0.25862000  1.0
  O  O77  1  0.18927000  0.59407000  0.24139000  1.0
  O  O78  1  0.94836000  0.92510000  0.77171000  1.0
  O  O79  1  0.44836000  0.42510000  0.72830000  1.0
  O  O80  1  0.05164000  0.07490000  0.22829000  1.0
  O  O81  1  0.55163000  0.57490000  0.27171000  1.0
  O  O82  1  0.04737000  0.71209000  0.77191000  1.0
  O  O83  1  0.54737000  0.21208000  0.72808000  1.0
  O  O84  1  0.95266000  0.28792000  0.22809000  1.0
  O  O85  1  0.45264000  0.78791000  0.27192000  1.0
