# generated using pymatgen
data_ZnH38C30(N2O3)2
_symmetry_space_group_name_H-M   'P 1'
_cell_length_a   8.84874000
_cell_length_b   9.12981000
_cell_length_c   10.53500000
_cell_angle_alpha   86.54540000
_cell_angle_beta   65.17800000
_cell_angle_gamma   89.98230000
_symmetry_Int_Tables_number   1
_chemical_formula_structural   ZnH38C30(N2O3)2
_chemical_formula_sum   'Zn1 H38 C30 N4 O6'
_cell_volume   770.77015102
_cell_formula_units_Z   1
loop_
 _symmetry_equiv_pos_site_id
 _symmetry_equiv_pos_as_xyz
  1  'x, y, z'
loop_
 _atom_site_type_symbol
 _atom_site_label
 _atom_site_symmetry_multiplicity
 _atom_site_fract_x
 _atom_site_fract_y
 _atom_site_fract_z
 _atom_site_occupancy
  Zn  Zn0  1  0.14317000  0.99997000  0.99986000  1.0
  H  H1  1  0.85256000  0.40233000  0.68138000  1.0
  H  H2  1  0.53384000  0.59757000  0.31878000  1.0
  H  H3  1  0.40927000  0.50696000  0.79567000  1.0
  H  H4  1  0.20497000  0.49280000  0.20417000  1.0
  H  H5  1  0.18103000  0.31646000  0.91626000  1.0
  H  H6  1  0.09747000  0.68337000  0.08348000  1.0
  H  H7  1  0.51914000  0.98708000  0.86472000  1.0
  H  H8  1  0.38405000  0.01259000  0.13492000  1.0
  H  H9  1  0.76139000  0.16259000  0.75469000  1.0
  H  H10  1  0.51595000  0.83698000  0.24517000  1.0
  H  H11  1  0.00766000  0.58809000  0.55190000  1.0
  H  H12  1  0.55980000  0.41209000  0.44826000  1.0
  H  H13  1  0.00689000  0.78571000  0.40132000  1.0
  H  H14  1  0.40900000  0.21442000  0.59891000  1.0
  H  H15  1  0.81352000  0.84597000  0.51959000  1.0
  H  H16  1  0.33367000  0.15402000  0.48085000  1.0
  H  H17  1  0.13036000  0.97572000  0.47587000  1.0
  H  H18  1  0.60711000  0.02431000  0.52424000  1.0
  H  H19  1  0.93917000  0.00783000  0.61539000  1.0
  H  H20  1  0.55525000  0.99232000  0.38476000  1.0
  H  H21  1  0.73481000  0.86647000  0.80269000  1.0
  H  H22  1  0.53787000  0.13379000  0.19724000  1.0
  H  H23  1  0.80215000  0.81171000  0.93514000  1.0
  H  H24  1  0.73757000  0.18875000  0.06498000  1.0
  H  H25  1  0.67763000  0.69013000  0.89147000  1.0
  H  H26  1  0.56940000  0.31030000  0.10869000  1.0
  H  H27  1  0.88736000  0.50382000  0.86432000  1.0
  H  H28  1  0.75141000  0.49637000  0.13611000  1.0
  H  H29  1  0.03446000  0.62236000  0.88272000  1.0
  H  H30  1  0.91721000  0.37811000  0.11734000  1.0
  H  H31  1  0.09396000  0.52179000  0.73026000  1.0
  H  H32  1  0.82423000  0.47853000  0.27003000  1.0
  H  H33  1  0.29259000  0.71814000  0.66546000  1.0
  H  H34  1  0.95880000  0.28196000  0.33401000  1.0
  H  H35  1  0.34079000  0.86177000  0.53349000  1.0
  H  H36  1  0.87565000  0.13827000  0.46597000  1.0
  H  H37  1  0.24975000  0.69545000  0.51667000  1.0
  H  H38  1  0.76760000  0.30457000  0.48319000  1.0
  C  C39  1  0.43778000  0.39343000  0.81094000  1.0
  C  C40  1  0.24889000  0.60626000  0.18884000  1.0
  C  C41  1  0.31186000  0.28791000  0.87668000  1.0
  C  C42  1  0.18872000  0.71182000  0.12305000  1.0
  C  C43  1  0.50049000  0.10368000  0.84926000  1.0
  C  C44  1  0.34987000  0.89603000  0.15038000  1.0
  C  C45  1  0.63465000  0.20106000  0.78593000  1.0
  C  C46  1  0.42059000  0.79856000  0.21379000  1.0
  C  C47  1  0.60413000  0.34972000  0.76409000  1.0
  C  C48  1  0.36834000  0.64994000  0.23574000  1.0
  C  C49  1  0.74281000  0.59102000  0.65034000  1.0
  C  C50  1  0.39328000  0.40884000  0.34994000  1.0
  C  C51  1  0.91066000  0.66682000  0.60612000  1.0
  C  C52  1  0.51716000  0.33323000  0.39409000  1.0
  C  C53  1  0.93464000  0.80779000  0.51153000  1.0
  C  C54  1  0.44677000  0.19232000  0.48875000  1.0
  C  C55  1  0.02288000  0.92055000  0.56231000  1.0
  C  C56  1  0.58587000  0.07955000  0.43787000  1.0
  C  C57  1  0.07614000  0.83721000  0.66753000  1.0
  C  C58  1  0.74422000  0.16286000  0.33251000  1.0
  C  C59  1  0.93800000  0.71123000  0.73742000  1.0
  C  C60  1  0.67578000  0.28889000  0.26275000  1.0
  C  C61  1  0.77892000  0.77371000  0.84776000  1.0
  C  C62  1  0.62695000  0.22661000  0.15237000  1.0
  C  C63  1  0.99191000  0.58184000  0.80689000  1.0
  C  C64  1  0.79886000  0.41840000  0.19339000  1.0
  C  C65  1  0.24967000  0.77346000  0.59198000  1.0
  C  C66  1  0.84263000  0.22659000  0.40771000  1.0
  C  C67  1  0.07827000  0.93523000  0.78028000  1.0
  C  C68  1  0.85887000  0.06473000  0.21969000  1.0
  N  N69  1  0.34110000  0.14523000  0.89525000  1.0
  N  N70  1  0.23638000  0.85452000  0.10448000  1.0
  N  N71  1  0.74000000  0.44524000  0.69870000  1.0
  N  N72  1  0.43868000  0.55458000  0.30142000  1.0
  O  O73  1  0.61813000  0.65096000  0.65034000  1.0
  O  O74  1  0.26864000  0.34882000  0.35000000  1.0
  O  O75  1  0.13129000  0.86887000  0.86634000  1.0
  O  O76  1  0.99776000  0.13112000  0.13336000  1.0
  O  O77  1  0.03139000  0.06470000  0.78869000  1.0
  O  O78  1  0.82048000  0.93521000  0.21153000  1.0
