# generated using pymatgen
data_Cd3H24C32N6(ClO)4
_symmetry_space_group_name_H-M   'P 1'
_cell_length_a   9.40193000
_cell_length_b   11.10270000
_cell_length_c   18.31000000
_cell_angle_alpha   102.89800000
_cell_angle_beta   90.00000000
_cell_angle_gamma   115.04900000
_symmetry_Int_Tables_number   1
_chemical_formula_structural   Cd3H24C32N6(ClO)4
_chemical_formula_sum   'Cd6 H48 C64 N12 Cl8 O8'
_cell_volume   1678.17244617
_cell_formula_units_Z   2
loop_
 _symmetry_equiv_pos_site_id
 _symmetry_equiv_pos_as_xyz
  1  'x, y, z'
loop_
 _atom_site_type_symbol
 _atom_site_label
 _atom_site_symmetry_multiplicity
 _atom_site_fract_x
 _atom_site_fract_y
 _atom_site_fract_z
 _atom_site_occupancy
  Cd  Cd0  1  0.32440000  0.00021000  0.74990000  1.0
  Cd  Cd1  1  0.67560000  0.99979000  0.25010000  1.0
  Cd  Cd2  1  0.25062000  0.27297000  0.88392000  1.0
  Cd  Cd3  1  0.97790000  0.72716000  0.61606000  1.0
  Cd  Cd4  1  0.74938000  0.72703000  0.11608000  1.0
  Cd  Cd5  1  0.02210000  0.27285000  0.38394000  1.0
  H  H6  1  0.20975000  0.31605000  0.71944000  1.0
  H  H7  1  0.89409000  0.68413000  0.78054000  1.0
  H  H8  1  0.79025000  0.68395000  0.28056000  1.0
  H  H9  1  0.10591000  0.31587000  0.21946000  1.0
  H  H10  1  0.04554000  0.38540000  0.64287000  1.0
  H  H11  1  0.66050000  0.61472000  0.85712000  1.0
  H  H12  1  0.95446000  0.61460000  0.35713000  1.0
  H  H13  1  0.33949000  0.38527000  0.14288000  1.0
  H  H14  1  0.81627000  0.41335000  0.69771000  1.0
  H  H15  1  0.40330000  0.58664000  0.80226000  1.0
  H  H16  1  0.18372000  0.58664000  0.30229000  1.0
  H  H17  1  0.59670000  0.41336000  0.19774000  1.0
  H  H18  1  0.75782000  0.37678000  0.82547000  1.0
  H  H19  1  0.38133000  0.62329000  0.67454000  1.0
  H  H20  1  0.24218000  0.62322000  0.17453000  1.0
  H  H21  1  0.61867000  0.37671000  0.32546000  1.0
  H  H22  1  0.72676000  0.35233000  0.93122000  1.0
  H  H23  1  0.37474000  0.64775000  0.56886000  1.0
  H  H24  1  0.27325000  0.64767000  0.06878000  1.0
  H  H25  1  0.62527000  0.35225000  0.43114000  1.0
  H  H26  1  0.70766000  0.33160000  0.06229000  1.0
  H  H27  1  0.37592000  0.66798000  0.43771000  1.0
  H  H28  1  0.29234000  0.66840000  0.93771000  1.0
  H  H29  1  0.62408000  0.33202000  0.56229000  1.0
  H  H30  1  0.90358000  0.27295000  0.12349000  1.0
  H  H31  1  0.63032000  0.72642000  0.37637000  1.0
  H  H32  1  0.09642000  0.72705000  0.87651000  1.0
  H  H33  1  0.36968000  0.27358000  0.62363000  1.0
  H  H34  1  0.11631000  0.24614000  0.04733000  1.0
  H  H35  1  0.87014000  0.75377000  0.45253000  1.0
  H  H36  1  0.88370000  0.75386000  0.95267000  1.0
  H  H37  1  0.12986000  0.24623000  0.54747000  1.0
  H  H38  1  0.88430000  0.99407000  0.80456000  1.0
  H  H39  1  0.89031000  0.00585000  0.69539000  1.0
  H  H40  1  0.11570000  0.00593000  0.19544000  1.0
  H  H41  1  0.10969000  0.99414000  0.30461000  1.0
  H  H42  1  0.84662000  0.94466000  0.92919000  1.0
  H  H43  1  0.90220000  0.05501000  0.57068000  1.0
  H  H44  1  0.15338000  0.05534000  0.07081000  1.0
  H  H45  1  0.09780000  0.94499000  0.42932000  1.0
  H  H46  1  0.58771000  0.90260000  0.98194000  1.0
  H  H47  1  0.68556000  0.09730000  0.51784000  1.0
  H  H48  1  0.41229000  0.09740000  0.01806000  1.0
  H  H49  1  0.31444000  0.90270000  0.48216000  1.0
  H  H50  1  0.38390000  0.93475000  0.90799000  1.0
  H  H51  1  0.44974000  0.06565000  0.59182000  1.0
  H  H52  1  0.61610000  0.06526000  0.09201000  1.0
  H  H53  1  0.55026000  0.93435000  0.40818000  1.0
  C  C54  1  0.10955000  0.33285000  0.74077000  1.0
  C  C55  1  0.77706000  0.66726000  0.75921000  1.0
  C  C56  1  0.89045000  0.66715000  0.25923000  1.0
  C  C57  1  0.22294000  0.33274000  0.24079000  1.0
  C  C58  1  0.01876000  0.37027000  0.69883000  1.0
  C  C59  1  0.64888000  0.62982000  0.80116000  1.0
  C  C60  1  0.98124000  0.62973000  0.30116000  1.0
  C  C61  1  0.35112000  0.37018000  0.19884000  1.0
  C  C62  1  0.89062000  0.38613000  0.72990000  1.0
  C  C63  1  0.50485000  0.61386000  0.77007000  1.0
  C  C64  1  0.10938000  0.61387000  0.27010000  1.0
  C  C65  1  0.49514000  0.38613000  0.22993000  1.0
  C  C66  1  0.85968000  0.36689000  0.80181000  1.0
  C  C67  1  0.49310000  0.63316000  0.69817000  1.0
  C  C68  1  0.14032000  0.63311000  0.19819000  1.0
  C  C69  1  0.50689000  0.36683000  0.30183000  1.0
  C  C70  1  0.95855000  0.33255000  0.84173000  1.0
  C  C71  1  0.62632000  0.66749000  0.65825000  1.0
  C  C72  1  0.04145000  0.66744000  0.15827000  1.0
  C  C73  1  0.37368000  0.33251000  0.34175000  1.0
  C  C74  1  0.93598000  0.31552000  0.91995000  1.0
  C  C75  1  0.62076000  0.68452000  0.58003000  1.0
  C  C76  1  0.06403000  0.68448000  0.08005000  1.0
  C  C77  1  0.37924000  0.31549000  0.41997000  1.0
  C  C78  1  0.81302000  0.33033000  0.95829000  1.0
  C  C79  1  0.48293000  0.66968000  0.54174000  1.0
  C  C80  1  0.18698000  0.66967000  0.04171000  1.0
  C  C81  1  0.51708000  0.33033000  0.45826000  1.0
  C  C82  1  0.80102000  0.31642000  0.03210000  1.0
  C  C83  1  0.48455000  0.68325000  0.46787000  1.0
  C  C84  1  0.19898000  0.68358000  0.96790000  1.0
  C  C85  1  0.51545000  0.31676000  0.53213000  1.0
  C  C86  1  0.91023000  0.28597000  0.06614000  1.0
  C  C87  1  0.62408000  0.71352000  0.43374000  1.0
  C  C88  1  0.08977000  0.71402000  0.93386000  1.0
  C  C89  1  0.37592000  0.28648000  0.56626000  1.0
  C  C90  1  0.02798000  0.27100000  0.02422000  1.0
  C  C91  1  0.75697000  0.72882000  0.47567000  1.0
  C  C92  1  0.97202000  0.72900000  0.97578000  1.0
  C  C93  1  0.24303000  0.27118000  0.52433000  1.0
  C  C94  1  0.49710000  0.55504000  0.97999000  1.0
  C  C95  1  0.94200000  0.44499000  0.52002000  1.0
  C  C96  1  0.50290000  0.44496000  0.02002000  1.0
  C  C97  1  0.05801000  0.55501000  0.47998000  1.0
  C  C98  1  0.65149000  0.98787000  0.78838000  1.0
  C  C99  1  0.66378000  0.01223000  0.71147000  1.0
  C  C100  1  0.34851000  0.01213000  0.21162000  1.0
  C  C101  1  0.33622000  0.98777000  0.28853000  1.0
  C  C102  1  0.77333000  0.97953000  0.82783000  1.0
  C  C103  1  0.79395000  0.02037000  0.67205000  1.0
  C  C104  1  0.22667000  0.02047000  0.17217000  1.0
  C  C105  1  0.20605000  0.97963000  0.32795000  1.0
  C  C106  1  0.75207000  0.95133000  0.89843000  1.0
  C  C107  1  0.80100000  0.04848000  0.60141000  1.0
  C  C108  1  0.24793000  0.04867000  0.10157000  1.0
  C  C109  1  0.19900000  0.95152000  0.39860000  1.0
  C  C110  1  0.61000000  0.93121000  0.92853000  1.0
  C  C111  1  0.67924000  0.06880000  0.57129000  1.0
  C  C112  1  0.39000000  0.06879000  0.07147000  1.0
  C  C113  1  0.32076000  0.93120000  0.42872000  1.0
  C  C114  1  0.49646000  0.94586000  0.88719000  1.0
  C  C115  1  0.55107000  0.05437000  0.61262000  1.0
  C  C116  1  0.50354000  0.05414000  0.11281000  1.0
  C  C117  1  0.44893000  0.94562000  0.38738000  1.0
  N  N118  1  0.08027000  0.31480000  0.81017000  1.0
  N  N119  1  0.76579000  0.68531000  0.68982000  1.0
  N  N120  1  0.91974000  0.68520000  0.18983000  1.0
  N  N121  1  0.23421000  0.31469000  0.31018000  1.0
  N  N122  1  0.04098000  0.28619000  0.95365000  1.0
  N  N123  1  0.75501000  0.71381000  0.54628000  1.0
  N  N124  1  0.95902000  0.71381000  0.04635000  1.0
  N  N125  1  0.24499000  0.28619000  0.45372000  1.0
  N  N126  1  0.51722000  0.97439000  0.81960000  1.0
  N  N127  1  0.54314000  0.02588000  0.68022000  1.0
  N  N128  1  0.48278000  0.02561000  0.18040000  1.0
  N  N129  1  0.45686000  0.97412000  0.31978000  1.0
  Cl  Cl130  1  0.15458000  0.00976000  0.86421000  1.0
  Cl  Cl131  1  0.14498000  0.99039000  0.63563000  1.0
  Cl  Cl132  1  0.84543000  0.99024000  0.13580000  1.0
  Cl  Cl133  1  0.85502000  0.00961000  0.36437000  1.0
  Cl  Cl134  1  0.44552000  0.27303000  0.78274000  1.0
  Cl  Cl135  1  0.17288000  0.72729000  0.71720000  1.0
  Cl  Cl136  1  0.55448000  0.72697000  0.21726000  1.0
  Cl  Cl137  1  0.82713000  0.27271000  0.28280000  1.0
  O  O138  1  0.59287000  0.67993000  0.00679000  1.0
  O  O139  1  0.91269000  0.32006000  0.49320000  1.0
  O  O140  1  0.40713000  0.32007000  0.99321000  1.0
  O  O141  1  0.08731000  0.67994000  0.50679000  1.0
  O  O142  1  0.39720000  0.51291000  0.92303000  1.0
  O  O143  1  0.88431000  0.48719000  0.57698000  1.0
  O  O144  1  0.60280000  0.48709000  0.07697000  1.0
  O  O145  1  0.11570000  0.51281000  0.42302000  1.0
