# generated using pymatgen
data_MnH16C24(NO2)2
_symmetry_space_group_name_H-M   'P 1'
_cell_length_a   9.71216000
_cell_length_b   16.16380000
_cell_length_c   19.62340000
_cell_angle_alpha   90.00000000
_cell_angle_beta   90.00020000
_cell_angle_gamma   91.40920000
_symmetry_Int_Tables_number   1
_chemical_formula_structural   MnH16C24(NO2)2
_chemical_formula_sum   'Mn4 H64 C96 N8 O16'
_cell_volume   3079.65581810
_cell_formula_units_Z   4
loop_
 _symmetry_equiv_pos_site_id
 _symmetry_equiv_pos_as_xyz
  1  'x, y, z'
loop_
 _atom_site_type_symbol
 _atom_site_label
 _atom_site_symmetry_multiplicity
 _atom_site_fract_x
 _atom_site_fract_y
 _atom_site_fract_z
 _atom_site_occupancy
  Mn  Mn0  1  0.49997000  0.49999000  0.00000000  1.0
  Mn  Mn1  1  0.50001000  0.00000000  0.50000000  1.0
  Mn  Mn2  1  0.00001000  0.00000000  0.50000000  1.0
  Mn  Mn3  1  0.99998000  0.50001000  0.00001000  1.0
  H  H4  1  0.81991000  0.92874000  0.70479000  1.0
  H  H5  1  0.75659000  0.84000000  0.80393000  1.0
  H  H6  1  0.53243000  0.67375000  0.66933000  1.0
  H  H7  1  0.58704000  0.76770000  0.57222000  1.0
  H  H8  1  0.56124000  0.68855000  0.97441000  1.0
  H  H9  1  0.60752000  0.78893000  0.88004000  1.0
  H  H10  1  0.60418000  0.58016000  0.74202000  1.0
  H  H11  1  0.54800000  0.49039000  0.84187000  1.0
  H  H12  1  0.40142000  0.37657000  0.81442000  1.0
  H  H13  1  0.34122000  0.28746000  0.71498000  1.0
  H  H14  1  0.95136000  0.22368000  0.80928000  1.0
  H  H15  1  0.01180000  0.31688000  0.90662000  1.0
  H  H16  1  0.26272000  0.06589000  0.58228000  1.0
  H  H17  1  0.32158000  0.15453000  0.68181000  1.0
  H  H18  1  0.89054000  0.21201000  0.69559000  1.0
  H  H19  1  0.84976000  0.11801000  0.59599000  1.0
  H  H20  1  0.18009000  0.57126000  0.20479000  1.0
  H  H21  1  0.24341000  0.66001000  0.30393000  1.0
  H  H22  1  0.46756000  0.82626000  0.16933000  1.0
  H  H23  1  0.41295000  0.73230000  0.07222000  1.0
  H  H24  1  0.43876000  0.81145000  0.47441000  1.0
  H  H25  1  0.39248000  0.71106000  0.38005000  1.0
  H  H26  1  0.39581000  0.91984000  0.24203000  1.0
  H  H27  1  0.45200000  0.00961000  0.34187000  1.0
  H  H28  1  0.59858000  0.12343000  0.31442000  1.0
  H  H29  1  0.65878000  0.21255000  0.21498000  1.0
  H  H30  1  0.04864000  0.27632000  0.30928000  1.0
  H  H31  1  0.98820000  0.18312000  0.40662000  1.0
  H  H32  1  0.73728000  0.43411000  0.08228000  1.0
  H  H33  1  0.67842000  0.34547000  0.18182000  1.0
  H  H34  1  0.10946000  0.28799000  0.19559000  1.0
  H  H35  1  0.15025000  0.38199000  0.09599000  1.0
  H  H36  1  0.18009000  0.07126000  0.29521000  1.0
  H  H37  1  0.24341000  0.16001000  0.19607000  1.0
  H  H38  1  0.46757000  0.32626000  0.33067000  1.0
  H  H39  1  0.41296000  0.23230000  0.42778000  1.0
  H  H40  1  0.43875000  0.31145000  0.02559000  1.0
  H  H41  1  0.39248000  0.21107000  0.11995000  1.0
  H  H42  1  0.39582000  0.41985000  0.25798000  1.0
  H  H43  1  0.45200000  0.50961000  0.15813000  1.0
  H  H44  1  0.59858000  0.62343000  0.18558000  1.0
  H  H45  1  0.65879000  0.71255000  0.28502000  1.0
  H  H46  1  0.04864000  0.77631000  0.19073000  1.0
  H  H47  1  0.98820000  0.68312000  0.09338000  1.0
  H  H48  1  0.73728000  0.93411000  0.41772000  1.0
  H  H49  1  0.67843000  0.84547000  0.31819000  1.0
  H  H50  1  0.10946000  0.78798000  0.30441000  1.0
  H  H51  1  0.15025000  0.88198000  0.40401000  1.0
  H  H52  1  0.81990000  0.42873000  0.79522000  1.0
  H  H53  1  0.75659000  0.34000000  0.69607000  1.0
  H  H54  1  0.53243000  0.17375000  0.83067000  1.0
  H  H55  1  0.58703000  0.26770000  0.92778000  1.0
  H  H56  1  0.56125000  0.18855000  0.52559000  1.0
  H  H57  1  0.60752000  0.28893000  0.61995000  1.0
  H  H58  1  0.60419000  0.08015000  0.75797000  1.0
  H  H59  1  0.54800000  0.99039000  0.65813000  1.0
  H  H60  1  0.40143000  0.87657000  0.68558000  1.0
  H  H61  1  0.34122000  0.78745000  0.78502000  1.0
  H  H62  1  0.95136000  0.72368000  0.69073000  1.0
  H  H63  1  0.01181000  0.81688000  0.59338000  1.0
  H  H64  1  0.26272000  0.56588000  0.91772000  1.0
  H  H65  1  0.32158000  0.65453000  0.81819000  1.0
  H  H66  1  0.89054000  0.71201000  0.80441000  1.0
  H  H67  1  0.84975000  0.61801000  0.90401000  1.0
  C  C68  1  0.74466000  0.90763000  0.57245000  1.0
  C  C69  1  0.70674000  0.85372000  0.63249000  1.0
  C  C70  1  0.75386000  0.87378000  0.69811000  1.0
  C  C71  1  0.71851000  0.82353000  0.75328000  1.0
  C  C72  1  0.64117000  0.74951000  0.74392000  1.0
  C  C73  1  0.59610000  0.72934000  0.67765000  1.0
  C  C74  1  0.62600000  0.78165000  0.62310000  1.0
  C  C75  1  0.57080000  0.66769000  0.92178000  1.0
  C  C76  1  0.59783000  0.72299000  0.86891000  1.0
  C  C77  1  0.61017000  0.69371000  0.80168000  1.0
  C  C78  1  0.59301000  0.60777000  0.79232000  1.0
  C  C79  1  0.56413000  0.55696000  0.84787000  1.0
  C  C80  1  0.24967000  0.40349000  0.92775000  1.0
  C  C81  1  0.21075000  0.35135000  0.86697000  1.0
  C  C82  1  0.30272000  0.34320000  0.81242000  1.0
  C  C83  1  0.26919000  0.29253000  0.75736000  1.0
  C  C84  1  0.14274000  0.24817000  0.75527000  1.0
  C  C85  1  0.04988000  0.25764000  0.80960000  1.0
  C  C86  1  0.08342000  0.30870000  0.86461000  1.0
  C  C87  1  0.18299000  0.09859000  0.60936000  1.0
  C  C88  1  0.21522000  0.14950000  0.66438000  1.0
  C  C89  1  0.11090000  0.19257000  0.69754000  1.0
  C  C90  1  0.97628000  0.18004000  0.67265000  1.0
  C  C91  1  0.95252000  0.12811000  0.61722000  1.0
  C  C92  1  0.25534000  0.59237000  0.07244000  1.0
  C  C93  1  0.29327000  0.64628000  0.13249000  1.0
  C  C94  1  0.24615000  0.62622000  0.19811000  1.0
  C  C95  1  0.28149000  0.67647000  0.25328000  1.0
  C  C96  1  0.35882000  0.75049000  0.24392000  1.0
  C  C97  1  0.40390000  0.77066000  0.17765000  1.0
  C  C98  1  0.37400000  0.71834000  0.12310000  1.0
  C  C99  1  0.42920000  0.83231000  0.42178000  1.0
  C  C100  1  0.40218000  0.77701000  0.36891000  1.0
  C  C101  1  0.38983000  0.80629000  0.30168000  1.0
  C  C102  1  0.40699000  0.89222000  0.29232000  1.0
  C  C103  1  0.43587000  0.94304000  0.34787000  1.0
  C  C104  1  0.75032000  0.09650000  0.42775000  1.0
  C  C105  1  0.78925000  0.14865000  0.36697000  1.0
  C  C106  1  0.69728000  0.15680000  0.31243000  1.0
  C  C107  1  0.73081000  0.20747000  0.25736000  1.0
  C  C108  1  0.85726000  0.25183000  0.25527000  1.0
  C  C109  1  0.95012000  0.24237000  0.30960000  1.0
  C  C110  1  0.91658000  0.19131000  0.36461000  1.0
  C  C111  1  0.81701000  0.40140000  0.10936000  1.0
  C  C112  1  0.78478000  0.35050000  0.16438000  1.0
  C  C113  1  0.88910000  0.30743000  0.19754000  1.0
  C  C114  1  0.02372000  0.31996000  0.17265000  1.0
  C  C115  1  0.04748000  0.37189000  0.11722000  1.0
  C  C116  1  0.25534000  0.09236000  0.42755000  1.0
  C  C117  1  0.29327000  0.14628000  0.36751000  1.0
  C  C118  1  0.24614000  0.12622000  0.30189000  1.0
  C  C119  1  0.28149000  0.17647000  0.24672000  1.0
  C  C120  1  0.35882000  0.25049000  0.25608000  1.0
  C  C121  1  0.40390000  0.27066000  0.32235000  1.0
  C  C122  1  0.37401000  0.21834000  0.37690000  1.0
  C  C123  1  0.42919000  0.33231000  0.07822000  1.0
  C  C124  1  0.40217000  0.27701000  0.13109000  1.0
  C  C125  1  0.38983000  0.30629000  0.19832000  1.0
  C  C126  1  0.40699000  0.39223000  0.20768000  1.0
  C  C127  1  0.43587000  0.44304000  0.15213000  1.0
  C  C128  1  0.75031000  0.59650000  0.07225000  1.0
  C  C129  1  0.78924000  0.64865000  0.13303000  1.0
  C  C130  1  0.69728000  0.65680000  0.18757000  1.0
  C  C131  1  0.73081000  0.70747000  0.24264000  1.0
  C  C132  1  0.85727000  0.75182000  0.24473000  1.0
  C  C133  1  0.95012000  0.74236000  0.19040000  1.0
  C  C134  1  0.91657000  0.69130000  0.13539000  1.0
  C  C135  1  0.81701000  0.90141000  0.39064000  1.0
  C  C136  1  0.78478000  0.85050000  0.33562000  1.0
  C  C137  1  0.88910000  0.80743000  0.30246000  1.0
  C  C138  1  0.02371000  0.81996000  0.32734000  1.0
  C  C139  1  0.04748000  0.87189000  0.38277000  1.0
  C  C140  1  0.74466000  0.40764000  0.92756000  1.0
  C  C141  1  0.70674000  0.35372000  0.86751000  1.0
  C  C142  1  0.75385000  0.37378000  0.80189000  1.0
  C  C143  1  0.71851000  0.32353000  0.74672000  1.0
  C  C144  1  0.64118000  0.24950000  0.75608000  1.0
  C  C145  1  0.59610000  0.22934000  0.82235000  1.0
  C  C146  1  0.62599000  0.28166000  0.87690000  1.0
  C  C147  1  0.57081000  0.16768000  0.57822000  1.0
  C  C148  1  0.59783000  0.22299000  0.63109000  1.0
  C  C149  1  0.61017000  0.19370000  0.69832000  1.0
  C  C150  1  0.59301000  0.10777000  0.70768000  1.0
  C  C151  1  0.56413000  0.05696000  0.65213000  1.0
  C  C152  1  0.24968000  0.90349000  0.57225000  1.0
  C  C153  1  0.21075000  0.85134000  0.63303000  1.0
  C  C154  1  0.30272000  0.84320000  0.68757000  1.0
  C  C155  1  0.26920000  0.79253000  0.74264000  1.0
  C  C156  1  0.14274000  0.74818000  0.74473000  1.0
  C  C157  1  0.04988000  0.75764000  0.69040000  1.0
  C  C158  1  0.08342000  0.80869000  0.63539000  1.0
  C  C159  1  0.18299000  0.59859000  0.89064000  1.0
  C  C160  1  0.21522000  0.64950000  0.83562000  1.0
  C  C161  1  0.11090000  0.69257000  0.80246000  1.0
  C  C162  1  0.97629000  0.68004000  0.82735000  1.0
  C  C163  1  0.95252000  0.62811000  0.88278000  1.0
  N  N164  1  0.55363000  0.58576000  0.91190000  1.0
  N  N165  1  0.05391000  0.08791000  0.58540000  1.0
  N  N166  1  0.44637000  0.91423000  0.41190000  1.0
  N  N167  1  0.94609000  0.41209000  0.08540000  1.0
  N  N168  1  0.44637000  0.41424000  0.08810000  1.0
  N  N169  1  0.94610000  0.91209000  0.41460000  1.0
  N  N170  1  0.55363000  0.08576000  0.58810000  1.0
  N  N171  1  0.05391000  0.58791000  0.91460000  1.0
  O  O172  1  0.86305000  0.94240000  0.57455000  1.0
  O  O173  1  0.65680000  0.91279000  0.52455000  1.0
  O  O174  1  0.37393000  0.43147000  0.92943000  1.0
  O  O175  1  0.15988000  0.41518000  0.97357000  1.0
  O  O176  1  0.13695000  0.55760000  0.07454000  1.0
  O  O177  1  0.34321000  0.58722000  0.02455000  1.0
  O  O178  1  0.62606000  0.06853000  0.42943000  1.0
  O  O179  1  0.84013000  0.08483000  0.47357000  1.0
  O  O180  1  0.13696000  0.05760000  0.42545000  1.0
  O  O181  1  0.34321000  0.08722000  0.47545000  1.0
  O  O182  1  0.62606000  0.56852000  0.07057000  1.0
  O  O183  1  0.84013000  0.58482000  0.02643000  1.0
  O  O184  1  0.86305000  0.44240000  0.92546000  1.0
  O  O185  1  0.65678000  0.41278000  0.97545000  1.0
  O  O186  1  0.37394000  0.93147000  0.57058000  1.0
  O  O187  1  0.15987000  0.91518000  0.52643000  1.0
