# generated using pymatgen
data_CdH7C8NO8
_symmetry_space_group_name_H-M   'P 1'
_cell_length_a   5.86550000
_cell_length_b   8.76880000
_cell_length_c   20.78780000
_cell_angle_alpha   90.00050000
_cell_angle_beta   90.00010000
_cell_angle_gamma   81.79650000
_symmetry_Int_Tables_number   1
_chemical_formula_structural   CdH7C8NO8
_chemical_formula_sum   'Cd4 H28 C32 N4 O32'
_cell_volume   1058.24671754
_cell_formula_units_Z   4
loop_
 _symmetry_equiv_pos_site_id
 _symmetry_equiv_pos_as_xyz
  1  'x, y, z'
loop_
 _atom_site_type_symbol
 _atom_site_label
 _atom_site_symmetry_multiplicity
 _atom_site_fract_x
 _atom_site_fract_y
 _atom_site_fract_z
 _atom_site_occupancy
  Cd  Cd0  1  0.15940000  0.15887000  0.46361000  1.0
  Cd  Cd1  1  0.84060000  0.34113000  0.96361000  1.0
  Cd  Cd2  1  0.84060000  0.84114000  0.53639000  1.0
  Cd  Cd3  1  0.15940000  0.65887000  0.03639000  1.0
  H  H4  1  0.47561000  0.35929000  0.43419000  1.0
  H  H5  1  0.52440000  0.14070000  0.93419000  1.0
  H  H6  1  0.52440000  0.64071000  0.56581000  1.0
  H  H7  1  0.47559000  0.85930000  0.06581000  1.0
  H  H8  1  0.23289000  0.47098000  0.43818000  1.0
  H  H9  1  0.76712000  0.02902000  0.93818000  1.0
  H  H10  1  0.76713000  0.52902000  0.56182000  1.0
  H  H11  1  0.23287000  0.97099000  0.06182000  1.0
  H  H12  1  0.71628000  0.14960000  0.40336000  1.0
  H  H13  1  0.28372000  0.35039000  0.90335000  1.0
  H  H14  1  0.28372000  0.85040000  0.59665000  1.0
  H  H15  1  0.71628000  0.64961000  0.09665000  1.0
  H  H16  1  0.81390000  0.27951000  0.36202000  1.0
  H  H17  1  0.18611000  0.22049000  0.86201000  1.0
  H  H18  1  0.18610000  0.72049000  0.63799000  1.0
  H  H19  1  0.81389000  0.77951000  0.13799000  1.0
  H  H20  1  0.41476000  0.76659000  0.18385000  1.0
  H  H21  1  0.58523000  0.73340000  0.68386000  1.0
  H  H22  1  0.58525000  0.23340000  0.81614000  1.0
  H  H23  1  0.41476000  0.26659000  0.31614000  1.0
  H  H24  1  0.10538000  0.61431000  0.21682000  1.0
  H  H25  1  0.89463000  0.88569000  0.71682000  1.0
  H  H26  1  0.89463000  0.38568000  0.78318000  1.0
  H  H27  1  0.10537000  0.11431000  0.28317000  1.0
  H  H28  1  0.99633000  0.60334000  0.33208000  1.0
  H  H29  1  0.00367000  0.89665000  0.83208000  1.0
  H  H30  1  0.00369000  0.39665000  0.66792000  1.0
  H  H31  1  0.99633000  0.10334000  0.16791000  1.0
  C  C32  1  0.48553000  0.82935000  0.28172000  1.0
  C  C33  1  0.51447000  0.67064000  0.78172000  1.0
  C  C34  1  0.51447000  0.17065000  0.71828000  1.0
  C  C35  1  0.48554000  0.32935000  0.21828000  1.0
  C  C36  1  0.36931000  0.75707000  0.23428000  1.0
  C  C37  1  0.63068000  0.74292000  0.73428000  1.0
  C  C38  1  0.63070000  0.24292000  0.76572000  1.0
  C  C39  1  0.36931000  0.25708000  0.26571000  1.0
  C  C40  1  0.19498000  0.67427000  0.25264000  1.0
  C  C41  1  0.80500000  0.82573000  0.75264000  1.0
  C  C42  1  0.80503000  0.32572000  0.74736000  1.0
  C  C43  1  0.19500000  0.17427000  0.24736000  1.0
  C  C44  1  0.13358000  0.66766000  0.31740000  1.0
  C  C45  1  0.86641000  0.83233000  0.81740000  1.0
  C  C46  1  0.86642000  0.33234000  0.68260000  1.0
  C  C47  1  0.13360000  0.16766000  0.18260000  1.0
  C  C48  1  0.24240000  0.74742000  0.36380000  1.0
  C  C49  1  0.75758000  0.75259000  0.86380000  1.0
  C  C50  1  0.75758000  0.25259000  0.63620000  1.0
  C  C51  1  0.24242000  0.24741000  0.13620000  1.0
  C  C52  1  0.42365000  0.82817000  0.34698000  1.0
  C  C53  1  0.57634000  0.67183000  0.84698000  1.0
  C  C54  1  0.57635000  0.17183000  0.65302000  1.0
  C  C55  1  0.42366000  0.32817000  0.15302000  1.0
  C  C56  1  0.15131000  0.75489000  0.43130000  1.0
  C  C57  1  0.84869000  0.74511000  0.93130000  1.0
  C  C58  1  0.84868000  0.24512000  0.56870000  1.0
  C  C59  1  0.15131000  0.25490000  0.06870000  1.0
  C  C60  1  0.53495000  0.90362000  0.40185000  1.0
  C  C61  1  0.46504000  0.59639000  0.90185000  1.0
  C  C62  1  0.46505000  0.09638000  0.59815000  1.0
  C  C63  1  0.53495000  0.40362000  0.09815000  1.0
  N  N64  1  0.67526000  0.90881000  0.26173000  1.0
  N  N65  1  0.32474000  0.59118000  0.76173000  1.0
  N  N66  1  0.32474000  0.09119000  0.73827000  1.0
  N  N67  1  0.67527000  0.40881000  0.23828000  1.0
  O  O68  1  0.71294000  0.92254000  0.20289000  1.0
  O  O69  1  0.28704000  0.57745000  0.70289000  1.0
  O  O70  1  0.28708000  0.07745000  0.79711000  1.0
  O  O71  1  0.71295000  0.42255000  0.29711000  1.0
  O  O72  1  0.79262000  0.96083000  0.30390000  1.0
  O  O73  1  0.20737000  0.53917000  0.80390000  1.0
  O  O74  1  0.20738000  0.03917000  0.69610000  1.0
  O  O75  1  0.79264000  0.46083000  0.19610000  1.0
  O  O76  1  0.10734000  0.63485000  0.45905000  1.0
  O  O77  1  0.89265000  0.86515000  0.95905000  1.0
  O  O78  1  0.89268000  0.36515000  0.54095000  1.0
  O  O79  1  0.10733000  0.13486000  0.04095000  1.0
  O  O80  1  0.10570000  0.88930000  0.45704000  1.0
  O  O81  1  0.89428000  0.61070000  0.95705000  1.0
  O  O82  1  0.89429000  0.11071000  0.54295000  1.0
  O  O83  1  0.10572000  0.38931000  0.04295000  1.0
  O  O84  1  0.49367000  0.05043000  0.40720000  1.0
  O  O85  1  0.50632000  0.44957000  0.90720000  1.0
  O  O86  1  0.50633000  0.94957000  0.59280000  1.0
  O  O87  1  0.49368000  0.55044000  0.09280000  1.0
  O  O88  1  0.64508000  0.81091000  0.44045000  1.0
  O  O89  1  0.35490000  0.68909000  0.94045000  1.0
  O  O90  1  0.35492000  0.18909000  0.55954000  1.0
  O  O91  1  0.64508000  0.31092000  0.05954000  1.0
  O  O92  1  0.31206000  0.36603000  0.42364000  1.0
  O  O93  1  0.68795000  0.13397000  0.92364000  1.0
  O  O94  1  0.68795000  0.63397000  0.57636000  1.0
  O  O95  1  0.31204000  0.86604000  0.07636000  1.0
  O  O96  1  0.82543000  0.22747000  0.40384000  1.0
  O  O97  1  0.17456000  0.27253000  0.90383000  1.0
  O  O98  1  0.17456000  0.77253000  0.59616000  1.0
  O  O99  1  0.82544000  0.72747000  0.09617000  1.0
