# generated using pymatgen
data_ZnH16C14(NO)4
_symmetry_space_group_name_H-M   'P 1'
_cell_length_a   9.81200000
_cell_length_b   10.57660000
_cell_length_c   11.07780000
_cell_angle_alpha   89.36860000
_cell_angle_beta   89.92610000
_cell_angle_gamma   88.95780000
_symmetry_Int_Tables_number   1
_chemical_formula_structural   ZnH16C14(NO)4
_chemical_formula_sum   'Zn2 H32 C28 N8 O8'
_cell_volume   1149.36682951
_cell_formula_units_Z   2
loop_
 _symmetry_equiv_pos_site_id
 _symmetry_equiv_pos_as_xyz
  1  'x, y, z'
loop_
 _atom_site_type_symbol
 _atom_site_label
 _atom_site_symmetry_multiplicity
 _atom_site_fract_x
 _atom_site_fract_y
 _atom_site_fract_z
 _atom_site_occupancy
  Zn  Zn0  1  0.35140000  0.50525000  0.49946000  1.0
  Zn  Zn1  1  0.64860000  0.49475000  0.50053000  1.0
  H  H2  1  0.87436000  0.37478000  0.64722000  1.0
  H  H3  1  0.37623000  0.91158000  0.90074000  1.0
  H  H4  1  0.33416000  0.04059000  0.80146000  1.0
  H  H5  1  0.50428000  0.02022000  0.85303000  1.0
  H  H6  1  0.27459000  0.82668000  0.35868000  1.0
  H  H7  1  0.16840000  0.94493000  0.19904000  1.0
  H  H8  1  0.29113000  0.06468000  0.21399000  1.0
  H  H9  1  0.16037000  0.05019000  0.32416000  1.0
  H  H10  1  0.72541000  0.17332000  0.64132000  1.0
  H  H11  1  0.83160000  0.05506000  0.80097000  1.0
  H  H12  1  0.83964000  0.94981000  0.67584000  1.0
  H  H13  1  0.12564000  0.62522000  0.35278000  1.0
  H  H14  1  0.70886000  0.93531000  0.78600000  1.0
  H  H15  1  0.21486000  0.16618000  0.53947000  1.0
  H  H16  1  0.05310000  0.03599000  0.64636000  1.0
  H  H17  1  0.18353000  0.91788000  0.66502000  1.0
  H  H18  1  0.11112000  0.94615000  0.52017000  1.0
  H  H19  1  0.78514000  0.83383000  0.46053000  1.0
  H  H20  1  0.94690000  0.96401000  0.35365000  1.0
  H  H21  1  0.88888000  0.05385000  0.47984000  1.0
  H  H22  1  0.81647000  0.08212000  0.33498000  1.0
  H  H23  1  0.69736000  0.41440000  0.11790000  1.0
  H  H24  1  0.86665000  0.62046000  0.35100000  1.0
  H  H25  1  0.30264000  0.58560000  0.88210000  1.0
  H  H26  1  0.69979000  0.40962000  0.89050000  1.0
  H  H27  1  0.30021000  0.59038000  0.10949000  1.0
  H  H28  1  0.13335000  0.37954000  0.64900000  1.0
  H  H29  1  0.50200000  0.18801000  0.26019000  1.0
  H  H30  1  0.62374000  0.08843000  0.09925000  1.0
  H  H31  1  0.49573000  0.97975000  0.14699000  1.0
  H  H32  1  0.66586000  0.95943000  0.19853000  1.0
  H  H33  1  0.49799000  0.81199000  0.73981000  1.0
  C  C34  1  0.50135000  0.49716000  0.87376000  1.0
  C  C35  1  0.62842000  0.95945000  0.46134000  1.0
  C  C36  1  0.52843000  0.05036000  0.38855000  1.0
  C  C37  1  0.47157000  0.94964000  0.61146000  1.0
  C  C38  1  0.49488000  0.12432000  0.50753000  1.0
  C  C39  1  0.50512000  0.87568000  0.49247000  1.0
  C  C40  1  0.93173000  0.42971000  0.58129000  1.0
  C  C41  1  0.06828000  0.57029000  0.41871000  1.0
  C  C42  1  0.92721000  0.56708000  0.41726000  1.0
  C  C43  1  0.07280000  0.43292000  0.58274000  1.0
  C  C44  1  0.61173000  0.45185000  0.06515000  1.0
  C  C45  1  0.49865000  0.50284000  0.12624000  1.0
  C  C46  1  0.38827000  0.54815000  0.93485000  1.0
  C  C47  1  0.61297000  0.44909000  0.93964000  1.0
  C  C48  1  0.38703000  0.55092000  0.06035000  1.0
  C  C49  1  0.58729000  0.03084000  0.17539000  1.0
  C  C50  1  0.41272000  0.96916000  0.82461000  1.0
  C  C51  1  0.23000000  0.99588000  0.26463000  1.0
  C  C52  1  0.76999000  0.00411000  0.73537000  1.0
  C  C53  1  0.14333000  0.99234000  0.60426000  1.0
  C  C54  1  0.85667000  0.00766000  0.39575000  1.0
  C  C55  1  0.49601000  0.50457000  0.26146000  1.0
  C  C56  1  0.50400000  0.49544000  0.73854000  1.0
  C  C57  1  0.50308000  0.73789000  0.49540000  1.0
  C  C58  1  0.49692000  0.26211000  0.50460000  1.0
  C  C59  1  0.40423000  0.95874000  0.41718000  1.0
  C  C60  1  0.59577000  0.04126000  0.58282000  1.0
  C  C61  1  0.37158000  0.04055000  0.53866000  1.0
  N  N62  1  0.14196000  0.50351000  0.50139000  1.0
  N  N63  1  0.85804000  0.49649000  0.49861000  1.0
  N  N64  1  0.56481000  0.11266000  0.27982000  1.0
  N  N65  1  0.43519000  0.88734000  0.72018000  1.0
  N  N66  1  0.32011000  0.90696000  0.32829000  1.0
  N  N67  1  0.67989000  0.09303000  0.67172000  1.0
  N  N68  1  0.24741000  0.08769000  0.58612000  1.0
  N  N69  1  0.75259000  0.91232000  0.41388000  1.0
  O  O70  1  0.37897000  0.51025000  0.31109000  1.0
  O  O71  1  0.62103000  0.48975000  0.68891000  1.0
  O  O72  1  0.38914000  0.50109000  0.68462000  1.0
  O  O73  1  0.61087000  0.49891000  0.31538000  1.0
  O  O74  1  0.38533000  0.68959000  0.49143000  1.0
  O  O75  1  0.61467000  0.31042000  0.50858000  1.0
  O  O76  1  0.38220000  0.31907000  0.49314000  1.0
  O  O77  1  0.61780000  0.68094000  0.50686000  1.0
