# generated using pymatgen
data_MnH12C20(NO2)2
_symmetry_space_group_name_H-M   'P 1'
_cell_length_a   9.19581000
_cell_length_b   10.06690000
_cell_length_c   10.06800000
_cell_angle_alpha   60.95520000
_cell_angle_beta   85.48100000
_cell_angle_gamma   85.48280000
_symmetry_Int_Tables_number   1
_chemical_formula_structural   MnH12C20(NO2)2
_chemical_formula_sum   'Mn2 H24 C40 N4 O8'
_cell_volume   811.40561143
_cell_formula_units_Z   2
loop_
 _symmetry_equiv_pos_site_id
 _symmetry_equiv_pos_as_xyz
  1  'x, y, z'
loop_
 _atom_site_type_symbol
 _atom_site_label
 _atom_site_symmetry_multiplicity
 _atom_site_fract_x
 _atom_site_fract_y
 _atom_site_fract_z
 _atom_site_occupancy
  Mn  Mn0  1  0.52113000  0.67033000  0.57023000  1.0
  Mn  Mn1  1  0.02114000  0.57026000  0.67029000  1.0
  H  H2  1  0.04090000  0.60045000  0.01887000  1.0
  H  H3  1  0.54088000  0.01891000  0.60042000  1.0
  H  H4  1  0.03898000  0.58971000  0.27552000  1.0
  H  H5  1  0.53890000  0.27559000  0.58968000  1.0
  H  H6  1  0.50115000  0.64131000  0.22136000  1.0
  H  H7  1  0.00109000  0.22149000  0.64125000  1.0
  H  H8  1  0.50306000  0.65223000  0.96465000  1.0
  H  H9  1  0.00299000  0.96473000  0.65222000  1.0
  H  H10  1  0.78614000  0.62813000  0.34841000  1.0
  H  H11  1  0.28596000  0.34845000  0.62810000  1.0
  H  H12  1  0.87446000  0.76249000  0.07477000  1.0
  H  H13  1  0.37442000  0.07483000  0.76248000  1.0
  H  H14  1  0.77440000  0.02593000  0.90485000  1.0
  H  H15  1  0.27443000  0.90488000  0.02593000  1.0
  H  H16  1  0.61166000  0.25148000  0.87803000  1.0
  H  H17  1  0.11169000  0.87803000  0.25146000  1.0
  H  H18  1  0.43359000  0.36437000  0.99167000  1.0
  H  H19  1  0.93359000  0.99163000  0.36440000  1.0
  H  H20  1  0.26928000  0.33596000  0.21678000  1.0
  H  H21  1  0.76926000  0.21673000  0.33600000  1.0
  H  H22  1  0.16737000  0.16435000  0.47898000  1.0
  H  H23  1  0.66734000  0.47896000  0.16445000  1.0
  H  H24  1  0.25552000  0.89065000  0.61204000  1.0
  H  H25  1  0.75549000  0.61208000  0.89077000  1.0
  C  C26  1  0.27321000  0.62798000  0.82850000  1.0
  C  C27  1  0.77318000  0.82849000  0.62806000  1.0
  C  C28  1  0.27220000  0.62571000  0.97845000  1.0
  C  C29  1  0.77216000  0.97853000  0.62564000  1.0
  C  C30  1  0.14072000  0.60955000  0.06482000  1.0
  C  C31  1  0.64066000  0.06484000  0.60959000  1.0
  C  C32  1  0.13943000  0.60396000  0.20569000  1.0
  C  C33  1  0.63934000  0.20574000  0.60399000  1.0
  C  C34  1  0.26992000  0.61574000  0.26194000  1.0
  C  C35  1  0.76985000  0.26205000  0.61566000  1.0
  C  C36  1  0.40137000  0.63199000  0.17552000  1.0
  C  C37  1  0.90130000  0.17560000  0.63202000  1.0
  C  C38  1  0.40266000  0.63769000  0.03461000  1.0
  C  C39  1  0.90258000  0.03467000  0.63773000  1.0
  C  C40  1  0.26909000  0.61283000  0.41217000  1.0
  C  C41  1  0.76899000  0.41221000  0.61288000  1.0
  C  C42  1  0.73945000  0.73987000  0.27009000  1.0
  C  C43  1  0.23932000  0.27015000  0.73986000  1.0
  C  C44  1  0.79037000  0.81676000  0.11701000  1.0
  C  C45  1  0.29031000  0.11709000  0.81674000  1.0
  C  C46  1  0.73538000  0.96217000  0.02330000  1.0
  C  C47  1  0.23537000  0.02332000  0.96214000  1.0
  C  C48  1  0.62894000  0.03029000  0.08308000  1.0
  C  C49  1  0.12893000  0.08311000  0.03026000  1.0
  C  C50  1  0.57263000  0.18346000  0.99591000  1.0
  C  C51  1  0.07265000  0.99592000  0.18344000  1.0
  C  C52  1  0.47223000  0.24624000  0.05912000  1.0
  C  C53  1  0.97224000  0.05906000  0.24626000  1.0
  C  C54  1  0.41526000  0.15828000  0.21188000  1.0
  C  C55  1  0.91523000  0.21184000  0.15832000  1.0
  C  C56  1  0.30821000  0.21740000  0.28007000  1.0
  C  C57  1  0.80820000  0.28004000  0.21747000  1.0
  C  C58  1  0.25221000  0.12279000  0.42477000  1.0
  C  C59  1  0.75219000  0.42476000  0.12286000  1.0
  C  C60  1  0.30294000  0.96962000  0.50094000  1.0
  C  C61  1  0.80289000  0.50096000  0.96971000  1.0
  C  C62  1  0.46473000  0.00369000  0.30039000  1.0
  C  C63  1  0.96469000  0.30039000  0.00373000  1.0
  C  C64  1  0.57901000  0.94100000  0.23738000  1.0
  C  C65  1  0.07894000  0.23741000  0.94101000  1.0
  N  N66  1  0.40761000  0.91148000  0.44217000  1.0
  N  N67  1  0.90757000  0.44220000  0.91155000  1.0
  N  N68  1  0.63532000  0.79862000  0.32882000  1.0
  N  N69  1  0.13518000  0.32888000  0.79859000  1.0
  O  O70  1  0.39051000  0.57833000  0.47695000  1.0
  O  O71  1  0.89038000  0.47707000  0.57834000  1.0
  O  O72  1  0.14790000  0.64349000  0.46380000  1.0
  O  O73  1  0.64782000  0.46375000  0.64372000  1.0
  O  O74  1  0.15181000  0.66211000  0.76374000  1.0
  O  O75  1  0.65179000  0.76371000  0.66217000  1.0
  O  O76  1  0.39446000  0.59719000  0.77707000  1.0
  O  O77  1  0.89446000  0.77701000  0.59740000  1.0
