# generated using pymatgen
data_CdH28C38N2O5
_symmetry_space_group_name_H-M   'P 1'
_cell_length_a   9.96826000
_cell_length_b   10.26190000
_cell_length_c   15.83660000
_cell_angle_alpha   76.20380000
_cell_angle_beta   74.07950000
_cell_angle_gamma   75.24400000
_symmetry_Int_Tables_number   1
_chemical_formula_structural   CdH28C38N2O5
_chemical_formula_sum   'Cd2 H56 C76 N4 O10'
_cell_volume   1481.49452727
_cell_formula_units_Z   2
loop_
 _symmetry_equiv_pos_site_id
 _symmetry_equiv_pos_as_xyz
  1  'x, y, z'
loop_
 _atom_site_type_symbol
 _atom_site_label
 _atom_site_symmetry_multiplicity
 _atom_site_fract_x
 _atom_site_fract_y
 _atom_site_fract_z
 _atom_site_occupancy
  Cd  Cd0  1  0.30878000  0.19949000  0.48055000  1.0
  Cd  Cd1  1  0.69122000  0.80051000  0.51945000  1.0
  H  H2  1  0.15423000  0.01532000  0.65807000  1.0
  H  H3  1  0.84577000  0.98468000  0.34193000  1.0
  H  H4  1  0.56257000  0.14177000  0.31074000  1.0
  H  H5  1  0.43743000  0.85823000  0.68926000  1.0
  H  H6  1  0.13971000  0.95379000  0.82014000  1.0
  H  H7  1  0.86029000  0.04621000  0.17986000  1.0
  H  H8  1  0.57533000  0.34147000  0.86762000  1.0
  H  H9  1  0.42467000  0.65853000  0.13238000  1.0
  H  H10  1  0.41709000  0.28775000  0.62233000  1.0
  H  H11  1  0.58292000  0.71226000  0.37767000  1.0
  H  H12  1  0.42647000  0.57674000  0.63640000  1.0
  H  H13  1  0.57352000  0.42327000  0.36360000  1.0
  H  H14  1  0.41641000  0.23627000  0.78403000  1.0
  H  H15  1  0.58359000  0.76373000  0.21597000  1.0
  H  H16  1  0.23063000  0.85545000  0.32507000  1.0
  H  H17  1  0.76937000  0.14455000  0.67493000  1.0
  H  H18  1  0.14591000  0.35226000  0.32759000  1.0
  H  H19  1  0.85409000  0.64775000  0.67241000  1.0
  H  H20  1  0.94331000  0.60652000  0.14130000  1.0
  H  H21  1  0.05669000  0.39348000  0.85870000  1.0
  H  H22  1  0.61574000  0.41900000  0.70445000  1.0
  H  H23  1  0.38425000  0.58100000  0.29555000  1.0
  H  H24  1  0.34835000  0.11802000  0.92804000  1.0
  H  H25  1  0.65166000  0.88198000  0.07196000  1.0
  H  H26  1  0.06607000  0.77687000  0.03419000  1.0
  H  H27  1  0.93393000  0.22313000  0.96581000  1.0
  H  H28  1  0.18258000  0.41958000  0.16425000  1.0
  H  H29  1  0.81742000  0.58042000  0.83575000  1.0
  H  H30  1  0.61771000  0.19742000  0.14386000  1.0
  H  H31  1  0.38229000  0.80258000  0.85614000  1.0
  H  H32  1  0.15382000  0.91526000  0.95635000  1.0
  H  H33  1  0.84618000  0.08474000  0.04365000  1.0
  H  H34  1  0.91572000  0.75126000  0.91327000  1.0
  H  H35  1  0.08428000  0.24874000  0.08673000  1.0
  H  H36  1  0.18665000  0.71742000  0.65238000  1.0
  H  H37  1  0.81334000  0.28259000  0.34762000  1.0
  H  H38  1  0.09335000  0.58121000  0.98302000  1.0
  H  H39  1  0.90665000  0.41879000  0.01698000  1.0
  H  H40  1  0.35291000  0.08053000  0.06011000  1.0
  H  H41  1  0.64710000  0.91947000  0.93989000  1.0
  H  H42  1  0.94871000  0.56124000  0.30316000  1.0
  H  H43  1  0.05129000  0.43876000  0.69684000  1.0
  H  H44  1  0.08036000  0.68800000  0.35495000  1.0
  H  H45  1  0.91964000  0.31200000  0.64506000  1.0
  H  H46  1  0.22854000  0.44175000  0.03100000  1.0
  H  H47  1  0.77146000  0.55826000  0.96900000  1.0
  H  H48  1  0.95923000  0.82160000  0.74787000  1.0
  H  H49  1  0.04077000  0.17841000  0.25213000  1.0
  H  H50  1  0.54743000  0.31455000  0.00724000  1.0
  H  H51  1  0.45257000  0.68545000  0.99276000  1.0
  H  H52  1  0.35845000  0.02882000  0.21906000  1.0
  H  H53  1  0.64155000  0.97118000  0.78094000  1.0
  H  H54  1  0.01906000  0.18441000  0.47897000  1.0
  H  H55  1  0.98094000  0.81559000  0.52103000  1.0
  H  H56  1  0.99213000  0.34517000  0.47822000  1.0
  H  H57  1  0.00787000  0.65483000  0.52179000  1.0
  C  C58  1  0.21071000  0.06227000  0.68891000  1.0
  C  C59  1  0.78928000  0.93773000  0.31110000  1.0
  C  C60  1  0.48137000  0.20104000  0.27478000  1.0
  C  C61  1  0.51863000  0.79896000  0.72522000  1.0
  C  C62  1  0.20367000  0.02813000  0.77998000  1.0
  C  C63  1  0.79633000  0.97187000  0.22002000  1.0
  C  C64  1  0.48965000  0.41234000  0.83981000  1.0
  C  C65  1  0.51035000  0.58766000  0.16019000  1.0
  C  C66  1  0.35774000  0.21372000  0.66869000  1.0
  C  C67  1  0.64226000  0.78628000  0.33131000  1.0
  C  C68  1  0.29037000  0.64470000  0.48832000  1.0
  C  C69  1  0.70964000  0.35530000  0.51167000  1.0
  C  C70  1  0.27339000  0.59320000  0.76320000  1.0
  C  C71  1  0.72661000  0.40680000  0.23679000  1.0
  C  C72  1  0.15383000  0.80466000  0.22387000  1.0
  C  C73  1  0.84617000  0.19534000  0.77613000  1.0
  C  C74  1  0.40649000  0.54285000  0.70859000  1.0
  C  C75  1  0.59350000  0.45716000  0.29141000  1.0
  C  C76  1  0.31620000  0.75449000  0.48891000  1.0
  C  C77  1  0.68380000  0.24550000  0.51109000  1.0
  C  C78  1  0.24975000  0.51385000  0.49911000  1.0
  C  C79  1  0.75025000  0.48614000  0.50088000  1.0
  C  C80  1  0.35671000  0.18461000  0.75897000  1.0
  C  C81  1  0.64329000  0.81539000  0.24103000  1.0
  C  C82  1  0.27901000  0.08951000  0.81785000  1.0
  C  C83  1  0.72099000  0.91049000  0.18215000  1.0
  C  C84  1  0.33958000  0.88259000  0.50094000  1.0
  C  C85  1  0.66042000  0.11740000  0.49906000  1.0
  C  C86  1  0.22919000  0.87718000  0.25439000  1.0
  C  C87  1  0.77081000  0.12282000  0.74561000  1.0
  C  C88  1  0.24895000  0.31902000  0.28430000  1.0
  C  C89  1  0.75105000  0.68098000  0.71570000  1.0
  C  C90  1  0.36029000  0.45716000  0.89689000  1.0
  C  C91  1  0.63971000  0.54284000  0.10311000  1.0
  C  C92  1  0.00353000  0.66132000  0.16392000  1.0
  C  C93  1  0.99647000  0.33868000  0.83608000  1.0
  C  C94  1  0.24878000  0.55152000  0.85857000  1.0
  C  C95  1  0.75121000  0.44848000  0.14142000  1.0
  C  C96  1  0.51291000  0.45514000  0.74681000  1.0
  C  C97  1  0.48709000  0.54486000  0.25318000  1.0
  C  C98  1  0.15001000  0.83307000  0.13082000  1.0
  C  C99  1  0.84999000  0.16693000  0.86918000  1.0
  C  C100  1  0.28327000  0.06058000  0.91166000  1.0
  C  C101  1  0.71673000  0.93942000  0.08834000  1.0
  C  C102  1  0.07303000  0.75777000  0.10357000  1.0
  C  C103  1  0.92697000  0.24223000  0.89643000  1.0
  C  C104  1  0.27037000  0.35518000  0.19239000  1.0
  C  C105  1  0.72963000  0.64482000  0.80761000  1.0
  C  C106  1  0.51115000  0.23267000  0.18215000  1.0
  C  C107  1  0.48885000  0.76733000  0.81785000  1.0
  C  C108  1  0.40447000  0.31115000  0.13787000  1.0
  C  C109  1  0.59553000  0.68885000  0.86213000  1.0
  C  C110  1  0.21758000  0.96960000  0.97639000  1.0
  C  C111  1  0.78243000  0.03039000  0.02361000  1.0
  C  C112  1  0.01534000  0.70596000  0.87152000  1.0
  C  C113  1  0.98465000  0.29404000  0.12848000  1.0
  C  C114  1  0.16592000  0.68915000  0.72491000  1.0
  C  C115  1  0.83408000  0.31085000  0.27509000  1.0
  C  C116  1  0.11629000  0.61021000  0.91063000  1.0
  C  C117  1  0.88371000  0.38979000  0.08937000  1.0
  C  C118  1  0.22286000  0.93608000  0.07035000  1.0
  C  C119  1  0.77715000  0.06392000  0.92965000  1.0
  C  C120  1  0.29690000  0.00254000  0.10451000  1.0
  C  C121  1  0.70311000  0.99746000  0.89549000  1.0
  C  C122  1  0.00644000  0.63487000  0.25514000  1.0
  C  C123  1  0.99355000  0.36514000  0.74486000  1.0
  C  C124  1  0.08052000  0.70528000  0.28424000  1.0
  C  C125  1  0.91948000  0.29472000  0.71576000  1.0
  C  C126  1  0.33744000  0.41367000  0.99306000  1.0
  C  C127  1  0.66256000  0.58633000  0.00694000  1.0
  C  C128  1  0.04005000  0.74608000  0.77766000  1.0
  C  C129  1  0.95995000  0.25392000  0.22234000  1.0
  C  C130  1  0.43594000  0.34524000  0.04090000  1.0
  C  C131  1  0.56406000  0.65476000  0.95910000  1.0
  C  C132  1  0.30001000  0.97386000  0.19533000  1.0
  C  C133  1  0.69999000  0.02614000  0.80467000  1.0
  N  N134  1  0.28688000  0.15289000  0.63336000  1.0
  N  N135  1  0.71312000  0.84711000  0.36664000  1.0
  N  N136  1  0.35199000  0.24255000  0.32564000  1.0
  N  N137  1  0.64801000  0.75745000  0.67436000  1.0
  O  O138  1  0.34696000  0.41781000  0.46912000  1.0
  O  O139  1  0.65305000  0.58219000  0.53088000  1.0
  O  O140  1  0.43278000  0.87497000  0.54333000  1.0
  O  O141  1  0.56722000  0.12503000  0.45666000  1.0
  O  O142  1  0.25866000  0.99159000  0.47076000  1.0
  O  O143  1  0.74134000  0.00840000  0.52924000  1.0
  O  O144  1  0.12203000  0.50792000  0.53894000  1.0
  O  O145  1  0.87798000  0.49208000  0.46106000  1.0
  O  O146  1  0.05767000  0.25386000  0.49144000  1.0
  O  O147  1  0.94232000  0.74614000  0.50856000  1.0
