# generated using pymatgen
data_Cu4SiH12(CN)20
_symmetry_space_group_name_H-M   'P 1'
_cell_length_a   23.43390000
_cell_length_b   23.54260000
_cell_length_c   24.46430000
_cell_angle_alpha   89.99080000
_cell_angle_beta   90.78390000
_cell_angle_gamma   89.83300000
_symmetry_Int_Tables_number   1
_chemical_formula_structural   Cu4SiH12(CN)20
_chemical_formula_sum   'Cu12 Si3 H36 C60 N60'
_cell_volume   13495.50958353
_cell_formula_units_Z   3
loop_
 _symmetry_equiv_pos_site_id
 _symmetry_equiv_pos_as_xyz
  1  'x, y, z'
loop_
 _atom_site_type_symbol
 _atom_site_label
 _atom_site_symmetry_multiplicity
 _atom_site_fract_x
 _atom_site_fract_y
 _atom_site_fract_z
 _atom_site_occupancy
  Cu  Cu0  1  0.18721000  0.86207000  0.77263000  1.0
  Cu  Cu1  1  0.09789000  0.75994000  0.76459000  1.0
  Cu  Cu2  1  0.16570000  0.78603000  0.87526000  1.0
  Cu  Cu3  1  0.26802000  0.13313000  0.23361000  1.0
  Cu  Cu4  1  0.16493000  0.22007000  0.22606000  1.0
  Cu  Cu5  1  0.27620000  0.24379000  0.15907000  1.0
  Cu  Cu6  1  0.77902000  0.12936000  0.76093000  1.0
  Cu  Cu7  1  0.87461000  0.22269000  0.79162000  1.0
  Cu  Cu8  1  0.76839000  0.20407000  0.86775000  1.0
  Cu  Cu9  1  0.77447000  0.88709000  0.20724000  1.0
  Cu  Cu10  1  0.87773000  0.79909000  0.22422000  1.0
  Cu  Cu11  1  0.77924000  0.77402000  0.13756000  1.0
  Si  Si12  1  0.99548000  0.48770000  0.02280000  1.0
  Si  Si13  1  0.00428000  0.02033000  0.49275000  1.0
  Si  Si14  1  0.48986000  0.98920000  0.97610000  1.0
  H  H15  1  0.15115000  0.93300000  0.66873000  1.0
  H  H16  1  0.03460000  0.79134000  0.65194000  1.0
  H  H17  1  0.25826000  0.83546000  0.95890000  1.0
  H  H18  1  0.30096000  0.92707000  0.81141000  1.0
  H  H19  1  0.03944000  0.64134000  0.79699000  1.0
  H  H20  1  0.11715000  0.69046000  0.95160000  1.0
  H  H21  1  0.23058000  0.05934000  0.33729000  1.0
  H  H22  1  0.08639000  0.17393000  0.32019000  1.0
  H  H23  1  0.38618000  0.21614000  0.09165000  1.0
  H  H24  1  0.36200000  0.05647000  0.17621000  1.0
  H  H25  1  0.08003000  0.30941000  0.17083000  1.0
  H  H26  1  0.23842000  0.35540000  0.09309000  1.0
  H  H27  1  0.83065000  0.07905000  0.65328000  1.0
  H  H28  1  0.95940000  0.20497000  0.69234000  1.0
  H  H29  1  0.65701000  0.15351000  0.91837000  1.0
  H  H30  1  0.66852000  0.04908000  0.77308000  1.0
  H  H31  1  0.94000000  0.32055000  0.85715000  1.0
  H  H32  1  0.79385000  0.29538000  0.96100000  1.0
  H  H33  1  0.80097000  0.97365000  0.30386000  1.0
  H  H34  1  0.94392000  0.85781000  0.32264000  1.0
  H  H35  1  0.67157000  0.79174000  0.05872000  1.0
  H  H36  1  0.66961000  0.95006000  0.14896000  1.0
  H  H37  1  0.96124000  0.69361000  0.20098000  1.0
  H  H38  1  0.82122000  0.65732000  0.08886000  1.0
  H  H39  1  0.09162000  0.98893000  0.58397000  1.0
  H  H40  1  0.03002000  0.10875000  0.40289000  1.0
  H  H41  1  0.90201000  0.03886000  0.56832000  1.0
  H  H42  1  0.98631000  0.92677000  0.40828000  1.0
  H  H43  1  0.41411000  0.95268000  0.86966000  1.0
  H  H44  1  0.57718000  0.98729000  0.07461000  1.0
  H  H45  1  0.41176000  0.00525000  0.07457000  1.0
  H  H46  1  0.57512000  0.08473000  0.95791000  1.0
  H  H47  1  0.06622000  0.59512000  0.00090000  1.0
  H  H48  1  0.97966000  0.40415000  0.92899000  1.0
  H  H49  1  0.89043000  0.56594000  0.04508000  1.0
  H  H50  1  0.02300000  0.39180000  0.10508000  1.0
  C  C51  1  0.12670000  0.89415000  0.67249000  1.0
  C  C52  1  0.08185000  0.87340000  0.63970000  1.0
  C  C53  1  0.06728000  0.82151000  0.66406000  1.0
  C  C54  1  0.26041000  0.85360000  0.91825000  1.0
  C  C55  1  0.30071000  0.89144000  0.89713000  1.0
  C  C56  1  0.28284000  0.90036000  0.84284000  1.0
  C  C57  1  0.06238000  0.66169000  0.83040000  1.0
  C  C58  1  0.06791000  0.64453000  0.88520000  1.0
  C  C59  1  0.10192000  0.68662000  0.90967000  1.0
  C  C60  1  0.19995000  0.09183000  0.32543000  1.0
  C  C61  1  0.14694000  0.10478000  0.34849000  1.0
  C  C62  1  0.12592000  0.15015000  0.31687000  1.0
  C  C63  1  0.37334000  0.18175000  0.11823000  1.0
  C  C64  1  0.39226000  0.12519000  0.11922000  1.0
  C  C65  1  0.36074000  0.09972000  0.16088000  1.0
  C  C66  1  0.12352000  0.31341000  0.15668000  1.0
  C  C67  1  0.14660000  0.35140000  0.11876000  1.0
  C  C68  1  0.20471000  0.33687000  0.11718000  1.0
  C  C69  1  0.85706000  0.11249000  0.67056000  1.0
  C  C70  1  0.90887000  0.13484000  0.65232000  1.0
  C  C71  1  0.92263000  0.17711000  0.69072000  1.0
  C  C72  1  0.66809000  0.13282000  0.88031000  1.0
  C  C73  1  0.64123000  0.08771000  0.85275000  1.0
  C  C74  1  0.67401000  0.07976000  0.80577000  1.0
  C  C75  1  0.90101000  0.30710000  0.87669000  1.0
  C  C76  1  0.87584000  0.32670000  0.92495000  1.0
  C  C77  1  0.82611000  0.29413000  0.92964000  1.0
  C  C78  1  0.83237000  0.93992000  0.30077000  1.0
  C  C79  1  0.88151000  0.93013000  0.33283000  1.0
  C  C80  1  0.90564000  0.88086000  0.31048000  1.0
  C  C81  1  0.67918000  0.82704000  0.08630000  1.0
  C  C82  1  0.65002000  0.87908000  0.08949000  1.0
  C  C83  1  0.67788000  0.90829000  0.13208000  1.0
  C  C84  1  0.92212000  0.69327000  0.17678000  1.0
  C  C85  1  0.90404000  0.65379000  0.13718000  1.0
  C  C86  1  0.85078000  0.67436000  0.11916000  1.0
  C  C87  1  0.05457000  0.90105000  0.59344000  1.0
  C  C88  1  0.06248000  0.95510000  0.57279000  1.0
  C  C89  1  0.12028000  0.07658000  0.39396000  1.0
  C  C90  1  0.06591000  0.08203000  0.41457000  1.0
  C  C91  1  0.94205000  0.11703000  0.60593000  1.0
  C  C92  1  0.93449000  0.07144000  0.57104000  1.0
  C  C93  1  0.90245000  0.96357000  0.37837000  1.0
  C  C94  1  0.95191000  0.95757000  0.40916000  1.0
  C  C95  1  0.34904000  0.91460000  0.92691000  1.0
  C  C96  1  0.39778000  0.94201000  0.90956000  1.0
  C  C97  1  0.60302000  0.89717000  0.05470000  1.0
  C  C98  1  0.57359000  0.94806000  0.05168000  1.0
  C  C99  1  0.43074000  0.09927000  0.08079000  1.0
  C  C100  1  0.43442000  0.04353000  0.06349000  1.0
  C  C101  1  0.59263000  0.05580000  0.87163000  1.0
  C  C102  1  0.56754000  0.05840000  0.92228000  1.0
  C  C103  1  0.04328000  0.59521000  0.91086000  1.0
  C  C104  1  0.04525000  0.57784000  0.96485000  1.0
  C  C105  1  0.89624000  0.37103000  0.96111000  1.0
  C  C106  1  0.94541000  0.40300000  0.95823000  1.0
  C  C107  1  0.93547000  0.60487000  0.11816000  1.0
  C  C108  1  0.92506000  0.56855000  0.07478000  1.0
  C  C109  1  0.11723000  0.39471000  0.08714000  1.0
  C  C110  1  0.05989000  0.40845000  0.08425000  1.0
  N  N111  1  0.10092000  0.81238000  0.70840000  1.0
  N  N112  1  0.13784000  0.85742000  0.71352000  1.0
  N  N113  1  0.23531000  0.86983000  0.83244000  1.0
  N  N114  1  0.22155000  0.84081000  0.87918000  1.0
  N  N115  1  0.11556000  0.72601000  0.87214000  1.0
  N  N116  1  0.09105000  0.71060000  0.82297000  1.0
  N  N117  1  0.16372000  0.16320000  0.27784000  1.0
  N  N118  1  0.20960000  0.12699000  0.28311000  1.0
  N  N119  1  0.32525000  0.13843000  0.18285000  1.0
  N  N120  1  0.33291000  0.18925000  0.15621000  1.0
  N  N121  1  0.21526000  0.29329000  0.15166000  1.0
  N  N122  1  0.16490000  0.27877000  0.17617000  1.0
  N  N123  1  0.88186000  0.17953000  0.72904000  1.0
  N  N124  1  0.84115000  0.13950000  0.71647000  1.0
  N  N125  1  0.71737000  0.11739000  0.80570000  1.0
  N  N126  1  0.71359000  0.15027000  0.85191000  1.0
  N  N127  1  0.82208000  0.25785000  0.88713000  1.0
  N  N128  1  0.86849000  0.26587000  0.85429000  1.0
  N  N129  1  0.87314000  0.86264000  0.26815000  1.0
  N  N130  1  0.82776000  0.89933000  0.26212000  1.0
  N  N131  1  0.72065000  0.87593000  0.15262000  1.0
  N  N132  1  0.72140000  0.82562000  0.12418000  1.0
  N  N133  1  0.83820000  0.72267000  0.14603000  1.0
  N  N134  1  0.88244000  0.73443000  0.18170000  1.0
  N  N135  1  0.99267000  0.91031000  0.52571000  1.0
  N  N136  1  0.01162000  0.87575000  0.56289000  1.0
  N  N137  1  0.02389000  0.96053000  0.53071000  1.0
  N  N138  1  0.11542000  0.01569000  0.46182000  1.0
  N  N139  1  0.14851000  0.03562000  0.42460000  1.0
  N  N140  1  0.06329000  0.04405000  0.45679000  1.0
  N  N141  1  0.01398000  0.11966000  0.54918000  1.0
  N  N142  1  0.99109000  0.14498000  0.59040000  1.0
  N  N143  1  0.97923000  0.07351000  0.53569000  1.0
  N  N144  1  0.90099000  0.03243000  0.43909000  1.0
  N  N145  1  0.87305000  0.00988000  0.39860000  1.0
  N  N146  1  0.95057000  0.00038000  0.44688000  1.0
  N  N147  1  0.39875000  0.93315000  0.00124000  1.0
  N  N148  1  0.35200000  0.91041000  0.98325000  1.0
  N  N149  1  0.42820000  0.95342000  0.95637000  1.0
  N  N150  1  0.53956000  0.88688000  0.98853000  1.0
  N  N151  1  0.58030000  0.86145000  0.01515000  1.0
  N  N152  1  0.53396000  0.94091000  0.01054000  1.0
  N  N153  1  0.49325000  0.09890000  0.01487000  1.0
  N  N154  1  0.46788000  0.13103000  0.04993000  1.0
  N  N155  1  0.47330000  0.04371000  0.02218000  1.0
  N  N156  1  0.52321000  0.99323000  0.86946000  1.0
  N  N157  1  0.56365000  0.01554000  0.84100000  1.0
  N  N158  1  0.52404000  0.01973000  0.92056000  1.0
  N  N159  1  0.99286000  0.51680000  0.91431000  1.0
  N  N160  1  0.01086000  0.55617000  0.88202000  1.0
  N  N161  1  0.01365000  0.52917000  0.96664000  1.0
  N  N162  1  0.89378000  0.42981000  0.03098000  1.0
  N  N163  1  0.86646000  0.38930000  0.00631000  1.0
  N  N164  1  0.94347000  0.43956000  0.00160000  1.0
  N  N165  1  0.00793000  0.54538000  0.11724000  1.0
  N  N166  1  0.98650000  0.58843000  0.14258000  1.0
  N  N167  1  0.97017000  0.53140000  0.07463000  1.0
  N  N168  1  0.10965000  0.46393000  0.02711000  1.0
  N  N169  1  0.14542000  0.43005000  0.05137000  1.0
  N  N170  1  0.05560000  0.45137000  0.04673000  1.0
