# generated using pymatgen
data_Cu2H24C19(NO)6
_symmetry_space_group_name_H-M   'P 1'
_cell_length_a   13.31910000
_cell_length_b   13.95740000
_cell_length_c   16.31960000
_cell_angle_alpha   90.00000000
_cell_angle_beta   89.99990000
_cell_angle_gamma   89.99970000
_symmetry_Int_Tables_number   1
_chemical_formula_structural   Cu2H24C19(NO)6
_chemical_formula_sum   'Cu8 H96 C76 N24 O24'
_cell_volume   3033.81374342
_cell_formula_units_Z   4
loop_
 _symmetry_equiv_pos_site_id
 _symmetry_equiv_pos_as_xyz
  1  'x, y, z'
loop_
 _atom_site_type_symbol
 _atom_site_label
 _atom_site_symmetry_multiplicity
 _atom_site_fract_x
 _atom_site_fract_y
 _atom_site_fract_z
 _atom_site_occupancy
  Cu  Cu0  1  0.93880000  0.53011000  0.08896000  1.0
  Cu  Cu1  1  0.56119000  0.46989000  0.58897000  1.0
  Cu  Cu2  1  0.43881000  0.96988000  0.91104000  1.0
  Cu  Cu3  1  0.06120000  0.03012000  0.41104000  1.0
  Cu  Cu4  1  0.21646000  0.79057000  0.15521000  1.0
  Cu  Cu5  1  0.28354000  0.20943000  0.65522000  1.0
  Cu  Cu6  1  0.71647000  0.70942000  0.84479000  1.0
  Cu  Cu7  1  0.78354000  0.29058000  0.34479000  1.0
  H  H8  1  0.21616000  0.87182000  0.32437000  1.0
  H  H9  1  0.28384000  0.12818000  0.82438000  1.0
  H  H10  1  0.71616000  0.62819000  0.67563000  1.0
  H  H11  1  0.78385000  0.37182000  0.17563000  1.0
  H  H12  1  0.63557000  0.45201000  0.41864000  1.0
  H  H13  1  0.86443000  0.54799000  0.91863000  1.0
  H  H14  1  0.13559000  0.04799000  0.58136000  1.0
  H  H15  1  0.36441000  0.95201000  0.08136000  1.0
  H  H16  1  0.14927000  0.75177000  0.93502000  1.0
  H  H17  1  0.35072000  0.24825000  0.43502000  1.0
  H  H18  1  0.64926000  0.74822000  0.06499000  1.0
  H  H19  1  0.85073000  0.25177000  0.56499000  1.0
  H  H20  1  0.99403000  0.84397000  0.97606000  1.0
  H  H21  1  0.50597000  0.15604000  0.47606000  1.0
  H  H22  1  0.49405000  0.65600000  0.02393000  1.0
  H  H23  1  0.00595000  0.34400000  0.52394000  1.0
  H  H24  1  0.08000000  0.91858000  0.92090000  1.0
  H  H25  1  0.42000000  0.08144000  0.42090000  1.0
  H  H26  1  0.58002000  0.58139000  0.07908000  1.0
  H  H27  1  0.91998000  0.41860000  0.57909000  1.0
  H  H28  1  0.07092000  0.92702000  0.03029000  1.0
  H  H29  1  0.42908000  0.07299000  0.53029000  1.0
  H  H30  1  0.57094000  0.57297000  0.96969000  1.0
  H  H31  1  0.92906000  0.42702000  0.46970000  1.0
  H  H32  1  0.60112000  0.78082000  0.31230000  1.0
  H  H33  1  0.89888000  0.21918000  0.81230000  1.0
  H  H34  1  0.10111000  0.71919000  0.68769000  1.0
  H  H35  1  0.39889000  0.28081000  0.18769000  1.0
  H  H36  1  0.56750000  0.82476000  0.40925000  1.0
  H  H37  1  0.93249000  0.17524000  0.90925000  1.0
  H  H38  1  0.06750000  0.67525000  0.59074000  1.0
  H  H39  1  0.43250000  0.32474000  0.09074000  1.0
  H  H40  1  0.53945000  0.67775000  0.61087000  1.0
  H  H41  1  0.96053000  0.32224000  0.11086000  1.0
  H  H42  1  0.03945000  0.82226000  0.38913000  1.0
  H  H43  1  0.46054000  0.17774000  0.88913000  1.0
  H  H44  1  0.43188000  0.71047000  0.55304000  1.0
  H  H45  1  0.06812000  0.28954000  0.05305000  1.0
  H  H46  1  0.93187000  0.78955000  0.44696000  1.0
  H  H47  1  0.56813000  0.21045000  0.94696000  1.0
  H  H48  1  0.54198000  0.78109000  0.54733000  1.0
  H  H49  1  0.95802000  0.21891000  0.04732000  1.0
  H  H50  1  0.04198000  0.71893000  0.45267000  1.0
  H  H51  1  0.45802000  0.28107000  0.95267000  1.0
  H  H52  1  0.42989000  0.75972000  0.12200000  1.0
  H  H53  1  0.07009000  0.24026000  0.62200000  1.0
  H  H54  1  0.92990000  0.74027000  0.87799000  1.0
  H  H55  1  0.57011000  0.25973000  0.37799000  1.0
  H  H56  1  0.45737000  0.65443000  0.17930000  1.0
  H  H57  1  0.04262000  0.34556000  0.67930000  1.0
  H  H58  1  0.95737000  0.84557000  0.82070000  1.0
  H  H59  1  0.54263000  0.15443000  0.32070000  1.0
  H  H60  1  0.54208000  0.75216000  0.18030000  1.0
  H  H61  1  0.95791000  0.24784000  0.68031000  1.0
  H  H62  1  0.04208000  0.74784000  0.81968000  1.0
  H  H63  1  0.45792000  0.25216000  0.31969000  1.0
  H  H64  1  0.29828000  0.93175000  0.45831000  1.0
  H  H65  1  0.20171000  0.06825000  0.95831000  1.0
  H  H66  1  0.79828000  0.56826000  0.54168000  1.0
  H  H67  1  0.70171000  0.43174000  0.04168000  1.0
  H  H68  1  0.42052000  0.89047000  0.48443000  1.0
  H  H69  1  0.07947000  0.10953000  0.98443000  1.0
  H  H70  1  0.92052000  0.60953000  0.51556000  1.0
  H  H71  1  0.57948000  0.39046000  0.01556000  1.0
  H  H72  1  0.31488000  0.81463000  0.49825000  1.0
  H  H73  1  0.18511000  0.18536000  0.99826000  1.0
  H  H74  1  0.81488000  0.68537000  0.50174000  1.0
  H  H75  1  0.68513000  0.31464000  0.00174000  1.0
  H  H76  1  0.69122000  0.51330000  0.27491000  1.0
  H  H77  1  0.80878000  0.48669000  0.77490000  1.0
  H  H78  1  0.19122000  0.98669000  0.72510000  1.0
  H  H79  1  0.30879000  0.01331000  0.22510000  1.0
  H  H80  1  0.65875000  0.63141000  0.24434000  1.0
  H  H81  1  0.84126000  0.36858000  0.74433000  1.0
  H  H82  1  0.15875000  0.86857000  0.75566000  1.0
  H  H83  1  0.34127000  0.13142000  0.25566000  1.0
  H  H84  1  0.56795000  0.53860000  0.24023000  1.0
  H  H85  1  0.93206000  0.46140000  0.74022000  1.0
  H  H86  1  0.06794000  0.96139000  0.75977000  1.0
  H  H87  1  0.43207000  0.03861000  0.25977000  1.0
  H  H88  1  0.03287000  0.54442000  0.30170000  1.0
  H  H89  1  0.46714000  0.45558000  0.80171000  1.0
  H  H90  1  0.53287000  0.95560000  0.69831000  1.0
  H  H91  1  0.96713000  0.04441000  0.19831000  1.0
  H  H92  1  0.95225000  0.70519000  0.31341000  1.0
  H  H93  1  0.54775000  0.29481000  0.81342000  1.0
  H  H94  1  0.45226000  0.79482000  0.68659000  1.0
  H  H95  1  0.04774000  0.20519000  0.18659000  1.0
  H  H96  1  0.87943000  0.61620000  0.36570000  1.0
  H  H97  1  0.62058000  0.38379000  0.86569000  1.0
  H  H98  1  0.37945000  0.88380000  0.63430000  1.0
  H  H99  1  0.12055000  0.11620000  0.13430000  1.0
  H  H100  1  0.84038000  0.65969000  0.26786000  1.0
  H  H101  1  0.65962000  0.34030000  0.76787000  1.0
  H  H102  1  0.34038000  0.84031000  0.73213000  1.0
  H  H103  1  0.15962000  0.15970000  0.23213000  1.0
  C  C104  1  0.07453000  0.67954000  0.07720000  1.0
  C  C105  1  0.42547000  0.32047000  0.57720000  1.0
  C  C106  1  0.57453000  0.82046000  0.92281000  1.0
  C  C107  1  0.92547000  0.17954000  0.42282000  1.0
  C  C108  1  0.44350000  0.79101000  0.33160000  1.0
  C  C109  1  0.05650000  0.20899000  0.83161000  1.0
  C  C110  1  0.94350000  0.70900000  0.66838000  1.0
  C  C111  1  0.55651000  0.29100000  0.16839000  1.0
  C  C112  1  0.06770000  0.65504000  0.16727000  1.0
  C  C113  1  0.43229000  0.34497000  0.66729000  1.0
  C  C114  1  0.56770000  0.84495000  0.83273000  1.0
  C  C115  1  0.93230000  0.15505000  0.33273000  1.0
  C  C116  1  0.90317000  0.47181000  0.25450000  1.0
  C  C117  1  0.59684000  0.52819000  0.75451000  1.0
  C  C118  1  0.40316000  0.02819000  0.74551000  1.0
  C  C119  1  0.09684000  0.97181000  0.24550000  1.0
  C  C120  1  0.25261000  0.85114000  0.99143000  1.0
  C  C121  1  0.24738000  0.14887000  0.49144000  1.0
  C  C122  1  0.75263000  0.64886000  0.00857000  1.0
  C  C123  1  0.74737000  0.35114000  0.50857000  1.0
  C  C124  1  0.15012000  0.80119000  0.98763000  1.0
  C  C125  1  0.34987000  0.19882000  0.48763000  1.0
  C  C126  1  0.65013000  0.69881000  0.01237000  1.0
  C  C127  1  0.84987000  0.30119000  0.51237000  1.0
  C  C128  1  0.06814000  0.87807000  0.97768000  1.0
  C  C129  1  0.43186000  0.12194000  0.47768000  1.0
  C  C130  1  0.56816000  0.62191000  0.02231000  1.0
  C  C131  1  0.93184000  0.37808000  0.52231000  1.0
  C  C132  1  0.54772000  0.77035000  0.36306000  1.0
  C  C133  1  0.95227000  0.22964000  0.86306000  1.0
  C  C134  1  0.04772000  0.72965000  0.63693000  1.0
  C  C135  1  0.45228000  0.27035000  0.13693000  1.0
  C  C136  1  0.40876000  0.77472000  0.25087000  1.0
  C  C137  1  0.09124000  0.22528000  0.75088000  1.0
  C  C138  1  0.90876000  0.72529000  0.74911000  1.0
  C  C139  1  0.59124000  0.27471000  0.24912000  1.0
  C  C140  1  0.36184000  0.83236000  0.37290000  1.0
  C  C141  1  0.13816000  0.16764000  0.87291000  1.0
  C  C142  1  0.86184000  0.66764000  0.62709000  1.0
  C  C143  1  0.63817000  0.33235000  0.12709000  1.0
  C  C144  1  0.56514000  0.67267000  0.39991000  1.0
  C  C145  1  0.93486000  0.32733000  0.89991000  1.0
  C  C146  1  0.06514000  0.82734000  0.60009000  1.0
  C  C147  1  0.43486000  0.17266000  0.10009000  1.0
  C  C148  1  0.55115000  0.64742000  0.48306000  1.0
  C  C149  1  0.94885000  0.35258000  0.98306000  1.0
  C  C150  1  0.05116000  0.85259000  0.51693000  1.0
  C  C151  1  0.44884000  0.14741000  0.01694000  1.0
  C  C152  1  0.60093000  0.58918000  0.36187000  1.0
  C  C153  1  0.89907000  0.41082000  0.86186000  1.0
  C  C154  1  0.10094000  0.91083000  0.63813000  1.0
  C  C155  1  0.39906000  0.08917000  0.13813000  1.0
  C  C156  1  0.51431000  0.70724000  0.55215000  1.0
  C  C157  1  0.98569000  0.29276000  0.05215000  1.0
  C  C158  1  0.01431000  0.79279000  0.44784000  1.0
  C  C159  1  0.48569000  0.20722000  0.94784000  1.0
  C  C160  1  0.46220000  0.73302000  0.17941000  1.0
  C  C161  1  0.03780000  0.26697000  0.67941000  1.0
  C  C162  1  0.96220000  0.76698000  0.82058000  1.0
  C  C163  1  0.53780000  0.23302000  0.32058000  1.0
  C  C164  1  0.34828000  0.86918000  0.45789000  1.0
  C  C165  1  0.15171000  0.13081000  0.95789000  1.0
  C  C166  1  0.84828000  0.63082000  0.54211000  1.0
  C  C167  1  0.65172000  0.36918000  0.04211000  1.0
  C  C168  1  0.63130000  0.56723000  0.27599000  1.0
  C  C169  1  0.86870000  0.43276000  0.77598000  1.0
  C  C170  1  0.13130000  0.93276000  0.72402000  1.0
  C  C171  1  0.36871000  0.06724000  0.22402000  1.0
  C  C172  1  0.96712000  0.56234000  0.26349000  1.0
  C  C173  1  0.53289000  0.43766000  0.76350000  1.0
  C  C174  1  0.46712000  0.93766000  0.73652000  1.0
  C  C175  1  0.03288000  0.06234000  0.23652000  1.0
  C  C176  1  0.90569000  0.64119000  0.30573000  1.0
  C  C177  1  0.59432000  0.35880000  0.80573000  1.0
  C  C178  1  0.40569000  0.85881000  0.69427000  1.0
  C  C179  1  0.09431000  0.14119000  0.19427000  1.0
  N  N180  1  0.31269000  0.80368000  0.24420000  1.0
  N  N181  1  0.18731000  0.19632000  0.74421000  1.0
  N  N182  1  0.81269000  0.69633000  0.75579000  1.0
  N  N183  1  0.68732000  0.30367000  0.25579000  1.0
  N  N184  1  0.57632000  0.55486000  0.49443000  1.0
  N  N185  1  0.92368000  0.44514000  0.99442000  1.0
  N  N186  1  0.07633000  0.94515000  0.50557000  1.0
  N  N187  1  0.42367000  0.05485000  0.00557000  1.0
  N  N188  1  0.28535000  0.83697000  0.31859000  1.0
  N  N189  1  0.21465000  0.16303000  0.81860000  1.0
  N  N190  1  0.78535000  0.66304000  0.68140000  1.0
  N  N191  1  0.71466000  0.33697000  0.18140000  1.0
  N  N192  1  0.60506000  0.52087000  0.42057000  1.0
  N  N193  1  0.89493000  0.47912000  0.92056000  1.0
  N  N194  1  0.10508000  0.97913000  0.57944000  1.0
  N  N195  1  0.39492000  0.02087000  0.07944000  1.0
  N  N196  1  0.99774000  0.59166000  0.18238000  1.0
  N  N197  1  0.50225000  0.40834000  0.68238000  1.0
  N  N198  1  0.49775000  0.90833000  0.81763000  1.0
  N  N199  1  0.00225000  0.09167000  0.31764000  1.0
  N  N200  1  0.13634000  0.75088000  0.06407000  1.0
  N  N201  1  0.36366000  0.24913000  0.56409000  1.0
  N  N202  1  0.63634000  0.74912000  0.93592000  1.0
  N  N203  1  0.86366000  0.25088000  0.43592000  1.0
  O  O204  1  0.29649000  0.85212000  0.06277000  1.0
  O  O205  1  0.20350000  0.14787000  0.56278000  1.0
  O  O206  1  0.79652000  0.64787000  0.93723000  1.0
  O  O207  1  0.70348000  0.35213000  0.43723000  1.0
  O  O208  1  0.02043000  0.63411000  0.02550000  1.0
  O  O209  1  0.47957000  0.36590000  0.52551000  1.0
  O  O210  1  0.52043000  0.86589000  0.97451000  1.0
  O  O211  1  0.97957000  0.13411000  0.47451000  1.0
  O  O212  1  0.12445000  0.69802000  0.21885000  1.0
  O  O213  1  0.37554000  0.30198000  0.71886000  1.0
  O  O214  1  0.62444000  0.80198000  0.78114000  1.0
  O  O215  1  0.87556000  0.19802000  0.28114000  1.0
  O  O216  1  0.88497000  0.44287000  0.18015000  1.0
  O  O217  1  0.61504000  0.55712000  0.68015000  1.0
  O  O218  1  0.38496000  0.05712000  0.81987000  1.0
  O  O219  1  0.11504000  0.94288000  0.31987000  1.0
  O  O220  1  0.28644000  0.89091000  0.92873000  1.0
  O  O221  1  0.21355000  0.10910000  0.42874000  1.0
  O  O222  1  0.78646000  0.60911000  0.07127000  1.0
  O  O223  1  0.71353000  0.39089000  0.57127000  1.0
  O  O224  1  0.86975000  0.43215000  0.31739000  1.0
  O  O225  1  0.63028000  0.56784000  0.81737000  1.0
  O  O226  1  0.36974000  0.06786000  0.68264000  1.0
  O  O227  1  0.13025000  0.93216000  0.18264000  1.0
