# generated using pymatgen
data_NiH12C14(NO2)2
_symmetry_space_group_name_H-M   'P 1'
_cell_length_a   4.48094000
_cell_length_b   8.63724000
_cell_length_c   15.16170000
_cell_angle_alpha   105.23300000
_cell_angle_beta   89.99990000
_cell_angle_gamma   90.00000000
_symmetry_Int_Tables_number   1
_chemical_formula_structural   NiH12C14(NO2)2
_chemical_formula_sum   'Ni2 H24 C28 N4 O8'
_cell_volume   566.18546240
_cell_formula_units_Z   2
loop_
 _symmetry_equiv_pos_site_id
 _symmetry_equiv_pos_as_xyz
  1  'x, y, z'
loop_
 _atom_site_type_symbol
 _atom_site_label
 _atom_site_symmetry_multiplicity
 _atom_site_fract_x
 _atom_site_fract_y
 _atom_site_fract_z
 _atom_site_occupancy
  Ni  Ni0  1  0.00000000  0.00000000  0.50000000  1.0
  Ni  Ni1  1  0.50000000  0.50000000  0.00000000  1.0
  H  H2  1  0.38667000  0.77399000  0.44587000  1.0
  H  H3  1  0.88668000  0.72601000  0.05413000  1.0
  H  H4  1  0.61332000  0.22601000  0.55413000  1.0
  H  H5  1  0.11332000  0.27399000  0.94587000  1.0
  H  H6  1  0.15391000  0.73608000  0.52212000  1.0
  H  H7  1  0.65392000  0.76392000  0.97788000  1.0
  H  H8  1  0.84608000  0.26392000  0.47788000  1.0
  H  H9  1  0.34608000  0.23608000  0.02211000  1.0
  H  H10  1  0.25275000  0.69272000  0.27827000  1.0
  H  H11  1  0.75275000  0.80728000  0.22173000  1.0
  H  H12  1  0.74724000  0.30728000  0.72173000  1.0
  H  H13  1  0.24724000  0.19272000  0.77827000  1.0
  H  H14  1  0.58659000  0.32355000  0.20604000  1.0
  H  H15  1  0.08659000  0.17646000  0.29396000  1.0
  H  H16  1  0.41341000  0.67645000  0.79396000  1.0
  H  H17  1  0.91341000  0.82354000  0.70604000  1.0
  H  H18  1  0.47454000  0.35647000  0.37072000  1.0
  H  H19  1  0.97454000  0.14353000  0.12928000  1.0
  H  H20  1  0.52547000  0.64353000  0.62928000  1.0
  H  H21  1  0.02546000  0.85647000  0.87072000  1.0
  H  H22  1  0.74417000  0.56502000  0.48967000  1.0
  H  H23  1  0.24418000  0.93499000  0.01032000  1.0
  H  H24  1  0.25583000  0.43499000  0.51033000  1.0
  H  H25  1  0.75582000  0.06501000  0.98967000  1.0
  C  C26  1  0.01447000  0.64281000  0.39188000  1.0
  C  C27  1  0.51448000  0.85719000  0.10812000  1.0
  C  C28  1  0.98553000  0.35719000  0.60812000  1.0
  C  C29  1  0.48552000  0.14281000  0.89188000  1.0
  C  C30  1  0.08089000  0.62102000  0.29944000  1.0
  C  C31  1  0.58089000  0.87898000  0.20056000  1.0
  C  C32  1  0.91911000  0.37898000  0.70056000  1.0
  C  C33  1  0.41911000  0.12102000  0.79944000  1.0
  C  C34  1  0.92640000  0.50633000  0.23273000  1.0
  C  C35  1  0.42640000  0.99367000  0.26728000  1.0
  C  C36  1  0.07360000  0.49367000  0.76728000  1.0
  C  C37  1  0.57360000  0.00633000  0.73272000  1.0
  C  C38  1  0.70639000  0.41175000  0.25842000  1.0
  C  C39  1  0.20640000  0.08825000  0.24158000  1.0
  C  C40  1  0.29361000  0.58825000  0.74158000  1.0
  C  C41  1  0.79360000  0.91175000  0.75841000  1.0
  C  C42  1  0.64354000  0.43154000  0.35068000  1.0
  C  C43  1  0.14355000  0.06846000  0.14932000  1.0
  C  C44  1  0.35646000  0.56846000  0.64932000  1.0
  C  C45  1  0.85645000  0.93154000  0.85068000  1.0
  C  C46  1  0.79447000  0.54740000  0.41734000  1.0
  C  C47  1  0.29448000  0.95260000  0.08266000  1.0
  C  C48  1  0.20553000  0.45260000  0.58266000  1.0
  C  C49  1  0.70553000  0.04740000  0.91734000  1.0
  C  C50  1  0.00210000  0.48170000  0.13351000  1.0
  C  C51  1  0.50211000  0.01830000  0.36649000  1.0
  C  C52  1  0.99789000  0.51830000  0.86649000  1.0
  C  C53  1  0.49790000  0.98171000  0.63351000  1.0
  N  N54  1  0.16574000  0.76104000  0.45997000  1.0
  N  N55  1  0.66575000  0.73896000  0.04003000  1.0
  N  N56  1  0.83426000  0.23896000  0.54003000  1.0
  N  N57  1  0.33425000  0.26104000  0.95997000  1.0
  O  O58  1  0.24174000  0.54824000  0.11643000  1.0
  O  O59  1  0.74174000  0.95176000  0.38358000  1.0
  O  O60  1  0.75825000  0.45176000  0.88357000  1.0
  O  O61  1  0.25827000  0.04825000  0.61642000  1.0
  O  O62  1  0.82888000  0.39469000  0.07345000  1.0
  O  O63  1  0.32888000  0.10531000  0.42655000  1.0
  O  O64  1  0.17111000  0.60531000  0.92655000  1.0
  O  O65  1  0.67112000  0.89469000  0.57345000  1.0
