# generated using pymatgen
data_Si2NiH70C30S2(NO3)2
_symmetry_space_group_name_H-M   'P 1'
_cell_length_a   8.67369000
_cell_length_b   9.24602000
_cell_length_c   14.14390000
_cell_angle_alpha   99.70370000
_cell_angle_beta   103.16400000
_cell_angle_gamma   103.05100000
_symmetry_Int_Tables_number   1
_chemical_formula_structural   Si2NiH70C30S2(NO3)2
_chemical_formula_sum   'Si2 Ni1 H70 C30 S2 N2 O6'
_cell_volume   1046.63022823
_cell_formula_units_Z   1
loop_
 _symmetry_equiv_pos_site_id
 _symmetry_equiv_pos_as_xyz
  1  'x, y, z'
loop_
 _atom_site_type_symbol
 _atom_site_label
 _atom_site_symmetry_multiplicity
 _atom_site_fract_x
 _atom_site_fract_y
 _atom_site_fract_z
 _atom_site_occupancy
  Si  Si0  1  0.32176000  0.48191000  0.75680000  1.0
  Si  Si1  1  0.67824000  0.51809000  0.24320000  1.0
  Ni  Ni2  1  0.50000000  0.50000000  0.00000000  1.0
  H  H3  1  0.25071000  0.35396000  0.02692000  1.0
  H  H4  1  0.74929000  0.64604000  0.97308000  1.0
  H  H5  1  0.23393000  0.33028000  0.90461000  1.0
  H  H6  1  0.76607000  0.66972000  0.09539000  1.0
  H  H7  1  0.50797000  0.32815000  0.54970000  1.0
  H  H8  1  0.49203000  0.67185000  0.45029000  1.0
  H  H9  1  0.43382000  0.12762000  0.53632000  1.0
  H  H10  1  0.56618000  0.87238000  0.46368000  1.0
  H  H11  1  0.51656000  0.25182000  0.65790000  1.0
  H  H12  1  0.48344000  0.74819000  0.34210000  1.0
  H  H13  1  0.05063000  0.26729000  0.47762000  1.0
  H  H14  1  0.94936000  0.73270000  0.52238000  1.0
  H  H15  1  0.15009000  0.13688000  0.42679000  1.0
  H  H16  1  0.84991000  0.86312000  0.57322000  1.0
  H  H17  1  0.23382000  0.33730000  0.44384000  1.0
  H  H18  1  0.76617000  0.66269000  0.55616000  1.0
  H  H19  1  0.25259000  0.14651000  0.70315000  1.0
  H  H20  1  0.74741000  0.85349000  0.29685000  1.0
  H  H21  1  0.16614000  0.02321000  0.58201000  1.0
  H  H22  1  0.83386000  0.97679000  0.41799000  1.0
  H  H23  1  0.06005000  0.15146000  0.62741000  1.0
  H  H24  1  0.93996000  0.84854000  0.37259000  1.0
  H  H25  1  0.27520000  0.63566000  0.56786000  1.0
  H  H26  1  0.72480000  0.36434000  0.43214000  1.0
  H  H27  1  0.35629000  0.83351000  0.57336000  1.0
  H  H28  1  0.64371000  0.16649000  0.42664000  1.0
  H  H29  1  0.18561000  0.77326000  0.62111000  1.0
  H  H30  1  0.81439000  0.22674000  0.37889000  1.0
  H  H31  1  0.32948000  0.94749000  0.78855000  1.0
  H  H32  1  0.67053000  0.05251000  0.21145000  1.0
  H  H33  1  0.50052000  0.01863000  0.74371000  1.0
  H  H34  1  0.49948000  0.98136000  0.25630000  1.0
  H  H35  1  0.53087000  0.94720000  0.85359000  1.0
  H  H36  1  0.46914000  0.05279000  0.14641000  1.0
  H  H37  1  0.66121000  0.74694000  0.78086000  1.0
  H  H38  1  0.33879000  0.25306000  0.21914000  1.0
  H  H39  1  0.64669000  0.82994000  0.67526000  1.0
  H  H40  1  0.35331000  0.17006000  0.32474000  1.0
  H  H41  1  0.56221000  0.63016000  0.65886000  1.0
  H  H42  1  0.43779000  0.36984000  0.34114000  1.0
  H  H43  1  0.06183000  0.57074000  0.93198000  1.0
  H  H44  1  0.93816000  0.42927000  0.06802000  1.0
  H  H45  1  0.88669000  0.59595000  0.84806000  1.0
  H  H46  1  0.11331000  0.40405000  0.15194000  1.0
  H  H47  1  0.09043000  0.67801000  0.84081000  1.0
  H  H48  1  0.90957000  0.32199000  0.15919000  1.0
  H  H49  1  0.88348000  0.18896000  0.75121000  1.0
  H  H50  1  0.11652000  0.81104000  0.24879000  1.0
  H  H51  1  0.76415000  0.30608000  0.79539000  1.0
  H  H52  1  0.23585000  0.69392000  0.20461000  1.0
  H  H53  1  0.93906000  0.28500000  0.87950000  1.0
  H  H54  1  0.06094000  0.71501000  0.12050000  1.0
  H  H55  1  0.00821000  0.54125000  0.65622000  1.0
  H  H56  1  0.99180000  0.45876000  0.34378000  1.0
  H  H57  1  0.80554000  0.46365000  0.66462000  1.0
  H  H58  1  0.19447000  0.53635000  0.33538000  1.0
  H  H59  1  0.91694000  0.34040000  0.61993000  1.0
  H  H60  1  0.08307000  0.65960000  0.38007000  1.0
  H  H61  1  0.42288000  0.18935000  0.04759000  1.0
  H  H62  1  0.57712000  0.81065000  0.95241000  1.0
  H  H63  1  0.41664000  0.16570000  0.91972000  1.0
  H  H64  1  0.58336000  0.83430000  0.08027000  1.0
  H  H65  1  0.11717000  0.03836000  0.86787000  1.0
  H  H66  1  0.88283000  0.96164000  0.13213000  1.0
  H  H67  1  0.22415000  0.94192000  0.94589000  1.0
  H  H68  1  0.77584000  0.05807000  0.05411000  1.0
  H  H69  1  0.04374000  0.17297000  0.01580000  1.0
  H  H70  1  0.95626000  0.82703000  0.98419000  1.0
  H  H71  1  0.14834000  0.07317000  0.09200000  1.0
  H  H72  1  0.85165000  0.92684000  0.90799000  1.0
  C  C73  1  0.27225000  0.25846000  0.58121000  1.0
  C  C74  1  0.72774000  0.74154000  0.41879000  1.0
  C  C75  1  0.44326000  0.24025000  0.58129000  1.0
  C  C76  1  0.55674000  0.75975000  0.41871000  1.0
  C  C77  1  0.17069000  0.24914000  0.47576000  1.0
  C  C78  1  0.82931000  0.75086000  0.52424000  1.0
  C  C79  1  0.18212000  0.13774000  0.62638000  1.0
  C  C80  1  0.81789000  0.86226000  0.37362000  1.0
  C  C81  1  0.41822000  0.77098000  0.71592000  1.0
  C  C82  1  0.58178000  0.22902000  0.28408000  1.0
  C  C83  1  0.30175000  0.75178000  0.61282000  1.0
  C  C84  1  0.69825000  0.24822000  0.38718000  1.0
  C  C85  1  0.44687000  0.93068000  0.77933000  1.0
  C  C86  1  0.55314000  0.06932000  0.22067000  1.0
  C  C87  1  0.58201000  0.74262000  0.70729000  1.0
  C  C88  1  0.41799000  0.25738000  0.29272000  1.0
  C  C89  1  0.99695000  0.43326000  0.78075000  1.0
  C  C90  1  0.00305000  0.56674000  0.21926000  1.0
  C  C91  1  0.00995000  0.57911000  0.85518000  1.0
  C  C92  1  0.99005000  0.42089000  0.14482000  1.0
  C  C93  1  0.88940000  0.29458000  0.80273000  1.0
  C  C94  1  0.11060000  0.70542000  0.19727000  1.0
  C  C95  1  0.92831000  0.44536000  0.67377000  1.0
  C  C96  1  0.07169000  0.55464000  0.32623000  1.0
  C  C97  1  0.34404000  0.18079000  0.97295000  1.0
  C  C98  1  0.65596000  0.81921000  0.02705000  1.0
  C  C99  1  0.18798000  0.04875000  0.94535000  1.0
  C  C100  1  0.81202000  0.95125000  0.05465000  1.0
  C  C101  1  0.07849000  0.06533000  0.01477000  1.0
  C  C102  1  0.92150000  0.93468000  0.98523000  1.0
  S  S103  1  0.52177000  0.42847000  0.84462000  1.0
  S  S104  1  0.47823000  0.57153000  0.15538000  1.0
  N  N105  1  0.30851000  0.32987000  0.97301000  1.0
  N  N106  1  0.69149000  0.67013000  0.02699000  1.0
  O  O107  1  0.29199000  0.41131000  0.63675000  1.0
  O  O108  1  0.70801000  0.58869000  0.36325000  1.0
  O  O109  1  0.33729000  0.66563000  0.76687000  1.0
  O  O110  1  0.66271000  0.33437000  0.23313000  1.0
  O  O111  1  0.16024000  0.40913000  0.79536000  1.0
  O  O112  1  0.83976000  0.59087000  0.20465000  1.0
