# generated using pymatgen
data_NdH16C12N3O11
_symmetry_space_group_name_H-M   'P 1'
_cell_length_a   8.68373000
_cell_length_b   9.15241000
_cell_length_c   12.56102660
_cell_angle_alpha   103.41331438
_cell_angle_beta   97.60474024
_cell_angle_gamma   115.94400000
_symmetry_Int_Tables_number   1
_chemical_formula_structural   NdH16C12N3O11
_chemical_formula_sum   'Nd2 H32 C24 N6 O22'
_cell_volume   841.43891896
_cell_formula_units_Z   2
loop_
 _symmetry_equiv_pos_site_id
 _symmetry_equiv_pos_as_xyz
  1  'x, y, z'
loop_
 _atom_site_type_symbol
 _atom_site_label
 _atom_site_symmetry_multiplicity
 _atom_site_fract_x
 _atom_site_fract_y
 _atom_site_fract_z
 _atom_site_occupancy
  Nd  Nd0  1  0.03656000  0.29645000  0.00924000  1.0
  Nd  Nd1  1  0.96299000  0.70332000  0.99088000  1.0
  H  H2  1  0.68186000  0.08101000  0.88759000  1.0
  H  H3  1  0.31852000  0.91901000  0.11239000  1.0
  H  H4  1  0.64769000  0.09377000  0.00914000  1.0
  H  H5  1  0.34996000  0.90408000  0.99017000  1.0
  H  H6  1  0.33385000  0.32543000  0.17646000  1.0
  H  H7  1  0.66607000  0.67450000  0.82348000  1.0
  H  H8  1  0.29409000  0.16653000  0.07298000  1.0
  H  H9  1  0.70586000  0.83349000  0.92693000  1.0
  H  H10  1  0.73272000  0.17421000  0.60641000  1.0
  H  H11  1  0.26721000  0.82580000  0.39354000  1.0
  H  H12  1  0.54487000  0.06839000  0.65200000  1.0
  H  H13  1  0.45510000  0.93166000  0.34800000  1.0
  H  H14  1  0.44134000  0.16779000  0.51855000  1.0
  H  H15  1  0.55859000  0.83219000  0.48139000  1.0
  H  H16  1  0.48358000  0.32481000  0.64987000  1.0
  H  H17  1  0.51632000  0.67517000  0.35007000  1.0
  H  H18  1  0.88684000  0.33770000  0.30495000  1.0
  H  H19  1  0.11315000  0.66229000  0.69506000  1.0
  H  H20  1  0.98513000  0.55856000  0.31683000  1.0
  H  H21  1  0.01490000  0.44142000  0.68317000  1.0
  H  H22  1  0.62633000  0.45658000  0.24410000  1.0
  H  H23  1  0.37358000  0.54325000  0.75591000  1.0
  H  H24  1  0.62607000  0.26501000  0.17366000  1.0
  H  H25  1  0.37406000  0.73500000  0.82622000  1.0
  H  H26  1  0.87200000  0.94163000  0.55519000  1.0
  H  H27  1  0.12813000  0.05843000  0.44490000  1.0
  H  H28  1  0.76569000  0.88796000  0.66362000  1.0
  H  H29  1  0.23440000  0.11205000  0.33644000  1.0
  H  H30  1  0.10174000  0.11633000  0.72352000  1.0
  H  H31  1  0.89839000  0.88360000  0.27654000  1.0
  H  H32  1  0.14198000  0.94065000  0.67085000  1.0
  H  H33  1  0.85805000  0.05921000  0.32920000  1.0
  C  C34  1  0.75106000  0.30170000  0.77599000  1.0
  C  C35  1  0.24893000  0.69842000  0.22395000  1.0
  C  C36  1  0.64256000  0.19657000  0.65367000  1.0
  C  C37  1  0.35738000  0.80347000  0.34628000  1.0
  C  C38  1  0.54452000  0.27029000  0.59349000  1.0
  C  C39  1  0.45539000  0.72970000  0.40645000  1.0
  C  C40  1  0.71210000  0.35926000  0.45702000  1.0
  C  C41  1  0.28788000  0.64075000  0.54296000  1.0
  C  C42  1  0.87717000  0.66407000  0.47453000  1.0
  C  C43  1  0.12286000  0.33595000  0.52548000  1.0
  C  C44  1  0.69102000  0.57526000  0.60259000  1.0
  C  C45  1  0.30896000  0.42473000  0.39739000  1.0
  C  C46  1  0.86260000  0.44664000  0.31280000  1.0
  C  C47  1  0.13741000  0.55337000  0.68720000  1.0
  C  C48  1  0.70957000  0.40473000  0.21248000  1.0
  C  C49  1  0.29046000  0.59527000  0.78750000  1.0
  C  C50  1  0.77696000  0.48562000  0.12461000  1.0
  C  C51  1  0.22298000  0.51461000  0.87545000  1.0
  C  C52  1  0.86717000  0.88280000  0.62199000  1.0
  C  C53  1  0.13293000  0.11722000  0.37808000  1.0
  C  C54  1  0.05136000  0.97829000  0.70726000  1.0
  C  C55  1  0.94872000  0.02163000  0.29281000  1.0
  C  C56  1  0.03670000  0.94185000  0.81824000  1.0
  C  C57  1  0.96345000  0.05822000  0.18189000  1.0
  N  N58  1  0.66008000  0.40903000  0.55363000  1.0
  N  N59  1  0.33985000  0.59097000  0.44633000  1.0
  N  N60  1  0.82149000  0.49157000  0.42150000  1.0
  N  N61  1  0.17851000  0.50844000  0.57849000  1.0
  N  N62  1  0.81052000  0.70003000  0.56623000  1.0
  N  N63  1  0.18950000  0.29997000  0.43379000  1.0
  O  O64  1  0.81413000  0.22684000  0.82847000  1.0
  O  O65  1  0.18599000  0.77339000  0.17145000  1.0
  O  O66  1  0.77554000  0.45229000  0.81745000  1.0
  O  O67  1  0.22431000  0.54779000  0.18250000  1.0
  O  O68  1  0.84974000  0.42258000  0.05761000  1.0
  O  O69  1  0.15052000  0.57810000  0.94245000  1.0
  O  O70  1  0.76664000  0.61707000  0.11954000  1.0
  O  O71  1  0.23287000  0.38298000  0.88055000  1.0
  O  O72  1  0.00411000  0.03760000  0.89163000  1.0
  O  O73  1  0.99577000  0.96238000  0.10834000  1.0
  O  O74  1  0.04699000  0.81190000  0.83114000  1.0
  O  O75  1  0.95355000  0.18841000  0.16921000  1.0
  O  O76  1  0.61455000  0.61036000  0.67256000  1.0
  O  O77  1  0.38542000  0.38965000  0.32743000  1.0
  O  O78  1  0.66450000  0.20807000  0.40677000  1.0
  O  O79  1  0.33550000  0.79193000  0.59322000  1.0
  O  O80  1  0.97641000  0.77764000  0.44140000  1.0
  O  O81  1  0.02365000  0.22238000  0.55864000  1.0
  O  O82  1  0.67855000  0.03044000  0.94991000  1.0
  O  O83  1  0.32372000  0.97061000  0.05050000  1.0
  O  O84  1  0.30068000  0.28003000  0.09290000  1.0
  O  O85  1  0.69919000  0.71993000  0.90704000  1.0
