# generated using pymatgen
data_MnH44C16(Se3N2)2
_symmetry_space_group_name_H-M   'P 1'
_cell_length_a   12.55570000
_cell_length_b   16.23080000
_cell_length_c   17.03350000
_cell_angle_alpha   70.70310000
_cell_angle_beta   86.66960000
_cell_angle_gamma   83.34400000
_symmetry_Int_Tables_number   1
_chemical_formula_structural   MnH44C16(Se3N2)2
_chemical_formula_sum   'Mn4 H176 C64 Se24 N16'
_cell_volume   3253.41541798
_cell_formula_units_Z   4
loop_
 _symmetry_equiv_pos_site_id
 _symmetry_equiv_pos_as_xyz
  1  'x, y, z'
loop_
 _atom_site_type_symbol
 _atom_site_label
 _atom_site_symmetry_multiplicity
 _atom_site_fract_x
 _atom_site_fract_y
 _atom_site_fract_z
 _atom_site_occupancy
  Mn  Mn0  1  0.98593000  0.25681000  0.25397000  1.0
  Mn  Mn1  1  0.01408000  0.74318000  0.74603000  1.0
  Mn  Mn2  1  0.50422000  0.76332000  0.76509000  1.0
  Mn  Mn3  1  0.49578000  0.23668000  0.23492000  1.0
  H  H4  1  0.79391000  0.35794000  0.20445000  1.0
  H  H5  1  0.20610000  0.64205000  0.79556000  1.0
  H  H6  1  0.79789000  0.32961000  0.30469000  1.0
  H  H7  1  0.20212000  0.67038000  0.69532000  1.0
  H  H8  1  0.90567000  0.47118000  0.18124000  1.0
  H  H9  1  0.09433000  0.52881000  0.81877000  1.0
  H  H10  1  0.93575000  0.43558000  0.28702000  1.0
  H  H11  1  0.06426000  0.56441000  0.71299000  1.0
  H  H12  1  0.75259000  0.48478000  0.32468000  1.0
  H  H13  1  0.24741000  0.51522000  0.67533000  1.0
  H  H14  1  0.70850000  0.50505000  0.22265000  1.0
  H  H15  1  0.29150000  0.49494000  0.77736000  1.0
  H  H16  1  0.74193000  0.64295000  0.25008000  1.0
  H  H17  1  0.25807000  0.35704000  0.74992000  1.0
  H  H18  1  0.81432000  0.62692000  0.16375000  1.0
  H  H19  1  0.18569000  0.37307000  0.83625000  1.0
  H  H20  1  0.98259000  0.57944000  0.24278000  1.0
  H  H21  1  0.01741000  0.42057000  0.75722000  1.0
  H  H22  1  0.91351000  0.58004000  0.33651000  1.0
  H  H23  1  0.08650000  0.41997000  0.66349000  1.0
  H  H24  1  0.92553000  0.67991000  0.25395000  1.0
  H  H25  1  0.07446000  0.32010000  0.74605000  1.0
  H  H26  1  0.04929000  0.18457000  0.41636000  1.0
  H  H27  1  0.95073000  0.81542000  0.58364000  1.0
  H  H28  1  0.05333000  0.29056000  0.38925000  1.0
  H  H29  1  0.94668000  0.70943000  0.61074000  1.0
  H  H30  1  0.85541000  0.20270000  0.44336000  1.0
  H  H31  1  0.14460000  0.79730000  0.55663000  1.0
  H  H32  1  0.86775000  0.31485000  0.42455000  1.0
  H  H33  1  0.13227000  0.68515000  0.57544000  1.0
  H  H34  1  0.99317000  0.27519000  0.54384000  1.0
  H  H35  1  0.00684000  0.72480000  0.45615000  1.0
  H  H36  1  0.98496000  0.16262000  0.56038000  1.0
  H  H37  1  0.01505000  0.83737000  0.43961000  1.0
  H  H38  1  0.79742000  0.29608000  0.57686000  1.0
  H  H39  1  0.20259000  0.70393000  0.42312000  1.0
  H  H40  1  0.78434000  0.18661000  0.58513000  1.0
  H  H41  1  0.21567000  0.81339000  0.41486000  1.0
  H  H42  1  0.90885000  0.13278000  0.70733000  1.0
  H  H43  1  0.09115000  0.86723000  0.29266000  1.0
  H  H44  1  0.79523000  0.19950000  0.72692000  1.0
  H  H45  1  0.20478000  0.80051000  0.27307000  1.0
  H  H46  1  0.92052000  0.24298000  0.70019000  1.0
  H  H47  1  0.07950000  0.75703000  0.29979000  1.0
  H  H48  1  0.93208000  0.09371000  0.34170000  1.0
  H  H49  1  0.06794000  0.90628000  0.65830000  1.0
  H  H50  1  0.81725000  0.15160000  0.30690000  1.0
  H  H51  1  0.18276000  0.84840000  0.69312000  1.0
  H  H52  1  0.98325000  0.09126000  0.20198000  1.0
  H  H53  1  0.01673000  0.90874000  0.79802000  1.0
  H  H54  1  0.85167000  0.14072000  0.17210000  1.0
  H  H55  1  0.14832000  0.85928000  0.82791000  1.0
  H  H56  1  0.90605000  0.95984000  0.30236000  1.0
  H  H57  1  0.09395000  0.04016000  0.69764000  1.0
  H  H58  1  0.77528000  0.00843000  0.27205000  1.0
  H  H59  1  0.22472000  0.99156000  0.72796000  1.0
  H  H60  1  0.95452000  0.96681000  0.15541000  1.0
  H  H61  1  0.04547000  0.03320000  0.84459000  1.0
  H  H62  1  0.82551000  0.01748000  0.12309000  1.0
  H  H63  1  0.17447000  0.98252000  0.87691000  1.0
  H  H64  1  0.87383000  0.83096000  0.24784000  1.0
  H  H65  1  0.12617000  0.16904000  0.75217000  1.0
  H  H66  1  0.83992000  0.85656000  0.14212000  1.0
  H  H67  1  0.16007000  0.14343000  0.85789000  1.0
  H  H68  1  0.74426000  0.88136000  0.21405000  1.0
  H  H69  1  0.25574000  0.11864000  0.78596000  1.0
  H  H70  1  0.88954000  0.27182000  0.10950000  1.0
  H  H71  1  0.11047000  0.72817000  0.89051000  1.0
  H  H72  1  0.95270000  0.35841000  0.09089000  1.0
  H  H73  1  0.04731000  0.64158000  0.90911000  1.0
  H  H74  1  0.06852000  0.18603000  0.10461000  1.0
  H  H75  1  0.93148000  0.81396000  0.89539000  1.0
  H  H76  1  0.11946000  0.28891000  0.07142000  1.0
  H  H77  1  0.88055000  0.71108000  0.92858000  1.0
  H  H78  1  0.00305000  0.33768000  0.94553000  1.0
  H  H79  1  0.99696000  0.66232000  0.05447000  1.0
  H  H80  1  0.09357000  0.24466000  0.95031000  1.0
  H  H81  1  0.90642000  0.75534000  0.04969000  1.0
  H  H82  1  0.94522000  0.14742000  0.01284000  1.0
  H  H83  1  0.05477000  0.85259000  0.98716000  1.0
  H  H84  1  0.85423000  0.24199000  0.00064000  1.0
  H  H85  1  0.14577000  0.75802000  0.99936000  1.0
  H  H86  1  0.89402000  0.29200000  0.84535000  1.0
  H  H87  1  0.10598000  0.70801000  0.15465000  1.0
  H  H88  1  0.83895000  0.19002000  0.88036000  1.0
  H  H89  1  0.16104000  0.80998000  0.11964000  1.0
  H  H90  1  0.97852000  0.19342000  0.85824000  1.0
  H  H91  1  0.02147000  0.80658000  0.14176000  1.0
  H  H92  1  0.63937000  0.61323000  0.78598000  1.0
  H  H93  1  0.36064000  0.38678000  0.21402000  1.0
  H  H94  1  0.55660000  0.59412000  0.86604000  1.0
  H  H95  1  0.44340000  0.40588000  0.13396000  1.0
  H  H96  1  0.41602000  0.57023000  0.79541000  1.0
  H  H97  1  0.58398000  0.42978000  0.20457000  1.0
  H  H98  1  0.48884000  0.60225000  0.70073000  1.0
  H  H99  1  0.51118000  0.39776000  0.29926000  1.0
  H  H100  1  0.48670000  0.43938000  0.76157000  1.0
  H  H101  1  0.51331000  0.56063000  0.23842000  1.0
  H  H102  1  0.55100000  0.43916000  0.85092000  1.0
  H  H103  1  0.44901000  0.56085000  0.14907000  1.0
  H  H104  1  0.64516000  0.49632000  0.67270000  1.0
  H  H105  1  0.35485000  0.50368000  0.32729000  1.0
  H  H106  1  0.71105000  0.49828000  0.76074000  1.0
  H  H107  1  0.28896000  0.50173000  0.23924000  1.0
  H  H108  1  0.70802000  0.33594000  0.82635000  1.0
  H  H109  1  0.29198000  0.66408000  0.17365000  1.0
  H  H110  1  0.77580000  0.36141000  0.72826000  1.0
  H  H111  1  0.22420000  0.63859000  0.27174000  1.0
  H  H112  1  0.64280000  0.33135000  0.73849000  1.0
  H  H113  1  0.35720000  0.66866000  0.26151000  1.0
  H  H114  1  0.57833000  0.85170000  0.61173000  1.0
  H  H115  1  0.42167000  0.14830000  0.38827000  1.0
  H  H116  1  0.68583000  0.81603000  0.66887000  1.0
  H  H117  1  0.31416000  0.18396000  0.33114000  1.0
  H  H118  1  0.56680000  0.70391000  0.60717000  1.0
  H  H119  1  0.43320000  0.29609000  0.39283000  1.0
  H  H120  1  0.69318000  0.67506000  0.65638000  1.0
  H  H121  1  0.30682000  0.32494000  0.34362000  1.0
  H  H122  1  0.64488000  0.81601000  0.48767000  1.0
  H  H123  1  0.35512000  0.18399000  0.51233000  1.0
  H  H124  1  0.77078000  0.79213000  0.53547000  1.0
  H  H125  1  0.22922000  0.20786000  0.46454000  1.0
  H  H126  1  0.65560000  0.65835000  0.48852000  1.0
  H  H127  1  0.34440000  0.34165000  0.51148000  1.0
  H  H128  1  0.78596000  0.64028000  0.52804000  1.0
  H  H129  1  0.21403000  0.35972000  0.47197000  1.0
  H  H130  1  0.71265000  0.77834000  0.36159000  1.0
  H  H131  1  0.28735000  0.22166000  0.63841000  1.0
  H  H132  1  0.79316000  0.67817000  0.37186000  1.0
  H  H133  1  0.20683000  0.32183000  0.62814000  1.0
  H  H134  1  0.84394000  0.76182000  0.40012000  1.0
  H  H135  1  0.15606000  0.23818000  0.59989000  1.0
  H  H136  1  0.41344000  0.93013000  0.68729000  1.0
  H  H137  1  0.58656000  0.06987000  0.31272000  1.0
  H  H138  1  0.39833000  0.91469000  0.78675000  1.0
  H  H139  1  0.60167000  0.08531000  0.21326000  1.0
  H  H140  1  0.59983000  0.96340000  0.69280000  1.0
  H  H141  1  0.40017000  0.03661000  0.30719000  1.0
  H  H142  1  0.56940000  0.95993000  0.79602000  1.0
  H  H143  1  0.43060000  0.04008000  0.20398000  1.0
  H  H144  1  0.45299000  0.08441000  0.64114000  1.0
  H  H145  1  0.54700000  0.91560000  0.35886000  1.0
  H  H146  1  0.42160000  0.08361000  0.74385000  1.0
  H  H147  1  0.57839000  0.91640000  0.25615000  1.0
  H  H148  1  0.60144000  0.12708000  0.75671000  1.0
  H  H149  1  0.39855000  0.87293000  0.24328000  1.0
  H  H150  1  0.64328000  0.11521000  0.66014000  1.0
  H  H151  1  0.35671000  0.88481000  0.33985000  1.0
  H  H152  1  0.50642000  0.23905000  0.58672000  1.0
  H  H153  1  0.49357000  0.76096000  0.41328000  1.0
  H  H154  1  0.59558000  0.27380000  0.64353000  1.0
  H  H155  1  0.40441000  0.72621000  0.35646000  1.0
  H  H156  1  0.46374000  0.25296000  0.68304000  1.0
  H  H157  1  0.53625000  0.74705000  0.31695000  1.0
  H  H158  1  0.67691000  0.71294000  0.86678000  1.0
  H  H159  1  0.32309000  0.28705000  0.13322000  1.0
  H  H160  1  0.67248000  0.81795000  0.82263000  1.0
  H  H161  1  0.32753000  0.18204000  0.17738000  1.0
  H  H162  1  0.53688000  0.72825000  0.96603000  1.0
  H  H163  1  0.46312000  0.27175000  0.03397000  1.0
  H  H164  1  0.53039000  0.84286000  0.91876000  1.0
  H  H165  1  0.46962000  0.15714000  0.08124000  1.0
  H  H166  1  0.72534000  0.72252000  0.00657000  1.0
  H  H167  1  0.27465000  0.27746000  0.99344000  1.0
  H  H168  1  0.72670000  0.83609000  0.95353000  1.0
  H  H169  1  0.27330000  0.16390000  0.04648000  1.0
  H  H170  1  0.58852000  0.87049000  0.05240000  1.0
  H  H171  1  0.41148000  0.12950000  0.94761000  1.0
  H  H172  1  0.70235000  0.80692000  0.10449000  1.0
  H  H173  1  0.29763000  0.19308000  0.89552000  1.0
  H  H174  1  0.54435000  0.74571000  0.18440000  1.0
  H  H175  1  0.45563000  0.25429000  0.81560000  1.0
  H  H176  1  0.60329000  0.66959000  0.13587000  1.0
  H  H177  1  0.39670000  0.33041000  0.86413000  1.0
  H  H178  1  0.48576000  0.73847000  0.09523000  1.0
  H  H179  1  0.51423000  0.26153000  0.90477000  1.0
  C  C180  1  0.87046000  0.44343000  0.24395000  1.0
  C  C181  1  0.12954000  0.55657000  0.75606000  1.0
  C  C182  1  0.77791000  0.50692000  0.25844000  1.0
  C  C183  1  0.22209000  0.49307000  0.74156000  1.0
  C  C184  1  0.80802000  0.60135000  0.23225000  1.0
  C  C185  1  0.19198000  0.39865000  0.76776000  1.0
  C  C186  1  0.91303000  0.61058000  0.26837000  1.0
  C  C187  1  0.08698000  0.38942000  0.73163000  1.0
  C  C188  1  0.91078000  0.24864000  0.44812000  1.0
  C  C189  1  0.08924000  0.75136000  0.55187000  1.0
  C  C190  1  0.93921000  0.22812000  0.53897000  1.0
  C  C191  1  0.06080000  0.77188000  0.46102000  1.0
  C  C192  1  0.84026000  0.22946000  0.59542000  1.0
  C  C193  1  0.15975000  0.77054000  0.40457000  1.0
  C  C194  1  0.86750000  0.19973000  0.68738000  1.0
  C  C195  1  0.13250000  0.80028000  0.31260000  1.0
  C  C196  1  0.89936000  0.09578000  0.22430000  1.0
  C  C197  1  0.10063000  0.90422000  0.77570000  1.0
  C  C198  1  0.85936000  0.00521000  0.24954000  1.0
  C  C199  1  0.14063000  0.99479000  0.75046000  1.0
  C  C200  1  0.86966000  0.96992000  0.17618000  1.0
  C  C201  1  0.13033000  0.03008000  0.82382000  1.0
  C  C202  1  0.82981000  0.87989000  0.19601000  1.0
  C  C203  1  0.17019000  0.12011000  0.80400000  1.0
  C  C204  1  0.04835000  0.25599000  0.06981000  1.0
  C  C205  1  0.95166000  0.74400000  0.93019000  1.0
  C  C206  1  0.02118000  0.26724000  0.98056000  1.0
  C  C207  1  0.97882000  0.73276000  0.01944000  1.0
  C  C208  1  0.92821000  0.21682000  0.97421000  1.0
  C  C209  1  0.07179000  0.78319000  0.02580000  1.0
  C  C210  1  0.90871000  0.22314000  0.88486000  1.0
  C  C211  1  0.09128000  0.77686000  0.11514000  1.0
  C  C212  1  0.49720000  0.56773000  0.76787000  1.0
  C  C213  1  0.50280000  0.43228000  0.23212000  1.0
  C  C214  1  0.54423000  0.47316000  0.78330000  1.0
  C  C215  1  0.45578000  0.52685000  0.21669000  1.0
  C  C216  1  0.65304000  0.46376000  0.74042000  1.0
  C  C217  1  0.34697000  0.53625000  0.25956000  1.0
  C  C218  1  0.69752000  0.36800000  0.75908000  1.0
  C  C219  1  0.30248000  0.63201000  0.24091000  1.0
  C  C220  1  0.64211000  0.72937000  0.61397000  1.0
  C  C221  1  0.35789000  0.27063000  0.38604000  1.0
  C  C222  1  0.69816000  0.76254000  0.52941000  1.0
  C  C223  1  0.30184000  0.23746000  0.47059000  1.0
  C  C224  1  0.72734000  0.69140000  0.48933000  1.0
  C  C225  1  0.27266000  0.30860000  0.51068000  1.0
  C  C226  1  0.77181000  0.72902000  0.40095000  1.0
  C  C227  1  0.22819000  0.27098000  0.59905000  1.0
  C  C228  1  0.53390000  0.97529000  0.73455000  1.0
  C  C229  1  0.46610000  0.02472000  0.26545000  1.0
  C  C230  1  0.48823000  0.07155000  0.70248000  1.0
  C  C231  1  0.51176000  0.92846000  0.29751000  1.0
  C  C232  1  0.57299000  0.13456000  0.69440000  1.0
  C  C233  1  0.42700000  0.86546000  0.30559000  1.0
  C  C234  1  0.53256000  0.23029000  0.64976000  1.0
  C  C235  1  0.46743000  0.76972000  0.35024000  1.0
  C  C236  1  0.58565000  0.78210000  0.93375000  1.0
  C  C237  1  0.41435000  0.21790000  0.06626000  1.0
  C  C238  1  0.67455000  0.78585000  0.98954000  1.0
  C  C239  1  0.32545000  0.21414000  0.01047000  1.0
  C  C240  1  0.63308000  0.80454000  0.06890000  1.0
  C  C241  1  0.36692000  0.19546000  0.93111000  1.0
  C  C242  1  0.56267000  0.73620000  0.12393000  1.0
  C  C243  1  0.43732000  0.26379000  0.87608000  1.0
  Se  Se244  1  0.15592000  0.35286000  0.22160000  1.0
  Se  Se245  1  0.84408000  0.64713000  0.77840000  1.0
  Se  Se246  1  0.11723000  0.49374000  0.12312000  1.0
  Se  Se247  1  0.88272000  0.50623000  0.87687000  1.0
  Se  Se248  1  0.14717000  0.48061000  0.99042000  1.0
  Se  Se249  1  0.85286000  0.51936000  0.00957000  1.0
  Se  Se250  1  0.34268000  0.47980000  0.97515000  1.0
  Se  Se251  1  0.65734000  0.52019000  0.02489000  1.0
  Se  Se252  1  0.37016000  0.61614000  0.98708000  1.0
  Se  Se253  1  0.62983000  0.38386000  0.01294000  1.0
  Se  Se254  1  0.32638000  0.72767000  0.86007000  1.0
  Se  Se255  1  0.67362000  0.27231000  0.13993000  1.0
  Se  Se256  1  0.35208000  0.77126000  0.65955000  1.0
  Se  Se257  1  0.64791000  0.22875000  0.34046000  1.0
  Se  Se258  1  0.39207000  0.86528000  0.52454000  1.0
  Se  Se259  1  0.60790000  0.13471000  0.47545000  1.0
  Se  Se260  1  0.33484000  0.00830000  0.52068000  1.0
  Se  Se261  1  0.66514000  0.99170000  0.47928000  1.0
  Se  Se262  1  0.13722000  0.01706000  0.50088000  1.0
  Se  Se263  1  0.86276000  0.98295000  0.49909000  1.0
  Se  Se264  1  0.13572000  0.00649000  0.36687000  1.0
  Se  Se265  1  0.86428000  0.99349000  0.63311000  1.0
  Se  Se266  1  0.16474000  0.14484000  0.26929000  1.0
  Se  Se267  1  0.83526000  0.85515000  0.73070000  1.0
  N  N268  1  0.84326000  0.35519000  0.25167000  1.0
  N  N269  1  0.15675000  0.64480000  0.74833000  1.0
  N  N270  1  0.00375000  0.24376000  0.39197000  1.0
  N  N271  1  0.99626000  0.75624000  0.60803000  1.0
  N  N272  1  0.89558000  0.13727000  0.28953000  1.0
  N  N273  1  0.10442000  0.86272000  0.71047000  1.0
  N  N274  1  0.96253000  0.29116000  0.11669000  1.0
  N  N275  1  0.03748000  0.70883000  0.88332000  1.0
  N  N276  1  0.55926000  0.61938000  0.80220000  1.0
  N  N277  1  0.44074000  0.38062000  0.19780000  1.0
  N  N278  1  0.61570000  0.79692000  0.65451000  1.0
  N  N279  1  0.38430000  0.20308000  0.34549000  1.0
  N  N280  1  0.45502000  0.91216000  0.74165000  1.0
  N  N281  1  0.54498000  0.08784000  0.25835000  1.0
  N  N282  1  0.62496000  0.76933000  0.85492000  1.0
  N  N283  1  0.37504000  0.23067000  0.14509000  1.0
