# generated using pymatgen
data_CdH6C8(NO)4
_symmetry_space_group_name_H-M   'P 1'
_cell_length_a   12.73360000
_cell_length_b   12.79780000
_cell_length_c   12.80200000
_cell_angle_alpha   108.50100000
_cell_angle_beta   108.29900000
_cell_angle_gamma   108.30500000
_symmetry_Int_Tables_number   1
_chemical_formula_structural   CdH6C8(NO)4
_chemical_formula_sum   'Cd6 H36 C48 N24 O24'
_cell_volume   1668.33981609
_cell_formula_units_Z   6
loop_
 _symmetry_equiv_pos_site_id
 _symmetry_equiv_pos_as_xyz
  1  'x, y, z'
loop_
 _atom_site_type_symbol
 _atom_site_label
 _atom_site_symmetry_multiplicity
 _atom_site_fract_x
 _atom_site_fract_y
 _atom_site_fract_z
 _atom_site_occupancy
  Cd  Cd0  1  0.68365000  0.18947000  0.45678000  1.0
  Cd  Cd1  1  0.18883000  0.45633000  0.68216000  1.0
  Cd  Cd2  1  0.45568000  0.68189000  0.18808000  1.0
  Cd  Cd3  1  0.95568000  0.68808000  0.18172000  1.0
  Cd  Cd4  1  0.18358000  0.95661000  0.68937000  1.0
  Cd  Cd5  1  0.68893000  0.18241000  0.95650000  1.0
  H  H6  1  0.88198000  0.59135000  0.42861000  1.0
  H  H7  1  0.59195000  0.42893000  0.88237000  1.0
  H  H8  1  0.42861000  0.88202000  0.59131000  1.0
  H  H9  1  0.92871000  0.09145000  0.38211000  1.0
  H  H10  1  0.38190000  0.92858000  0.09120000  1.0
  H  H11  1  0.09196000  0.38237000  0.92887000  1.0
  H  H12  1  0.19296000  0.02604000  0.32931000  1.0
  H  H13  1  0.02603000  0.32947000  0.19371000  1.0
  H  H14  1  0.32952000  0.19357000  0.02616000  1.0
  H  H15  1  0.82952000  0.52614000  0.69365000  1.0
  H  H16  1  0.69296000  0.82933000  0.52607000  1.0
  H  H17  1  0.52602000  0.69363000  0.82944000  1.0
  H  H18  1  0.62929000  0.08385000  0.14649000  1.0
  H  H19  1  0.08278000  0.14609000  0.62874000  1.0
  H  H20  1  0.14651000  0.62936000  0.08400000  1.0
  H  H21  1  0.64642000  0.58385000  0.12929000  1.0
  H  H22  1  0.12937000  0.64650000  0.58401000  1.0
  H  H23  1  0.58277000  0.12873000  0.64616000  1.0
  H  H24  1  0.53908000  0.35312000  0.55125000  1.0
  H  H25  1  0.35356000  0.55151000  0.53880000  1.0
  H  H26  1  0.55120000  0.53880000  0.35302000  1.0
  H  H27  1  0.05123000  0.85308000  0.03873000  1.0
  H  H28  1  0.03906000  0.05121000  0.85305000  1.0
  H  H29  1  0.85356000  0.03889000  0.05151000  1.0
  H  H30  1  0.28266000  0.25437000  0.47482000  1.0
  H  H31  1  0.25482000  0.47513000  0.28353000  1.0
  H  H32  1  0.47477000  0.28337000  0.25425000  1.0
  H  H33  1  0.97485000  0.75437000  0.78349000  1.0
  H  H34  1  0.78263000  0.97480000  0.75434000  1.0
  H  H35  1  0.75474000  0.78345000  0.97508000  1.0
  H  H36  1  0.36630000  0.97053000  0.30601000  1.0
  H  H37  1  0.96975000  0.30547000  0.36570000  1.0
  H  H38  1  0.30595000  0.36585000  0.97044000  1.0
  H  H39  1  0.80588000  0.47033000  0.86578000  1.0
  H  H40  1  0.86631000  0.80604000  0.47057000  1.0
  H  H41  1  0.46981000  0.86575000  0.80551000  1.0
  C  C42  1  0.67797000  0.18436000  0.19821000  1.0
  C  C43  1  0.18366000  0.19791000  0.67749000  1.0
  C  C44  1  0.19816000  0.67794000  0.18448000  1.0
  C  C45  1  0.69810000  0.68437000  0.17788000  1.0
  C  C46  1  0.17803000  0.69821000  0.68448000  1.0
  C  C47  1  0.68365000  0.17749000  0.69796000  1.0
  C  C48  1  0.77870000  0.37793000  0.24473000  1.0
  C  C49  1  0.37798000  0.24482000  0.77871000  1.0
  C  C50  1  0.24448000  0.77882000  0.37795000  1.0
  C  C51  1  0.74449000  0.87793000  0.27880000  1.0
  C  C52  1  0.27873000  0.74470000  0.87794000  1.0
  C  C53  1  0.87800000  0.27871000  0.74485000  1.0
  C  C54  1  0.84463000  0.48759000  0.23285000  1.0
  C  C55  1  0.48794000  0.23301000  0.84486000  1.0
  C  C56  1  0.23215000  0.84468000  0.48743000  1.0
  C  C57  1  0.73219000  0.98746000  0.34469000  1.0
  C  C58  1  0.34461000  0.73276000  0.98751000  1.0
  C  C59  1  0.98800000  0.34488000  0.73307000  1.0
  C  C60  1  0.76335000  0.37098000  0.34669000  1.0
  C  C61  1  0.37087000  0.34661000  0.76316000  1.0
  C  C62  1  0.34691000  0.76336000  0.37108000  1.0
  C  C63  1  0.84691000  0.87104000  0.26333000  1.0
  C  C64  1  0.26340000  0.84673000  0.87106000  1.0
  C  C65  1  0.87083000  0.26316000  0.84659000  1.0
  C  C66  1  0.79748000  0.46465000  0.46999000  1.0
  C  C67  1  0.46476000  0.46992000  0.79748000  1.0
  C  C68  1  0.47047000  0.79733000  0.46467000  1.0
  C  C69  1  0.97048000  0.96471000  0.29734000  1.0
  C  C70  1  0.29747000  0.97006000  0.96466000  1.0
  C  C71  1  0.96471000  0.29748000  0.96984000  1.0
  C  C72  1  0.46534000  0.25896000  0.48997000  1.0
  C  C73  1  0.25913000  0.49005000  0.46520000  1.0
  C  C74  1  0.48992000  0.46518000  0.25885000  1.0
  C  C75  1  0.98993000  0.75887000  0.96518000  1.0
  C  C76  1  0.96531000  0.98994000  0.75892000  1.0
  C  C77  1  0.75915000  0.96523000  0.99007000  1.0
  C  C78  1  0.33951000  0.21196000  0.45303000  1.0
  C  C79  1  0.21221000  0.45321000  0.33997000  1.0
  C  C80  1  0.45300000  0.33987000  0.21191000  1.0
  C  C81  1  0.95302000  0.71194000  0.83991000  1.0
  C  C82  1  0.83948000  0.95301000  0.71195000  1.0
  C  C83  1  0.71219000  0.83995000  0.95321000  1.0
  C  C84  1  0.38034000  0.06159000  0.36378000  1.0
  C  C85  1  0.06116000  0.36343000  0.38001000  1.0
  C  C86  1  0.36369000  0.38002000  0.06148000  1.0
  C  C87  1  0.86366000  0.56143000  0.88002000  1.0
  C  C88  1  0.88033000  0.86378000  0.56161000  1.0
  C  C89  1  0.56119000  0.88002000  0.86345000  1.0
  N  N90  1  0.70010000  0.24802000  0.31471000  1.0
  N  N91  1  0.24740000  0.31433000  0.69949000  1.0
  N  N92  1  0.31498000  0.69996000  0.24818000  1.0
  N  N93  1  0.81494000  0.74810000  0.19990000  1.0
  N  N94  1  0.20016000  0.81475000  0.74815000  1.0
  N  N95  1  0.74737000  0.19950000  0.81434000  1.0
  N  N96  1  0.72318000  0.25876000  0.15200000  1.0
  N  N97  1  0.25850000  0.15199000  0.72306000  1.0
  N  N98  1  0.15165000  0.72330000  0.25883000  1.0
  N  N99  1  0.65163000  0.75877000  0.22326000  1.0
  N  N100  1  0.22323000  0.65197000  0.75881000  1.0
  N  N101  1  0.75852000  0.22305000  0.65205000  1.0
  N  N102  1  0.48976000  0.16392000  0.43358000  1.0
  N  N103  1  0.16369000  0.43336000  0.48917000  1.0
  N  N104  1  0.43348000  0.48920000  0.16376000  1.0
  N  N105  1  0.93347000  0.66373000  0.98917000  1.0
  N  N106  1  0.98974000  0.93356000  0.66391000  1.0
  N  N107  1  0.66373000  0.98921000  0.93338000  1.0
  N  N108  1  0.28796000  0.08763000  0.37377000  1.0
  N  N109  1  0.08746000  0.37365000  0.28825000  1.0
  N  N110  1  0.37370000  0.28818000  0.08756000  1.0
  N  N111  1  0.87369000  0.58754000  0.78822000  1.0
  N  N112  1  0.78795000  0.87378000  0.58764000  1.0
  N  N113  1  0.58746000  0.78822000  0.87365000  1.0
  O  O114  1  0.76187000  0.43024000  0.53975000  1.0
  O  O115  1  0.43026000  0.53958000  0.76175000  1.0
  O  O116  1  0.54032000  0.76134000  0.43005000  1.0
  O  O117  1  0.04034000  0.93012000  0.26136000  1.0
  O  O118  1  0.26182000  0.03979000  0.93023000  1.0
  O  O119  1  0.93019000  0.26179000  0.03950000  1.0
  O  O120  1  0.86380000  0.58205000  0.50407000  1.0
  O  O121  1  0.58260000  0.50420000  0.86418000  1.0
  O  O122  1  0.50452000  0.86375000  0.58201000  1.0
  O  O123  1  0.00456000  0.08209000  0.36380000  1.0
  O  O124  1  0.36377000  0.00413000  0.08202000  1.0
  O  O125  1  0.08256000  0.36416000  0.00410000  1.0
  O  O126  1  0.89782000  0.59476000  0.32837000  1.0
  O  O127  1  0.59545000  0.32854000  0.89837000  1.0
  O  O128  1  0.32802000  0.89788000  0.59464000  1.0
  O  O129  1  0.82806000  0.09473000  0.39794000  1.0
  O  O130  1  0.39774000  0.82833000  0.09462000  1.0
  O  O131  1  0.09553000  0.39839000  0.82855000  1.0
  O  O132  1  0.84839000  0.47500000  0.13210000  1.0
  O  O133  1  0.47516000  0.13218000  0.84847000  1.0
  O  O134  1  0.13106000  0.84852000  0.47500000  1.0
  O  O135  1  0.63109000  0.97501000  0.34853000  1.0
  O  O136  1  0.34840000  0.63200000  0.97496000  1.0
  O  O137  1  0.97521000  0.34849000  0.63227000  1.0
