# generated using pymatgen
data_Co3H42C50(NO4)4
_symmetry_space_group_name_H-M   'P 1'
_cell_length_a   10.11870000
_cell_length_b   11.54560000
_cell_length_c   27.16906572
_cell_angle_alpha   90.15866449
_cell_angle_beta   100.63969030
_cell_angle_gamma   115.98230000
_symmetry_Int_Tables_number   1
_chemical_formula_structural   Co3H42C50(NO4)4
_chemical_formula_sum   'Co6 H84 C100 N8 O32'
_cell_volume   2791.60743730
_cell_formula_units_Z   2
loop_
 _symmetry_equiv_pos_site_id
 _symmetry_equiv_pos_as_xyz
  1  'x, y, z'
loop_
 _atom_site_type_symbol
 _atom_site_label
 _atom_site_symmetry_multiplicity
 _atom_site_fract_x
 _atom_site_fract_y
 _atom_site_fract_z
 _atom_site_occupancy
  Co  Co0  1  0.34876000  0.99898000  0.33852000  1.0
  Co  Co1  1  0.01180000  0.50174000  0.16122000  1.0
  Co  Co2  1  0.65512000  0.00767000  0.66161000  1.0
  Co  Co3  1  0.98802000  0.49759000  0.83873000  1.0
  Co  Co4  1  0.35457000  0.75036000  0.25003000  1.0
  Co  Co5  1  0.64218000  0.24917000  0.75047000  1.0
  H  H6  1  0.08790000  0.82032000  0.34978000  1.0
  H  H7  1  0.12422000  0.76657000  0.30345000  1.0
  H  H8  1  0.26127000  0.20511000  0.22348000  1.0
  H  H9  1  0.01119000  0.94284000  0.05858000  1.0
  H  H10  1  0.11647000  0.85369000  0.12970000  1.0
  H  H11  1  0.22707000  0.35596000  0.06533000  1.0
  H  H12  1  0.14027000  0.44202000  0.98886000  1.0
  H  H13  1  0.71065000  0.10838000  0.96288000  1.0
  H  H14  1  0.79892000  0.01695000  0.03842000  1.0
  H  H15  1  0.70354000  0.85811000  0.27362000  1.0
  H  H16  1  0.92078000  0.01873000  0.24104000  1.0
  H  H17  1  0.87173000  0.13875000  0.16787000  1.0
  H  H18  1  0.60297000  0.07805000  0.12737000  1.0
  H  H19  1  0.39878000  0.90710000  0.16151000  1.0
  H  H20  1  0.42698000  0.17157000  0.43141000  1.0
  H  H21  1  0.31848000  0.29443000  0.47248000  1.0
  H  H22  1  0.07866000  0.29555000  0.42582000  1.0
  H  H23  1  0.95687000  0.16851000  0.34069000  1.0
  H  H24  1  0.08433000  0.05381000  0.30548000  1.0
  H  H25  1  0.45463000  0.83298000  0.35024000  1.0
  H  H26  1  0.55164000  0.95139000  0.31788000  1.0
  H  H27  1  0.91868000  0.68098000  0.15029000  1.0
  H  H28  1  0.05507000  0.73421000  0.19647000  1.0
  H  H29  1  0.83250000  0.29587000  0.27611000  1.0
  H  H30  1  0.01104000  0.55592000  0.44157000  1.0
  H  H31  1  0.13369000  0.64608000  0.37035000  1.0
  H  H32  1  0.80417000  0.14183000  0.43372000  1.0
  H  H33  1  0.70394000  0.05333000  0.50947000  1.0
  H  H34  1  0.64144000  0.38976000  0.53786000  1.0
  H  H35  1  0.74705000  0.48272000  0.46264000  1.0
  H  H36  1  0.57060000  0.64058000  0.22599000  1.0
  H  H37  1  0.65899000  0.47971000  0.25875000  1.0
  H  H38  1  0.56308000  0.36084000  0.33216000  1.0
  H  H39  1  0.39633000  0.42293000  0.37277000  1.0
  H  H40  1  0.33001000  0.59417000  0.33853000  1.0
  H  H41  1  0.82399000  0.32876000  0.06841000  1.0
  H  H42  1  0.55152000  0.20564000  0.02790000  1.0
  H  H43  1  0.35799000  0.20487000  0.07508000  1.0
  H  H44  1  0.44913000  0.33309000  0.15998000  1.0
  H  H45  1  0.72665000  0.44817000  0.19459000  1.0
  H  H46  1  0.27281000  0.66790000  0.14983000  1.0
  H  H47  1  0.28282000  0.54917000  0.18201000  1.0
  H  H48  1  0.91543000  0.18718000  0.65063000  1.0
  H  H49  1  0.87040000  0.24024000  0.69561000  1.0
  H  H50  1  0.73927000  0.79356000  0.77666000  1.0
  H  H51  1  0.99045000  0.05739000  0.94116000  1.0
  H  H52  1  0.88449000  0.14566000  0.86992000  1.0
  H  H53  1  0.77356000  0.64434000  0.93484000  1.0
  H  H54  1  0.85961000  0.55762000  0.01120000  1.0
  H  H55  1  0.28986000  0.89049000  0.03749000  1.0
  H  H56  1  0.20268000  0.98251000  0.96194000  1.0
  H  H57  1  0.29614000  0.13860000  0.72641000  1.0
  H  H58  1  0.07819000  0.97730000  0.75871000  1.0
  H  H59  1  0.12704000  0.85785000  0.83202000  1.0
  H  H60  1  0.39537000  0.91890000  0.87288000  1.0
  H  H61  1  0.60026000  0.09027000  0.83889000  1.0
  H  H62  1  0.57236000  0.83130000  0.56880000  1.0
  H  H63  1  0.67804000  0.70492000  0.52828000  1.0
  H  H64  1  0.91762000  0.70309000  0.57487000  1.0
  H  H65  1  0.04127000  0.83212000  0.65954000  1.0
  H  H66  1  0.91589000  0.94901000  0.69445000  1.0
  H  H67  1  0.54602000  0.17038000  0.64954000  1.0
  H  H68  1  0.44839000  0.04956000  0.68175000  1.0
  H  H69  1  0.07857000  0.31751000  0.84880000  1.0
  H  H70  1  0.94154000  0.26420000  0.80280000  1.0
  H  H71  1  0.17161000  0.70583000  0.72435000  1.0
  H  H72  1  0.99047000  0.44695000  0.55855000  1.0
  H  H73  1  0.86602000  0.35787000  0.62945000  1.0
  H  H74  1  0.19773000  0.85910000  0.56602000  1.0
  H  H75  1  0.29269000  0.94478000  0.48918000  1.0
  H  H76  1  0.36055000  0.61034000  0.46228000  1.0
  H  H77  1  0.25799000  0.51927000  0.53821000  1.0
  H  H78  1  0.43003000  0.35879000  0.77356000  1.0
  H  H79  1  0.34356000  0.52158000  0.74186000  1.0
  H  H80  1  0.44020000  0.64209000  0.66880000  1.0
  H  H81  1  0.60553000  0.57985000  0.62758000  1.0
  H  H82  1  0.67107000  0.40732000  0.66106000  1.0
  H  H83  1  0.17538000  0.66800000  0.93197000  1.0
  H  H84  1  0.44790000  0.79248000  0.97219000  1.0
  H  H85  1  0.64150000  0.79500000  0.92468000  1.0
  H  H86  1  0.55042000  0.66735000  0.83968000  1.0
  H  H87  1  0.27280000  0.55105000  0.80529000  1.0
  H  H88  1  0.72536000  0.33029000  0.85052000  1.0
  H  H89  1  0.71738000  0.45033000  0.81821000  1.0
  C  C90  1  0.24985000  0.96698000  0.22559000  1.0
  C  C91  1  0.19094000  0.02155000  0.18189000  1.0
  C  C92  1  0.20502000  0.14713000  0.18742000  1.0
  C  C93  1  0.14810000  0.19887000  0.14739000  1.0
  C  C94  1  0.16287000  0.33268000  0.15662000  1.0
  C  C95  1  0.07443000  0.12484000  0.10047000  1.0
  C  C96  1  0.06236000  0.99937000  0.09511000  1.0
  C  C97  1  0.12096000  0.94888000  0.13502000  1.0
  C  C98  1  0.01938000  0.17929000  0.05668000  1.0
  C  C99  1  0.11399000  0.30051000  0.04283000  1.0
  C  C100  1  0.06578000  0.34965000  0.00037000  1.0
  C  C101  1  0.92031000  0.28028000  0.97125000  1.0
  C  C102  1  0.87290000  0.32929000  0.92342000  1.0
  C  C103  1  0.82378000  0.16115000  0.98565000  1.0
  C  C104  1  0.87364000  0.11026000  0.02749000  1.0
  C  C105  1  0.68561000  0.90701000  0.24061000  1.0
  C  C106  1  0.80668000  0.99828000  0.22273000  1.0
  C  C107  1  0.77979000  0.06344000  0.18186000  1.0
  C  C108  1  0.63084000  0.03079000  0.15952000  1.0
  C  C109  1  0.51589000  0.93639000  0.17879000  1.0
  C  C110  1  0.32361000  0.17461000  0.41285000  1.0
  C  C111  1  0.26224000  0.24283000  0.43524000  1.0
  C  C112  1  0.12936000  0.24285000  0.40940000  1.0
  C  C113  1  0.06245000  0.17445000  0.36191000  1.0
  C  C114  1  0.13145000  0.10940000  0.34217000  1.0
  C  C115  1  0.05738000  0.53377000  0.27418000  1.0
  C  C116  1  0.98767000  0.47889000  0.31792000  1.0
  C  C117  1  0.87050000  0.35340000  0.31229000  1.0
  C  C118  1  0.80204000  0.30124000  0.35236000  1.0
  C  C119  1  0.67362000  0.16758000  0.34301000  1.0
  C  C120  1  0.84985000  0.37450000  0.39949000  1.0
  C  C121  1  0.96874000  0.49989000  0.40493000  1.0
  C  C122  1  0.03761000  0.55096000  0.36495000  1.0
  C  C123  1  0.78412000  0.31940000  0.44327000  1.0
  C  C124  1  0.76950000  0.19726000  0.45650000  1.0
  C  C125  1  0.71281000  0.14685000  0.49860000  1.0
  C  C126  1  0.66676000  0.21626000  0.52818000  1.0
  C  C127  1  0.61508000  0.16532000  0.57547000  1.0
  C  C128  1  0.67797000  0.33684000  0.51464000  1.0
  C  C129  1  0.73774000  0.38856000  0.47298000  1.0
  C  C130  1  0.53691000  0.59227000  0.25915000  1.0
  C  C131  1  0.58403000  0.50080000  0.27711000  1.0
  C  C132  1  0.53282000  0.43624000  0.31811000  1.0
  C  C133  1  0.43936000  0.46966000  0.34052000  1.0
  C  C134  1  0.40013000  0.56426000  0.32120000  1.0
  C  C135  1  0.73651000  0.32605000  0.08717000  1.0
  C  C136  1  0.58450000  0.25762000  0.06510000  1.0
  C  C137  1  0.47785000  0.25781000  0.09121000  1.0
  C  C138  1  0.52728000  0.32684000  0.13861000  1.0
  C  C139  1  0.68107000  0.39210000  0.15801000  1.0
  C  C140  1  0.74839000  0.02997000  0.77405000  1.0
  C  C141  1  0.81012000  0.97732000  0.81795000  1.0
  C  C142  1  0.79602000  0.85171000  0.81266000  1.0
  C  C143  1  0.85305000  0.80035000  0.85280000  1.0
  C  C144  1  0.83781000  0.66633000  0.84377000  1.0
  C  C145  1  0.92699000  0.87490000  0.89961000  1.0
  C  C146  1  0.93921000  0.00049000  0.90471000  1.0
  C  C147  1  0.88030000  0.05053000  0.86468000  1.0
  C  C148  1  0.98176000  0.82054000  0.94352000  1.0
  C  C149  1  0.88672000  0.69943000  0.95736000  1.0
  C  C150  1  0.93452000  0.64995000  0.99979000  1.0
  C  C151  1  0.08001000  0.71891000  0.02893000  1.0
  C  C152  1  0.12722000  0.66967000  0.07673000  1.0
  C  C153  1  0.17686000  0.83801000  0.01460000  1.0
  C  C154  1  0.12747000  0.88921000  0.97275000  1.0
  C  C155  1  0.31358000  0.08961000  0.75944000  1.0
  C  C156  1  0.19231000  0.99819000  0.77718000  1.0
  C  C157  1  0.21909000  0.93321000  0.81810000  1.0
  C  C158  1  0.36795000  0.96608000  0.84065000  1.0
  C  C159  1  0.48313000  0.06059000  0.82150000  1.0
  C  C160  1  0.67506000  0.82728000  0.58738000  1.0
  C  C161  1  0.73517000  0.75738000  0.56532000  1.0
  C  C162  1  0.86787000  0.75697000  0.59109000  1.0
  C  C163  1  0.93587000  0.82659000  0.63834000  1.0
  C  C164  1  0.86797000  0.89301000  0.65782000  1.0
  C  C165  1  0.94448000  0.46892000  0.72600000  1.0
  C  C166  1  0.01496000  0.52357000  0.68235000  1.0
  C  C167  1  0.13316000  0.64857000  0.68808000  1.0
  C  C168  1  0.20165000  0.70077000  0.64800000  1.0
  C  C169  1  0.33010000  0.83449000  0.65723000  1.0
  C  C170  1  0.15344000  0.62750000  0.60086000  1.0
  C  C171  1  0.03346000  0.50262000  0.59529000  1.0
  C  C172  1  0.96394000  0.45195000  0.63518000  1.0
  C  C173  1  0.21912000  0.68204000  0.55697000  1.0
  C  C174  1  0.23211000  0.80340000  0.54326000  1.0
  C  C175  1  0.28616000  0.85229000  0.50057000  1.0
  C  C176  1  0.33213000  0.78262000  0.47110000  1.0
  C  C177  1  0.38013000  0.83139000  0.42314000  1.0
  C  C178  1  0.32383000  0.66338000  0.48537000  1.0
  C  C179  1  0.26575000  0.61272000  0.52743000  1.0
  C  C180  1  0.46431000  0.40816000  0.74065000  1.0
  C  C181  1  0.41803000  0.50050000  0.72322000  1.0
  C  C182  1  0.46965000  0.56592000  0.68243000  1.0
  C  C183  1  0.56251000  0.53241000  0.65971000  1.0
  C  C184  1  0.60133000  0.43721000  0.67860000  1.0
  C  C185  1  0.26299000  0.67156000  0.91307000  1.0
  C  C186  1  0.41502000  0.74068000  0.93498000  1.0
  C  C187  1  0.52166000  0.74145000  0.90866000  1.0
  C  C188  1  0.47223000  0.67271000  0.86121000  1.0
  C  C189  1  0.31844000  0.60676000  0.84196000  1.0
  N  N190  1  0.54146000  0.87583000  0.21932000  1.0
  N  N191  1  0.25895000  0.10862000  0.36701000  1.0
  N  N192  1  0.44577000  0.62423000  0.28054000  1.0
  N  N193  1  0.78410000  0.39250000  0.13294000  1.0
  N  N194  1  0.45766000  0.12094000  0.78092000  1.0
  N  N195  1  0.74065000  0.89429000  0.63299000  1.0
  N  N196  1  0.55527000  0.37639000  0.71904000  1.0
  N  N197  1  0.21548000  0.60542000  0.86725000  1.0
  O  O198  1  0.23036000  0.84979000  0.21874000  1.0
  O  O199  1  0.31395000  0.03893000  0.26654000  1.0
  O  O200  1  0.29176000  0.42108000  0.17645000  1.0
  O  O201  1  0.04176000  0.34467000  0.14428000  1.0
  O  O202  1  0.73482000  0.27873000  0.90234000  1.0
  O  O203  1  0.98004000  0.41682000  0.90607000  1.0
  O  O204  1  0.11404000  0.84229000  0.31718000  1.0
  O  O205  1  0.44717000  0.87550000  0.31696000  1.0
  O  O206  1  0.16143000  0.65115000  0.28097000  1.0
  O  O207  1  0.00892000  0.46196000  0.23320000  1.0
  O  O208  1  0.69424000  0.07903000  0.32319000  1.0
  O  O209  1  0.55278000  0.15574000  0.35531000  1.0
  O  O210  1  0.55797000  0.22237000  0.59828000  1.0
  O  O211  1  0.63805000  0.06916000  0.59034000  1.0
  O  O212  1  0.95544000  0.65864000  0.18276000  1.0
  O  O213  1  0.25561000  0.62530000  0.18299000  1.0
  O  O214  1  0.76669000  0.14670000  0.78045000  1.0
  O  O215  1  0.68287000  0.95563000  0.73365000  1.0
  O  O216  1  0.70905000  0.57801000  0.82381000  1.0
  O  O217  1  0.95854000  0.65377000  0.85639000  1.0
  O  O218  1  0.26514000  0.72058000  0.09801000  1.0
  O  O219  1  0.01995000  0.58172000  0.09388000  1.0
  O  O220  1  0.87712000  0.16259000  0.68124000  1.0
  O  O221  1  0.55207000  0.12821000  0.68300000  1.0
  O  O222  1  0.83969000  0.35207000  0.71915000  1.0
  O  O223  1  0.99256000  0.54078000  0.76700000  1.0
  O  O224  1  0.30793000  0.92330000  0.67626000  1.0
  O  O225  1  0.45147000  0.84630000  0.64561000  1.0
  O  O226  1  0.44569000  0.78027000  0.40173000  1.0
  O  O227  1  0.34361000  0.91921000  0.40595000  1.0
  O  O228  1  0.04097000  0.34002000  0.81648000  1.0
  O  O229  1  0.73999000  0.37138000  0.81695000  1.0
