# generated using pymatgen
data_ZnH12C18(N3O2)2
_symmetry_space_group_name_H-M   'P 1'
_cell_length_a   15.87640000
_cell_length_b   17.07190000
_cell_length_c   19.77940000
_cell_angle_alpha   89.99990000
_cell_angle_beta   90.00020000
_cell_angle_gamma   90.00000000
_symmetry_Int_Tables_number   1
_chemical_formula_structural   ZnH12C18(N3O2)2
_chemical_formula_sum   'Zn8 H96 C144 N48 O32'
_cell_volume   5361.01477008
_cell_formula_units_Z   8
loop_
 _symmetry_equiv_pos_site_id
 _symmetry_equiv_pos_as_xyz
  1  'x, y, z'
loop_
 _atom_site_type_symbol
 _atom_site_label
 _atom_site_symmetry_multiplicity
 _atom_site_fract_x
 _atom_site_fract_y
 _atom_site_fract_z
 _atom_site_occupancy
  Zn  Zn0  1  0.52181000  0.99318000  0.21490000  1.0
  Zn  Zn1  1  0.97819000  0.49318000  0.28510000  1.0
  Zn  Zn2  1  0.52181000  0.50682000  0.78510000  1.0
  Zn  Zn3  1  0.97819000  0.00682000  0.71490000  1.0
  Zn  Zn4  1  0.47819000  0.00682000  0.78510000  1.0
  Zn  Zn5  1  0.02182000  0.50682000  0.71490000  1.0
  Zn  Zn6  1  0.47819000  0.49318000  0.21490000  1.0
  Zn  Zn7  1  0.02182000  0.99318000  0.28510000  1.0
  H  H8  1  0.41876000  0.25443000  0.11165000  1.0
  H  H9  1  0.37734000  0.09943000  0.27519000  1.0
  H  H10  1  0.35974000  0.34601000  0.20315000  1.0
  H  H11  1  0.22710000  0.42128000  0.22588000  1.0
  H  H12  1  0.09436000  0.20655000  0.26288000  1.0
  H  H13  1  0.22402000  0.13007000  0.23555000  1.0
  H  H14  1  0.69264000  0.00987000  0.11796000  1.0
  H  H15  1  0.54183000  0.89609000  0.97092000  1.0
  H  H16  1  0.61888000  0.99831000  0.90149000  1.0
  H  H17  1  0.72998000  0.00703000  0.81397000  1.0
  H  H18  1  0.91839000  0.94597000  0.96073000  1.0
  H  H19  1  0.80602000  0.93173000  0.04935000  1.0
  H  H20  1  0.08124000  0.75443000  0.38835000  1.0
  H  H21  1  0.12266000  0.59943000  0.22481000  1.0
  H  H22  1  0.14026000  0.84601000  0.29684000  1.0
  H  H23  1  0.27290000  0.92127000  0.27411000  1.0
  H  H24  1  0.40564000  0.70655000  0.23712000  1.0
  H  H25  1  0.27598000  0.63007000  0.26445000  1.0
  H  H26  1  0.80736000  0.50988000  0.38205000  1.0
  H  H27  1  0.95817000  0.39609000  0.52908000  1.0
  H  H28  1  0.88112000  0.49831000  0.59851000  1.0
  H  H29  1  0.77002000  0.50703000  0.68603000  1.0
  H  H30  1  0.58161000  0.44597000  0.53927000  1.0
  H  H31  1  0.69398000  0.43173000  0.45065000  1.0
  H  H32  1  0.41876000  0.24557000  0.88835000  1.0
  H  H33  1  0.37734000  0.40057000  0.72481000  1.0
  H  H34  1  0.35974000  0.15399000  0.79685000  1.0
  H  H35  1  0.22710000  0.07872000  0.77412000  1.0
  H  H36  1  0.09436000  0.29345000  0.73712000  1.0
  H  H37  1  0.22402000  0.36993000  0.76445000  1.0
  H  H38  1  0.69264000  0.49012000  0.88205000  1.0
  H  H39  1  0.54183000  0.60391000  0.02908000  1.0
  H  H40  1  0.61888000  0.50169000  0.09851000  1.0
  H  H41  1  0.72997000  0.49297000  0.18603000  1.0
  H  H42  1  0.91839000  0.55403000  0.03928000  1.0
  H  H43  1  0.80602000  0.56826000  0.95065000  1.0
  H  H44  1  0.08124000  0.74557000  0.61165000  1.0
  H  H45  1  0.12266000  0.90057000  0.77520000  1.0
  H  H46  1  0.14026000  0.65400000  0.70316000  1.0
  H  H47  1  0.27290000  0.57872000  0.72589000  1.0
  H  H48  1  0.40564000  0.79345000  0.76288000  1.0
  H  H49  1  0.27598000  0.86993000  0.73555000  1.0
  H  H50  1  0.80736000  0.99013000  0.61796000  1.0
  H  H51  1  0.95818000  0.10391000  0.47092000  1.0
  H  H52  1  0.88112000  0.00169000  0.40149000  1.0
  H  H53  1  0.77002000  0.99297000  0.31397000  1.0
  H  H54  1  0.58161000  0.05403000  0.46073000  1.0
  H  H55  1  0.69398000  0.06827000  0.54935000  1.0
  H  H56  1  0.58124000  0.74557000  0.88835000  1.0
  H  H57  1  0.62266000  0.90057000  0.72480000  1.0
  H  H58  1  0.64026000  0.65399000  0.79684000  1.0
  H  H59  1  0.77290000  0.57873000  0.77411000  1.0
  H  H60  1  0.90564000  0.79345000  0.73712000  1.0
  H  H61  1  0.77598000  0.86993000  0.76445000  1.0
  H  H62  1  0.30736000  0.99013000  0.88204000  1.0
  H  H63  1  0.45817000  0.10391000  0.02908000  1.0
  H  H64  1  0.38112000  0.00169000  0.09851000  1.0
  H  H65  1  0.27002000  0.99297000  0.18603000  1.0
  H  H66  1  0.08161000  0.05404000  0.03927000  1.0
  H  H67  1  0.19398000  0.06827000  0.95065000  1.0
  H  H68  1  0.91876000  0.24557000  0.61165000  1.0
  H  H69  1  0.87734000  0.40057000  0.77520000  1.0
  H  H70  1  0.85974000  0.15399000  0.70316000  1.0
  H  H71  1  0.72710000  0.07872000  0.72589000  1.0
  H  H72  1  0.59436000  0.29345000  0.76288000  1.0
  H  H73  1  0.72402000  0.36993000  0.73555000  1.0
  H  H74  1  0.19264000  0.49013000  0.61796000  1.0
  H  H75  1  0.04182000  0.60390000  0.47092000  1.0
  H  H76  1  0.11888000  0.50169000  0.40149000  1.0
  H  H77  1  0.22998000  0.49297000  0.31397000  1.0
  H  H78  1  0.41839000  0.55404000  0.46073000  1.0
  H  H79  1  0.30601000  0.56827000  0.54935000  1.0
  H  H80  1  0.58124000  0.75443000  0.11165000  1.0
  H  H81  1  0.62266000  0.59943000  0.27519000  1.0
  H  H82  1  0.64026000  0.84601000  0.20315000  1.0
  H  H83  1  0.77290000  0.92127000  0.22588000  1.0
  H  H84  1  0.90564000  0.70655000  0.26288000  1.0
  H  H85  1  0.77598000  0.63007000  0.23555000  1.0
  H  H86  1  0.30736000  0.50987000  0.11796000  1.0
  H  H87  1  0.45818000  0.39609000  0.97092000  1.0
  H  H88  1  0.38112000  0.49831000  0.90149000  1.0
  H  H89  1  0.27002000  0.50703000  0.81397000  1.0
  H  H90  1  0.08161000  0.44597000  0.96073000  1.0
  H  H91  1  0.19398000  0.43173000  0.04935000  1.0
  H  H92  1  0.91876000  0.25443000  0.38835000  1.0
  H  H93  1  0.87734000  0.09943000  0.22480000  1.0
  H  H94  1  0.85974000  0.34601000  0.29684000  1.0
  H  H95  1  0.72710000  0.42127000  0.27411000  1.0
  H  H96  1  0.59436000  0.20655000  0.23712000  1.0
  H  H97  1  0.72402000  0.13007000  0.26445000  1.0
  H  H98  1  0.19264000  0.00987000  0.38205000  1.0
  H  H99  1  0.04183000  0.89609000  0.52908000  1.0
  H  H100  1  0.11888000  0.99831000  0.59851000  1.0
  H  H101  1  0.22998000  0.00703000  0.68603000  1.0
  H  H102  1  0.41839000  0.94596000  0.53928000  1.0
  H  H103  1  0.30602000  0.93173000  0.45065000  1.0
  C  C104  1  0.42471000  0.20460000  0.14529000  1.0
  C  C105  1  0.40235000  0.12591000  0.22962000  1.0
  C  C106  1  0.29826000  0.23466000  0.21666000  1.0
  C  C107  1  0.30034000  0.31630000  0.21343000  1.0
  C  C108  1  0.22688000  0.35759000  0.22754000  1.0
  C  C109  1  0.15261000  0.31832000  0.24548000  1.0
  C  C110  1  0.15247000  0.23641000  0.24911000  1.0
  C  C111  1  0.22510000  0.19395000  0.23455000  1.0
  C  C112  1  0.07375000  0.36339000  0.26164000  1.0
  C  C113  1  0.64073000  0.97975000  0.09367000  1.0
  C  C114  1  0.56240000  0.92147000  0.01866000  1.0
  C  C115  1  0.70617000  0.96225000  0.97939000  1.0
  C  C116  1  0.68389000  0.98371000  0.91370000  1.0
  C  C117  1  0.74672000  0.98956000  0.86506000  1.0
  C  C118  1  0.83103000  0.97530000  0.88186000  1.0
  C  C119  1  0.85232000  0.95594000  0.94857000  1.0
  C  C120  1  0.78998000  0.94870000  0.99774000  1.0
  C  C121  1  0.89891000  0.98078000  0.82919000  1.0
  C  C122  1  0.07529000  0.70460000  0.35471000  1.0
  C  C123  1  0.09765000  0.62591000  0.27037000  1.0
  C  C124  1  0.20175000  0.73466000  0.28333000  1.0
  C  C125  1  0.19967000  0.81630000  0.28657000  1.0
  C  C126  1  0.27313000  0.85759000  0.27246000  1.0
  C  C127  1  0.34739000  0.81832000  0.25452000  1.0
  C  C128  1  0.34753000  0.73641000  0.25089000  1.0
  C  C129  1  0.27490000  0.69395000  0.26544000  1.0
  C  C130  1  0.42626000  0.86338000  0.23836000  1.0
  C  C131  1  0.85927000  0.47976000  0.40633000  1.0
  C  C132  1  0.93760000  0.42147000  0.48135000  1.0
  C  C133  1  0.79383000  0.46225000  0.52061000  1.0
  C  C134  1  0.81611000  0.48371000  0.58631000  1.0
  C  C135  1  0.75327000  0.48956000  0.63494000  1.0
  C  C136  1  0.66897000  0.47530000  0.61814000  1.0
  C  C137  1  0.64767000  0.45594000  0.55143000  1.0
  C  C138  1  0.71002000  0.44869000  0.50226000  1.0
  C  C139  1  0.60109000  0.48078000  0.67081000  1.0
  C  C140  1  0.42471000  0.29540000  0.85471000  1.0
  C  C141  1  0.40235000  0.37409000  0.77037000  1.0
  C  C142  1  0.29825000  0.26534000  0.78334000  1.0
  C  C143  1  0.30033000  0.18370000  0.78657000  1.0
  C  C144  1  0.22688000  0.14241000  0.77246000  1.0
  C  C145  1  0.15261000  0.18168000  0.75453000  1.0
  C  C146  1  0.15247000  0.26359000  0.75090000  1.0
  C  C147  1  0.22510000  0.30605000  0.76545000  1.0
  C  C148  1  0.07375000  0.13661000  0.73836000  1.0
  C  C149  1  0.64073000  0.52024000  0.90633000  1.0
  C  C150  1  0.56240000  0.57853000  0.98134000  1.0
  C  C151  1  0.70617000  0.53775000  0.02061000  1.0
  C  C152  1  0.68389000  0.51629000  0.08631000  1.0
  C  C153  1  0.74672000  0.51044000  0.13494000  1.0
  C  C154  1  0.83102000  0.52470000  0.11815000  1.0
  C  C155  1  0.85232000  0.54406000  0.05143000  1.0
  C  C156  1  0.78998000  0.55130000  0.00226000  1.0
  C  C157  1  0.89890000  0.51922000  0.17081000  1.0
  C  C158  1  0.07529000  0.79540000  0.64529000  1.0
  C  C159  1  0.09765000  0.87409000  0.72963000  1.0
  C  C160  1  0.20175000  0.76534000  0.71667000  1.0
  C  C161  1  0.19966000  0.68370000  0.71343000  1.0
  C  C162  1  0.27312000  0.64241000  0.72754000  1.0
  C  C163  1  0.34739000  0.68168000  0.74548000  1.0
  C  C164  1  0.34753000  0.76359000  0.74911000  1.0
  C  C165  1  0.27490000  0.80605000  0.73455000  1.0
  C  C166  1  0.42625000  0.63661000  0.76164000  1.0
  C  C167  1  0.85927000  0.02025000  0.59367000  1.0
  C  C168  1  0.93760000  0.07853000  0.51866000  1.0
  C  C169  1  0.79383000  0.03775000  0.47939000  1.0
  C  C170  1  0.81611000  0.01629000  0.41369000  1.0
  C  C171  1  0.75328000  0.01044000  0.36506000  1.0
  C  C172  1  0.66897000  0.02470000  0.38186000  1.0
  C  C173  1  0.64768000  0.04406000  0.44857000  1.0
  C  C174  1  0.71002000  0.05130000  0.49774000  1.0
  C  C175  1  0.60109000  0.01922000  0.32919000  1.0
  C  C176  1  0.57529000  0.79540000  0.85471000  1.0
  C  C177  1  0.59765000  0.87409000  0.77037000  1.0
  C  C178  1  0.70175000  0.76534000  0.78333000  1.0
  C  C179  1  0.69966000  0.68370000  0.78656000  1.0
  C  C180  1  0.77313000  0.64241000  0.77245000  1.0
  C  C181  1  0.84739000  0.68168000  0.75452000  1.0
  C  C182  1  0.84753000  0.76359000  0.75089000  1.0
  C  C183  1  0.77490000  0.80605000  0.76544000  1.0
  C  C184  1  0.92626000  0.63662000  0.73836000  1.0
  C  C185  1  0.35927000  0.02025000  0.90633000  1.0
  C  C186  1  0.43760000  0.07853000  0.98134000  1.0
  C  C187  1  0.29383000  0.03776000  0.02061000  1.0
  C  C188  1  0.31611000  0.01629000  0.08630000  1.0
  C  C189  1  0.25328000  0.01045000  0.13494000  1.0
  C  C190  1  0.16897000  0.02471000  0.11814000  1.0
  C  C191  1  0.14767000  0.04407000  0.05143000  1.0
  C  C192  1  0.21002000  0.05131000  0.00226000  1.0
  C  C193  1  0.10109000  0.01922000  0.17081000  1.0
  C  C194  1  0.92472000  0.29540000  0.64529000  1.0
  C  C195  1  0.90235000  0.37409000  0.72963000  1.0
  C  C196  1  0.79826000  0.26534000  0.71667000  1.0
  C  C197  1  0.80034000  0.18370000  0.71343000  1.0
  C  C198  1  0.72688000  0.14241000  0.72754000  1.0
  C  C199  1  0.65261000  0.18168000  0.74548000  1.0
  C  C200  1  0.65247000  0.26359000  0.74911000  1.0
  C  C201  1  0.72510000  0.30605000  0.73456000  1.0
  C  C202  1  0.57375000  0.13661000  0.76164000  1.0
  C  C203  1  0.14072000  0.52025000  0.59367000  1.0
  C  C204  1  0.06240000  0.57853000  0.51866000  1.0
  C  C205  1  0.20617000  0.53775000  0.47939000  1.0
  C  C206  1  0.18389000  0.51629000  0.41369000  1.0
  C  C207  1  0.24672000  0.51044000  0.36506000  1.0
  C  C208  1  0.33102000  0.52470000  0.38186000  1.0
  C  C209  1  0.35232000  0.54406000  0.44857000  1.0
  C  C210  1  0.28998000  0.55130000  0.49774000  1.0
  C  C211  1  0.39891000  0.51922000  0.32919000  1.0
  C  C212  1  0.57529000  0.70460000  0.14529000  1.0
  C  C213  1  0.59765000  0.62591000  0.22962000  1.0
  C  C214  1  0.70175000  0.73466000  0.21666000  1.0
  C  C215  1  0.69966000  0.81630000  0.21343000  1.0
  C  C216  1  0.77313000  0.85759000  0.22754000  1.0
  C  C217  1  0.84739000  0.81832000  0.24547000  1.0
  C  C218  1  0.84753000  0.73641000  0.24910000  1.0
  C  C219  1  0.77490000  0.69395000  0.23455000  1.0
  C  C220  1  0.92626000  0.86339000  0.26163000  1.0
  C  C221  1  0.35928000  0.47975000  0.09368000  1.0
  C  C222  1  0.43760000  0.42147000  0.01866000  1.0
  C  C223  1  0.29383000  0.46225000  0.97940000  1.0
  C  C224  1  0.31611000  0.48371000  0.91370000  1.0
  C  C225  1  0.25328000  0.48956000  0.86506000  1.0
  C  C226  1  0.16897000  0.47530000  0.88186000  1.0
  C  C227  1  0.14768000  0.45594000  0.94857000  1.0
  C  C228  1  0.21002000  0.44869000  0.99774000  1.0
  C  C229  1  0.10109000  0.48078000  0.82919000  1.0
  C  C230  1  0.92472000  0.20460000  0.35471000  1.0
  C  C231  1  0.90235000  0.12591000  0.27037000  1.0
  C  C232  1  0.79825000  0.23466000  0.28333000  1.0
  C  C233  1  0.80034000  0.31630000  0.28657000  1.0
  C  C234  1  0.72688000  0.35759000  0.27246000  1.0
  C  C235  1  0.65261000  0.31832000  0.25452000  1.0
  C  C236  1  0.65247000  0.23641000  0.25089000  1.0
  C  C237  1  0.72510000  0.19395000  0.26544000  1.0
  C  C238  1  0.57375000  0.36339000  0.23836000  1.0
  C  C239  1  0.14073000  0.97975000  0.40633000  1.0
  C  C240  1  0.06240000  0.92147000  0.48134000  1.0
  C  C241  1  0.20617000  0.96224000  0.52061000  1.0
  C  C242  1  0.18389000  0.98371000  0.58631000  1.0
  C  C243  1  0.24672000  0.98955000  0.63494000  1.0
  C  C244  1  0.33103000  0.97529000  0.61815000  1.0
  C  C245  1  0.35232000  0.95593000  0.55143000  1.0
  C  C246  1  0.28998000  0.94869000  0.50226000  1.0
  C  C247  1  0.39891000  0.98077000  0.67081000  1.0
  N  N248  1  0.48239000  0.14934000  0.14118000  1.0
  N  N249  1  0.46803000  0.10010000  0.19523000  1.0
  N  N250  1  0.37227000  0.19169000  0.19936000  1.0
  N  N251  1  0.51726000  0.92597000  0.07439000  1.0
  N  N252  1  0.56720000  0.96307000  0.12147000  1.0
  N  N253  1  0.64068000  0.95437000  0.02842000  1.0
  N  N254  1  0.01761000  0.64934000  0.35882000  1.0
  N  N255  1  0.03197000  0.60010000  0.30477000  1.0
  N  N256  1  0.12773000  0.69168000  0.30064000  1.0
  N  N257  1  0.98275000  0.42598000  0.42562000  1.0
  N  N258  1  0.93281000  0.46308000  0.37854000  1.0
  N  N259  1  0.85932000  0.45437000  0.47158000  1.0
  N  N260  1  0.48239000  0.35066000  0.85882000  1.0
  N  N261  1  0.46803000  0.39990000  0.80477000  1.0
  N  N262  1  0.37227000  0.30832000  0.80064000  1.0
  N  N263  1  0.51725000  0.57402000  0.92561000  1.0
  N  N264  1  0.56720000  0.53692000  0.87854000  1.0
  N  N265  1  0.64068000  0.54563000  0.97158000  1.0
  N  N266  1  0.01761000  0.85066000  0.64118000  1.0
  N  N267  1  0.03197000  0.89990000  0.69523000  1.0
  N  N268  1  0.12773000  0.80832000  0.69936000  1.0
  N  N269  1  0.98275000  0.07402000  0.57439000  1.0
  N  N270  1  0.93280000  0.03692000  0.62147000  1.0
  N  N271  1  0.85932000  0.04563000  0.52842000  1.0
  N  N272  1  0.51762000  0.85066000  0.85882000  1.0
  N  N273  1  0.53197000  0.89990000  0.80477000  1.0
  N  N274  1  0.62773000  0.80832000  0.80064000  1.0
  N  N275  1  0.48274000  0.07402000  0.92561000  1.0
  N  N276  1  0.43280000  0.03693000  0.87853000  1.0
  N  N277  1  0.35932000  0.04563000  0.97158000  1.0
  N  N278  1  0.98239000  0.35066000  0.64119000  1.0
  N  N279  1  0.96803000  0.39990000  0.69523000  1.0
  N  N280  1  0.87227000  0.30832000  0.69936000  1.0
  N  N281  1  0.01725000  0.57402000  0.57439000  1.0
  N  N282  1  0.06719000  0.53692000  0.62147000  1.0
  N  N283  1  0.14068000  0.54563000  0.52842000  1.0
  N  N284  1  0.51761000  0.64934000  0.14118000  1.0
  N  N285  1  0.53197000  0.60010000  0.19523000  1.0
  N  N286  1  0.62773000  0.69168000  0.19936000  1.0
  N  N287  1  0.48275000  0.42598000  0.07439000  1.0
  N  N288  1  0.43281000  0.46308000  0.12147000  1.0
  N  N289  1  0.35932000  0.45437000  0.02842000  1.0
  N  N290  1  0.98239000  0.14934000  0.35881000  1.0
  N  N291  1  0.96804000  0.10010000  0.30477000  1.0
  N  N292  1  0.87227000  0.19168000  0.30064000  1.0
  N  N293  1  0.01725000  0.92598000  0.42561000  1.0
  N  N294  1  0.06720000  0.96308000  0.37853000  1.0
  N  N295  1  0.14068000  0.95437000  0.47158000  1.0
  O  O296  1  0.00484000  0.32905000  0.26872000  1.0
  O  O297  1  0.08429000  0.43875000  0.26737000  1.0
  O  O298  1  0.87333000  0.99712000  0.76789000  1.0
  O  O299  1  0.97430000  0.96984000  0.84442000  1.0
  O  O300  1  0.49516000  0.82904000  0.23128000  1.0
  O  O301  1  0.41571000  0.93874000  0.23263000  1.0
  O  O302  1  0.62667000  0.49712000  0.73210000  1.0
  O  O303  1  0.52569000  0.46985000  0.65558000  1.0
  O  O304  1  0.00484000  0.17095000  0.73128000  1.0
  O  O305  1  0.08429000  0.06126000  0.73262000  1.0
  O  O306  1  0.87332000  0.50289000  0.23211000  1.0
  O  O307  1  0.97430000  0.53015000  0.15558000  1.0
  O  O308  1  0.49516000  0.67094000  0.76872000  1.0
  O  O309  1  0.41570000  0.56125000  0.76737000  1.0
  O  O310  1  0.62668000  0.00289000  0.26789000  1.0
  O  O311  1  0.52570000  0.03015000  0.34442000  1.0
  O  O312  1  0.99516000  0.67095000  0.73128000  1.0
  O  O313  1  0.91571000  0.56126000  0.73263000  1.0
  O  O314  1  0.12668000  0.00288000  0.23210000  1.0
  O  O315  1  0.02570000  0.03016000  0.15558000  1.0
  O  O316  1  0.50484000  0.17095000  0.76872000  1.0
  O  O317  1  0.58429000  0.06126000  0.76737000  1.0
  O  O318  1  0.37332000  0.50289000  0.26790000  1.0
  O  O319  1  0.47430000  0.53015000  0.34442000  1.0
  O  O320  1  0.99516000  0.82905000  0.26871000  1.0
  O  O321  1  0.91571000  0.93874000  0.26736000  1.0
  O  O322  1  0.12668000  0.49711000  0.76789000  1.0
  O  O323  1  0.02570000  0.46985000  0.84442000  1.0
  O  O324  1  0.50484000  0.32905000  0.23128000  1.0
  O  O325  1  0.58429000  0.43874000  0.23263000  1.0
  O  O326  1  0.37333000  0.99710000  0.73211000  1.0
  O  O327  1  0.47430000  0.96984000  0.65558000  1.0
