# generated using pymatgen
data_CuH7C9NO3
_symmetry_space_group_name_H-M   'P 1'
_cell_length_a   6.87689000
_cell_length_b   15.77249437
_cell_length_c   15.77650000
_cell_angle_alpha   117.93253744
_cell_angle_beta   98.37250000
_cell_angle_gamma   98.31354259
_symmetry_Int_Tables_number   1
_chemical_formula_structural   CuH7C9NO3
_chemical_formula_sum   'Cu6 H42 C54 N6 O18'
_cell_volume   1450.73766360
_cell_formula_units_Z   6
loop_
 _symmetry_equiv_pos_site_id
 _symmetry_equiv_pos_as_xyz
  1  'x, y, z'
loop_
 _atom_site_type_symbol
 _atom_site_label
 _atom_site_symmetry_multiplicity
 _atom_site_fract_x
 _atom_site_fract_y
 _atom_site_fract_z
 _atom_site_occupancy
  Cu  Cu0  1  0.04817000  0.42890000  0.90249000  1.0
  Cu  Cu1  1  0.61922000  0.47352000  0.57105000  1.0
  Cu  Cu2  1  0.14563000  0.09761000  0.52662000  1.0
  Cu  Cu3  1  0.95183000  0.57110000  0.09751000  1.0
  Cu  Cu4  1  0.38078000  0.52648000  0.42895000  1.0
  Cu  Cu5  1  0.85437000  0.90239000  0.47338000  1.0
  H  H6  1  0.23827000  0.75556000  0.13751000  1.0
  H  H7  1  0.48379000  0.38229000  0.24451000  1.0
  H  H8  1  0.10106000  0.86230000  0.61789000  1.0
  H  H9  1  0.76174000  0.24444000  0.86250000  1.0
  H  H10  1  0.51619000  0.61771000  0.75549000  1.0
  H  H11  1  0.89894000  0.13770000  0.38211000  1.0
  H  H12  1  0.53861000  0.87834000  0.16168000  1.0
  H  H13  1  0.66160000  0.28363000  0.12177000  1.0
  H  H14  1  0.37730000  0.83809000  0.71656000  1.0
  H  H15  1  0.46141000  0.12166000  0.83833000  1.0
  H  H16  1  0.33837000  0.71636000  0.87822000  1.0
  H  H17  1  0.62270000  0.16191000  0.28344000  1.0
  H  H18  1  0.80164000  0.82489000  0.06649000  1.0
  H  H19  1  0.97787000  0.24164000  0.17518000  1.0
  H  H20  1  0.73547000  0.93323000  0.75839000  1.0
  H  H21  1  0.19840000  0.17512000  0.93353000  1.0
  H  H22  1  0.02209000  0.75834000  0.82480000  1.0
  H  H23  1  0.26454000  0.06677000  0.24162000  1.0
  H  H24  1  0.74522000  0.64610000  0.94046000  1.0
  H  H25  1  0.09993000  0.29439000  0.35399000  1.0
  H  H26  1  0.80493000  0.05921000  0.70560000  1.0
  H  H27  1  0.25480000  0.35390000  0.05954000  1.0
  H  H28  1  0.90005000  0.70560000  0.64600000  1.0
  H  H29  1  0.19508000  0.94079000  0.29440000  1.0
  H  H30  1  0.57504000  0.49096000  0.85591000  1.0
  H  H31  1  0.08446000  0.36496000  0.50914000  1.0
  H  H32  1  0.71924000  0.14378000  0.63498000  1.0
  H  H33  1  0.42496000  0.50904000  0.14409000  1.0
  H  H34  1  0.91553000  0.63504000  0.49087000  1.0
  H  H35  1  0.28076000  0.85621000  0.36501000  1.0
  H  H36  1  0.40711000  0.30110000  0.79204000  1.0
  H  H37  1  0.10572000  0.49079000  0.69886000  1.0
  H  H38  1  0.61502000  0.20763000  0.50903000  1.0
  H  H39  1  0.59289000  0.69891000  0.20797000  1.0
  H  H40  1  0.89429000  0.50922000  0.30115000  1.0
  H  H41  1  0.38500000  0.79238000  0.49098000  1.0
  H  H42  1  0.30964000  0.33866000  0.70775000  1.0
  H  H43  1  0.97082000  0.36898000  0.66131000  1.0
  H  H44  1  0.60190000  0.29208000  0.63078000  1.0
  H  H45  1  0.69035000  0.66135000  0.29225000  1.0
  H  H46  1  0.02918000  0.63102000  0.33868000  1.0
  H  H47  1  0.39810000  0.70792000  0.36922000  1.0
  C  C48  1  0.46127000  0.60057000  0.96697000  1.0
  C  C49  1  0.86125000  0.36640000  0.39944000  1.0
  C  C50  1  0.49444000  0.03281000  0.63358000  1.0
  C  C51  1  0.53874000  0.39943000  0.03303000  1.0
  C  C52  1  0.13875000  0.63360000  0.60056000  1.0
  C  C53  1  0.50557000  0.96720000  0.36642000  1.0
  C  C54  1  0.31573000  0.63013000  0.02497000  1.0
  C  C55  1  0.68629000  0.39501000  0.36993000  1.0
  C  C56  1  0.29092000  0.97488000  0.60512000  1.0
  C  C57  1  0.68428000  0.36988000  0.97504000  1.0
  C  C58  1  0.31370000  0.60499000  0.63007000  1.0
  C  C59  1  0.70908000  0.02512000  0.39488000  1.0
  C  C60  1  0.34822000  0.73203000  0.09358000  1.0
  C  C61  1  0.61724000  0.36184000  0.26807000  1.0
  C  C62  1  0.25491000  0.90621000  0.63832000  1.0
  C  C63  1  0.65180000  0.26798000  0.90643000  1.0
  C  C64  1  0.38274000  0.63816000  0.73193000  1.0
  C  C65  1  0.74509000  0.09379000  0.36168000  1.0
  C  C66  1  0.51931000  0.80055000  0.10745000  1.0
  C  C67  1  0.71993000  0.30714000  0.19955000  1.0
  C  C68  1  0.41217000  0.89230000  0.69299000  1.0
  C  C69  1  0.48072000  0.19946000  0.89256000  1.0
  C  C70  1  0.28004000  0.69285000  0.80044000  1.0
  C  C71  1  0.58782000  0.10769000  0.30700000  1.0
  C  C72  1  0.66656000  0.77101000  0.05411000  1.0
  C  C73  1  0.89665000  0.28322000  0.22906000  1.0
  C  C74  1  0.61276000  0.94558000  0.71680000  1.0
  C  C75  1  0.33346000  0.22900000  0.94589000  1.0
  C  C76  1  0.10332000  0.71677000  0.77093000  1.0
  C  C77  1  0.38724000  0.05442000  0.28319000  1.0
  C  C78  1  0.63582000  0.67197000  0.98461000  1.0
  C  C79  1  0.96470000  0.31269000  0.32807000  1.0
  C  C80  1  0.65143000  0.01508000  0.68730000  1.0
  C  C81  1  0.36419000  0.32803000  0.01539000  1.0
  C  C82  1  0.03529000  0.68730000  0.67192000  1.0
  C  C83  1  0.34858000  0.98492000  0.31270000  1.0
  C  C84  1  0.44379000  0.50186000  0.88875000  1.0
  C  C85  1  0.94223000  0.38685000  0.49815000  1.0
  C  C86  1  0.55515000  0.11103000  0.61310000  1.0
  C  C87  1  0.55622000  0.49815000  0.11126000  1.0
  C  C88  1  0.05776000  0.61314000  0.50184000  1.0
  C  C89  1  0.44486000  0.88898000  0.38691000  1.0
  C  C90  1  0.28613000  0.33208000  0.77218000  1.0
  C  C91  1  0.95385000  0.43999000  0.66786000  1.0
  C  C92  1  0.51391000  0.22760000  0.55984000  1.0
  C  C93  1  0.71386000  0.66792000  0.22782000  1.0
  C  C94  1  0.04614000  0.56001000  0.33213000  1.0
  C  C95  1  0.48609000  0.77240000  0.44016000  1.0
  C  C96  1  0.08274000  0.26000000  0.74284000  1.0
  C  C97  1  0.82248000  0.48278000  0.73994000  1.0
  C  C98  1  0.33988000  0.25694000  0.51698000  1.0
  C  C99  1  0.91726000  0.74001000  0.25716000  1.0
  C  C100  1  0.17751000  0.51722000  0.26006000  1.0
  C  C101  1  0.66012000  0.74306000  0.48302000  1.0
  N  N102  1  0.28841000  0.42797000  0.85424000  1.0
  N  N103  1  0.86045000  0.42617000  0.57196000  1.0
  N  N104  1  0.43422000  0.14562000  0.57377000  1.0
  N  N105  1  0.71160000  0.57204000  0.14577000  1.0
  N  N106  1  0.13954000  0.57382000  0.42802000  1.0
  N  N107  1  0.56578000  0.85438000  0.42623000  1.0
  O  O108  1  0.15646000  0.56460000  0.01642000  1.0
  O  O109  1  0.59238000  0.45200000  0.43546000  1.0
  O  O110  1  0.14012000  0.98352000  0.54817000  1.0
  O  O111  1  0.84355000  0.43541000  0.98358000  1.0
  O  O112  1  0.40761000  0.54799000  0.56453000  1.0
  O  O113  1  0.85988000  0.01648000  0.45184000  1.0
  O  O114  1  0.95245000  0.29304000  0.79393000  1.0
  O  O115  1  0.65888000  0.50064000  0.70683000  1.0
  O  O116  1  0.15841000  0.20616000  0.49930000  1.0
  O  O117  1  0.04757000  0.70698000  0.20609000  1.0
  O  O118  1  0.34111000  0.49936000  0.29317000  1.0
  O  O119  1  0.84159000  0.79384000  0.50071000  1.0
  O  O120  1  0.04476000  0.17361000  0.67201000  1.0
  O  O121  1  0.87118000  0.49855000  0.82639000  1.0
  O  O122  1  0.37292000  0.32747000  0.50102000  1.0
  O  O123  1  0.95524000  0.82640000  0.32800000  1.0
  O  O124  1  0.12881000  0.50145000  0.17361000  1.0
  O  O125  1  0.62707000  0.67253000  0.49897000  1.0
