# generated using pymatgen
data_CuH4C3NCl
_symmetry_space_group_name_H-M   'P 1'
_cell_length_a   3.69140000
_cell_length_b   7.95451000
_cell_length_c   15.07200000
_cell_angle_alpha   83.07360000
_cell_angle_beta   88.74740000
_cell_angle_gamma   79.52600000
_symmetry_Int_Tables_number   1
_chemical_formula_structural   CuH4C3NCl
_chemical_formula_sum   'Cu4 H16 C12 N4 Cl4'
_cell_volume   432.01305608
_cell_formula_units_Z   4
loop_
 _symmetry_equiv_pos_site_id
 _symmetry_equiv_pos_as_xyz
  1  'x, y, z'
loop_
 _atom_site_type_symbol
 _atom_site_label
 _atom_site_symmetry_multiplicity
 _atom_site_fract_x
 _atom_site_fract_y
 _atom_site_fract_z
 _atom_site_occupancy
  Cu  Cu0  1  0.24324000  0.61601000  0.56479000  1.0
  Cu  Cu1  1  0.75678000  0.38400000  0.43520000  1.0
  Cu  Cu2  1  0.30635000  0.82563000  0.97902000  1.0
  Cu  Cu3  1  0.69365000  0.17437000  0.02098000  1.0
  H  H4  1  0.98059000  0.99879000  0.81023000  1.0
  H  H5  1  0.01935000  0.00121000  0.18977000  1.0
  H  H6  1  0.61399000  0.51803000  0.89102000  1.0
  H  H7  1  0.38601000  0.48197000  0.10898000  1.0
  H  H8  1  0.72148000  0.88782000  0.59545000  1.0
  H  H9  1  0.27853000  0.11218000  0.40456000  1.0
  H  H10  1  0.07798000  0.00956000  0.59010000  1.0
  H  H11  1  0.92204000  0.99044000  0.40991000  1.0
  H  H12  1  0.70390000  0.05891000  0.66335000  1.0
  H  H13  1  0.29611000  0.94109000  0.33665000  1.0
  H  H14  1  0.42384000  0.31015000  0.71654000  1.0
  H  H15  1  0.57619000  0.68986000  0.28345000  1.0
  H  H16  1  0.79495000  0.31766000  0.78917000  1.0
  H  H17  1  0.20507000  0.68235000  0.21082000  1.0
  H  H18  1  0.80301000  0.39908000  0.67262000  1.0
  H  H19  1  0.19698000  0.60093000  0.32738000  1.0
  C  C20  1  0.08605000  0.82814000  0.70757000  1.0
  C  C21  1  0.91393000  0.17187000  0.29244000  1.0
  C  C22  1  0.11143000  0.87249000  0.79342000  1.0
  C  C23  1  0.88855000  0.12749000  0.20658000  1.0
  C  C24  1  0.46046000  0.60726000  0.83862000  1.0
  C  C25  1  0.53956000  0.39272000  0.16138000  1.0
  C  C26  1  0.44120000  0.55928000  0.75326000  1.0
  C  C27  1  0.55879000  0.44072000  0.24673000  1.0
  C  C28  1  0.88459000  0.95265000  0.63588000  1.0
  C  C29  1  0.11542000  0.04734000  0.36412000  1.0
  C  C30  1  0.62838000  0.38664000  0.73230000  1.0
  C  C31  1  0.37163000  0.61336000  0.26769000  1.0
  N  N32  1  0.25250000  0.67007000  0.68678000  1.0
  N  N33  1  0.74750000  0.32993000  0.31322000  1.0
  N  N34  1  0.29807000  0.76385000  0.85979000  1.0
  N  N35  1  0.70190000  0.23614000  0.14020000  1.0
  Cl  Cl36  1  0.28532000  0.31362000  0.52970000  1.0
  Cl  Cl37  1  0.71471000  0.68638000  0.47029000  1.0
  Cl  Cl38  1  0.79738000  0.81553000  0.06837000  1.0
  Cl  Cl39  1  0.20262000  0.18447000  0.93163000  1.0
