# generated using pymatgen
data_GdH13C23N4O7
_symmetry_space_group_name_H-M   'P 1'
_cell_length_a   13.09820000
_cell_length_b   13.09820000
_cell_length_c   15.12060000
_cell_angle_alpha   93.28860000
_cell_angle_beta   93.28840000
_cell_angle_gamma   117.64300000
_symmetry_Int_Tables_number   1
_chemical_formula_structural   GdH13C23N4O7
_chemical_formula_sum   'Gd4 H52 C92 N16 O28'
_cell_volume   2283.87694542
_cell_formula_units_Z   4
loop_
 _symmetry_equiv_pos_site_id
 _symmetry_equiv_pos_as_xyz
  1  'x, y, z'
loop_
 _atom_site_type_symbol
 _atom_site_label
 _atom_site_symmetry_multiplicity
 _atom_site_fract_x
 _atom_site_fract_y
 _atom_site_fract_z
 _atom_site_occupancy
  Gd  Gd0  1  0.10033000  0.38474000  0.57953000  1.0
  Gd  Gd1  1  0.61526000  0.89967000  0.92048000  1.0
  Gd  Gd2  1  0.89967000  0.61526000  0.42047000  1.0
  Gd  Gd3  1  0.38474000  0.10033000  0.07953000  1.0
  H  H4  1  0.17164000  0.74017000  0.37650000  1.0
  H  H5  1  0.25983000  0.82837000  0.12350000  1.0
  H  H6  1  0.82837000  0.25983000  0.62350000  1.0
  H  H7  1  0.74017000  0.17163000  0.87650000  1.0
  H  H8  1  0.34272000  0.93146000  0.35784000  1.0
  H  H9  1  0.06854000  0.65728000  0.14216000  1.0
  H  H10  1  0.65728000  0.06854000  0.64216000  1.0
  H  H11  1  0.93146000  0.34272000  0.85784000  1.0
  H  H12  1  0.30954000  0.10479000  0.34575000  1.0
  H  H13  1  0.89521000  0.69046000  0.15425000  1.0
  H  H14  1  0.69046000  0.89521000  0.65425000  1.0
  H  H15  1  0.10479000  0.30954000  0.84575000  1.0
  H  H16  1  0.11167000  0.08140000  0.35329000  1.0
  H  H17  1  0.91860000  0.88833000  0.14671000  1.0
  H  H18  1  0.88832000  0.91860000  0.64671000  1.0
  H  H19  1  0.08139000  0.11167000  0.85329000  1.0
  H  H20  1  0.94899000  0.05080000  0.35774000  1.0
  H  H21  1  0.94920000  0.05101000  0.14226000  1.0
  H  H22  1  0.05101000  0.94919000  0.64226000  1.0
  H  H23  1  0.05080000  0.94899000  0.85774000  1.0
  H  H24  1  0.59308000  0.79830000  0.35998000  1.0
  H  H25  1  0.20170000  0.40692000  0.14002000  1.0
  H  H26  1  0.40692000  0.20170000  0.64002000  1.0
  H  H27  1  0.79830000  0.59308000  0.85998000  1.0
  H  H28  1  0.48297000  0.62908000  0.33037000  1.0
  H  H29  1  0.37092000  0.51703000  0.16963000  1.0
  H  H30  1  0.51703000  0.37092000  0.66963000  1.0
  H  H31  1  0.62908000  0.48297000  0.83037000  1.0
  H  H32  1  0.34646000  0.42517000  0.35199000  1.0
  H  H33  1  0.57483000  0.65354000  0.14801000  1.0
  H  H34  1  0.65354000  0.57483000  0.64801000  1.0
  H  H35  1  0.42517000  0.34646000  0.85199000  1.0
  H  H36  1  0.42781000  0.29955000  0.41233000  1.0
  H  H37  1  0.70045000  0.57219000  0.08767000  1.0
  H  H38  1  0.57219000  0.70045000  0.58767000  1.0
  H  H39  1  0.29955000  0.42781000  0.91233000  1.0
  H  H40  1  0.64326000  0.38647000  0.44616000  1.0
  H  H41  1  0.61353000  0.35674000  0.05385000  1.0
  H  H42  1  0.35673000  0.61353000  0.55384000  1.0
  H  H43  1  0.38647000  0.64326000  0.94615000  1.0
  H  H44  1  0.87936000  0.15165000  0.43636000  1.0
  H  H45  1  0.84835000  0.12065000  0.06364000  1.0
  H  H46  1  0.12065000  0.84835000  0.56364000  1.0
  H  H47  1  0.15165000  0.87936000  0.93636000  1.0
  H  H48  1  0.64915000  0.27656000  0.33536000  1.0
  H  H49  1  0.72344000  0.35085000  0.16465000  1.0
  H  H50  1  0.35086000  0.72344000  0.66464000  1.0
  H  H51  1  0.27656000  0.64915000  0.83536000  1.0
  H  H52  1  0.57675000  0.92798000  0.25675000  1.0
  H  H53  1  0.07202000  0.42325000  0.24325000  1.0
  H  H54  1  0.42325000  0.07202000  0.74325000  1.0
  H  H55  1  0.92798000  0.57675000  0.75675000  1.0
  C  C56  1  0.16274000  0.81845000  0.37183000  1.0
  C  C57  1  0.18155000  0.83726000  0.12817000  1.0
  C  C58  1  0.83726000  0.18155000  0.62817000  1.0
  C  C59  1  0.81845000  0.16274000  0.87183000  1.0
  C  C60  1  0.25712000  0.92481000  0.36198000  1.0
  C  C61  1  0.07519000  0.74288000  0.13802000  1.0
  C  C62  1  0.74288000  0.07519000  0.63802000  1.0
  C  C63  1  0.92481000  0.25712000  0.86198000  1.0
  C  C64  1  0.23829000  0.02071000  0.35596000  1.0
  C  C65  1  0.97929000  0.76171000  0.14404000  1.0
  C  C66  1  0.76171000  0.97929000  0.64404000  1.0
  C  C67  1  0.02071000  0.23829000  0.85596000  1.0
  C  C68  1  0.12654000  0.00681000  0.35910000  1.0
  C  C69  1  0.99319000  0.87346000  0.14090000  1.0
  C  C70  1  0.87346000  0.99319000  0.64090000  1.0
  C  C71  1  0.00681000  0.12654000  0.85910000  1.0
  C  C72  1  0.03535000  0.89646000  0.36729000  1.0
  C  C73  1  0.10354000  0.96465000  0.13271000  1.0
  C  C74  1  0.96465000  0.10354000  0.63271000  1.0
  C  C75  1  0.89645000  0.03535000  0.86729000  1.0
  C  C76  1  0.91285000  0.87290000  0.36506000  1.0
  C  C77  1  0.12710000  0.08715000  0.13493000  1.0
  C  C78  1  0.08715000  0.12709000  0.63493000  1.0
  C  C79  1  0.87290000  0.91285000  0.86506000  1.0
  C  C80  1  0.88250000  0.96171000  0.35951000  1.0
  C  C81  1  0.03829000  0.11750000  0.14049000  1.0
  C  C82  1  0.11750000  0.03829000  0.64049000  1.0
  C  C83  1  0.96171000  0.88250000  0.85951000  1.0
  C  C84  1  0.76580000  0.93588000  0.35574000  1.0
  C  C85  1  0.06412000  0.23420000  0.14425000  1.0
  C  C86  1  0.23420000  0.06412000  0.64425000  1.0
  C  C87  1  0.93588000  0.76580000  0.85574000  1.0
  C  C88  1  0.68410000  0.82068000  0.35982000  1.0
  C  C89  1  0.17932000  0.31590000  0.14018000  1.0
  C  C90  1  0.31590000  0.17932000  0.64018000  1.0
  C  C91  1  0.82068000  0.68410000  0.85982000  1.0
  C  C92  1  0.71990000  0.73602000  0.36631000  1.0
  C  C93  1  0.26398000  0.28010000  0.13369000  1.0
  C  C94  1  0.28010000  0.26397000  0.63369000  1.0
  C  C95  1  0.73602000  0.71990000  0.86631000  1.0
  C  C96  1  0.63507000  0.61468000  0.37601000  1.0
  C  C97  1  0.38532000  0.36493000  0.12399000  1.0
  C  C98  1  0.36493000  0.38532000  0.62399000  1.0
  C  C99  1  0.61468000  0.63507000  0.87601000  1.0
  C  C100  1  0.51588000  0.57320000  0.35648000  1.0
  C  C101  1  0.42680000  0.48412000  0.14352000  1.0
  C  C102  1  0.48411000  0.42679000  0.64352000  1.0
  C  C103  1  0.57320000  0.51588000  0.85648000  1.0
  C  C104  1  0.43924000  0.45905000  0.36848000  1.0
  C  C105  1  0.54095000  0.56076000  0.13152000  1.0
  C  C106  1  0.56076000  0.54095000  0.63152000  1.0
  C  C107  1  0.45905000  0.43924000  0.86848000  1.0
  C  C108  1  0.48396000  0.38947000  0.40161000  1.0
  C  C109  1  0.61053000  0.51604000  0.09840000  1.0
  C  C110  1  0.51603000  0.61052000  0.59839000  1.0
  C  C111  1  0.38947000  0.48396000  0.90160000  1.0
  C  C112  1  0.60346000  0.43679000  0.42012000  1.0
  C  C113  1  0.56321000  0.39654000  0.07989000  1.0
  C  C114  1  0.39654000  0.56321000  0.57988000  1.0
  C  C115  1  0.43679000  0.60346000  0.92012000  1.0
  C  C116  1  0.73071000  0.02732000  0.34945000  1.0
  C  C117  1  0.97268000  0.26929000  0.15055000  1.0
  C  C118  1  0.26929000  0.97268000  0.65055000  1.0
  C  C119  1  0.02732000  0.73071000  0.84945000  1.0
  C  C120  1  0.80071000  0.13566000  0.39630000  1.0
  C  C121  1  0.86434000  0.19929000  0.10369000  1.0
  C  C122  1  0.19929000  0.86434000  0.60369000  1.0
  C  C123  1  0.13565000  0.80071000  0.89630000  1.0
  C  C124  1  0.77152000  0.22517000  0.39291000  1.0
  C  C125  1  0.77482000  0.22848000  0.10709000  1.0
  C  C126  1  0.22848000  0.77482000  0.60709000  1.0
  C  C127  1  0.22518000  0.77153000  0.89291000  1.0
  C  C128  1  0.67109000  0.20656000  0.34152000  1.0
  C  C129  1  0.79344000  0.32891000  0.15848000  1.0
  C  C130  1  0.32891000  0.79344000  0.65848000  1.0
  C  C131  1  0.20656000  0.67109000  0.84152000  1.0
  C  C132  1  0.60024000  0.09898000  0.29398000  1.0
  C  C133  1  0.90102000  0.39977000  0.20602000  1.0
  C  C134  1  0.39977000  0.90102000  0.70602000  1.0
  C  C135  1  0.09898000  0.60024000  0.79398000  1.0
  C  C136  1  0.63011000  0.00931000  0.29777000  1.0
  C  C137  1  0.99069000  0.36989000  0.20223000  1.0
  C  C138  1  0.36989000  0.99069000  0.70223000  1.0
  C  C139  1  0.00931000  0.63011000  0.79777000  1.0
  C  C140  1  0.85091000  0.34068000  0.44272000  1.0
  C  C141  1  0.65933000  0.14908000  0.05728000  1.0
  C  C142  1  0.14908000  0.65933000  0.55727000  1.0
  C  C143  1  0.34067000  0.85092000  0.94272000  1.0
  C  C144  1  0.49800000  0.08382000  0.23361000  1.0
  C  C145  1  0.91619000  0.50201000  0.26640000  1.0
  C  C146  1  0.50201000  0.91619000  0.76640000  1.0
  C  C147  1  0.08382000  0.49800000  0.73361000  1.0
  N  N148  1  0.05469000  0.80427000  0.37482000  1.0
  N  N149  1  0.19573000  0.94531000  0.12518000  1.0
  N  N150  1  0.94531000  0.19573000  0.62518000  1.0
  N  N151  1  0.80427000  0.05469000  0.87482000  1.0
  N  N152  1  0.83238000  0.76136000  0.36806000  1.0
  N  N153  1  0.23865000  0.16762000  0.13194000  1.0
  N  N154  1  0.16762000  0.23864000  0.63194000  1.0
  N  N155  1  0.76135000  0.83238000  0.86806000  1.0
  N  N156  1  0.67809000  0.54598000  0.40653000  1.0
  N  N157  1  0.45402000  0.32191000  0.09347000  1.0
  N  N158  1  0.32190000  0.45402000  0.59346000  1.0
  N  N159  1  0.54598000  0.67809000  0.90653000  1.0
  N  N160  1  0.13738000  0.30388000  0.40400000  1.0
  N  N161  1  0.69611000  0.86262000  0.09600000  1.0
  N  N162  1  0.86262000  0.69611000  0.59599000  1.0
  N  N163  1  0.30389000  0.13738000  0.90400000  1.0
  O  O164  1  0.94071000  0.35163000  0.48715000  1.0
  O  O165  1  0.64838000  0.05930000  0.01286000  1.0
  O  O166  1  0.05931000  0.64837000  0.51286000  1.0
  O  O167  1  0.35162000  0.94070000  0.98715000  1.0
  O  O168  1  0.82204000  0.42040000  0.43676000  1.0
  O  O169  1  0.57959000  0.17796000  0.06324000  1.0
  O  O170  1  0.17797000  0.57959000  0.56324000  1.0
  O  O171  1  0.42040000  0.82204000  0.93676000  1.0
  O  O172  1  0.46891000  0.16481000  0.23438000  1.0
  O  O173  1  0.83519000  0.53109000  0.26562000  1.0
  O  O174  1  0.53109000  0.83519000  0.76562000  1.0
  O  O175  1  0.16481000  0.46891000  0.73438000  1.0
  O  O176  1  0.44605000  0.99333000  0.17870000  1.0
  O  O177  1  0.00667000  0.55396000  0.32130000  1.0
  O  O178  1  0.55395000  0.00667000  0.82130000  1.0
  O  O179  1  0.99333000  0.44604000  0.67870000  1.0
  O  O180  1  0.17100000  0.41095000  0.42562000  1.0
  O  O181  1  0.58905000  0.82900000  0.07438000  1.0
  O  O182  1  0.82900000  0.58905000  0.57438000  1.0
  O  O183  1  0.41095000  0.17100000  0.92562000  1.0
  O  O184  1  0.08350000  0.23263000  0.46070000  1.0
  O  O185  1  0.76737000  0.91650000  0.03930000  1.0
  O  O186  1  0.91650000  0.76737000  0.53930000  1.0
  O  O187  1  0.23263000  0.08350000  0.96070000  1.0
  O  O188  1  0.15652000  0.26894000  0.33169000  1.0
  O  O189  1  0.73106000  0.84348000  0.16831000  1.0
  O  O190  1  0.84348000  0.73106000  0.66831000  1.0
  O  O191  1  0.26894000  0.15652000  0.83169000  1.0
