# generated using pymatgen
data_CdH16C20(NO3)2
_symmetry_space_group_name_H-M   'P 1'
_cell_length_a   9.59368000
_cell_length_b   10.43360000
_cell_length_c   11.50880000
_cell_angle_alpha   108.55200000
_cell_angle_beta   105.15100000
_cell_angle_gamma   97.26330000
_symmetry_Int_Tables_number   1
_chemical_formula_structural   CdH16C20(NO3)2
_chemical_formula_sum   'Cd2 H32 C40 N4 O12'
_cell_volume   1026.14528794
_cell_formula_units_Z   2
loop_
 _symmetry_equiv_pos_site_id
 _symmetry_equiv_pos_as_xyz
  1  'x, y, z'
loop_
 _atom_site_type_symbol
 _atom_site_label
 _atom_site_symmetry_multiplicity
 _atom_site_fract_x
 _atom_site_fract_y
 _atom_site_fract_z
 _atom_site_occupancy
  Cd  Cd0  1  0.47994000  0.63616000  0.76692000  1.0
  Cd  Cd1  1  0.52005000  0.36382000  0.23306000  1.0
  H  H2  1  0.20547000  0.09124000  0.22169000  1.0
  H  H3  1  0.79452000  0.90876000  0.77831000  1.0
  H  H4  1  0.99697000  0.97144000  0.71362000  1.0
  H  H5  1  0.00303000  0.02854000  0.28636000  1.0
  H  H6  1  0.87861000  0.40155000  0.76120000  1.0
  H  H7  1  0.12137000  0.59845000  0.23879000  1.0
  H  H8  1  0.88313000  0.65711000  0.13706000  1.0
  H  H9  1  0.11689000  0.34290000  0.86293000  1.0
  H  H10  1  0.65485000  0.07364000  0.73068000  1.0
  H  H11  1  0.34520000  0.92637000  0.26933000  1.0
  H  H12  1  0.35871000  0.75387000  0.38061000  1.0
  H  H13  1  0.64133000  0.24614000  0.61940000  1.0
  H  H14  1  0.46465000  0.34447000  0.78014000  1.0
  H  H15  1  0.53534000  0.65552000  0.21986000  1.0
  H  H16  1  0.29093000  0.11204000  0.70727000  1.0
  H  H17  1  0.70904000  0.88796000  0.29275000  1.0
  H  H18  1  0.93851000  0.28585000  0.54516000  1.0
  H  H19  1  0.06146000  0.71413000  0.45482000  1.0
  H  H20  1  0.12482000  0.51236000  0.62853000  1.0
  H  H21  1  0.87516000  0.48763000  0.37143000  1.0
  H  H22  1  0.88347000  0.05068000  0.56059000  1.0
  H  H23  1  0.11651000  0.94930000  0.43940000  1.0
  H  H24  1  0.28424000  0.64009000  0.94974000  1.0
  H  H25  1  0.71577000  0.35991000  0.05026000  1.0
  H  H26  1  0.12442000  0.77911000  0.05049000  1.0
  H  H27  1  0.87560000  0.22088000  0.94952000  1.0
  H  H28  1  0.27185000  0.09670000  0.91570000  1.0
  H  H29  1  0.72814000  0.90330000  0.08429000  1.0
  H  H30  1  0.42573000  0.94352000  0.81857000  1.0
  H  H31  1  0.57426000  0.05647000  0.18141000  1.0
  H  H32  1  0.11077000  0.13764000  0.03933000  1.0
  H  H33  1  0.88923000  0.86234000  0.96065000  1.0
  C  C34  1  0.72613000  0.56646000  0.88474000  1.0
  C  C35  1  0.27387000  0.43356000  0.11527000  1.0
  C  C36  1  0.86757000  0.53181000  0.94408000  1.0
  C  C37  1  0.13244000  0.46822000  0.05594000  1.0
  C  C38  1  0.93263000  0.44341000  0.86559000  1.0
  C  C39  1  0.06736000  0.55661000  0.13442000  1.0
  C  C40  1  0.93571000  0.58831000  0.07859000  1.0
  C  C41  1  0.06432000  0.41172000  0.92143000  1.0
  C  C42  1  0.50726000  0.80334000  0.62868000  1.0
  C  C43  1  0.49277000  0.19667000  0.37133000  1.0
  C  C44  1  0.50641000  0.90432000  0.56156000  1.0
  C  C45  1  0.49363000  0.09571000  0.43848000  1.0
  C  C46  1  0.58784000  0.04216000  0.62945000  1.0
  C  C47  1  0.41219000  0.95787000  0.37058000  1.0
  C  C48  1  0.41858000  0.86225000  0.43181000  1.0
  C  C49  1  0.58145000  0.13777000  0.56822000  1.0
  C  C50  1  0.34685000  0.32716000  0.72959000  1.0
  C  C51  1  0.65312000  0.67283000  0.27041000  1.0
  C  C52  1  0.25084000  0.19882000  0.68839000  1.0
  C  C53  1  0.74913000  0.80116000  0.31162000  1.0
  C  C54  1  0.10139000  0.18120000  0.62117000  1.0
  C  C55  1  0.89859000  0.81879000  0.37883000  1.0
  C  C56  1  0.05397000  0.29500000  0.59808000  1.0
  C  C57  1  0.94601000  0.70499000  0.40192000  1.0
  C  C58  1  0.15694000  0.42060000  0.64340000  1.0
  C  C59  1  0.84304000  0.57938000  0.35658000  1.0
  C  C60  1  0.99842000  0.03954000  0.56970000  1.0
  C  C61  1  0.00157000  0.96045000  0.43032000  1.0
  C  C62  1  0.27780000  0.74146000  0.94359000  1.0
  C  C63  1  0.72220000  0.25854000  0.05640000  1.0
  C  C64  1  0.18827000  0.81880000  0.99869000  1.0
  C  C65  1  0.81173000  0.18118000  0.00130000  1.0
  C  C66  1  0.18158000  0.94730000  0.98629000  1.0
  C  C67  1  0.81842000  0.05269000  0.01370000  1.0
  C  C68  1  0.26948000  0.99456000  0.92233000  1.0
  C  C69  1  0.73053000  0.00543000  0.07766000  1.0
  C  C70  1  0.35572000  0.91050000  0.86944000  1.0
  C  C71  1  0.64428000  0.08949000  0.13055000  1.0
  C  C72  1  0.08213000  0.03265000  0.04144000  1.0
  C  C73  1  0.91788000  0.96734000  0.95855000  1.0
  N  N74  1  0.30108000  0.43658000  0.70767000  1.0
  N  N75  1  0.69890000  0.56342000  0.29232000  1.0
  N  N76  1  0.35918000  0.78559000  0.87857000  1.0
  N  N77  1  0.64081000  0.21441000  0.12141000  1.0
  O  O78  1  0.67499000  0.65528000  0.95727000  1.0
  O  O79  1  0.32501000  0.34475000  0.04274000  1.0
  O  O80  1  0.66178000  0.50558000  0.76283000  1.0
  O  O81  1  0.33822000  0.49443000  0.23717000  1.0
  O  O82  1  0.39544000  0.70263000  0.58802000  1.0
  O  O83  1  0.60459000  0.29738000  0.41198000  1.0
  O  O84  1  0.61772000  0.82472000  0.72972000  1.0
  O  O85  1  0.38230000  0.17528000  0.27030000  1.0
  O  O86  1  0.09942000  0.04080000  0.17111000  1.0
  O  O87  1  0.90058000  0.95920000  0.82889000  1.0
  O  O88  1  0.04347000  0.95876000  0.64485000  1.0
  O  O89  1  0.95651000  0.04124000  0.35514000  1.0
