# generated using pymatgen
data_CuNiH6C10(SN)4
_symmetry_space_group_name_H-M   'P 1'
_cell_length_a   6.85498000
_cell_length_b   6.85528000
_cell_length_c   16.12740000
_cell_angle_alpha   90.00000000
_cell_angle_beta   89.98920000
_cell_angle_gamma   89.99730000
_symmetry_Int_Tables_number   1
_chemical_formula_structural   CuNiH6C10(SN)4
_chemical_formula_sum   'Cu2 Ni2 H12 C20 S8 N8'
_cell_volume   757.87178605
_cell_formula_units_Z   2
loop_
 _symmetry_equiv_pos_site_id
 _symmetry_equiv_pos_as_xyz
  1  'x, y, z'
loop_
 _atom_site_type_symbol
 _atom_site_label
 _atom_site_symmetry_multiplicity
 _atom_site_fract_x
 _atom_site_fract_y
 _atom_site_fract_z
 _atom_site_occupancy
  Cu  Cu0  1  0.49944000  0.50004000  0.24998000  1.0
  Cu  Cu1  1  0.50062000  0.50000000  0.75001000  1.0
  Ni  Ni2  1  0.00024000  0.50002000  0.99998000  1.0
  Ni  Ni3  1  0.49990000  0.00000000  0.50001000  1.0
  H  H4  1  0.81400000  0.49991000  0.38682000  1.0
  H  H5  1  0.18469000  0.50001000  0.38688000  1.0
  H  H6  1  0.81532000  0.49996000  0.61312000  1.0
  H  H7  1  0.49929000  0.81473000  0.11311000  1.0
  H  H8  1  0.50055000  0.81468000  0.88691000  1.0
  H  H9  1  0.50049000  0.18533000  0.88690000  1.0
  H  H10  1  0.49929000  0.18539000  0.11312000  1.0
  H  H11  1  0.18601000  0.49996000  0.61312000  1.0
  H  H12  1  0.00024000  0.99992000  0.35387000  1.0
  H  H13  1  0.00055000  0.99996000  0.64617000  1.0
  H  H14  1  0.00028000  0.99993000  0.14615000  1.0
  H  H15  1  0.00055000  0.99998000  0.85390000  1.0
  C  C16  1  0.89524000  0.50001000  0.18602000  1.0
  C  C17  1  0.10394000  0.50002000  0.18608000  1.0
  C  C18  1  0.89625000  0.49997000  0.81391000  1.0
  C  C19  1  0.49862000  0.89569000  0.31392000  1.0
  C  C20  1  0.50064000  0.89567000  0.68610000  1.0
  C  C21  1  0.50063000  0.10433000  0.68610000  1.0
  C  C22  1  0.49858000  0.10438000  0.31392000  1.0
  C  C23  1  0.10493000  0.50005000  0.81392000  1.0
  C  C24  1  0.89831000  0.49996000  0.32971000  1.0
  C  C25  1  0.10045000  0.50000000  0.32975000  1.0
  C  C26  1  0.89960000  0.49997000  0.67024000  1.0
  C  C27  1  0.49888000  0.89900000  0.17023000  1.0
  C  C28  1  0.50057000  0.89896000  0.82978000  1.0
  C  C29  1  0.50054000  0.10105000  0.82978000  1.0
  C  C30  1  0.49887000  0.10110000  0.17024000  1.0
  C  C31  1  0.10170000  0.49998000  0.67024000  1.0
  C  C32  1  0.00017000  0.99993000  0.28749000  1.0
  C  C33  1  0.00065000  0.99997000  0.71256000  1.0
  C  C34  1  0.00018000  0.99994000  0.21253000  1.0
  C  C35  1  0.00064000  0.99997000  0.78751000  1.0
  S  S36  1  0.77340000  0.50004000  0.09308000  1.0
  S  S37  1  0.22639000  0.50002000  0.09327000  1.0
  S  S38  1  0.77396000  0.49986000  0.90675000  1.0
  S  S39  1  0.49908000  0.77356000  0.40679000  1.0
  S  S40  1  0.50063000  0.77353000  0.59322000  1.0
  S  S41  1  0.50065000  0.22646000  0.59322000  1.0
  S  S42  1  0.49897000  0.22648000  0.40680000  1.0
  S  S43  1  0.22695000  0.50017000  0.90683000  1.0
  N  N44  1  0.79678000  0.49998000  0.25797000  1.0
  N  N45  1  0.20215000  0.50004000  0.25806000  1.0
  N  N46  1  0.79794000  0.49996000  0.74194000  1.0
  N  N47  1  0.49887000  0.79737000  0.24195000  1.0
  N  N48  1  0.50065000  0.79733000  0.75807000  1.0
  N  N49  1  0.50060000  0.20267000  0.75806000  1.0
  N  N50  1  0.49883000  0.20271000  0.24195000  1.0
  N  N51  1  0.20330000  0.50003000  0.74196000  1.0
