# generated using pymatgen
data_Zn4H30C54O13
_symmetry_space_group_name_H-M   'P 1'
_cell_length_a   19.51050000
_cell_length_b   19.51050000
_cell_length_c   31.79850000
_cell_angle_alpha   105.86100000
_cell_angle_beta   105.86100000
_cell_angle_gamma   94.22330000
_symmetry_Int_Tables_number   1
_chemical_formula_structural   Zn4H30C54O13
_chemical_formula_sum   'Zn16 H120 C216 O52'
_cell_volume   11055.39865504
_cell_formula_units_Z   4
loop_
 _symmetry_equiv_pos_site_id
 _symmetry_equiv_pos_as_xyz
  1  'x, y, z'
loop_
 _atom_site_type_symbol
 _atom_site_label
 _atom_site_symmetry_multiplicity
 _atom_site_fract_x
 _atom_site_fract_y
 _atom_site_fract_z
 _atom_site_occupancy
  Zn  Zn0  1  0.75453000  0.53157000  0.65117000  1.0
  Zn  Zn1  1  0.60733000  0.44611000  0.57323000  1.0
  Zn  Zn2  1  0.68315000  0.37993000  0.65249000  1.0
  Zn  Zn3  1  0.75600000  0.38705000  0.57387000  1.0
  Zn  Zn4  1  0.53157000  0.75453000  0.15117000  1.0
  Zn  Zn5  1  0.44611000  0.60733000  0.07323000  1.0
  Zn  Zn6  1  0.37993000  0.68314000  0.15249000  1.0
  Zn  Zn7  1  0.38705000  0.75600000  0.07387000  1.0
  Zn  Zn8  1  0.46843000  0.24547000  0.84883000  1.0
  Zn  Zn9  1  0.55389000  0.39267000  0.92677000  1.0
  Zn  Zn10  1  0.62007000  0.31685000  0.84751000  1.0
  Zn  Zn11  1  0.61295000  0.24400000  0.92613000  1.0
  Zn  Zn12  1  0.24547000  0.46843000  0.34883000  1.0
  Zn  Zn13  1  0.39267000  0.55389000  0.42677000  1.0
  Zn  Zn14  1  0.31685000  0.62007000  0.34751000  1.0
  Zn  Zn15  1  0.24400000  0.61295000  0.42613000  1.0
  H  H16  1  0.51507000  0.38282000  0.70715000  1.0
  H  H17  1  0.42347000  0.42279000  0.74521000  1.0
  H  H18  1  0.32392000  0.50648000  0.63480000  1.0
  H  H19  1  0.41394000  0.46263000  0.59600000  1.0
  H  H20  1  0.39459000  0.52478000  0.78446000  1.0
  H  H21  1  0.17993000  0.56255000  0.78327000  1.0
  H  H22  1  0.22498000  0.47308000  0.65588000  1.0
  H  H23  1  0.37780000  0.48782000  0.84737000  1.0
  H  H24  1  0.41492000  0.52769000  0.93207000  1.0
  H  H25  1  0.29535000  0.70441000  0.93099000  1.0
  H  H26  1  0.25623000  0.66344000  0.84549000  1.0
  H  H27  1  0.11072000  0.41413000  0.63931000  1.0
  H  H28  1  0.97925000  0.40255000  0.60088000  1.0
  H  H29  1  0.97153000  0.59997000  0.69950000  1.0
  H  H30  1  0.10343000  0.61368000  0.73744000  1.0
  H  H31  1  0.54704000  0.60459000  0.52440000  1.0
  H  H32  1  0.53684000  0.69671000  0.48409000  1.0
  H  H33  1  0.73418000  0.82356000  0.58388000  1.0
  H  H34  1  0.74347000  0.73029000  0.62419000  1.0
  H  H35  1  0.58429000  0.74355000  0.43908000  1.0
  H  H36  1  0.62690000  0.96385000  0.44089000  1.0
  H  H37  1  0.67502000  0.91223000  0.56800000  1.0
  H  H38  1  0.73311000  0.04667000  0.48699000  1.0
  H  H39  1  0.76305000  0.17909000  0.52706000  1.0
  H  H40  1  0.65646000  0.15266000  0.62459000  1.0
  H  H41  1  0.62604000  0.02031000  0.58489000  1.0
  H  H42  1  0.47286000  0.77045000  0.38007000  1.0
  H  H43  1  0.42641000  0.73350000  0.29486000  1.0
  H  H44  1  0.62395000  0.84074000  0.29071000  1.0
  H  H45  1  0.66947000  0.88178000  0.37642000  1.0
  H  H46  1  0.38282000  0.51507000  0.20715000  1.0
  H  H47  1  0.42279000  0.42347000  0.24521000  1.0
  H  H48  1  0.50648000  0.32392000  0.13480000  1.0
  H  H49  1  0.46263000  0.41394000  0.09600000  1.0
  H  H50  1  0.52478000  0.39459000  0.28446000  1.0
  H  H51  1  0.56255000  0.17993000  0.28327000  1.0
  H  H52  1  0.47308000  0.22498000  0.15588000  1.0
  H  H53  1  0.48782000  0.37780000  0.34737000  1.0
  H  H54  1  0.52769000  0.41492000  0.43207000  1.0
  H  H55  1  0.70441000  0.29535000  0.43099000  1.0
  H  H56  1  0.66344000  0.25623000  0.34549000  1.0
  H  H57  1  0.41413000  0.11072000  0.13931000  1.0
  H  H58  1  0.40255000  0.97925000  0.10088000  1.0
  H  H59  1  0.59997000  0.97153000  0.19950000  1.0
  H  H60  1  0.61368000  0.10343000  0.23744000  1.0
  H  H61  1  0.60459000  0.54704000  0.02440000  1.0
  H  H62  1  0.69671000  0.53684000  0.98409000  1.0
  H  H63  1  0.82356000  0.73418000  0.08388000  1.0
  H  H64  1  0.73029000  0.74347000  0.12419000  1.0
  H  H65  1  0.74355000  0.58429000  0.93908000  1.0
  H  H66  1  0.96385000  0.62690000  0.94089000  1.0
  H  H67  1  0.91223000  0.67502000  0.06800000  1.0
  H  H68  1  0.04667000  0.73311000  0.98699000  1.0
  H  H69  1  0.17909000  0.76305000  0.02706000  1.0
  H  H70  1  0.15266000  0.65646000  0.12459000  1.0
  H  H71  1  0.02031000  0.62604000  0.08489000  1.0
  H  H72  1  0.77045000  0.47286000  0.88007000  1.0
  H  H73  1  0.73350000  0.42641000  0.79486000  1.0
  H  H74  1  0.84074000  0.62395000  0.79072000  1.0
  H  H75  1  0.88178000  0.66947000  0.87642000  1.0
  H  H76  1  0.61718000  0.48493000  0.79285000  1.0
  H  H77  1  0.57721000  0.57653000  0.75479000  1.0
  H  H78  1  0.49352000  0.67608000  0.86520000  1.0
  H  H79  1  0.53737000  0.58606000  0.90400000  1.0
  H  H80  1  0.47522000  0.60541000  0.71554000  1.0
  H  H81  1  0.43745000  0.82007000  0.71673000  1.0
  H  H82  1  0.52692000  0.77502000  0.84412000  1.0
  H  H83  1  0.51218000  0.62220000  0.65263000  1.0
  H  H84  1  0.47231000  0.58508000  0.56793000  1.0
  H  H85  1  0.29559000  0.70465000  0.56901000  1.0
  H  H86  1  0.33656000  0.74377000  0.65451000  1.0
  H  H87  1  0.58588000  0.88928000  0.86069000  1.0
  H  H88  1  0.59745000  0.02075000  0.89912000  1.0
  H  H89  1  0.40003000  0.02847000  0.80050000  1.0
  H  H90  1  0.38632000  0.89657000  0.76256000  1.0
  H  H91  1  0.39541000  0.45296000  0.97560000  1.0
  H  H92  1  0.30329000  0.46316000  0.01591000  1.0
  H  H93  1  0.17644000  0.26582000  0.91612000  1.0
  H  H94  1  0.26971000  0.25653000  0.87581000  1.0
  H  H95  1  0.25645000  0.41571000  0.06092000  1.0
  H  H96  1  0.03615000  0.37310000  0.05911000  1.0
  H  H97  1  0.08777000  0.32498000  0.93200000  1.0
  H  H98  1  0.95333000  0.26689000  0.01301000  1.0
  H  H99  1  0.82091000  0.23695000  0.97294000  1.0
  H  H100  1  0.84734000  0.34354000  0.87541000  1.0
  H  H101  1  0.97969000  0.37396000  0.91511000  1.0
  H  H102  1  0.22955000  0.52714000  0.11993000  1.0
  H  H103  1  0.26650000  0.57359000  0.20514000  1.0
  H  H104  1  0.15926000  0.37605000  0.20929000  1.0
  H  H105  1  0.11822000  0.33053000  0.12358000  1.0
  H  H106  1  0.48493000  0.61718000  0.29285000  1.0
  H  H107  1  0.57653000  0.57721000  0.25479000  1.0
  H  H108  1  0.67608000  0.49352000  0.36520000  1.0
  H  H109  1  0.58606000  0.53737000  0.40400000  1.0
  H  H110  1  0.60541000  0.47522000  0.21554000  1.0
  H  H111  1  0.82007000  0.43745000  0.21673000  1.0
  H  H112  1  0.77502000  0.52692000  0.34412000  1.0
  H  H113  1  0.62220000  0.51218000  0.15263000  1.0
  H  H114  1  0.58508000  0.47231000  0.06793000  1.0
  H  H115  1  0.70465000  0.29559000  0.06901000  1.0
  H  H116  1  0.74377000  0.33656000  0.15451000  1.0
  H  H117  1  0.88928000  0.58588000  0.36069000  1.0
  H  H118  1  0.02075000  0.59745000  0.39912000  1.0
  H  H119  1  0.02847000  0.40003000  0.30050000  1.0
  H  H120  1  0.89657000  0.38632000  0.26256000  1.0
  H  H121  1  0.45296000  0.39541000  0.47560000  1.0
  H  H122  1  0.46316000  0.30329000  0.51591000  1.0
  H  H123  1  0.26582000  0.17644000  0.41612000  1.0
  H  H124  1  0.25653000  0.26971000  0.37581000  1.0
  H  H125  1  0.41571000  0.25645000  0.56091000  1.0
  H  H126  1  0.37310000  0.03615000  0.55911000  1.0
  H  H127  1  0.32498000  0.08777000  0.43200000  1.0
  H  H128  1  0.26689000  0.95332000  0.51301000  1.0
  H  H129  1  0.23695000  0.82091000  0.47294000  1.0
  H  H130  1  0.34354000  0.84734000  0.37541000  1.0
  H  H131  1  0.37396000  0.97969000  0.41511000  1.0
  H  H132  1  0.52714000  0.22955000  0.61993000  1.0
  H  H133  1  0.57359000  0.26650000  0.70514000  1.0
  H  H134  1  0.37605000  0.15926000  0.70928000  1.0
  H  H135  1  0.33053000  0.11822000  0.62358000  1.0
  C  C136  1  0.52963000  0.40221000  0.62933000  1.0
  C  C137  1  0.47025000  0.42030000  0.64931000  1.0
  C  C138  1  0.47250000  0.40926000  0.69141000  1.0
  C  C139  1  0.42144000  0.43238000  0.71272000  1.0
  C  C140  1  0.36715000  0.46799000  0.69297000  1.0
  C  C141  1  0.36449000  0.47764000  0.65029000  1.0
  C  C142  1  0.41513000  0.45376000  0.62854000  1.0
  C  C143  1  0.31536000  0.49503000  0.71732000  1.0
  C  C144  1  0.33810000  0.52161000  0.76546000  1.0
  C  C145  1  0.29005000  0.54708000  0.78951000  1.0
  C  C146  1  0.21831000  0.54594000  0.76465000  1.0
  C  C147  1  0.19386000  0.51914000  0.71650000  1.0
  C  C148  1  0.24320000  0.49424000  0.69327000  1.0
  C  C149  1  0.31403000  0.57260000  0.84025000  1.0
  C  C150  1  0.35981000  0.53565000  0.86544000  1.0
  C  C151  1  0.38070000  0.55786000  0.91316000  1.0
  C  C152  1  0.35737000  0.61873000  0.93703000  1.0
  C  C153  1  0.31273000  0.65679000  0.91225000  1.0
  C  C154  1  0.29085000  0.63351000  0.86450000  1.0
  C  C155  1  0.11673000  0.51435000  0.69156000  1.0
  C  C156  1  0.08086000  0.45592000  0.65216000  1.0
  C  C157  1  0.00712000  0.44883000  0.63069000  1.0
  C  C158  1  0.96714000  0.50023000  0.64808000  1.0
  C  C159  1  0.00280000  0.55988000  0.68648000  1.0
  C  C160  1  0.07645000  0.56683000  0.70775000  1.0
  C  C161  1  0.65444000  0.60291000  0.59828000  1.0
  C  C162  1  0.64584000  0.66181000  0.57689000  1.0
  C  C163  1  0.58764000  0.65288000  0.53742000  1.0
  C  C164  1  0.58222000  0.70488000  0.51487000  1.0
  C  C165  1  0.63456000  0.76730000  0.53123000  1.0
  C  C166  1  0.69222000  0.77629000  0.57126000  1.0
  C  C167  1  0.69802000  0.72423000  0.59382000  1.0
  C  C168  1  0.63018000  0.82158000  0.50652000  1.0
  C  C169  1  0.60268000  0.80053000  0.45842000  1.0
  C  C170  1  0.60237000  0.85126000  0.43461000  1.0
  C  C171  1  0.62914000  0.92400000  0.45933000  1.0
  C  C172  1  0.65429000  0.94673000  0.50747000  1.0
  C  C173  1  0.65488000  0.89499000  0.53058000  1.0
  C  C174  1  0.67681000  0.02433000  0.53290000  1.0
  C  C175  1  0.71594000  0.06976000  0.51703000  1.0
  C  C176  1  0.73318000  0.14352000  0.53934000  1.0
  C  C177  1  0.71112000  0.17379000  0.57790000  1.0
  C  C178  1  0.67364000  0.12878000  0.59471000  1.0
  C  C179  1  0.65712000  0.05482000  0.57254000  1.0
  C  C180  1  0.57440000  0.82860000  0.38397000  1.0
  C  C181  1  0.50604000  0.78625000  0.36063000  1.0
  C  C182  1  0.47984000  0.76549000  0.31293000  1.0
  C  C183  1  0.52257000  0.78479000  0.28767000  1.0
  C  C184  1  0.59108000  0.82664000  0.31077000  1.0
  C  C185  1  0.61615000  0.84928000  0.35846000  1.0
  C  C186  1  0.49636000  0.76031000  0.23659000  1.0
  C  C187  1  0.72343000  0.25362000  0.59822000  1.0
  C  C188  1  0.88701000  0.48957000  0.62853000  1.0
  C  C189  1  0.37919000  0.64226000  0.98817000  1.0
  C  C190  1  0.40221000  0.52963000  0.12932000  1.0
  C  C191  1  0.42029000  0.47025000  0.14930000  1.0
  C  C192  1  0.40925000  0.47249000  0.19141000  1.0
  C  C193  1  0.43238000  0.42144000  0.21272000  1.0
  C  C194  1  0.46799000  0.36715000  0.19297000  1.0
  C  C195  1  0.47764000  0.36449000  0.15029000  1.0
  C  C196  1  0.45376000  0.41513000  0.12854000  1.0
  C  C197  1  0.49503000  0.31536000  0.21732000  1.0
  C  C198  1  0.52161000  0.33809000  0.26546000  1.0
  C  C199  1  0.54708000  0.29005000  0.28951000  1.0
  C  C200  1  0.54594000  0.21831000  0.26465000  1.0
  C  C201  1  0.51913000  0.19386000  0.21650000  1.0
  C  C202  1  0.49424000  0.24320000  0.19327000  1.0
  C  C203  1  0.57260000  0.31403000  0.34025000  1.0
  C  C204  1  0.53565000  0.35980000  0.36544000  1.0
  C  C205  1  0.55786000  0.38070000  0.41316000  1.0
  C  C206  1  0.61873000  0.35737000  0.43703000  1.0
  C  C207  1  0.65679000  0.31273000  0.41225000  1.0
  C  C208  1  0.63351000  0.29085000  0.36450000  1.0
  C  C209  1  0.51434000  0.11673000  0.19156000  1.0
  C  C210  1  0.45592000  0.08086000  0.15216000  1.0
  C  C211  1  0.44883000  0.00712000  0.13069000  1.0
  C  C212  1  0.50023000  0.96714000  0.14808000  1.0
  C  C213  1  0.55988000  0.00280000  0.18648000  1.0
  C  C214  1  0.56683000  0.07645000  0.20775000  1.0
  C  C215  1  0.60291000  0.65444000  0.09828000  1.0
  C  C216  1  0.66181000  0.64584000  0.07689000  1.0
  C  C217  1  0.65288000  0.58764000  0.03743000  1.0
  C  C218  1  0.70488000  0.58222000  0.01487000  1.0
  C  C219  1  0.76730000  0.63456000  0.03123000  1.0
  C  C220  1  0.77629000  0.69222000  0.07127000  1.0
  C  C221  1  0.72423000  0.69802000  0.09382000  1.0
  C  C222  1  0.82158000  0.63018000  0.00652000  1.0
  C  C223  1  0.80053000  0.60268000  0.95842000  1.0
  C  C224  1  0.85126000  0.60237000  0.93461000  1.0
  C  C225  1  0.92400000  0.62914000  0.95933000  1.0
  C  C226  1  0.94673000  0.65429000  0.00747000  1.0
  C  C227  1  0.89499000  0.65488000  0.03058000  1.0
  C  C228  1  0.02433000  0.67681000  0.03290000  1.0
  C  C229  1  0.06976000  0.71594000  0.01703000  1.0
  C  C230  1  0.14352000  0.73318000  0.03934000  1.0
  C  C231  1  0.17379000  0.71112000  0.07790000  1.0
  C  C232  1  0.12878000  0.67364000  0.09471000  1.0
  C  C233  1  0.05482000  0.65712000  0.07254000  1.0
  C  C234  1  0.82860000  0.57440000  0.88397000  1.0
  C  C235  1  0.78626000  0.50604000  0.86063000  1.0
  C  C236  1  0.76549000  0.47984000  0.81293000  1.0
  C  C237  1  0.78479000  0.52257000  0.78767000  1.0
  C  C238  1  0.82665000  0.59108000  0.81077000  1.0
  C  C239  1  0.84928000  0.61615000  0.85846000  1.0
  C  C240  1  0.76031000  0.49636000  0.73659000  1.0
  C  C241  1  0.25362000  0.72343000  0.09822000  1.0
  C  C242  1  0.48957000  0.88701000  0.12853000  1.0
  C  C243  1  0.64226000  0.37919000  0.48817000  1.0
  C  C244  1  0.59779000  0.47037000  0.87067000  1.0
  C  C245  1  0.57971000  0.52975000  0.85070000  1.0
  C  C246  1  0.59075000  0.52750000  0.80859000  1.0
  C  C247  1  0.56762000  0.57856000  0.78728000  1.0
  C  C248  1  0.53201000  0.63285000  0.80703000  1.0
  C  C249  1  0.52236000  0.63551000  0.84971000  1.0
  C  C250  1  0.54624000  0.58487000  0.87146000  1.0
  C  C251  1  0.50497000  0.68464000  0.78268000  1.0
  C  C252  1  0.47839000  0.66190000  0.73454000  1.0
  C  C253  1  0.45292000  0.70995000  0.71049000  1.0
  C  C254  1  0.45406000  0.78169000  0.73535000  1.0
  C  C255  1  0.48086000  0.80614000  0.78350000  1.0
  C  C256  1  0.50576000  0.75680000  0.80673000  1.0
  C  C257  1  0.42740000  0.68597000  0.65975000  1.0
  C  C258  1  0.46435000  0.64020000  0.63456000  1.0
  C  C259  1  0.44214000  0.61930000  0.58684000  1.0
  C  C260  1  0.38127000  0.64263000  0.56297000  1.0
  C  C261  1  0.34321000  0.68727000  0.58774000  1.0
  C  C262  1  0.36649000  0.70915000  0.63550000  1.0
  C  C263  1  0.48566000  0.88327000  0.80844000  1.0
  C  C264  1  0.54408000  0.91914000  0.84784000  1.0
  C  C265  1  0.55118000  0.99287000  0.86931000  1.0
  C  C266  1  0.49977000  0.03286000  0.85192000  1.0
  C  C267  1  0.44012000  0.99720000  0.81352000  1.0
  C  C268  1  0.43317000  0.92355000  0.79225000  1.0
  C  C269  1  0.39709000  0.34556000  0.90172000  1.0
  C  C270  1  0.33819000  0.35416000  0.92311000  1.0
  C  C271  1  0.34712000  0.41236000  0.96257000  1.0
  C  C272  1  0.29512000  0.41778000  0.98513000  1.0
  C  C273  1  0.23270000  0.36544000  0.96877000  1.0
  C  C274  1  0.22371000  0.30778000  0.92874000  1.0
  C  C275  1  0.27577000  0.30198000  0.90618000  1.0
  C  C276  1  0.17842000  0.36982000  0.99348000  1.0
  C  C277  1  0.19947000  0.39732000  0.04158000  1.0
  C  C278  1  0.14874000  0.39763000  0.06539000  1.0
  C  C279  1  0.07600000  0.37086000  0.04067000  1.0
  C  C280  1  0.05327000  0.34571000  0.99253000  1.0
  C  C281  1  0.10501000  0.34512000  0.96942000  1.0
  C  C282  1  0.97567000  0.32319000  0.96710000  1.0
  C  C283  1  0.93024000  0.28406000  0.98297000  1.0
  C  C284  1  0.85648000  0.26682000  0.96066000  1.0
  C  C285  1  0.82621000  0.28888000  0.92210000  1.0
  C  C286  1  0.87122000  0.32636000  0.90529000  1.0
  C  C287  1  0.94518000  0.34288000  0.92746000  1.0
  C  C288  1  0.17140000  0.42560000  0.11603000  1.0
  C  C289  1  0.21375000  0.49396000  0.13937000  1.0
  C  C290  1  0.23451000  0.52016000  0.18707000  1.0
  C  C291  1  0.21521000  0.47743000  0.21233000  1.0
  C  C292  1  0.17335000  0.40892000  0.18923000  1.0
  C  C293  1  0.15072000  0.38385000  0.14154000  1.0
  C  C294  1  0.23969000  0.50364000  0.26341000  1.0
  C  C295  1  0.74638000  0.27657000  0.90178000  1.0
  C  C296  1  0.51043000  0.11299000  0.87147000  1.0
  C  C297  1  0.35774000  0.62081000  0.51183000  1.0
  C  C298  1  0.47037000  0.59779000  0.37068000  1.0
  C  C299  1  0.52975000  0.57971000  0.35070000  1.0
  C  C300  1  0.52751000  0.59074000  0.30859000  1.0
  C  C301  1  0.57856000  0.56762000  0.28728000  1.0
  C  C302  1  0.63285000  0.53201000  0.30703000  1.0
  C  C303  1  0.63551000  0.52236000  0.34971000  1.0
  C  C304  1  0.58487000  0.54624000  0.37146000  1.0
  C  C305  1  0.68464000  0.50497000  0.28268000  1.0
  C  C306  1  0.66190000  0.47839000  0.23454000  1.0
  C  C307  1  0.70995000  0.45292000  0.21049000  1.0
  C  C308  1  0.78169000  0.45406000  0.23535000  1.0
  C  C309  1  0.80614000  0.48086000  0.28350000  1.0
  C  C310  1  0.75680000  0.50576000  0.30673000  1.0
  C  C311  1  0.68597000  0.42740000  0.15975000  1.0
  C  C312  1  0.64019000  0.46435000  0.13456000  1.0
  C  C313  1  0.61930000  0.44214000  0.08684000  1.0
  C  C314  1  0.64263000  0.38127000  0.06297000  1.0
  C  C315  1  0.68727000  0.34321000  0.08775000  1.0
  C  C316  1  0.70915000  0.36649000  0.13550000  1.0
  C  C317  1  0.88327000  0.48566000  0.30844000  1.0
  C  C318  1  0.91914000  0.54408000  0.34784000  1.0
  C  C319  1  0.99287000  0.55118000  0.36931000  1.0
  C  C320  1  0.03286000  0.49977000  0.35192000  1.0
  C  C321  1  0.99720000  0.44012000  0.31352000  1.0
  C  C322  1  0.92355000  0.43317000  0.29225000  1.0
  C  C323  1  0.34556000  0.39709000  0.40172000  1.0
  C  C324  1  0.35416000  0.33819000  0.42311000  1.0
  C  C325  1  0.41236000  0.34712000  0.46257000  1.0
  C  C326  1  0.41778000  0.29512000  0.48513000  1.0
  C  C327  1  0.36544000  0.23270000  0.46877000  1.0
  C  C328  1  0.30778000  0.22371000  0.42874000  1.0
  C  C329  1  0.30198000  0.27577000  0.40618000  1.0
  C  C330  1  0.36982000  0.17842000  0.49348000  1.0
  C  C331  1  0.39732000  0.19947000  0.54158000  1.0
  C  C332  1  0.39763000  0.14874000  0.56539000  1.0
  C  C333  1  0.37086000  0.07600000  0.54067000  1.0
  C  C334  1  0.34571000  0.05327000  0.49253000  1.0
  C  C335  1  0.34511000  0.10501000  0.46942000  1.0
  C  C336  1  0.32319000  0.97567000  0.46710000  1.0
  C  C337  1  0.28406000  0.93024000  0.48297000  1.0
  C  C338  1  0.26682000  0.85648000  0.46066000  1.0
  C  C339  1  0.28888000  0.82621000  0.42210000  1.0
  C  C340  1  0.32636000  0.87122000  0.40529000  1.0
  C  C341  1  0.34288000  0.94518000  0.42746000  1.0
  C  C342  1  0.42560000  0.17140000  0.61603000  1.0
  C  C343  1  0.49396000  0.21375000  0.63937000  1.0
  C  C344  1  0.52016000  0.23451000  0.68707000  1.0
  C  C345  1  0.47743000  0.21521000  0.71233000  1.0
  C  C346  1  0.40892000  0.17335000  0.68923000  1.0
  C  C347  1  0.38385000  0.15072000  0.64154000  1.0
  C  C348  1  0.50364000  0.23969000  0.76341000  1.0
  C  C349  1  0.27657000  0.74638000  0.40178000  1.0
  C  C350  1  0.11299000  0.51043000  0.37147000  1.0
  C  C351  1  0.62081000  0.35774000  0.01183000  1.0
  O  O352  1  0.70002000  0.43596000  0.61245000  1.0
  O  O353  1  0.71355000  0.60904000  0.63003000  1.0
  O  O354  1  0.60273000  0.54957000  0.58289000  1.0
  O  O355  1  0.52499000  0.41183000  0.59035000  1.0
  O  O356  1  0.58199000  0.37973000  0.65299000  1.0
  O  O357  1  0.42903000  0.73595000  0.21732000  1.0
  O  O358  1  0.54359000  0.76523000  0.21603000  1.0
  O  O359  1  0.69539000  0.27942000  0.63010000  1.0
  O  O360  1  0.75972000  0.29043000  0.58173000  1.0
  O  O361  1  0.85677000  0.43351000  0.59406000  1.0
  O  O362  1  0.85443000  0.53650000  0.64836000  1.0
  O  O363  1  0.40644000  0.59716000  0.00792000  1.0
  O  O364  1  0.36893000  0.70522000  0.00827000  1.0
  O  O365  1  0.43596000  0.70002000  0.11245000  1.0
  O  O366  1  0.60904000  0.71355000  0.13003000  1.0
  O  O367  1  0.54957000  0.60273000  0.08289000  1.0
  O  O368  1  0.41183000  0.52499000  0.09035000  1.0
  O  O369  1  0.37973000  0.58199000  0.15299000  1.0
  O  O370  1  0.73595000  0.42903000  0.71732000  1.0
  O  O371  1  0.76523000  0.54359000  0.71603000  1.0
  O  O372  1  0.27942000  0.69539000  0.13010000  1.0
  O  O373  1  0.29043000  0.75972000  0.08173000  1.0
  O  O374  1  0.43351000  0.85677000  0.09406000  1.0
  O  O375  1  0.53650000  0.85443000  0.14836000  1.0
  O  O376  1  0.59716000  0.40644000  0.50792000  1.0
  O  O377  1  0.70522000  0.36894000  0.50827000  1.0
  O  O378  1  0.56404000  0.29998000  0.88755000  1.0
  O  O379  1  0.39096000  0.28645000  0.86997000  1.0
  O  O380  1  0.45042000  0.39727000  0.91711000  1.0
  O  O381  1  0.58817000  0.47501000  0.90966000  1.0
  O  O382  1  0.62027000  0.41801000  0.84701000  1.0
  O  O383  1  0.26404000  0.57097000  0.28268000  1.0
  O  O384  1  0.23477000  0.45641000  0.28397000  1.0
  O  O385  1  0.72058000  0.30461000  0.86990000  1.0
  O  O386  1  0.70957000  0.24028000  0.91827000  1.0
  O  O387  1  0.56649000  0.14323000  0.90594000  1.0
  O  O388  1  0.46350000  0.14557000  0.85164000  1.0
  O  O389  1  0.40284000  0.59356000  0.49208000  1.0
  O  O390  1  0.29478000  0.63106000  0.49173000  1.0
  O  O391  1  0.29998000  0.56404000  0.38755000  1.0
  O  O392  1  0.28645000  0.39096000  0.36997000  1.0
  O  O393  1  0.39727000  0.45043000  0.41711000  1.0
  O  O394  1  0.47501000  0.58817000  0.40965000  1.0
  O  O395  1  0.41801000  0.62027000  0.34701000  1.0
  O  O396  1  0.57097000  0.26404000  0.78268000  1.0
  O  O397  1  0.45641000  0.23477000  0.78397000  1.0
  O  O398  1  0.30461000  0.72058000  0.36990000  1.0
  O  O399  1  0.24028000  0.70957000  0.41827000  1.0
  O  O400  1  0.14323000  0.56649000  0.40594000  1.0
  O  O401  1  0.14557000  0.46350000  0.35164000  1.0
  O  O402  1  0.59356000  0.40284000  0.99208000  1.0
  O  O403  1  0.63107000  0.29478000  0.99173000  1.0
