# generated using pymatgen
data_CuH4(C2N)3
_symmetry_space_group_name_H-M   'P 1'
_cell_length_a   24.71280000
_cell_length_b   27.20300000
_cell_length_c   29.29350000
_cell_angle_alpha   82.49480000
_cell_angle_beta   87.65040000
_cell_angle_gamma   85.51110000
_symmetry_Int_Tables_number   1
_chemical_formula_structural   CuH4(C2N)3
_chemical_formula_sum   'Cu12 H48 C72 N36'
_cell_volume   19454.87967536
_cell_formula_units_Z   12
loop_
 _symmetry_equiv_pos_site_id
 _symmetry_equiv_pos_as_xyz
  1  'x, y, z'
loop_
 _atom_site_type_symbol
 _atom_site_label
 _atom_site_symmetry_multiplicity
 _atom_site_fract_x
 _atom_site_fract_y
 _atom_site_fract_z
 _atom_site_occupancy
  Cu  Cu0  1  0.16511000  0.89546000  0.07786000  1.0
  Cu  Cu1  1  0.06205000  0.84040000  0.12432000  1.0
  Cu  Cu2  1  0.09861000  0.93680000  0.16011000  1.0
  Cu  Cu3  1  0.65521000  0.11221000  0.41666000  1.0
  Cu  Cu4  1  0.56098000  0.18432000  0.36542000  1.0
  Cu  Cu5  1  0.59379000  0.07893000  0.33523000  1.0
  Cu  Cu6  1  0.36743000  0.40732000  0.90892000  1.0
  Cu  Cu7  1  0.42241000  0.33661000  0.83950000  1.0
  Cu  Cu8  1  0.40304000  0.45167000  0.80999000  1.0
  Cu  Cu9  1  0.87021000  0.57943000  0.59948000  1.0
  Cu  Cu10  1  0.90731000  0.65338000  0.66505000  1.0
  Cu  Cu11  1  0.89220000  0.54226000  0.70314000  1.0
  H  H12  1  0.20400000  0.82222000  0.00556000  1.0
  H  H13  1  0.05396000  0.75951000  0.05653000  1.0
  H  H14  1  0.17750000  0.01516000  0.18546000  1.0
  H  H15  1  0.25766000  0.97283000  0.06055000  1.0
  H  H16  1  0.97375000  0.80801000  0.20426000  1.0
  H  H17  1  0.00500000  0.95492000  0.23426000  1.0
  H  H18  1  0.67992000  0.17448000  0.49622000  1.0
  H  H19  1  0.54235000  0.26434000  0.43549000  1.0
  H  H20  1  0.67045000  0.98544000  0.31343000  1.0
  H  H21  1  0.74834000  0.02356000  0.43259000  1.0
  H  H22  1  0.48801000  0.23085000  0.27887000  1.0
  H  H23  1  0.50803000  0.07518000  0.25917000  1.0
  H  H24  1  0.36725000  0.33169000  0.00125000  1.0
  H  H25  1  0.40752000  0.23106000  0.89972000  1.0
  H  H26  1  0.31423000  0.54352000  0.79227000  1.0
  H  H27  1  0.28003000  0.49170000  0.93604000  1.0
  H  H28  1  0.49852000  0.30620000  0.75542000  1.0
  H  H29  1  0.49705000  0.46696000  0.73216000  1.0
  H  H30  1  0.87104000  0.64984000  0.50360000  1.0
  H  H31  1  0.88567000  0.75629000  0.59953000  1.0
  H  H32  1  0.80800000  0.45718000  0.72122000  1.0
  H  H33  1  0.80418000  0.49226000  0.57270000  1.0
  H  H34  1  0.97752000  0.68541000  0.74334000  1.0
  H  H35  1  0.97877000  0.52623000  0.78340000  1.0
  H  H36  1  0.05763000  0.73675000  0.96639000  1.0
  H  H37  1  0.18187000  0.72676000  0.97560000  1.0
  H  H38  1  0.69738000  0.26699000  0.52277000  1.0
  H  H39  1  0.57260000  0.28178000  0.52881000  1.0
  H  H40  1  0.40259000  0.25300000  0.05977000  1.0
  H  H41  1  0.36978000  0.18619000  0.98977000  1.0
  H  H42  1  0.89784000  0.72404000  0.44121000  1.0
  H  H43  1  0.85608000  0.79791000  0.50838000  1.0
  H  H44  1  0.29722000  0.06628000  0.05863000  1.0
  H  H45  1  0.28123000  0.05227000  0.16420000  1.0
  H  H46  1  0.76800000  0.40155000  0.57796000  1.0
  H  H47  1  0.72315000  0.41530000  0.67555000  1.0
  H  H48  1  0.78766000  0.92455000  0.43715000  1.0
  H  H49  1  0.77469000  0.93567000  0.33211000  1.0
  H  H50  1  0.23291000  0.58650000  0.93389000  1.0
  H  H51  1  0.21090000  0.58045000  0.83209000  1.0
  H  H52  1  0.93989000  0.79829000  0.29528000  1.0
  H  H53  1  0.91772000  0.91214000  0.28574000  1.0
  H  H54  1  0.53985000  0.31494000  0.66740000  1.0
  H  H55  1  0.58431000  0.41270000  0.68653000  1.0
  H  H56  1  0.01033000  0.68297000  0.83015000  1.0
  H  H57  1  0.06229000  0.57762000  0.82221000  1.0
  H  H58  1  0.41848000  0.09496000  0.21654000  1.0
  H  H59  1  0.44762000  0.20369000  0.19239000  1.0
  C  C60  1  0.65542000  0.31036000  0.57224000  1.0
  C  C61  1  0.69611000  0.36726000  0.60708000  1.0
  C  C62  1  0.61302000  0.34293000  0.63318000  1.0
  C  C63  1  0.10949000  0.68628000  0.92961000  1.0
  C  C64  1  0.16226000  0.62495000  0.89996000  1.0
  C  C65  1  0.08098000  0.65250000  0.86843000  1.0
  C  C66  1  0.87254000  0.80060000  0.41772000  1.0
  C  C67  1  0.83441000  0.87772000  0.39274000  1.0
  C  C68  1  0.88874000  0.83568000  0.34401000  1.0
  C  C69  1  0.38004000  0.17801000  0.08086000  1.0
  C  C70  1  0.39263000  0.13833000  0.15340000  1.0
  C  C71  1  0.34143000  0.10528000  0.10377000  1.0
  C  C72  1  0.16627000  0.81255000  0.02355000  1.0
  C  C73  1  0.13207000  0.77540000  0.01667000  1.0
  C  C74  1  0.08890000  0.78129000  0.04881000  1.0
  C  C75  1  0.19054000  0.99893000  0.15452000  1.0
  C  C76  1  0.23508000  0.00943000  0.12432000  1.0
  C  C77  1  0.23095000  0.97812000  0.09014000  1.0
  C  C78  1  0.98844000  0.84429000  0.20597000  1.0
  C  C79  1  0.97200000  0.87972000  0.23578000  1.0
  C  C80  1  0.00369000  0.91981000  0.22059000  1.0
  C  C81  1  0.64684000  0.19169000  0.47506000  1.0
  C  C82  1  0.61169000  0.23373000  0.48115000  1.0
  C  C83  1  0.57568000  0.23690000  0.44473000  1.0
  C  C84  1  0.68292000  0.00158000  0.34296000  1.0
  C  C85  1  0.72699000  0.98656000  0.37169000  1.0
  C  C86  1  0.72215000  0.02033000  0.40445000  1.0
  C  C87  1  0.49856000  0.19118000  0.28036000  1.0
  C  C88  1  0.48215000  0.15722000  0.25220000  1.0
  C  C89  1  0.50783000  0.11141000  0.27095000  1.0
  C  C90  1  0.37892000  0.31394000  0.97087000  1.0
  C  C91  1  0.38601000  0.26297000  0.96607000  1.0
  C  C92  1  0.39814000  0.26250000  0.91875000  1.0
  C  C93  1  0.31305000  0.52461000  0.82729000  1.0
  C  C94  1  0.27804000  0.53438000  0.86465000  1.0
  C  C95  1  0.29650000  0.49889000  0.90111000  1.0
  C  C96  1  0.49052000  0.34606000  0.75496000  1.0
  C  C97  1  0.51522000  0.38507000  0.72753000  1.0
  C  C98  1  0.49074000  0.42821000  0.74378000  1.0
  C  C99  1  0.87654000  0.66924000  0.53299000  1.0
  C  C100  1  0.87637000  0.72068000  0.53520000  1.0
  C  C101  1  0.88283000  0.72368000  0.58223000  1.0
  C  C102  1  0.81341000  0.47178000  0.68515000  1.0
  C  C103  1  0.78991000  0.45798000  0.64618000  1.0
  C  C104  1  0.81244000  0.48895000  0.60911000  1.0
  C  C105  1  0.97052000  0.64616000  0.74813000  1.0
  C  C106  1  0.99472000  0.60736000  0.77893000  1.0
  C  C107  1  0.97219000  0.56462000  0.76788000  1.0
  C  C108  1  0.09973000  0.72217000  0.96248000  1.0
  C  C109  1  0.14008000  0.73972000  0.98402000  1.0
  C  C110  1  0.65695000  0.27802000  0.53605000  1.0
  C  C111  1  0.61185000  0.26581000  0.51692000  1.0
  C  C112  1  0.38823000  0.22084000  0.04646000  1.0
  C  C113  1  0.38074000  0.22081000  0.00099000  1.0
  C  C114  1  0.88060000  0.75834000  0.45338000  1.0
  C  C115  1  0.87014000  0.76147000  0.49863000  1.0
  C  C116  1  0.30399000  0.06899000  0.09476000  1.0
  C  C117  1  0.27494000  0.04426000  0.12923000  1.0
  C  C118  1  0.74085000  0.39888000  0.60837000  1.0
  C  C119  1  0.74946000  0.42271000  0.64487000  1.0
  C  C120  1  0.79581000  0.91927000  0.40115000  1.0
  C  C121  1  0.76739000  0.94613000  0.36679000  1.0
  C  C122  1  0.21174000  0.59176000  0.90144000  1.0
  C  C123  1  0.23177000  0.57033000  0.86458000  1.0
  C  C124  1  0.92143000  0.83467000  0.30149000  1.0
  C  C125  1  0.93454000  0.87686000  0.27501000  1.0
  C  C126  1  0.56711000  0.34482000  0.66607000  1.0
  C  C127  1  0.55752000  0.38216000  0.69230000  1.0
  C  C128  1  0.03951000  0.65063000  0.83480000  1.0
  C  C129  1  0.03448000  0.61042000  0.81307000  1.0
  C  C130  1  0.42089000  0.13162000  0.19667000  1.0
  C  C131  1  0.44898000  0.16658000  0.21204000  1.0
  N  N132  1  0.69948000  0.33623000  0.57442000  1.0
  N  N133  1  0.65439000  0.37119000  0.63772000  1.0
  N  N134  1  0.61089000  0.31263000  0.60038000  1.0
  N  N135  1  0.15609000  0.65675000  0.93178000  1.0
  N  N136  1  0.12607000  0.62141000  0.86752000  1.0
  N  N137  1  0.07044000  0.68553000  0.89888000  1.0
  N  N138  1  0.84379000  0.84206000  0.42855000  1.0
  N  N139  1  0.85681000  0.87690000  0.35004000  1.0
  N  N140  1  0.89492000  0.79500000  0.37569000  1.0
  N  N141  1  0.40046000  0.17893000  0.12264000  1.0
  N  N142  1  0.36126000  0.10186000  0.14649000  1.0
  N  N143  1  0.35262000  0.14068000  0.06889000  1.0
  N  N144  1  0.09704000  0.81885000  0.07287000  1.0
  N  N145  1  0.14472000  0.83886000  0.05662000  1.0
  N  N146  1  0.18751000  0.95111000  0.09956000  1.0
  N  N147  1  0.16193000  0.96468000  0.13918000  1.0
  N  N148  1  0.03690000  0.90879000  0.18523000  1.0
  N  N149  1  0.02683000  0.86210000  0.17568000  1.0
  N  N150  1  0.58893000  0.20010000  0.41875000  1.0
  N  N151  1  0.63266000  0.17152000  0.43809000  1.0
  N  N152  1  0.67880000  0.05288000  0.39555000  1.0
  N  N153  1  0.65395000  0.04071000  0.35775000  1.0
  N  N154  1  0.53717000  0.11779000  0.30706000  1.0
  N  N155  1  0.53085000  0.16729000  0.31343000  1.0
  N  N156  1  0.39877000  0.30937000  0.89731000  1.0
  N  N157  1  0.38619000  0.34136000  0.92972000  1.0
  N  N158  1  0.33892000  0.47028000  0.88647000  1.0
  N  N159  1  0.34964000  0.48672000  0.84069000  1.0
  N  N160  1  0.45401000  0.41576000  0.77767000  1.0
  N  N161  1  0.45439000  0.36459000  0.78508000  1.0
  N  N162  1  0.88704000  0.67779000  0.60595000  1.0
  N  N163  1  0.88259000  0.64393000  0.57531000  1.0
  N  N164  1  0.84639000  0.51875000  0.62485000  1.0
  N  N165  1  0.84754000  0.50760000  0.67215000  1.0
  N  N166  1  0.93696000  0.57720000  0.73370000  1.0
  N  N167  1  0.93647000  0.62787000  0.72101000  1.0
