# generated using pymatgen
data_GdH16C16N10ClO6
_symmetry_space_group_name_H-M   'P 1'
_cell_length_a   8.87356000
_cell_length_b   10.93710000
_cell_length_c   12.87815654
_cell_angle_alpha   115.12574200
_cell_angle_beta   106.10756835
_cell_angle_gamma   90.01230000
_symmetry_Int_Tables_number   1
_chemical_formula_structural   GdH16C16N10ClO6
_chemical_formula_sum   'Gd2 H32 C32 N20 Cl2 O12'
_cell_volume   1077.10025331
_cell_formula_units_Z   2
loop_
 _symmetry_equiv_pos_site_id
 _symmetry_equiv_pos_as_xyz
  1  'x, y, z'
loop_
 _atom_site_type_symbol
 _atom_site_label
 _atom_site_symmetry_multiplicity
 _atom_site_fract_x
 _atom_site_fract_y
 _atom_site_fract_z
 _atom_site_occupancy
  Gd  Gd0  1  0.25004000  0.43929000  0.99984000  1.0
  Gd  Gd1  1  0.74996000  0.56071000  0.00016000  1.0
  H  H2  1  0.51752000  0.28382000  0.00544000  1.0
  H  H3  1  0.98236000  0.27845000  0.99443000  1.0
  H  H4  1  0.48248000  0.71618000  0.99456000  1.0
  H  H5  1  0.01763000  0.72155000  0.00557000  1.0
  H  H6  1  0.35908000  0.16976000  0.93578000  1.0
  H  H7  1  0.14070000  0.23408000  0.06415000  1.0
  H  H8  1  0.64091000  0.83024000  0.06422000  1.0
  H  H9  1  0.85930000  0.76592000  0.93585000  1.0
  H  H10  1  0.47415000  0.35874000  0.64670000  1.0
  H  H11  1  0.02590000  0.71136000  0.35357000  1.0
  H  H12  1  0.52583000  0.64127000  0.35330000  1.0
  H  H13  1  0.97410000  0.28865000  0.64644000  1.0
  H  H14  1  0.53195000  0.22625000  0.68831000  1.0
  H  H15  1  0.96815000  0.53704000  0.31127000  1.0
  H  H16  1  0.46806000  0.77375000  0.31169000  1.0
  H  H17  1  0.03185000  0.46297000  0.68874000  1.0
  H  H18  1  0.99979000  0.32167000  0.38053000  1.0
  H  H19  1  0.49841000  0.94016000  0.61980000  1.0
  H  H20  1  0.00021000  0.67833000  0.61947000  1.0
  H  H21  1  0.50160000  0.05985000  0.38021000  1.0
  H  H22  1  0.75905000  0.30549000  0.21253000  1.0
  H  H23  1  0.73887000  0.09266000  0.78754000  1.0
  H  H24  1  0.24096000  0.69450000  0.78746000  1.0
  H  H25  1  0.26113000  0.90734000  0.21247000  1.0
  H  H26  1  0.59561000  0.07965000  0.07617000  1.0
  H  H27  1  0.90364000  0.00366000  0.92377000  1.0
  H  H28  1  0.40439000  0.92034000  0.92382000  1.0
  H  H29  1  0.09637000  0.99635000  0.07624000  1.0
  H  H30  1  0.87731000  0.89141000  0.26337000  1.0
  H  H31  1  0.62336000  0.62741000  0.73691000  1.0
  H  H32  1  0.12269000  0.10859000  0.73663000  1.0
  H  H33  1  0.37665000  0.37258000  0.26308000  1.0
  C  C34  1  0.39077000  0.35858000  0.78840000  1.0
  C  C35  1  0.10932000  0.57007000  0.21157000  1.0
  C  C36  1  0.60923000  0.64142000  0.21160000  1.0
  C  C37  1  0.89068000  0.42993000  0.78843000  1.0
  C  C38  1  0.43421000  0.28391000  0.67243000  1.0
  C  C39  1  0.06589000  0.61081000  0.32749000  1.0
  C  C40  1  0.56579000  0.71609000  0.32757000  1.0
  C  C41  1  0.93411000  0.38920000  0.67252000  1.0
  C  C42  1  0.09601000  0.11387000  0.43004000  1.0
  C  C43  1  0.40376000  0.68266000  0.57001000  1.0
  C  C44  1  0.90399000  0.88613000  0.56996000  1.0
  C  C45  1  0.59625000  0.31734000  0.42999000  1.0
  C  C46  1  0.95575000  0.10794000  0.33563000  1.0
  C  C47  1  0.54383000  0.77137000  0.66452000  1.0
  C  C48  1  0.04425000  0.89206000  0.66437000  1.0
  C  C49  1  0.45618000  0.22863000  0.33548000  1.0
  C  C50  1  0.92150000  0.22586000  0.32071000  1.0
  C  C51  1  0.57729000  0.90435000  0.67948000  1.0
  C  C52  1  0.07850000  0.77412000  0.67928000  1.0
  C  C53  1  0.42272000  0.09566000  0.32053000  1.0
  C  C54  1  0.78978000  0.21706000  0.22798000  1.0
  C  C55  1  0.70887000  0.98866000  0.77212000  1.0
  C  C56  1  0.21022000  0.78293000  0.77201000  1.0
  C  C57  1  0.29114000  0.01135000  0.22789000  1.0
  C  C58  1  0.69804000  0.09071000  0.15139000  1.0
  C  C59  1  0.80131000  0.93920000  0.84865000  1.0
  C  C60  1  0.30196000  0.90929000  0.84861000  1.0
  C  C61  1  0.19869000  0.06081000  0.15136000  1.0
  C  C62  1  0.85583000  0.98569000  0.25555000  1.0
  C  C63  1  0.64427000  0.72953000  0.74461000  1.0
  C  C64  1  0.14416000  0.01430000  0.74445000  1.0
  C  C65  1  0.35573000  0.27047000  0.25539000  1.0
  N  N66  1  0.18801000  0.23171000  0.51114000  1.0
  N  N67  1  0.31194000  0.71959000  0.48900000  1.0
  N  N68  1  0.81198000  0.76829000  0.48886000  1.0
  N  N69  1  0.68807000  0.28041000  0.51100000  1.0
  N  N70  1  0.30404000  0.18990000  0.57279000  1.0
  N  N71  1  0.19593000  0.61612000  0.42706000  1.0
  N  N72  1  0.69595000  0.81010000  0.42721000  1.0
  N  N73  1  0.80407000  0.38388000  0.57294000  1.0
  N  N74  1  0.28762000  0.05461000  0.53552000  1.0
  N  N75  1  0.21216000  0.51792000  0.46409000  1.0
  N  N76  1  0.71237000  0.94539000  0.46448000  1.0
  N  N77  1  0.78784000  0.48208000  0.53591000  1.0
  N  N78  1  0.15560000  0.00495000  0.44459000  1.0
  N  N79  1  0.34406000  0.55908000  0.55515000  1.0
  N  N80  1  0.84440000  0.99505000  0.55541000  1.0
  N  N81  1  0.65595000  0.44093000  0.44485000  1.0
  N  N82  1  0.73035000  0.97751000  0.16497000  1.0
  N  N83  1  0.76966000  0.81231000  0.83508000  1.0
  N  N84  1  0.26964000  0.02248000  0.83503000  1.0
  N  N85  1  0.23034000  0.18769000  0.16492000  1.0
  Cl  Cl86  1  0.24994000  0.68882000  0.99974000  1.0
  Cl  Cl87  1  0.75005000  0.31118000  0.00026000  1.0
  O  O88  1  0.49329000  0.45247000  0.87642000  1.0
  O  O89  1  0.00663000  0.57629000  0.12384000  1.0
  O  O90  1  0.50670000  0.54754000  0.12359000  1.0
  O  O91  1  0.99337000  0.42371000  0.87616000  1.0
  O  O92  1  0.25760000  0.32452000  0.79338000  1.0
  O  O93  1  0.24246000  0.53116000  0.20637000  1.0
  O  O94  1  0.74240000  0.67547000  0.20662000  1.0
  O  O95  1  0.75753000  0.46883000  0.79363000  1.0
  O  O96  1  0.40625000  0.26776000  0.00238000  1.0
  O  O97  1  0.09364000  0.26548000  0.99755000  1.0
  O  O98  1  0.59374000  0.73223000  0.99762000  1.0
  O  O99  1  0.90635000  0.73452000  0.00245000  1.0
