# generated using pymatgen
data_Zn3H58(C3O)14
_symmetry_space_group_name_H-M   'P 1'
_cell_length_a   11.40740000
_cell_length_b   14.37870000
_cell_length_c   14.37870000
_cell_angle_alpha   89.62780000
_cell_angle_beta   73.06060000
_cell_angle_gamma   73.06040000
_symmetry_Int_Tables_number   1
_chemical_formula_structural   Zn3H58(C3O)14
_chemical_formula_sum   'Zn6 H116 C84 O28'
_cell_volume   2150.29921721
_cell_formula_units_Z   2
loop_
 _symmetry_equiv_pos_site_id
 _symmetry_equiv_pos_as_xyz
  1  'x, y, z'
loop_
 _atom_site_type_symbol
 _atom_site_label
 _atom_site_symmetry_multiplicity
 _atom_site_fract_x
 _atom_site_fract_y
 _atom_site_fract_z
 _atom_site_occupancy
  Zn  Zn0  1  0.50850000  0.89793000  0.50919000  1.0
  Zn  Zn1  1  0.99150000  0.49081000  0.10208000  1.0
  Zn  Zn2  1  0.49150000  0.10208000  0.49081000  1.0
  Zn  Zn3  1  0.00850000  0.50919000  0.89792000  1.0
  Zn  Zn4  1  0.75000000  0.60502000  0.39498000  1.0
  Zn  Zn5  1  0.25000000  0.39498000  0.60502000  1.0
  H  H6  1  0.36079000  0.64901000  0.61126000  1.0
  H  H7  1  0.13922000  0.38874000  0.35099000  1.0
  H  H8  1  0.63921000  0.35099000  0.38874000  1.0
  H  H9  1  0.86079000  0.61126000  0.64901000  1.0
  H  H10  1  0.36073000  0.76885000  0.64262000  1.0
  H  H11  1  0.13927000  0.35738000  0.23116000  1.0
  H  H12  1  0.63926000  0.23116000  0.35738000  1.0
  H  H13  1  0.86073000  0.64262000  0.76884000  1.0
  H  H14  1  0.25638000  0.64844000  0.79059000  1.0
  H  H15  1  0.24362000  0.20941000  0.35157000  1.0
  H  H16  1  0.74361000  0.35157000  0.20941000  1.0
  H  H17  1  0.75638000  0.79060000  0.64843000  1.0
  H  H18  1  0.27557000  0.76344000  0.81217000  1.0
  H  H19  1  0.22443000  0.18783000  0.23656000  1.0
  H  H20  1  0.72443000  0.23656000  0.18783000  1.0
  H  H21  1  0.77557000  0.81217000  0.76344000  1.0
  H  H22  1  0.45158000  0.68391000  0.99660000  1.0
  H  H23  1  0.04842000  0.00340000  0.31608000  1.0
  H  H24  1  0.54842000  0.31609000  0.00340000  1.0
  H  H25  1  0.95158000  0.99660000  0.68391000  1.0
  H  H26  1  0.39036000  0.78463000  0.93433000  1.0
  H  H27  1  0.10964000  0.06567000  0.21537000  1.0
  H  H28  1  0.60964000  0.21537000  0.06567000  1.0
  H  H29  1  0.89036000  0.93433000  0.78463000  1.0
  H  H30  1  0.62844000  0.71415000  0.86032000  1.0
  H  H31  1  0.87157000  0.13968000  0.28584000  1.0
  H  H32  1  0.37157000  0.28584000  0.13968000  1.0
  H  H33  1  0.12843000  0.86032000  0.71416000  1.0
  H  H34  1  0.63251000  0.68791000  0.68836000  1.0
  H  H35  1  0.86749000  0.31164000  0.31208000  1.0
  H  H36  1  0.36748000  0.31209000  0.31164000  1.0
  H  H37  1  0.13251000  0.68836000  0.68792000  1.0
  H  H38  1  0.49888000  0.78728000  0.75018000  1.0
  H  H39  1  0.00113000  0.24983000  0.21271000  1.0
  H  H40  1  0.50113000  0.21272000  0.24982000  1.0
  H  H41  1  0.99887000  0.75018000  0.78729000  1.0
  H  H42  1  0.71912000  0.54449000  0.77855000  1.0
  H  H43  1  0.78089000  0.22145000  0.45550000  1.0
  H  H44  1  0.28088000  0.45551000  0.22145000  1.0
  H  H45  1  0.21911000  0.77854000  0.54450000  1.0
  H  H46  1  0.64765000  0.54394000  0.90483000  1.0
  H  H47  1  0.85235000  0.09517000  0.45605000  1.0
  H  H48  1  0.35235000  0.45606000  0.09517000  1.0
  H  H49  1  0.14766000  0.90483000  0.54395000  1.0
  H  H50  1  0.58011000  0.43493000  0.80887000  1.0
  H  H51  1  0.91989000  0.19113000  0.56507000  1.0
  H  H52  1  0.41989000  0.56507000  0.19113000  1.0
  H  H53  1  0.08011000  0.80887000  0.43493000  1.0
  H  H54  1  0.60358000  0.52273000  0.65770000  1.0
  H  H55  1  0.89642000  0.34230000  0.47727000  1.0
  H  H56  1  0.39642000  0.47727000  0.34230000  1.0
  H  H57  1  0.10358000  0.65770000  0.52273000  1.0
  H  H58  1  0.44906000  0.50731000  0.69950000  1.0
  H  H59  1  0.05094000  0.30049000  0.49269000  1.0
  H  H60  1  0.55093000  0.49269000  0.30050000  1.0
  H  H61  1  0.94906000  0.69951000  0.50731000  1.0
  H  H62  1  0.34336000  0.50504000  0.88120000  1.0
  H  H63  1  0.15664000  0.11880000  0.49496000  1.0
  H  H64  1  0.65664000  0.49496000  0.11880000  1.0
  H  H65  1  0.84336000  0.88120000  0.50504000  1.0
  H  H66  1  0.42271000  0.52079000  0.96662000  1.0
  H  H67  1  0.07729000  0.03338000  0.47920000  1.0
  H  H68  1  0.57729000  0.47921000  0.03338000  1.0
  H  H69  1  0.92271000  0.96663000  0.52079000  1.0
  H  H70  1  0.23519000  0.68577000  0.05936000  1.0
  H  H71  1  0.26482000  0.94064000  0.31423000  1.0
  H  H72  1  0.76481000  0.31423000  0.94064000  1.0
  H  H73  1  0.73519000  0.05936000  0.68577000  1.0
  H  H74  1  0.16266000  0.76158000  0.98071000  1.0
  H  H75  1  0.33735000  0.01929000  0.23841000  1.0
  H  H76  1  0.83734000  0.23841000  0.01928000  1.0
  H  H77  1  0.66266000  0.98072000  0.76159000  1.0
  H  H78  1  0.87925000  0.99419000  0.25430000  1.0
  H  H79  1  0.62075000  0.74570000  0.00581000  1.0
  H  H80  1  0.12075000  0.00581000  0.74570000  1.0
  H  H81  1  0.37925000  0.25430000  0.99418000  1.0
  H  H82  1  0.90710000  0.86639000  0.26265000  1.0
  H  H83  1  0.59290000  0.73734000  0.13361000  1.0
  H  H84  1  0.09290000  0.13361000  0.73735000  1.0
  H  H85  1  0.40710000  0.26265000  0.86639000  1.0
  H  H86  1  0.59379000  0.02496000  0.23514000  1.0
  H  H87  1  0.90621000  0.76486000  0.97504000  1.0
  H  H88  1  0.40621000  0.97505000  0.76486000  1.0
  H  H89  1  0.09379000  0.23514000  0.02496000  1.0
  H  H90  1  0.70377000  0.08646000  0.17556000  1.0
  H  H91  1  0.79623000  0.82444000  0.91353000  1.0
  H  H92  1  0.29623000  0.91354000  0.82444000  1.0
  H  H93  1  0.20378000  0.17556000  0.08646000  1.0
  H  H94  1  0.55440000  0.07901000  0.08075000  1.0
  H  H95  1  0.94560000  0.91925000  0.92098000  1.0
  H  H96  1  0.44560000  0.92099000  0.91925000  1.0
  H  H97  1  0.05440000  0.08075000  0.07902000  1.0
  H  H98  1  0.77832000  0.07924000  0.98962000  1.0
  H  H99  1  0.72168000  0.01038000  0.92076000  1.0
  H  H100  1  0.22168000  0.92076000  0.01038000  1.0
  H  H101  1  0.27832000  0.98962000  0.07924000  1.0
  H  H102  1  0.93153000  0.99341000  0.08248000  1.0
  H  H103  1  0.56847000  0.91752000  0.00659000  1.0
  H  H104  1  0.06847000  0.00659000  0.91752000  1.0
  H  H105  1  0.43153000  0.08249000  0.99341000  1.0
  H  H106  1  0.98588000  0.86418000  0.07675000  1.0
  H  H107  1  0.51412000  0.92325000  0.13582000  1.0
  H  H108  1  0.01411000  0.13582000  0.92326000  1.0
  H  H109  1  0.48588000  0.07675000  0.86418000  1.0
  H  H110  1  0.83079000  0.77214000  0.16258000  1.0
  H  H111  1  0.66921000  0.83742000  0.22786000  1.0
  H  H112  1  0.16921000  0.22786000  0.83742000  1.0
  H  H113  1  0.33078000  0.16259000  0.77214000  1.0
  H  H114  1  0.90536000  0.69403000  0.30598000  1.0
  H  H115  1  0.59464000  0.69402000  0.30597000  1.0
  H  H116  1  0.09463000  0.30598000  0.69402000  1.0
  H  H117  1  0.40537000  0.30598000  0.69402000  1.0
  H  H118  1  0.78351000  0.77972000  0.37450000  1.0
  H  H119  1  0.71649000  0.62550000  0.22028000  1.0
  H  H120  1  0.21649000  0.22028000  0.62550000  1.0
  H  H121  1  0.28351000  0.37450000  0.77972000  1.0
  C  C122  1  0.53344000  0.68005000  0.54097000  1.0
  C  C123  1  0.96656000  0.45904000  0.31996000  1.0
  C  C124  1  0.46655000  0.31996000  0.45903000  1.0
  C  C125  1  0.03344000  0.54097000  0.68004000  1.0
  C  C126  1  0.41855000  0.69168000  0.62928000  1.0
  C  C127  1  0.08145000  0.37073000  0.30832000  1.0
  C  C128  1  0.58145000  0.30832000  0.37073000  1.0
  C  C129  1  0.91854000  0.62927000  0.69168000  1.0
  C  C130  1  0.45032000  0.65628000  0.72334000  1.0
  C  C131  1  0.04968000  0.27666000  0.34372000  1.0
  C  C132  1  0.54968000  0.34372000  0.27666000  1.0
  C  C133  1  0.95032000  0.72334000  0.65628000  1.0
  C  C134  1  0.32238000  0.68387000  0.80666000  1.0
  C  C135  1  0.17762000  0.19335000  0.31613000  1.0
  C  C136  1  0.67762000  0.31613000  0.19334000  1.0
  C  C137  1  0.82238000  0.80666000  0.68387000  1.0
  C  C138  1  0.34300000  0.65411000  0.90508000  1.0
  C  C139  1  0.15700000  0.09492000  0.34589000  1.0
  C  C140  1  0.65700000  0.34589000  0.09492000  1.0
  C  C141  1  0.84300000  0.90508000  0.65411000  1.0
  C  C142  1  0.43540000  0.70499000  0.92636000  1.0
  C  C143  1  0.06460000  0.07364000  0.29500000  1.0
  C  C144  1  0.56460000  0.29501000  0.07364000  1.0
  C  C145  1  0.93540000  0.92636000  0.70499000  1.0
  C  C146  1  0.56396000  0.67681000  0.84418000  1.0
  C  C147  1  0.93604000  0.15582000  0.32319000  1.0
  C  C148  1  0.43604000  0.32319000  0.15582000  1.0
  C  C149  1  0.06395000  0.84418000  0.67681000  1.0
  C  C150  1  0.54031000  0.70752000  0.74721000  1.0
  C  C151  1  0.95969000  0.25279000  0.29248000  1.0
  C  C152  1  0.45969000  0.29248000  0.25279000  1.0
  C  C153  1  0.04031000  0.74721000  0.70752000  1.0
  C  C154  1  0.62644000  0.56596000  0.83666000  1.0
  C  C155  1  0.87356000  0.16334000  0.43403000  1.0
  C  C156  1  0.37356000  0.43403000  0.16334000  1.0
  C  C157  1  0.12644000  0.83666000  0.56597000  1.0
  C  C158  1  0.53580000  0.51468000  0.81452000  1.0
  C  C159  1  0.96420000  0.18548000  0.48532000  1.0
  C  C160  1  0.46420000  0.48532000  0.18548000  1.0
  C  C161  1  0.03580000  0.81452000  0.51468000  1.0
  C  C162  1  0.51236000  0.54486000  0.71713000  1.0
  C  C163  1  0.98764000  0.28287000  0.45514000  1.0
  C  C164  1  0.48764000  0.45514000  0.28287000  1.0
  C  C165  1  0.01236000  0.71713000  0.54486000  1.0
  C  C166  1  0.40738000  0.54306000  0.89657000  1.0
  C  C167  1  0.09262000  0.10343000  0.45694000  1.0
  C  C168  1  0.59262000  0.45694000  0.10343000  1.0
  C  C169  1  0.90738000  0.89657000  0.54306000  1.0
  C  C170  1  0.21529000  0.68591000  0.98903000  1.0
  C  C171  1  0.28472000  0.01097000  0.31409000  1.0
  C  C172  1  0.78471000  0.31410000  0.01097000  1.0
  C  C173  1  0.71529000  0.98903000  0.68591000  1.0
  C  C174  1  0.12556000  0.62423000  0.99548000  1.0
  C  C175  1  0.37444000  0.00452000  0.37577000  1.0
  C  C176  1  0.87444000  0.37576000  0.00452000  1.0
  C  C177  1  0.62556000  0.99548000  0.62424000  1.0
  C  C178  1  0.72350000  0.95807000  0.35416000  1.0
  C  C179  1  0.77650000  0.64583000  0.04192000  1.0
  C  C180  1  0.27650000  0.04192000  0.64584000  1.0
  C  C181  1  0.22350000  0.35417000  0.95808000  1.0
  C  C182  1  0.83441000  0.93560000  0.26063000  1.0
  C  C183  1  0.66559000  0.73937000  0.06439000  1.0
  C  C184  1  0.16559000  0.06439000  0.73937000  1.0
  C  C185  1  0.33441000  0.26063000  0.93560000  1.0
  C  C186  1  0.78973000  0.92978000  0.16957000  1.0
  C  C187  1  0.71027000  0.83043000  0.07021000  1.0
  C  C188  1  0.21027000  0.07022000  0.83043000  1.0
  C  C189  1  0.28973000  0.16957000  0.92978000  1.0
  C  C190  1  0.67612000  0.01983000  0.17031000  1.0
  C  C191  1  0.82387000  0.82969000  0.98017000  1.0
  C  C192  1  0.32387000  0.98017000  0.82969000  1.0
  C  C193  1  0.17612000  0.17031000  0.01983000  1.0
  C  C194  1  0.63679000  0.01459000  0.07785000  1.0
  C  C195  1  0.86321000  0.92215000  0.98540000  1.0
  C  C196  1  0.36321000  0.98541000  0.92215000  1.0
  C  C197  1  0.13679000  0.07786000  0.01460000  1.0
  C  C198  1  0.75000000  0.01244000  0.98755000  1.0
  C  C199  1  0.25000000  0.98756000  0.01244000  1.0
  C  C200  1  0.90249000  0.92732000  0.07816000  1.0
  C  C201  1  0.59751000  0.92184000  0.07268000  1.0
  C  C202  1  0.09751000  0.07268000  0.92184000  1.0
  C  C203  1  0.40249000  0.07817000  0.92732000  1.0
  C  C204  1  0.75000000  0.83701000  0.16299000  1.0
  C  C205  1  0.25000000  0.16299000  0.83701000  1.0
  O  O206  1  0.55682000  0.75275000  0.49568000  1.0
  O  O207  1  0.94318000  0.50432000  0.24725000  1.0
  O  O208  1  0.44317000  0.24725000  0.50432000  1.0
  O  O209  1  0.05683000  0.49568000  0.75275000  1.0
  O  O210  1  0.60949000  0.59421000  0.50974000  1.0
  O  O211  1  0.89051000  0.49027000  0.40580000  1.0
  O  O212  1  0.39050000  0.40580000  0.49026000  1.0
  O  O213  1  0.10949000  0.50973000  0.59420000  1.0
  O  O214  1  0.10096000  0.60498000  0.91810000  1.0
  O  O215  1  0.39904000  0.08191000  0.39502000  1.0
  O  O216  1  0.89904000  0.39502000  0.08191000  1.0
  O  O217  1  0.60096000  0.91809000  0.60498000  1.0
  O  O218  1  0.08019000  0.59623000  0.07909000  1.0
  O  O219  1  0.41981000  0.92091000  0.40377000  1.0
  O  O220  1  0.91981000  0.40376000  0.92091000  1.0
  O  O221  1  0.58020000  0.07908000  0.59624000  1.0
  O  O222  1  0.68931000  0.88630000  0.39496000  1.0
  O  O223  1  0.81069000  0.60503000  0.11369000  1.0
  O  O224  1  0.31068000  0.11370000  0.60504000  1.0
  O  O225  1  0.18931000  0.39496000  0.88630000  1.0
  O  O226  1  0.66698000  0.04692000  0.38462000  1.0
  O  O227  1  0.83302000  0.61538000  0.95307000  1.0
  O  O228  1  0.33302000  0.95308000  0.61538000  1.0
  O  O229  1  0.16698000  0.38462000  0.04692000  1.0
  O  O230  1  0.84160000  0.70943000  0.37019000  1.0
  O  O231  1  0.65840000  0.62981000  0.29056000  1.0
  O  O232  1  0.15840000  0.29056000  0.62981000  1.0
  O  O233  1  0.34160000  0.37019000  0.70943000  1.0
