# generated using pymatgen
data_ZnH28C31S2(NO6)2
_symmetry_space_group_name_H-M   'P 1'
_cell_length_a   16.83640000
_cell_length_b   18.30290000
_cell_length_c   19.39150000
_cell_angle_alpha   89.89230000
_cell_angle_beta   88.49430000
_cell_angle_gamma   86.70130000
_symmetry_Int_Tables_number   1
_chemical_formula_structural   ZnH28C31S2(NO6)2
_chemical_formula_sum   'Zn2 H56 C62 S4 N4 O24'
_cell_volume   5963.62554983
_cell_formula_units_Z   2
loop_
 _symmetry_equiv_pos_site_id
 _symmetry_equiv_pos_as_xyz
  1  'x, y, z'
loop_
 _atom_site_type_symbol
 _atom_site_label
 _atom_site_symmetry_multiplicity
 _atom_site_fract_x
 _atom_site_fract_y
 _atom_site_fract_z
 _atom_site_occupancy
  Zn  Zn0  1  0.50272000  0.57113000  0.48661000  1.0
  Zn  Zn1  1  0.49467000  0.41473000  0.48514000  1.0
  H  H2  1  0.74851000  0.58387000  0.43732000  1.0
  H  H3  1  0.59017000  0.15661000  0.41195000  1.0
  H  H4  1  0.59669000  0.67963000  0.55772000  1.0
  H  H5  1  0.58616000  0.29394000  0.41405000  1.0
  H  H6  1  0.50360000  0.06212000  0.60357000  1.0
  H  H7  1  0.49292000  0.92352000  0.38524000  1.0
  H  H8  1  0.10091000  0.63264000  0.50386000  1.0
  H  H9  1  0.87680000  0.39747000  0.58939000  1.0
  H  H10  1  0.47438000  0.38554000  0.26674000  1.0
  H  H11  1  0.53397000  0.60776000  0.70123000  1.0
  H  H12  1  0.48342000  0.39220000  0.13784000  1.0
  H  H13  1  0.25442000  0.41319000  0.58647000  1.0
  H  H14  1  0.52431000  0.60671000  0.83050000  1.0
  H  H15  1  0.45076000  0.61927000  0.27679000  1.0
  H  H16  1  0.53545000  0.37412000  0.69967000  1.0
  H  H17  1  0.37489000  0.56512000  0.03037000  1.0
  H  H18  1  0.62548000  0.43669000  0.94172000  1.0
  H  H19  1  0.45738000  0.85584000  0.69103000  1.0
  H  H20  1  0.41163000  0.85768000  0.60921000  1.0
  H  H21  1  0.40303000  0.98380000  0.71395000  1.0
  H  H22  1  0.35881000  0.98703000  0.63210000  1.0
  H  H23  1  0.27299000  0.88331000  0.66700000  1.0
  H  H24  1  0.40133000  0.55371000  0.90457000  1.0
  H  H25  1  0.25769000  0.95855000  0.72425000  1.0
  H  H26  1  0.31678000  0.88017000  0.74937000  1.0
  H  H27  1  0.43349000  0.13659000  0.30581000  1.0
  H  H28  1  0.39745000  0.13775000  0.39300000  1.0
  H  H29  1  0.37563000  0.01562000  0.28792000  1.0
  H  H30  1  0.34187000  0.01454000  0.37515000  1.0
  H  H31  1  0.25293000  0.12828000  0.35481000  1.0
  H  H32  1  0.23044000  0.05695000  0.29803000  1.0
  H  H33  1  0.28650000  0.12990000  0.26728000  1.0
  H  H34  1  0.97211000  0.62372000  0.54202000  1.0
  H  H35  1  0.59960000  0.44890000  0.06761000  1.0
  H  H36  1  0.06387000  0.42642000  0.71902000  1.0
  H  H37  1  0.23743000  0.72509000  0.42162000  1.0
  H  H38  1  0.15908000  0.66401000  0.41744000  1.0
  H  H39  1  0.32751000  0.62981000  0.35741000  1.0
  H  H40  1  0.24547000  0.57562000  0.34864000  1.0
  H  H41  1  0.17371000  0.67549000  0.27980000  1.0
  H  H42  1  0.26767000  0.65026000  0.24096000  1.0
  H  H43  1  0.25428000  0.73237000  0.29003000  1.0
  H  H44  1  0.75689000  0.36976000  0.66245000  1.0
  H  H45  1  0.80648000  0.30346000  0.60612000  1.0
  H  H46  1  0.41160000  0.69263000  0.42153000  1.0
  H  H47  1  0.62681000  0.31136000  0.63608000  1.0
  H  H48  1  0.68222000  0.24178000  0.59034000  1.0
  H  H49  1  0.75852000  0.20897000  0.70038000  1.0
  H  H50  1  0.65592000  0.19673000  0.70953000  1.0
  H  H51  1  0.69795000  0.27550000  0.74592000  1.0
  H  H52  1  0.40214000  0.73587000  0.20638000  1.0
  H  H53  1  0.57624000  0.26050000  0.76829000  1.0
  H  H54  1  0.40749000  0.30465000  0.56481000  1.0
  H  H55  1  0.40480000  0.82984000  0.42376000  1.0
  H  H56  1  0.40568000  0.16801000  0.57160000  1.0
  H  H57  1  0.59770000  0.81632000  0.56686000  1.0
  C  C58  1  0.53184000  0.49075000  0.61608000  1.0
  C  C59  1  0.53616000  0.42452000  0.72907000  1.0
  C  C60  1  0.46183000  0.50214000  0.27937000  1.0
  C  C61  1  0.53575000  0.49072000  0.69311000  1.0
  C  C62  1  0.43011000  0.53754000  0.01124000  1.0
  C  C63  1  0.57059000  0.46478000  0.96102000  1.0
  C  C64  1  0.44515000  0.53127000  0.94056000  1.0
  C  C65  1  0.55571000  0.47131000  0.03169000  1.0
  C  C66  1  0.51499000  0.49439000  0.91463000  1.0
  C  C67  1  0.48550000  0.50760000  0.05773000  1.0
  C  C68  1  0.45178000  0.72284000  0.45243000  1.0
  C  C69  1  0.46503000  0.49878000  0.35652000  1.0
  C  C70  1  0.44736000  0.26932000  0.53259000  1.0
  C  C71  1  0.44876000  0.79866000  0.45392000  1.0
  C  C72  1  0.44701000  0.19354000  0.53604000  1.0
  C  C73  1  0.34959000  0.50372000  0.52247000  1.0
  C  C74  1  0.64905000  0.48204000  0.46794000  1.0
  C  C75  1  0.50124000  0.83465000  0.49554000  1.0
  C  C76  1  0.49784000  0.15081000  0.49167000  1.0
  C  C77  1  0.55550000  0.79124000  0.53400000  1.0
  C  C78  1  0.54914000  0.18733000  0.44687000  1.0
  C  C79  1  0.55534000  0.71558000  0.52920000  1.0
  C  C80  1  0.47571000  0.44201000  0.16864000  1.0
  C  C81  1  0.54675000  0.26324000  0.44724000  1.0
  C  C82  1  0.50234000  0.95603000  0.55804000  1.0
  C  C83  1  0.49375000  0.02948000  0.43078000  1.0
  C  C84  1  0.50051000  0.03224000  0.55518000  1.0
  C  C85  1  0.49432000  0.95340000  0.43375000  1.0
  C  C86  1  0.49732000  0.07023000  0.49234000  1.0
  C  C87  1  0.49950000  0.91527000  0.49644000  1.0
  C  C88  1  0.26152000  0.51595000  0.53475000  1.0
  C  C89  1  0.73326000  0.48337000  0.49100000  1.0
  C  C90  1  0.22023000  0.46135000  0.56823000  1.0
  C  C91  1  0.52826000  0.55560000  0.80145000  1.0
  C  C92  1  0.77713000  0.54269000  0.47045000  1.0
  C  C93  1  0.13777000  0.46552000  0.57768000  1.0
  C  C94  1  0.85424000  0.55147000  0.49139000  1.0
  C  C95  1  0.09483000  0.52889000  0.55300000  1.0
  C  C96  1  0.89035000  0.49684000  0.53475000  1.0
  C  C97  1  0.13617000  0.58506000  0.52204000  1.0
  C  C98  1  0.84600000  0.43815000  0.55718000  1.0
  C  C99  1  0.21860000  0.57902000  0.51050000  1.0
  C  C100  1  0.76760000  0.43109000  0.53728000  1.0
  C  C101  1  0.47039000  0.43802000  0.24013000  1.0
  C  C102  1  0.47201000  0.50935000  0.13351000  1.0
  C  C103  1  0.53362000  0.55647000  0.72979000  1.0
  C  C104  1  0.43707000  0.89193000  0.64888000  1.0
  C  C105  1  0.37567000  0.95027000  0.67501000  1.0
  C  C106  1  0.30177000  0.91617000  0.70556000  1.0
  C  C107  1  0.41792000  0.10172000  0.34977000  1.0
  C  C108  1  0.35347000  0.05083000  0.33105000  1.0
  C  C109  1  0.27667000  0.09386000  0.31176000  1.0
  C  C110  1  0.22415000  0.66712000  0.41725000  1.0
  C  C111  1  0.26249000  0.63267000  0.35215000  1.0
  C  C112  1  0.23825000  0.67493000  0.28726000  1.0
  C  C113  1  0.52734000  0.48983000  0.83886000  1.0
  C  C114  1  0.74892000  0.33325000  0.61813000  1.0
  C  C115  1  0.68465000  0.28012000  0.63380000  1.0
  C  C116  1  0.69973000  0.23849000  0.70105000  1.0
  C  C117  1  0.45986000  0.57343000  0.17392000  1.0
  C  C118  1  0.53362000  0.42380000  0.80092000  1.0
  C  C119  1  0.45561000  0.56977000  0.24578000  1.0
  S  S120  1  0.90076000  0.62987000  0.45729000  1.0
  S  S121  1  0.09869000  0.38743000  0.61929000  1.0
  S  S122  1  0.45362000  0.66083000  0.13260000  1.0
  S  S123  1  0.53557000  0.33793000  0.84511000  1.0
  N  N124  1  0.01203000  0.54301000  0.55008000  1.0
  N  N125  1  0.97010000  0.48797000  0.55289000  1.0
  N  N126  1  0.50414000  0.68198000  0.48943000  1.0
  N  N127  1  0.49595000  0.30352000  0.48863000  1.0
  O  O128  1  0.54529000  0.55020000  0.58496000  1.0
  O  O129  1  0.49228000  0.06263000  0.36688000  1.0
  O  O130  1  0.96758000  0.60459000  0.41348000  1.0
  O  O131  1  0.83997000  0.67954000  0.43055000  1.0
  O  O132  1  0.93290000  0.66570000  0.52452000  1.0
  O  O133  1  0.05444000  0.34560000  0.57302000  1.0
  O  O134  1  0.16295000  0.35263000  0.65750000  1.0
  O  O135  1  0.03514000  0.42340000  0.67591000  1.0
  O  O136  1  0.25830000  0.63167000  0.47740000  1.0
  O  O137  1  0.72292000  0.37649000  0.56010000  1.0
  O  O138  1  0.52452000  0.66975000  0.09174000  1.0
  O  O139  1  0.47587000  0.43553000  0.38307000  1.0
  O  O140  1  0.37547000  0.67351000  0.10412000  1.0
  O  O141  1  0.45697000  0.71679000  0.19744000  1.0
  O  O142  1  0.61479000  0.32176000  0.87018000  1.0
  O  O143  1  0.46657000  0.33497000  0.88962000  1.0
  O  O144  1  0.52319000  0.28059000  0.78316000  1.0
  O  O145  1  0.51352000  0.43124000  0.58835000  1.0
  O  O146  1  0.45857000  0.55933000  0.38918000  1.0
  O  O147  1  0.39119000  0.55881000  0.52847000  1.0
  O  O148  1  0.61614000  0.42142000  0.46835000  1.0
  O  O149  1  0.37435000  0.43869000  0.50684000  1.0
  O  O150  1  0.61598000  0.54396000  0.45153000  1.0
  O  O151  1  0.50910000  0.92243000  0.62150000  1.0
