# generated using pymatgen
data_Cu3H22C26S2(NO9)2
_symmetry_space_group_name_H-M   'P 1'
_cell_length_a   11.00610000
_cell_length_b   11.70330000
_cell_length_c   12.16790000
_cell_angle_alpha   89.99650000
_cell_angle_beta   108.88400000
_cell_angle_gamma   89.99680000
_symmetry_Int_Tables_number   1
_chemical_formula_structural   Cu3H22C26S2(NO9)2
_chemical_formula_sum   'Cu6 H44 C52 S4 N4 O36'
_cell_volume   1482.95935247
_cell_formula_units_Z   2
loop_
 _symmetry_equiv_pos_site_id
 _symmetry_equiv_pos_as_xyz
  1  'x, y, z'
loop_
 _atom_site_type_symbol
 _atom_site_label
 _atom_site_symmetry_multiplicity
 _atom_site_fract_x
 _atom_site_fract_y
 _atom_site_fract_z
 _atom_site_occupancy
  Cu  Cu0  1  0.68241000  0.86343000  0.49751000  1.0
  Cu  Cu1  1  0.31758000  0.36352000  0.00249000  1.0
  Cu  Cu2  1  0.31757000  0.13650000  0.50248000  1.0
  Cu  Cu3  1  0.68242000  0.63652000  0.99749000  1.0
  Cu  Cu4  1  0.49999000  0.00002000  0.00000000  1.0
  Cu  Cu5  1  0.50001000  0.49994000  0.50001000  1.0
  H  H6  1  0.62419000  0.72575000  0.32411000  1.0
  H  H7  1  0.37576000  0.22573000  0.17582000  1.0
  H  H8  1  0.37583000  0.27422000  0.67583000  1.0
  H  H9  1  0.62418000  0.77421000  0.82410000  1.0
  H  H10  1  0.76647000  0.75868000  0.33620000  1.0
  H  H11  1  0.23353000  0.25875000  0.16378000  1.0
  H  H12  1  0.23357000  0.24123000  0.66373000  1.0
  H  H13  1  0.76648000  0.74132000  0.83618000  1.0
  H  H14  1  0.59811000  0.90873000  0.66076000  1.0
  H  H15  1  0.40198000  0.40861000  0.83928000  1.0
  H  H16  1  0.40197000  0.09142000  0.33940000  1.0
  H  H17  1  0.59809000  0.59141000  0.16073000  1.0
  H  H18  1  0.60233000  0.02723000  0.60045000  1.0
  H  H19  1  0.39773000  0.52713000  0.89955000  1.0
  H  H20  1  0.39770000  0.97287000  0.39967000  1.0
  H  H21  1  0.60234000  0.47290000  0.10047000  1.0
  H  H22  1  0.01349000  0.69298000  0.86700000  1.0
  H  H23  1  0.98656000  0.19309000  0.63296000  1.0
  H  H24  1  0.98652000  0.30693000  0.13300000  1.0
  H  H25  1  0.01344000  0.80700000  0.36696000  1.0
  H  H26  1  0.10562000  0.91206000  0.62099000  1.0
  H  H27  1  0.89428000  0.41198000  0.87904000  1.0
  H  H28  1  0.89428000  0.08799000  0.37905000  1.0
  H  H29  1  0.10568000  0.58793000  0.12100000  1.0
  H  H30  1  0.24574000  0.65894000  0.96776000  1.0
  H  H31  1  0.75434000  0.15902000  0.53218000  1.0
  H  H32  1  0.75428000  0.34097000  0.03217000  1.0
  H  H33  1  0.24566000  0.84109000  0.46773000  1.0
  H  H34  1  0.26479000  0.09667000  0.85747000  1.0
  H  H35  1  0.73525000  0.59672000  0.64257000  1.0
  H  H36  1  0.73519000  0.90334000  0.14255000  1.0
  H  H37  1  0.26489000  0.40321000  0.35757000  1.0
  H  H38  1  0.36620000  0.89895000  0.15605000  1.0
  H  H39  1  0.63386000  0.39893000  0.34405000  1.0
  H  H40  1  0.63380000  0.10106000  0.84396000  1.0
  H  H41  1  0.36622000  0.60106000  0.65606000  1.0
  H  H42  1  0.14427000  0.90034000  0.16258000  1.0
  H  H43  1  0.85575000  0.40037000  0.33745000  1.0
  H  H44  1  0.85572000  0.09964000  0.83743000  1.0
  H  H45  1  0.14428000  0.59972000  0.66253000  1.0
  H  H46  1  0.03730000  0.09776000  0.84395000  1.0
  H  H47  1  0.96273000  0.59781000  0.65605000  1.0
  H  H48  1  0.96268000  0.90223000  0.15606000  1.0
  H  H49  1  0.03739000  0.40223000  0.34397000  1.0
  C  C50  1  0.90192000  0.81501000  0.67641000  1.0
  C  C51  1  0.09809000  0.31498000  0.82361000  1.0
  C  C52  1  0.09804000  0.18502000  0.32369000  1.0
  C  C53  1  0.90192000  0.68500000  0.17636000  1.0
  C  C54  1  0.04421000  0.80445000  0.73783000  1.0
  C  C55  1  0.95578000  0.30446000  0.76220000  1.0
  C  C56  1  0.95576000  0.19555000  0.26222000  1.0
  C  C57  1  0.04421000  0.69555000  0.23780000  1.0
  C  C58  1  0.08510000  0.73433000  0.83617000  1.0
  C  C59  1  0.91494000  0.23439000  0.66382000  1.0
  C  C60  1  0.91489000  0.26561000  0.16383000  1.0
  C  C61  1  0.08506000  0.76566000  0.33613000  1.0
  C  C62  1  0.13593000  0.85790000  0.69789000  1.0
  C  C63  1  0.86402000  0.35785000  0.80213000  1.0
  C  C64  1  0.86400000  0.14213000  0.30213000  1.0
  C  C65  1  0.13596000  0.64210000  0.19789000  1.0
  C  C66  1  0.21506000  0.71590000  0.89300000  1.0
  C  C67  1  0.78499000  0.21593000  0.60696000  1.0
  C  C68  1  0.78493000  0.28404000  0.10696000  1.0
  C  C69  1  0.21501000  0.78413000  0.39297000  1.0
  C  C70  1  0.26671000  0.84272000  0.75760000  1.0
  C  C71  1  0.73325000  0.34264000  0.74240000  1.0
  C  C72  1  0.73323000  0.15731000  0.24240000  1.0
  C  C73  1  0.26672000  0.65731000  0.25759000  1.0
  C  C74  1  0.30745000  0.77086000  0.85547000  1.0
  C  C75  1  0.69258000  0.27083000  0.64450000  1.0
  C  C76  1  0.69252000  0.22913000  0.14450000  1.0
  C  C77  1  0.30741000  0.72920000  0.35543000  1.0
  C  C78  1  0.44567000  0.75097000  0.92554000  1.0
  C  C79  1  0.55444000  0.25085000  0.57442000  1.0
  C  C80  1  0.55432000  0.24905000  0.07445000  1.0
  C  C81  1  0.44561000  0.74909000  0.42549000  1.0
  C  C82  1  0.23311000  0.05204000  0.92160000  1.0
  C  C83  1  0.76692000  0.55208000  0.57844000  1.0
  C  C84  1  0.76687000  0.94796000  0.07841000  1.0
  C  C85  1  0.23320000  0.44787000  0.42167000  1.0
  C  C86  1  0.28956000  0.94266000  0.08953000  1.0
  C  C87  1  0.71049000  0.44267000  0.41054000  1.0
  C  C88  1  0.71043000  0.05734000  0.91048000  1.0
  C  C89  1  0.28961000  0.55731000  0.58954000  1.0
  C  C90  1  0.16415000  0.94373000  0.09122000  1.0
  C  C91  1  0.83589000  0.44376000  0.40882000  1.0
  C  C92  1  0.83585000  0.05626000  0.90879000  1.0
  C  C93  1  0.16418000  0.55629000  0.59120000  1.0
  C  C94  1  0.10563000  0.05343000  0.91614000  1.0
  C  C95  1  0.89440000  0.55346000  0.58387000  1.0
  C  C96  1  0.89435000  0.94657000  0.08387000  1.0
  C  C97  1  0.10571000  0.44656000  0.41617000  1.0
  C  C98  1  0.06772000  0.99913000  0.00211000  1.0
  C  C99  1  0.93231000  0.49917000  0.49789000  1.0
  C  C100  1  0.93227000  0.00086000  0.99789000  1.0
  C  C101  1  0.06777000  0.50089000  0.50211000  1.0
  S  S102  1  0.38097000  0.92186000  0.71206000  1.0
  S  S103  1  0.61891000  0.42176000  0.78786000  1.0
  S  S104  1  0.61895000  0.07818000  0.28793000  1.0
  S  S105  1  0.38103000  0.57817000  0.21209000  1.0
  N  N106  1  0.32321000  0.99607000  0.00575000  1.0
  N  N107  1  0.67682000  0.49609000  0.49431000  1.0
  N  N108  1  0.67678000  0.00394000  0.99426000  1.0
  N  N109  1  0.32329000  0.50386000  0.50580000  1.0
  O  O110  1  0.70586000  0.75150000  0.38108000  1.0
  O  O111  1  0.29408000  0.25150000  0.11887000  1.0
  O  O112  1  0.29415000  0.24852000  0.61887000  1.0
  O  O113  1  0.70586000  0.74844000  0.88106000  1.0
  O  O114  1  0.65150000  0.95507000  0.62542000  1.0
  O  O115  1  0.34853000  0.45500000  0.87452000  1.0
  O  O116  1  0.34855000  0.04502000  0.37465000  1.0
  O  O117  1  0.65155000  0.54502000  0.12550000  1.0
  O  O118  1  0.86824000  0.86598000  0.57687000  1.0
  O  O119  1  0.13174000  0.36607000  0.92310000  1.0
  O  O120  1  0.13169000  0.13391000  0.42316000  1.0
  O  O121  1  0.86828000  0.63400000  0.07683000  1.0
  O  O122  1  0.82529000  0.77067000  0.72136000  1.0
  O  O123  1  0.17470000  0.27052000  0.77872000  1.0
  O  O124  1  0.17467000  0.22950000  0.27881000  1.0
  O  O125  1  0.82527000  0.72934000  0.22129000  1.0
  O  O126  1  0.49042000  0.65029000  0.91988000  1.0
  O  O127  1  0.50954000  0.15028000  0.58021000  1.0
  O  O128  1  0.50956000  0.34972000  0.08015000  1.0
  O  O129  1  0.49041000  0.84977000  0.41983000  1.0
  O  O130  1  0.51362000  0.82711000  0.98983000  1.0
  O  O131  1  0.48648000  0.32690000  0.50996000  1.0
  O  O132  1  0.48635000  0.17293000  0.01013000  1.0
  O  O133  1  0.51359000  0.67300000  0.48986000  1.0
  O  O134  1  0.42359000  0.01702000  0.79382000  1.0
  O  O135  1  0.57634000  0.51693000  0.70606000  1.0
  O  O136  1  0.57636000  0.98301000  0.20616000  1.0
  O  O137  1  0.42370000  0.48305000  0.29392000  1.0
  O  O138  1  0.48561000  0.84006000  0.71649000  1.0
  O  O139  1  0.51427000  0.33997000  0.78336000  1.0
  O  O140  1  0.51429000  0.15997000  0.28347000  1.0
  O  O141  1  0.48561000  0.66000000  0.21647000  1.0
  O  O142  1  0.31250000  0.96064000  0.59356000  1.0
  O  O143  1  0.68724000  0.46058000  0.90637000  1.0
  O  O144  1  0.68739000  0.03938000  0.40643000  1.0
  O  O145  1  0.31259000  0.53930000  0.09362000  1.0
