# generated using pymatgen
data_ZnHC17N5(O6F5)2
_symmetry_space_group_name_H-M   'P 1'
_cell_length_a   10.79310000
_cell_length_b   14.72620000
_cell_length_c   16.00760000
_cell_angle_alpha   89.86910000
_cell_angle_beta   89.94880000
_cell_angle_gamma   88.89090000
_symmetry_Int_Tables_number   1
_chemical_formula_structural   ZnHC17N5(O6F5)2
_chemical_formula_sum   'Zn2 H2 C34 N10 O24 F20'
_cell_volume   2543.78531739
_cell_formula_units_Z   2
loop_
 _symmetry_equiv_pos_site_id
 _symmetry_equiv_pos_as_xyz
  1  'x, y, z'
loop_
 _atom_site_type_symbol
 _atom_site_label
 _atom_site_symmetry_multiplicity
 _atom_site_fract_x
 _atom_site_fract_y
 _atom_site_fract_z
 _atom_site_occupancy
  Zn  Zn0  1  0.48862000  0.40439000  0.49876000  1.0
  Zn  Zn1  1  0.49382000  0.59441000  0.50053000  1.0
  H  H2  1  0.36268000  0.43110000  0.93835000  1.0
  H  H3  1  0.35734000  0.57282000  0.91772000  1.0
  C  C4  1  0.48951000  0.49655000  0.66139000  1.0
  C  C5  1  0.72958000  0.48777000  0.50625000  1.0
  C  C6  1  0.50420000  0.50255000  0.33796000  1.0
  C  C7  1  0.25372000  0.51313000  0.49417000  1.0
  C  C8  1  0.96562000  0.40922000  0.50248000  1.0
  C  C9  1  0.94685000  0.54151000  0.57115000  1.0
  C  C10  1  0.04507000  0.46129000  0.56903000  1.0
  C  C11  1  0.11549000  0.51201000  0.49675000  1.0
  C  C12  1  0.03639000  0.45979000  0.43018000  1.0
  C  C13  1  0.01772000  0.59208000  0.49888000  1.0
  C  C14  1  0.93823000  0.54010000  0.43228000  1.0
  C  C15  1  0.86783000  0.48931000  0.50459000  1.0
  C  C16  1  0.46127000  0.41449000  0.94998000  1.0
  C  C17  1  0.44935000  0.58070000  0.94593000  1.0
  C  C18  1  0.43067000  0.57461000  0.04214000  1.0
  C  C19  1  0.47136000  0.40571000  0.04576000  1.0
  C  C20  1  0.50907000  0.50256000  0.24742000  1.0
  C  C21  1  0.53399000  0.49923000  0.91555000  1.0
  C  C22  1  0.51855000  0.49888000  0.08208000  1.0
  C  C23  1  0.65733000  0.51209000  0.05215000  1.0
  C  C24  1  0.66583000  0.51152000  0.95343000  1.0
  C  C25  1  0.51313000  0.50036000  0.17190000  1.0
  C  C26  1  0.52838000  0.49710000  0.82527000  1.0
  C  C27  1  0.50556000  0.49611000  0.75122000  1.0
  C  C28  1  0.55648000  0.94515000  0.59174000  1.0
  C  C29  1  0.56909000  0.05124000  0.58818000  1.0
  C  C30  1  0.37624000  0.94672000  0.48433000  1.0
  C  C31  1  0.37023000  0.05347000  0.49704000  1.0
  C  C32  1  0.51245000  0.91000000  0.50418000  1.0
  C  C33  1  0.50812000  0.09005000  0.50608000  1.0
  C  C34  1  0.58321000  0.05291000  0.42770000  1.0
  C  C35  1  0.60116000  0.94708000  0.43368000  1.0
  C  C36  1  0.49999000  0.18866000  0.50401000  1.0
  C  C37  1  0.51168000  0.81144000  0.50264000  1.0
  N  N38  1  0.48359000  0.26599000  0.49654000  1.0
  N  N39  1  0.50530000  0.73333000  0.50150000  1.0
  N  N40  1  0.52563000  0.09976000  0.67277000  1.0
  N  N41  1  0.46603000  0.90836000  0.66443000  1.0
  N  N42  1  0.74176000  0.91072000  0.45030000  1.0
  N  N43  1  0.70895000  0.10463000  0.40777000  1.0
  N  N44  1  0.44222000  0.66941000  0.08866000  1.0
  N  N45  1  0.55409000  0.32123000  0.07587000  1.0
  N  N46  1  0.76332000  0.43867000  0.92373000  1.0
  N  N47  1  0.72834000  0.59971000  0.91092000  1.0
  O  O48  1  0.48642000  0.41936000  0.62624000  1.0
  O  O49  1  0.48180000  0.57449000  0.62730000  1.0
  O  O50  1  0.67803000  0.41138000  0.50416000  1.0
  O  O51  1  0.67846000  0.56622000  0.50840000  1.0
  O  O52  1  0.50140000  0.42472000  0.37205000  1.0
  O  O53  1  0.50334000  0.57984000  0.37289000  1.0
  O  O54  1  0.30451000  0.43461000  0.49335000  1.0
  O  O55  1  0.30560000  0.58950000  0.49383000  1.0
  O  O56  1  0.45705000  0.16631000  0.66754000  1.0
  O  O57  1  0.57744000  0.06692000  0.73405000  1.0
  O  O58  1  0.38154000  0.95899000  0.68723000  1.0
  O  O59  1  0.49257000  0.83157000  0.68746000  1.0
  O  O60  1  0.81604000  0.96373000  0.47921000  1.0
  O  O61  1  0.75685000  0.83114000  0.43130000  1.0
  O  O62  1  0.73521000  0.16942000  0.45123000  1.0
  O  O63  1  0.75954000  0.07573000  0.34454000  1.0
  O  O64  1  0.35610000  0.68862000  0.13560000  1.0
  O  O65  1  0.53413000  0.71388000  0.07331000  1.0
  O  O66  1  0.52378000  0.28937000  0.14339000  1.0
  O  O67  1  0.63735000  0.29485000  0.02927000  1.0
  O  O68  1  0.72841000  0.37946000  0.87645000  1.0
  O  O69  1  0.86880000  0.45129000  0.94970000  1.0
  O  O70  1  0.74662000  0.58832000  0.83595000  1.0
  O  O71  1  0.75224000  0.66576000  0.95283000  1.0
  F  F72  1  0.10383000  0.42465000  0.63630000  1.0
  F  F73  1  0.72736000  0.44227000  0.08525000  1.0
  F  F74  1  0.70251000  0.58803000  0.08703000  1.0
  F  F75  1  0.34554000  0.92616000  0.40481000  1.0
  F  F76  1  0.31206000  0.09387000  0.43173000  1.0
  F  F77  1  0.29456000  0.90533000  0.53559000  1.0
  F  F78  1  0.30419000  0.07379000  0.56651000  1.0
  F  F79  1  0.57222000  0.90879000  0.35991000  1.0
  F  F80  1  0.51606000  0.07177000  0.35741000  1.0
  F  F81  1  0.66762000  0.90572000  0.60985000  1.0
  F  F82  1  0.69209000  0.07033000  0.58781000  1.0
  F  F83  1  0.93799000  0.31988000  0.50447000  1.0
  F  F84  1  0.89760000  0.57964000  0.64093000  1.0
  F  F85  1  0.08603000  0.42164000  0.36057000  1.0
  F  F86  1  0.04527000  0.68150000  0.49714000  1.0
  F  F87  1  0.87939000  0.57692000  0.36520000  1.0
  F  F88  1  0.35763000  0.38660000  0.07838000  1.0
  F  F89  1  0.30977000  0.55154000  0.05525000  1.0
  F  F90  1  0.49426000  0.66274000  0.91851000  1.0
  F  F91  1  0.48587000  0.33500000  0.90790000  1.0
