# generated using pymatgen
data_Zn2H13C20SN5O7
_symmetry_space_group_name_H-M   'P 1'
_cell_length_a   7.79246000
_cell_length_b   10.52870000
_cell_length_c   14.48680000
_cell_angle_alpha   69.22310000
_cell_angle_beta   80.03940000
_cell_angle_gamma   89.03280000
_symmetry_Int_Tables_number   1
_chemical_formula_structural   Zn2H13C20SN5O7
_chemical_formula_sum   'Zn4 H26 C40 S2 N10 O14'
_cell_volume   1093.24059491
_cell_formula_units_Z   2
loop_
 _symmetry_equiv_pos_site_id
 _symmetry_equiv_pos_as_xyz
  1  'x, y, z'
loop_
 _atom_site_type_symbol
 _atom_site_label
 _atom_site_symmetry_multiplicity
 _atom_site_fract_x
 _atom_site_fract_y
 _atom_site_fract_z
 _atom_site_occupancy
  Zn  Zn0  1  0.17080000  0.03819000  0.12745000  1.0
  Zn  Zn1  1  0.82920000  0.96181000  0.87255000  1.0
  Zn  Zn2  1  0.48533000  0.87591000  0.10308000  1.0
  Zn  Zn3  1  0.51467000  0.12409000  0.89692000  1.0
  H  H4  1  0.77002000  0.72812000  0.32668000  1.0
  H  H5  1  0.22998000  0.27188000  0.67332000  1.0
  H  H6  1  0.61045000  0.51390000  0.44242000  1.0
  H  H7  1  0.38955000  0.48610000  0.55758000  1.0
  H  H8  1  0.24636000  0.51699000  0.31506000  1.0
  H  H9  1  0.75364000  0.48301000  0.68493000  1.0
  H  H10  1  0.08574000  0.29861000  0.43438000  1.0
  H  H11  1  0.91425000  0.70139000  0.56561000  1.0
  H  H12  1  0.41272000  0.28467000  0.44393000  1.0
  H  H13  1  0.58728000  0.71533000  0.55607000  1.0
  H  H14  1  0.30856000  0.20596000  0.31676000  1.0
  H  H15  1  0.69143000  0.79404000  0.68323000  1.0
  H  H16  1  0.87667000  0.05892000  0.42416000  1.0
  H  H17  1  0.12333000  0.94108000  0.57584000  1.0
  H  H18  1  0.76996000  0.97959000  0.29963000  1.0
  H  H19  1  0.23004000  0.02041000  0.70037000  1.0
  H  H20  1  0.49216000  0.39383000  0.10240000  1.0
  H  H21  1  0.50784000  0.60617000  0.89760000  1.0
  H  H22  1  0.36658000  0.61474000  0.10099000  1.0
  H  H23  1  0.63342000  0.38527000  0.89900000  1.0
  H  H24  1  0.98508000  0.54935000  0.12702000  1.0
  H  H25  1  0.01492000  0.45065000  0.87299000  1.0
  H  H26  1  0.83880000  0.76370000  0.12582000  1.0
  H  H27  1  0.16121000  0.23630000  0.87418000  1.0
  H  H28  1  0.24660000  0.94583000  0.99012000  1.0
  H  H29  1  0.75340000  0.05417000  0.00988000  1.0
  C  C30  1  0.11540000  0.76091000  0.23976000  1.0
  C  C31  1  0.88460000  0.23909000  0.76024000  1.0
  C  C32  1  0.01764000  0.63415000  0.31320000  1.0
  C  C33  1  0.98236000  0.36585000  0.68680000  1.0
  C  C34  1  0.83903000  0.63432000  0.34975000  1.0
  C  C35  1  0.16097000  0.36568000  0.65025000  1.0
  C  C36  1  0.74943000  0.51397000  0.41476000  1.0
  C  C37  1  0.25057000  0.48603000  0.58524000  1.0
  C  C38  1  0.10702000  0.51371000  0.34356000  1.0
  C  C39  1  0.89298000  0.48629000  0.65644000  1.0
  C  C40  1  0.01873000  0.39315000  0.40913000  1.0
  C  C41  1  0.98127000  0.60685000  0.59087000  1.0
  C  C42  1  0.84020000  0.39461000  0.44380000  1.0
  C  C43  1  0.15979000  0.60539000  0.55620000  1.0
  C  C44  1  0.65034000  0.17720000  0.43922000  1.0
  C  C45  1  0.34965000  0.82280000  0.56078000  1.0
  C  C46  1  0.49034000  0.21964000  0.41056000  1.0
  C  C47  1  0.50965000  0.78036000  0.58944000  1.0
  C  C48  1  0.43276000  0.17586000  0.34080000  1.0
  C  C49  1  0.56724000  0.82414000  0.65920000  1.0
  C  C50  1  0.75291000  0.09142000  0.40018000  1.0
  C  C51  1  0.24709000  0.90858000  0.59982000  1.0
  C  C52  1  0.69327000  0.04714000  0.33087000  1.0
  C  C53  1  0.30673000  0.95287000  0.66913000  1.0
  C  C54  1  0.53397000  0.09000000  0.30067000  1.0
  C  C55  1  0.46603000  0.91001000  0.69933000  1.0
  C  C56  1  0.46782000  0.04347000  0.22644000  1.0
  C  C57  1  0.53218000  0.95653000  0.77356000  1.0
  C  C58  1  0.82934000  0.33636000  0.09800000  1.0
  C  C59  1  0.17066000  0.66364000  0.90200000  1.0
  C  C60  1  0.75090000  0.45664000  0.11086000  1.0
  C  C61  1  0.24911000  0.54336000  0.88914000  1.0
  C  C62  1  0.57288000  0.47379000  0.10734000  1.0
  C  C63  1  0.42712000  0.52621000  0.89266000  1.0
  C  C64  1  0.50224000  0.59522000  0.10738000  1.0
  C  C65  1  0.49776000  0.40478000  0.89263000  1.0
  C  C66  1  0.84762000  0.56002000  0.12145000  1.0
  C  C67  1  0.15238000  0.43998000  0.87855000  1.0
  C  C68  1  0.76719000  0.67911000  0.12059000  1.0
  C  C69  1  0.23281000  0.32089000  0.87941000  1.0
  S  S70  1  0.72501000  0.23965000  0.52530000  1.0
  S  S71  1  0.27501000  0.76034000  0.47470000  1.0
  N  N72  1  0.99487000  0.17726000  0.09650000  1.0
  N  N73  1  0.00514000  0.82274000  0.90350000  1.0
  N  N74  1  0.86171000  0.16481000  0.05251000  1.0
  N  N75  1  0.13829000  0.83519000  0.94749000  1.0
  N  N76  1  0.75561000  0.26377000  0.05278000  1.0
  N  N77  1  0.24439000  0.73623000  0.94722000  1.0
  N  N78  1  0.97950000  0.28451000  0.12532000  1.0
  N  N79  1  0.02050000  0.71549000  0.87468000  1.0
  N  N80  1  0.59854000  0.69793000  0.11131000  1.0
  N  N81  1  0.40146000  0.30207000  0.88869000  1.0
  O  O82  1  0.31956000  0.99739000  0.01666000  1.0
  O  O83  1  0.68044000  0.00261000  0.98334000  1.0
  O  O84  1  0.02991000  0.86965000  0.21376000  1.0
  O  O85  1  0.97009000  0.13035000  0.78624000  1.0
  O  O86  1  0.27420000  0.75124000  0.20693000  1.0
  O  O87  1  0.72579000  0.24876000  0.79307000  1.0
  O  O88  1  0.55271000  0.95539000  0.19869000  1.0
  O  O89  1  0.44729000  0.04461000  0.80130000  1.0
  O  O90  1  0.32973000  0.09780000  0.19665000  1.0
  O  O91  1  0.67026000  0.90221000  0.80335000  1.0
  O  O92  1  0.84941000  0.14694000  0.57406000  1.0
  O  O93  1  0.15058000  0.85307000  0.42593000  1.0
  O  O94  1  0.57371000  0.27431000  0.58401000  1.0
  O  O95  1  0.42628000  0.72569000  0.41599000  1.0
