# generated using pymatgen
data_Zr6H19C54S10O32F5
_symmetry_space_group_name_H-M   'P 1'
_cell_length_a   16.45800000
_cell_length_b   16.45740000
_cell_length_c   16.45637602
_cell_angle_alpha   119.71833995
_cell_angle_beta   91.13645900
_cell_angle_gamma   60.28690000
_symmetry_Int_Tables_number   1
_chemical_formula_structural   Zr6H19C54S10O32F5
_chemical_formula_sum   'Zr6 H19 C54 S10 O32 F5'
_cell_volume   3207.78226455
_cell_formula_units_Z   1
loop_
 _symmetry_equiv_pos_site_id
 _symmetry_equiv_pos_as_xyz
  1  'x, y, z'
loop_
 _atom_site_type_symbol
 _atom_site_label
 _atom_site_symmetry_multiplicity
 _atom_site_fract_x
 _atom_site_fract_y
 _atom_site_fract_z
 _atom_site_occupancy
  Zr  Zr0  1  0.09704000  0.51474000  0.40267000  1.0
  Zr  Zr1  1  0.89706000  0.49112000  0.60254000  1.0
  Zr  Zr2  1  0.10622000  0.29096000  0.39321000  1.0
  Zr  Zr3  1  0.88802000  0.71411000  0.61132000  1.0
  Zr  Zr4  1  0.10631000  0.50250000  0.61125000  1.0
  Zr  Zr5  1  0.88840000  0.50249000  0.39310000  1.0
  H  H6  1  0.24702000  0.34538000  0.42291000  1.0
  H  H7  1  0.91764000  0.66024000  0.75233000  1.0
  H  H8  1  0.91782000  0.32768000  0.41086000  1.0
  H  H9  1  0.90572000  0.67799000  0.42292000  1.0
  H  H10  1  0.38786000  0.51270000  0.63807000  1.0
  H  H11  1  0.87242000  0.49102000  0.10159000  1.0
  H  H12  1  0.87446000  0.01526000  0.88333000  1.0
  H  H13  1  0.60458000  0.01467000  0.63618000  1.0
  H  H14  1  0.36177000  0.03059000  0.13083000  1.0
  H  H15  1  0.34473000  0.30747000  0.15051000  1.0
  H  H16  1  0.62540000  0.97564000  0.86735000  1.0
  H  H17  1  0.64487000  0.69879000  0.85004000  1.0
  H  H18  1  0.12361000  0.76862000  0.38965000  1.0
  H  H19  1  0.55368000  0.75632000  0.02220000  1.0
  H  H20  1  0.42994000  0.87229000  0.07098000  1.0
  H  H21  1  0.47485000  0.75593000  0.94775000  1.0
  H  H22  1  0.51661000  0.25026000  0.05942000  1.0
  H  H23  1  0.56561000  0.13402000  0.93573000  1.0
  H  H24  1  0.44235000  0.25038000  0.98037000  1.0
  C  C25  1  0.26077000  0.52119000  0.51552000  1.0
  C  C26  1  0.01099000  0.48429000  0.76561000  1.0
  C  C27  1  0.72716000  0.49813000  0.49548000  1.0
  C  C28  1  0.99127000  0.50731000  0.23197000  1.0
  C  C29  1  0.25886000  0.25397000  0.23464000  1.0
  C  C30  1  0.99326000  0.78293000  0.51407000  1.0
  C  C31  1  0.72908000  0.75240000  0.76428000  1.0
  C  C32  1  0.00798000  0.22384000  0.49955000  1.0
  C  C33  1  0.26907000  0.23154000  0.50412000  1.0
  C  C34  1  0.00258000  0.23206000  0.22307000  1.0
  C  C35  1  0.71830000  0.77327000  0.50692000  1.0
  C  C36  1  0.99975000  0.77376000  0.77384000  1.0
  C  C37  1  0.57710000  0.51033000  0.43757000  1.0
  C  C38  1  0.40694000  0.51472000  0.57652000  1.0
  C  C39  1  0.63550000  0.50408000  0.49905000  1.0
  C  C40  1  0.35050000  0.52013000  0.51369000  1.0
  C  C41  1  0.48948000  0.51166000  0.54858000  1.0
  C  C42  1  0.49360000  0.51474000  0.46467000  1.0
  C  C43  1  0.07220000  0.48968000  0.91255000  1.0
  C  C44  1  0.93409000  0.49272000  0.08223000  1.0
  C  C45  1  0.01052000  0.48391000  0.85433000  1.0
  C  C46  1  0.99609000  0.50002000  0.13939000  1.0
  C  C47  1  0.96248000  0.48857000  0.99913000  1.0
  C  C48  1  0.04591000  0.49256000  0.99536000  1.0
  C  C49  1  0.06960000  0.02637000  0.08330000  1.0
  C  C50  1  0.93653000  0.97860000  0.90771000  1.0
  C  C51  1  0.00407000  0.14266000  0.13340000  1.0
  C  C52  1  0.00240000  0.86309000  0.86017000  1.0
  C  C53  1  0.96159000  0.03792000  0.98901000  1.0
  C  C54  1  0.04652000  0.96550000  0.00116000  1.0
  C  C55  1  0.40528000  0.02562000  0.44037000  1.0
  C  C56  1  0.58013000  0.97789000  0.57418000  1.0
  C  C57  1  0.35538000  0.14194000  0.50576000  1.0
  C  C58  1  0.62861000  0.86241000  0.50745000  1.0
  C  C59  1  0.49840000  0.03713000  0.54950000  1.0
  C  C60  1  0.48677000  0.96470000  0.46407000  1.0
  C  C61  1  0.39232000  0.05887000  0.10085000  1.0
  C  C62  1  0.38274000  0.21619000  0.11172000  1.0
  C  C63  1  0.46438000  0.14476000  0.03109000  1.0
  C  C64  1  0.51247000  0.02502000  0.98165000  1.0
  C  C65  1  0.59535000  0.94738000  0.89785000  1.0
  C  C66  1  0.60612000  0.79006000  0.88807000  1.0
  C  C67  1  0.52548000  0.86154000  0.96977000  1.0
  C  C68  1  0.47612000  0.98127000  0.01794000  1.0
  C  C69  1  0.34629000  0.17391000  0.14667000  1.0
  C  C70  1  0.64112000  0.83234000  0.85168000  1.0
  C  C71  1  0.94227000  0.15248000  0.57011000  1.0
  C  C72  1  0.06443000  0.85283000  0.44895000  1.0
  C  C73  1  0.00827000  0.13696000  0.50381000  1.0
  C  C74  1  0.99668000  0.87095000  0.51513000  1.0
  C  C75  1  0.04452000  0.95603000  0.46955000  1.0
  C  C76  1  0.96175000  0.05041000  0.55160000  1.0
  C  C77  1  0.49343000  0.81021000  0.00528000  1.0
  C  C78  1  0.49978000  0.19624000  0.99914000  1.0
  S  S79  1  0.58754000  0.50371000  0.59223000  1.0
  S  S80  1  0.39647000  0.52166000  0.42037000  1.0
  S  S81  1  0.91854000  0.48119000  0.90128000  1.0
  S  S82  1  0.08947000  0.50124000  0.09320000  1.0
  S  S83  1  0.91218000  0.17846000  0.07848000  1.0
  S  S84  1  0.09548000  0.82528000  0.91314000  1.0
  S  S85  1  0.40913000  0.17769000  0.59879000  1.0
  S  S86  1  0.57557000  0.82451000  0.41443000  1.0
  S  S87  1  0.09653000  0.99446000  0.41725000  1.0
  S  S88  1  0.90863000  0.01279000  0.60327000  1.0
  O  O89  1  0.22267000  0.52503000  0.44793000  1.0
  O  O90  1  0.94255000  0.48156000  0.72856000  1.0
  O  O91  1  0.76579000  0.49180000  0.56214000  1.0
  O  O92  1  0.05704000  0.51478000  0.27162000  1.0
  O  O93  1  0.22830000  0.21377000  0.26592000  1.0
  O  O94  1  0.92489000  0.81395000  0.58003000  1.0
  O  O95  1  0.76040000  0.79274000  0.73376000  1.0
  O  O96  1  0.07434000  0.19199000  0.43102000  1.0
  O  O97  1  0.23664000  0.33353000  0.57340000  1.0
  O  O98  1  0.93182000  0.33399000  0.25714000  1.0
  O  O99  1  0.75310000  0.67125000  0.43630000  1.0
  O  O100  1  0.06868000  0.67163000  0.74085000  1.0
  O  O101  1  0.07126000  0.20046000  0.26053000  1.0
  O  O102  1  0.75462000  0.80601000  0.57646000  1.0
  O  O103  1  0.92779000  0.80629000  0.74010000  1.0
  O  O104  1  0.23416000  0.20025000  0.43293000  1.0
  O  O105  1  0.22096000  0.35929000  0.27429000  1.0
  O  O106  1  0.93888000  0.32575000  0.56538000  1.0
  O  O107  1  0.76873000  0.64718000  0.72631000  1.0
  O  O108  1  0.05963000  0.68147000  0.44471000  1.0
  O  O109  1  0.92218000  0.50680000  0.26538000  1.0
  O  O110  1  0.22965000  0.51594000  0.58219000  1.0
  O  O111  1  0.07735000  0.48948000  0.73371000  1.0
  O  O112  1  0.76129000  0.49869000  0.42675000  1.0
  O  O113  1  0.93070000  0.62874000  0.44604000  1.0
  O  O114  1  0.94085000  0.37704000  0.43588000  1.0
  O  O115  1  0.94114000  0.61517000  0.68129000  1.0
  O  O116  1  0.17599000  0.39090000  0.44656000  1.0
  O  O117  1  0.04624000  0.41026000  0.54387000  1.0
  O  O118  1  0.03860000  0.59587000  0.55179000  1.0
  O  O119  1  0.86542000  0.58547000  0.54332000  1.0
  O  O120  1  0.03825000  0.42027000  0.37068000  1.0
  F  F121  1  0.59664000  0.51166000  0.35944000  1.0
  F  F122  1  0.14920000  0.49326000  0.89409000  1.0
  F  F123  1  0.14756000  0.97437000  0.10910000  1.0
  F  F124  1  0.38045000  0.97371000  0.36143000  1.0
  F  F125  1  0.86631000  0.25320000  0.64470000  1.0
