# generated using pymatgen
data_CdH12C18(NO3)2
_symmetry_space_group_name_H-M   'P 1'
_cell_length_a   8.84209000
_cell_length_b   10.25090000
_cell_length_c   10.49520000
_cell_angle_alpha   71.32740000
_cell_angle_beta   69.03460000
_cell_angle_gamma   78.16680000
_symmetry_Int_Tables_number   1
_chemical_formula_structural   CdH12C18(NO3)2
_chemical_formula_sum   'Cd2 H24 C36 N4 O12'
_cell_volume   837.12757307
_cell_formula_units_Z   2
loop_
 _symmetry_equiv_pos_site_id
 _symmetry_equiv_pos_as_xyz
  1  'x, y, z'
loop_
 _atom_site_type_symbol
 _atom_site_label
 _atom_site_symmetry_multiplicity
 _atom_site_fract_x
 _atom_site_fract_y
 _atom_site_fract_z
 _atom_site_occupancy
  Cd  Cd0  1  0.85327000  0.17410000  0.06129000  1.0
  Cd  Cd1  1  0.14674000  0.82592000  0.93870000  1.0
  H  H2  1  0.00562000  0.35590000  0.17018000  1.0
  H  H3  1  0.99438000  0.64410000  0.82982000  1.0
  H  H4  1  0.50252000  0.23989000  0.33351000  1.0
  H  H5  1  0.49748000  0.76010000  0.66648000  1.0
  H  H6  1  0.20830000  0.32771000  0.29405000  1.0
  H  H7  1  0.79170000  0.67228000  0.70594000  1.0
  H  H8  1  0.98947000  0.93026000  0.27926000  1.0
  H  H9  1  0.01050000  0.06976000  0.72073000  1.0
  H  H10  1  0.19372000  0.88586000  0.40420000  1.0
  H  H11  1  0.80625000  0.11413000  0.59580000  1.0
  H  H12  1  0.29608000  0.02083000  0.54289000  1.0
  H  H13  1  0.70392000  0.97915000  0.45710000  1.0
  H  H14  1  0.44904000  0.00922000  0.38022000  1.0
  H  H15  1  0.55095000  0.99077000  0.61978000  1.0
  H  H16  1  0.19802000  0.51940000  0.56805000  1.0
  H  H17  1  0.80198000  0.48059000  0.43195000  1.0
  H  H18  1  0.33622000  0.71354000  0.55826000  1.0
  H  H19  1  0.66378000  0.28644000  0.44174000  1.0
  H  H20  1  0.15232000  0.35896000  0.89547000  1.0
  H  H21  1  0.84767000  0.64105000  0.10453000  1.0
  H  H22  1  0.61092000  0.46853000  0.86779000  1.0
  H  H23  1  0.38908000  0.53148000  0.13221000  1.0
  H  H24  1  0.56976000  0.05439000  0.86369000  1.0
  H  H25  1  0.43026000  0.94561000  0.13632000  1.0
  C  C26  1  0.04789000  0.25346000  0.22610000  1.0
  C  C27  1  0.95211000  0.74655000  0.77390000  1.0
  C  C28  1  0.16226000  0.23697000  0.29412000  1.0
  C  C29  1  0.83773000  0.76303000  0.70588000  1.0
  C  C30  1  0.04014000  0.01576000  0.28534000  1.0
  C  C31  1  0.95984000  0.98425000  0.71467000  1.0
  C  C32  1  0.15447000  0.99220000  0.35489000  1.0
  C  C33  1  0.84550000  0.00780000  0.64511000  1.0
  C  C34  1  0.21899000  0.10389000  0.35933000  1.0
  C  C35  1  0.78100000  0.89610000  0.64066000  1.0
  C  C36  1  0.34741000  0.07694000  0.43083000  1.0
  C  C37  1  0.65258000  0.92305000  0.56917000  1.0
  C  C38  1  0.33271000  0.27654000  0.51579000  1.0
  C  C39  1  0.66730000  0.72345000  0.48421000  1.0
  C  C40  1  0.42169000  0.39171000  0.50432000  1.0
  C  C41  1  0.57831000  0.60827000  0.49568000  1.0
  C  C42  1  0.33035000  0.51205000  0.53830000  1.0
  C  C43  1  0.66965000  0.48794000  0.46170000  1.0
  C  C44  1  0.40814000  0.61977000  0.53324000  1.0
  C  C45  1  0.59186000  0.38022000  0.46675000  1.0
  C  C46  1  0.25512000  0.09285000  0.87497000  1.0
  C  C47  1  0.74489000  0.90715000  0.12504000  1.0
  C  C48  1  0.35326000  0.19701000  0.87360000  1.0
  C  C49  1  0.64675000  0.80299000  0.12640000  1.0
  C  C50  1  0.28093000  0.33040000  0.88530000  1.0
  C  C51  1  0.71907000  0.66960000  0.11470000  1.0
  C  C52  1  0.37472000  0.42800000  0.88279000  1.0
  C  C53  1  0.62528000  0.57201000  0.11722000  1.0
  C  C54  1  0.53728000  0.39307000  0.87241000  1.0
  C  C55  1  0.46273000  0.60694000  0.12759000  1.0
  C  C56  1  0.61196000  0.25433000  0.87099000  1.0
  C  C57  1  0.38804000  0.74568000  0.12901000  1.0
  C  C58  1  0.51447000  0.15863000  0.86818000  1.0
  C  C59  1  0.48554000  0.84137000  0.13184000  1.0
  C  C60  1  0.29398000  0.56716000  0.90189000  1.0
  C  C61  1  0.70601000  0.43285000  0.09812000  1.0
  N  N62  1  0.98790000  0.14487000  0.22135000  1.0
  N  N63  1  0.01209000  0.85515000  0.77865000  1.0
  N  N64  1  0.41253000  0.19795000  0.42427000  1.0
  N  N65  1  0.58747000  0.80204000  0.57573000  1.0
  O  O66  1  0.10143000  0.11183000  0.91444000  1.0
  O  O67  1  0.89858000  0.88816000  0.08558000  1.0
  O  O68  1  0.33473000  0.98403000  0.83921000  1.0
  O  O69  1  0.66529000  0.01597000  0.16080000  1.0
  O  O70  1  0.37423000  0.67241000  0.83684000  1.0
  O  O71  1  0.62576000  0.32759000  0.16316000  1.0
  O  O72  1  0.14994000  0.57304000  0.98710000  1.0
  O  O73  1  0.85005000  0.42696000  0.01290000  1.0
  O  O74  1  0.75936000  0.21656000  0.87002000  1.0
  O  O75  1  0.24065000  0.78346000  0.12998000  1.0
  O  O76  1  0.19733000  0.25425000  0.60619000  1.0
  O  O77  1  0.80267000  0.74575000  0.39381000  1.0
