# generated using pymatgen
data_KH7(C2O3)2
_symmetry_space_group_name_H-M   'P 1'
_cell_length_a   7.46160000
_cell_length_b   7.46158000
_cell_length_c   7.61602000
_cell_angle_alpha   67.81770000
_cell_angle_beta   67.81780000
_cell_angle_gamma   89.19180000
_symmetry_Int_Tables_number   1
_chemical_formula_structural   KH7(C2O3)2
_chemical_formula_sum   'K2 H14 C8 O12'
_cell_volume   359.47877111
_cell_formula_units_Z   2
loop_
 _symmetry_equiv_pos_site_id
 _symmetry_equiv_pos_as_xyz
  1  'x, y, z'
loop_
 _atom_site_type_symbol
 _atom_site_label
 _atom_site_symmetry_multiplicity
 _atom_site_fract_x
 _atom_site_fract_y
 _atom_site_fract_z
 _atom_site_occupancy
  K  K0  1  0.06506000  0.94529000  0.48905000  1.0
  K  K1  1  0.94529000  0.06507000  0.98905000  1.0
  H  H2  1  0.34616000  0.23577000  0.72440000  1.0
  H  H3  1  0.23577000  0.34616000  0.22440000  1.0
  H  H4  1  0.50485000  0.84529000  0.24290000  1.0
  H  H5  1  0.84529000  0.50485000  0.74289000  1.0
  H  H6  1  0.54501000  0.31499000  0.16757000  1.0
  H  H7  1  0.31500000  0.54501000  0.66757000  1.0
  H  H8  1  0.41781000  0.21829000  0.41456000  1.0
  H  H9  1  0.21829000  0.41780000  0.91456000  1.0
  H  H10  1  0.57158000  0.71329000  0.81563000  1.0
  H  H11  1  0.71329000  0.57158000  0.31563000  1.0
  H  H12  1  0.33004000  0.74037000  0.82468000  1.0
  H  H13  1  0.74037000  0.33004000  0.32468000  1.0
  H  H14  1  0.64586000  0.07679000  0.69514000  1.0
  H  H15  1  0.07679000  0.64586000  0.19514000  1.0
  C  C16  1  0.56193000  0.84813000  0.51629000  1.0
  C  C17  1  0.84813000  0.56193000  0.01629000  1.0
  C  C18  1  0.48335000  0.81083000  0.74511000  1.0
  C  C19  1  0.81083000  0.48335000  0.24511000  1.0
  C  C20  1  0.49320000  0.00312000  0.77197000  1.0
  C  C21  1  0.00312000  0.49320000  0.27197000  1.0
  C  C22  1  0.42115000  0.95164000  0.00402000  1.0
  C  C23  1  0.95164000  0.42115000  0.50402000  1.0
  O  O24  1  0.44925000  0.76956000  0.46112000  1.0
  O  O25  1  0.76957000  0.44925000  0.96112000  1.0
  O  O26  1  0.72566000  0.95007000  0.39572000  1.0
  O  O27  1  0.95007000  0.72566000  0.89572000  1.0
  O  O28  1  0.37214000  0.12037000  0.68334000  1.0
  O  O29  1  0.12037000  0.37214000  0.18335000  1.0
  O  O30  1  0.24865000  0.95276000  0.11095000  1.0
  O  O31  1  0.95276000  0.24865000  0.61096000  1.0
  O  O32  1  0.55737000  0.89883000  0.07588000  1.0
  O  O33  1  0.89882000  0.55737000  0.57588000  1.0
  O  O34  1  0.41184000  0.25671000  0.27747000  1.0
  O  O35  1  0.25671000  0.41184000  0.77747000  1.0
