# generated using pymatgen
data_ZnH18C26(NO2)2
_symmetry_space_group_name_H-M   'P 1'
_cell_length_a   7.50084000
_cell_length_b   16.80210000
_cell_length_c   18.27720650
_cell_angle_alpha   62.69098952
_cell_angle_beta   89.80030426
_cell_angle_gamma   89.43320000
_symmetry_Int_Tables_number   1
_chemical_formula_structural   ZnH18C26(NO2)2
_chemical_formula_sum   'Zn2 H36 C52 N4 O8'
_cell_volume   2046.63879624
_cell_formula_units_Z   2
loop_
 _symmetry_equiv_pos_site_id
 _symmetry_equiv_pos_as_xyz
  1  'x, y, z'
loop_
 _atom_site_type_symbol
 _atom_site_label
 _atom_site_symmetry_multiplicity
 _atom_site_fract_x
 _atom_site_fract_y
 _atom_site_fract_z
 _atom_site_occupancy
  Zn  Zn0  1  0.75044000  0.08723000  0.82584000  1.0
  Zn  Zn1  1  0.24956000  0.91277000  0.17415000  1.0
  H  H2  1  0.86798000  0.24544000  0.85751000  1.0
  H  H3  1  0.63317000  0.89774000  0.85649000  1.0
  H  H4  1  0.13202000  0.75456000  0.14247000  1.0
  H  H5  1  0.36682000  0.10225000  0.14351000  1.0
  H  H6  1  0.92575000  0.26842000  0.98285000  1.0
  H  H7  1  0.57437000  0.74949000  0.98137000  1.0
  H  H8  1  0.07426000  0.73159000  0.01713000  1.0
  H  H9  1  0.42564000  0.25050000  0.01864000  1.0
  H  H10  1  0.78417000  0.99237000  0.13317000  1.0
  H  H11  1  0.71518000  0.87429000  0.13285000  1.0
  H  H12  1  0.21584000  0.00764000  0.86682000  1.0
  H  H13  1  0.28484000  0.12571000  0.86715000  1.0
  H  H14  1  0.30448000  0.06784000  0.73995000  1.0
  H  H15  1  0.19565000  0.19211000  0.73971000  1.0
  H  H16  1  0.69551000  0.93216000  0.26005000  1.0
  H  H17  1  0.80435000  0.80787000  0.26030000  1.0
  H  H18  1  0.54088000  0.04770000  0.65731000  1.0
  H  H19  1  0.95920000  0.29489000  0.65684000  1.0
  H  H20  1  0.45911000  0.95230000  0.34269000  1.0
  H  H21  1  0.04079000  0.70510000  0.34317000  1.0
  H  H22  1  0.64078000  0.01533000  0.55334000  1.0
  H  H23  1  0.85929000  0.43137000  0.55305000  1.0
  H  H24  1  0.35921000  0.98467000  0.44666000  1.0
  H  H25  1  0.14070000  0.56863000  0.44696000  1.0
  H  H26  1  0.15060000  0.96440000  0.53334000  1.0
  H  H27  1  0.34959000  0.50174000  0.53339000  1.0
  H  H28  1  0.84939000  0.03559000  0.46666000  1.0
  H  H29  1  0.65040000  0.49827000  0.46662000  1.0
  H  H30  1  0.91530000  0.97604000  0.62362000  1.0
  H  H31  1  0.58496000  0.39969000  0.62377000  1.0
  H  H32  1  0.08469000  0.02396000  0.37638000  1.0
  H  H33  1  0.41504000  0.60031000  0.37624000  1.0
  H  H34  1  0.87891000  0.13734000  0.12347000  1.0
  H  H35  1  0.62022000  0.73948000  0.12233000  1.0
  H  H36  1  0.12110000  0.86267000  0.87652000  1.0
  H  H37  1  0.37981000  0.26052000  0.87767000  1.0
  C  C38  1  0.94497000  0.03575000  0.73615000  1.0
  C  C39  1  0.55505000  0.22776000  0.73633000  1.0
  C  C40  1  0.05503000  0.96424000  0.26386000  1.0
  C  C41  1  0.44495000  0.77224000  0.26367000  1.0
  C  C42  1  0.09188000  0.02379000  0.68700000  1.0
  C  C43  1  0.40823000  0.28889000  0.68699000  1.0
  C  C44  1  0.90811000  0.97621000  0.31300000  1.0
  C  C45  1  0.59177000  0.71111000  0.31301000  1.0
  C  C46  1  0.85338000  0.19163000  0.92016000  1.0
  C  C47  1  0.64738000  0.88874000  0.91927000  1.0
  C  C48  1  0.14662000  0.80838000  0.07983000  1.0
  C  C49  1  0.35262000  0.11126000  0.08073000  1.0
  C  C50  1  0.88288000  0.20355000  0.98984000  1.0
  C  C51  1  0.61726000  0.80715000  0.98870000  1.0
  C  C52  1  0.11713000  0.79645000  0.01015000  1.0
  C  C53  1  0.38275000  0.19285000  0.01130000  1.0
  C  C54  1  0.80246000  0.04944000  0.07304000  1.0
  C  C55  1  0.69740000  0.87752000  0.07258000  1.0
  C  C56  1  0.19754000  0.95057000  0.92695000  1.0
  C  C57  1  0.30261000  0.12248000  0.92742000  1.0
  C  C58  1  0.26918000  0.04344000  0.69610000  1.0
  C  C59  1  0.23087000  0.26026000  0.69590000  1.0
  C  C60  1  0.73081000  0.95655000  0.30390000  1.0
  C  C61  1  0.76913000  0.73974000  0.30410000  1.0
  C  C62  1  0.40321000  0.03413000  0.64781000  1.0
  C  C63  1  0.09689000  0.31789000  0.64749000  1.0
  C  C64  1  0.59678000  0.96587000  0.35219000  1.0
  C  C65  1  0.90310000  0.68211000  0.35252000  1.0
  C  C66  1  0.36376000  0.00811000  0.58656000  1.0
  C  C67  1  0.13633000  0.40508000  0.58639000  1.0
  C  C68  1  0.63623000  0.99189000  0.41344000  1.0
  C  C69  1  0.86366000  0.59492000  0.41362000  1.0
  C  C70  1  0.50812000  0.00561000  0.53421000  1.0
  C  C71  1  0.99190000  0.46012000  0.53409000  1.0
  C  C72  1  0.49186000  0.99438000  0.46579000  1.0
  C  C73  1  0.00809000  0.53989000  0.46592000  1.0
  C  C74  1  0.18526000  0.98682000  0.57876000  1.0
  C  C75  1  0.31492000  0.43398000  0.57872000  1.0
  C  C76  1  0.81473000  0.01317000  0.42125000  1.0
  C  C77  1  0.68508000  0.56602000  0.42129000  1.0
  C  C78  1  0.05264000  0.99351000  0.62876000  1.0
  C  C79  1  0.44755000  0.37726000  0.62878000  1.0
  C  C80  1  0.94735000  0.00649000  0.37124000  1.0
  C  C81  1  0.55244000  0.62275000  0.37122000  1.0
  C  C82  1  0.77770000  0.04186000  0.00075000  1.0
  C  C83  1  0.72285000  0.95739000  0.00050000  1.0
  C  C84  1  0.22231000  0.95814000  0.99925000  1.0
  C  C85  1  0.27716000  0.04261000  0.99950000  1.0
  C  C86  1  0.85700000  0.13118000  0.06732000  1.0
  C  C87  1  0.64266000  0.80179000  0.06638000  1.0
  C  C88  1  0.14302000  0.86884000  0.93266000  1.0
  C  C89  1  0.35736000  0.19821000  0.93362000  1.0
  N  N90  1  0.80313000  0.11265000  0.92595000  1.0
  N  N91  1  0.69786000  0.96165000  0.92550000  1.0
  N  N92  1  0.19687000  0.88734000  0.07405000  1.0
  N  N93  1  0.30214000  0.03835000  0.07450000  1.0
  O  O94  1  0.98187000  0.08055000  0.77671000  1.0
  O  O95  1  0.51802000  0.14253000  0.77707000  1.0
  O  O96  1  0.01813000  0.91945000  0.22329000  1.0
  O  O97  1  0.48199000  0.85747000  0.22293000  1.0
  O  O98  1  0.79218000  0.00450000  0.73814000  1.0
  O  O99  1  0.70801000  0.25684000  0.73835000  1.0
  O  O100  1  0.20780000  0.99550000  0.26186000  1.0
  O  O101  1  0.29199000  0.74317000  0.26164000  1.0
