# generated using pymatgen
data_CdH4C3O5
_symmetry_space_group_name_H-M   'P 1'
_cell_length_a   10.61030000
_cell_length_b   10.61020000
_cell_length_c   10.61030000
_cell_angle_alpha   108.95400000
_cell_angle_beta   108.95300000
_cell_angle_gamma   108.95400000
_symmetry_Int_Tables_number   1
_chemical_formula_structural   CdH4C3O5
_chemical_formula_sum   'Cd6 H24 C18 O30'
_cell_volume   936.71641933
_cell_formula_units_Z   6
loop_
 _symmetry_equiv_pos_site_id
 _symmetry_equiv_pos_as_xyz
  1  'x, y, z'
loop_
 _atom_site_type_symbol
 _atom_site_label
 _atom_site_symmetry_multiplicity
 _atom_site_fract_x
 _atom_site_fract_y
 _atom_site_fract_z
 _atom_site_occupancy
  Cd  Cd0  1  0.73108000  0.25049000  0.95684000  1.0
  Cd  Cd1  1  0.25049000  0.95684000  0.73107000  1.0
  Cd  Cd2  1  0.95684000  0.73109000  0.25049000  1.0
  Cd  Cd3  1  0.26892000  0.74951000  0.04316000  1.0
  Cd  Cd4  1  0.74951000  0.04316000  0.26893000  1.0
  Cd  Cd5  1  0.04315000  0.26892000  0.74951000  1.0
  H  H6  1  0.66008000  0.79865000  0.57325000  1.0
  H  H7  1  0.79867000  0.57325000  0.66007000  1.0
  H  H8  1  0.57324000  0.66006000  0.79866000  1.0
  H  H9  1  0.33993000  0.20135000  0.42677000  1.0
  H  H10  1  0.20133000  0.42676000  0.33992000  1.0
  H  H11  1  0.42675000  0.33992000  0.20134000  1.0
  H  H12  1  0.86399000  0.90720000  0.66793000  1.0
  H  H13  1  0.90720000  0.66793000  0.86398000  1.0
  H  H14  1  0.66792000  0.86397000  0.90720000  1.0
  H  H15  1  0.13602000  0.09281000  0.33208000  1.0
  H  H16  1  0.09279000  0.33207000  0.13601000  1.0
  H  H17  1  0.33206000  0.13600000  0.09278000  1.0
  H  H18  1  0.54323000  0.27896000  0.73249000  1.0
  H  H19  1  0.27897000  0.73250000  0.54322000  1.0
  H  H20  1  0.73250000  0.54323000  0.27897000  1.0
  H  H21  1  0.45676000  0.72103000  0.26750000  1.0
  H  H22  1  0.72104000  0.26751000  0.45678000  1.0
  H  H23  1  0.26750000  0.45677000  0.72103000  1.0
  H  H24  1  0.67363000  0.45128000  0.86311000  1.0
  H  H25  1  0.45129000  0.86312000  0.67362000  1.0
  H  H26  1  0.86314000  0.67361000  0.45129000  1.0
  H  H27  1  0.32637000  0.54871000  0.13687000  1.0
  H  H28  1  0.54873000  0.13689000  0.32639000  1.0
  H  H29  1  0.13687000  0.32638000  0.54871000  1.0
  C  C30  1  0.75421000  0.03130000  0.74002000  1.0
  C  C31  1  0.03131000  0.74002000  0.75422000  1.0
  C  C32  1  0.74000000  0.75420000  0.03129000  1.0
  C  C33  1  0.24581000  0.96872000  0.26001000  1.0
  C  C34  1  0.96869000  0.25999000  0.24579000  1.0
  C  C35  1  0.25998000  0.24579000  0.96871000  1.0
  C  C36  1  0.75677000  0.90927000  0.61794000  1.0
  C  C37  1  0.90928000  0.61794000  0.75676000  1.0
  C  C38  1  0.61795000  0.75675000  0.90928000  1.0
  C  C39  1  0.24324000  0.09074000  0.38206000  1.0
  C  C40  1  0.09071000  0.38206000  0.24323000  1.0
  C  C41  1  0.38204000  0.24323000  0.09071000  1.0
  C  C42  1  0.75052000  0.94581000  0.48935000  1.0
  C  C43  1  0.94581000  0.48936000  0.75052000  1.0
  C  C44  1  0.48936000  0.75051000  0.94582000  1.0
  C  C45  1  0.24948000  0.05419000  0.51064000  1.0
  C  C46  1  0.05417000  0.51065000  0.24948000  1.0
  C  C47  1  0.51065000  0.24950000  0.05417000  1.0
  O  O48  1  0.86840000  0.16497000  0.82215000  1.0
  O  O49  1  0.16498000  0.82215000  0.86840000  1.0
  O  O50  1  0.82214000  0.86838000  0.16497000  1.0
  O  O51  1  0.13162000  0.83505000  0.17785000  1.0
  O  O52  1  0.83502000  0.17785000  0.13161000  1.0
  O  O53  1  0.17785000  0.13160000  0.83502000  1.0
  O  O54  1  0.63804000  0.99891000  0.75942000  1.0
  O  O55  1  0.99894000  0.75940000  0.63805000  1.0
  O  O56  1  0.75941000  0.63804000  0.99891000  1.0
  O  O57  1  0.36195000  0.00108000  0.24059000  1.0
  O  O58  1  0.00108000  0.24058000  0.36195000  1.0
  O  O59  1  0.24059000  0.36195000  0.00108000  1.0
  O  O60  1  0.48585000  0.13192000  0.94290000  1.0
  O  O61  1  0.13192000  0.94292000  0.48586000  1.0
  O  O62  1  0.94290000  0.48585000  0.13192000  1.0
  O  O63  1  0.51415000  0.86808000  0.05710000  1.0
  O  O64  1  0.86808000  0.05710000  0.51416000  1.0
  O  O65  1  0.05708000  0.51415000  0.86808000  1.0
  O  O66  1  0.63731000  0.36901000  0.12967000  1.0
  O  O67  1  0.36900000  0.12967000  0.63732000  1.0
  O  O68  1  0.12968000  0.63733000  0.36901000  1.0
  O  O69  1  0.36268000  0.63100000  0.87033000  1.0
  O  O70  1  0.63098000  0.87032000  0.36269000  1.0
  O  O71  1  0.87033000  0.36268000  0.63099000  1.0
  O  O72  1  0.65466000  0.34742000  0.80129000  1.0
  O  O73  1  0.34743000  0.80130000  0.65465000  1.0
  O  O74  1  0.80131000  0.65466000  0.34743000  1.0
  O  O75  1  0.34534000  0.65258000  0.19870000  1.0
  O  O76  1  0.65259000  0.19871000  0.34535000  1.0
  O  O77  1  0.19869000  0.34535000  0.65257000  1.0
