# generated using pymatgen
data_ZnH8C12N2O5
_symmetry_space_group_name_H-M   'P 1'
_cell_length_a   9.63868000
_cell_length_b   12.83150000
_cell_length_c   13.76930000
_cell_angle_alpha   89.99990000
_cell_angle_beta   89.99990000
_cell_angle_gamma   104.69500000
_symmetry_Int_Tables_number   1
_chemical_formula_structural   ZnH8C12N2O5
_chemical_formula_sum   'Zn4 H32 C48 N8 O20'
_cell_volume   1647.26512136
_cell_formula_units_Z   4
loop_
 _symmetry_equiv_pos_site_id
 _symmetry_equiv_pos_as_xyz
  1  'x, y, z'
loop_
 _atom_site_type_symbol
 _atom_site_label
 _atom_site_symmetry_multiplicity
 _atom_site_fract_x
 _atom_site_fract_y
 _atom_site_fract_z
 _atom_site_occupancy
  Zn  Zn0  1  0.92382000  0.41066000  0.13947000  1.0
  Zn  Zn1  1  0.57618000  0.08934000  0.63947000  1.0
  Zn  Zn2  1  0.07617000  0.58934000  0.86053000  1.0
  Zn  Zn3  1  0.42383000  0.91066000  0.36053000  1.0
  H  H4  1  0.65237000  0.49750000  0.12176000  1.0
  H  H5  1  0.84763000  0.00250000  0.62176000  1.0
  H  H6  1  0.34763000  0.50249000  0.87824000  1.0
  H  H7  1  0.15237000  0.99751000  0.37824000  1.0
  H  H8  1  0.38377000  0.41157000  0.14139000  1.0
  H  H9  1  0.11623000  0.08843000  0.64140000  1.0
  H  H10  1  0.61623000  0.58843000  0.85861000  1.0
  H  H11  1  0.88377000  0.91157000  0.35861000  1.0
  H  H12  1  0.31378000  0.23826000  0.23577000  1.0
  H  H13  1  0.18622000  0.26174000  0.73577000  1.0
  H  H14  1  0.68622000  0.76174000  0.76423000  1.0
  H  H15  1  0.81378000  0.73826000  0.26423000  1.0
  H  H16  1  0.93767000  0.12869000  0.47242000  1.0
  H  H17  1  0.56233000  0.37131000  0.97242000  1.0
  H  H18  1  0.06233000  0.87132000  0.52758000  1.0
  H  H19  1  0.43767000  0.62868000  0.02758000  1.0
  H  H20  1  0.15189000  0.17938000  0.36037000  1.0
  H  H21  1  0.34811000  0.32062000  0.86037000  1.0
  H  H22  1  0.84811000  0.82062000  0.63963000  1.0
  H  H23  1  0.65189000  0.67938000  0.13963000  1.0
  H  H24  1  0.12866000  0.29047000  0.21158000  1.0
  H  H25  1  0.37134000  0.20953000  0.71158000  1.0
  H  H26  1  0.87133000  0.70953000  0.78842000  1.0
  H  H27  1  0.62867000  0.79047000  0.28842000  1.0
  H  H28  1  0.10662000  0.35762000  0.01642000  1.0
  H  H29  1  0.39338000  0.14238000  0.51642000  1.0
  H  H30  1  0.89338000  0.64238000  0.98358000  1.0
  H  H31  1  0.60662000  0.85762000  0.48358000  1.0
  H  H32  1  0.15937000  0.47688000  0.04813000  1.0
  H  H33  1  0.34063000  0.02312000  0.54813000  1.0
  H  H34  1  0.84063000  0.52312000  0.95187000  1.0
  H  H35  1  0.65937000  0.97688000  0.45187000  1.0
  C  C36  1  0.61046000  0.42417000  0.16345000  1.0
  C  C37  1  0.88954000  0.07583000  0.66345000  1.0
  C  C38  1  0.38954000  0.57583000  0.83655000  1.0
  C  C39  1  0.11046000  0.92417000  0.33655000  1.0
  C  C40  1  0.46463000  0.37652000  0.17409000  1.0
  C  C41  1  0.03537000  0.12348000  0.67409000  1.0
  C  C42  1  0.53537000  0.62347000  0.82591000  1.0
  C  C43  1  0.96463000  0.87652000  0.32591000  1.0
  C  C44  1  0.42566000  0.28128000  0.22675000  1.0
  C  C45  1  0.07434000  0.21872000  0.72676000  1.0
  C  C46  1  0.57434000  0.71872000  0.77325000  1.0
  C  C47  1  0.92566000  0.78128000  0.27325000  1.0
  C  C48  1  0.52874000  0.23620000  0.26938000  1.0
  C  C49  1  0.97126000  0.26380000  0.76938000  1.0
  C  C50  1  0.47126000  0.76380000  0.73062000  1.0
  C  C51  1  0.02874000  0.73619000  0.23062000  1.0
  C  C52  1  0.67400000  0.29121000  0.25743000  1.0
  C  C53  1  0.82600000  0.20879000  0.75743000  1.0
  C  C54  1  0.32600000  0.70879000  0.74257000  1.0
  C  C55  1  0.17400000  0.79121000  0.24257000  1.0
  C  C56  1  0.80079000  0.25771000  0.29577000  1.0
  C  C57  1  0.69921000  0.24229000  0.79577000  1.0
  C  C58  1  0.19921000  0.74229000  0.70423000  1.0
  C  C59  1  0.30080000  0.75771000  0.20423000  1.0
  C  C60  1  0.80680000  0.20229000  0.38325000  1.0
  C  C61  1  0.69320000  0.29771000  0.88325000  1.0
  C  C62  1  0.19320000  0.79771000  0.61675000  1.0
  C  C63  1  0.30680000  0.70229000  0.11675000  1.0
  C  C64  1  0.93314000  0.17207000  0.40497000  1.0
  C  C65  1  0.56686000  0.32793000  0.90497000  1.0
  C  C66  1  0.06687000  0.82793000  0.59503000  1.0
  C  C67  1  0.43314000  0.67207000  0.09503000  1.0
  C  C68  1  0.05162000  0.20044000  0.34390000  1.0
  C  C69  1  0.44839000  0.29956000  0.84390000  1.0
  C  C70  1  0.94839000  0.79956000  0.65610000  1.0
  C  C71  1  0.55161000  0.70044000  0.15610000  1.0
  C  C72  1  0.04016000  0.26075000  0.26176000  1.0
  C  C73  1  0.45984000  0.23926000  0.76176000  1.0
  C  C74  1  0.95984000  0.73926000  0.73824000  1.0
  C  C75  1  0.54016000  0.76074000  0.23824000  1.0
  C  C76  1  0.46868000  0.13066000  0.32087000  1.0
  C  C77  1  0.03132000  0.36934000  0.82087000  1.0
  C  C78  1  0.53133000  0.86933000  0.67913000  1.0
  C  C79  1  0.96868000  0.63066000  0.17913000  1.0
  C  C80  1  0.69423000  0.18673000  0.46173000  1.0
  C  C81  1  0.80577000  0.31327000  0.96173000  1.0
  C  C82  1  0.30577000  0.81327000  0.53827000  1.0
  C  C83  1  0.19423000  0.68673000  0.03827000  1.0
  N  N84  1  0.71054000  0.38205000  0.20347000  1.0
  N  N85  1  0.78945000  0.11795000  0.70347000  1.0
  N  N86  1  0.28945000  0.61795000  0.79653000  1.0
  N  N87  1  0.21055000  0.88205000  0.29653000  1.0
  N  N88  1  0.91879000  0.28784000  0.23881000  1.0
  N  N89  1  0.58121000  0.21216000  0.73881000  1.0
  N  N90  1  0.08121000  0.71216000  0.76119000  1.0
  N  N91  1  0.41879000  0.78784000  0.26119000  1.0
  O  O92  1  0.36068000  0.12413000  0.37380000  1.0
  O  O93  1  0.13932000  0.37587000  0.87380000  1.0
  O  O94  1  0.63932000  0.87587000  0.62620000  1.0
  O  O95  1  0.86068000  0.62413000  0.12620000  1.0
  O  O96  1  0.52840000  0.05374000  0.30325000  1.0
  O  O97  1  0.97160000  0.44626000  0.80325000  1.0
  O  O98  1  0.47161000  0.94626000  0.69675000  1.0
  O  O99  1  0.02840000  0.55374000  0.19675000  1.0
  O  O100  1  0.63501000  0.25949000  0.48056000  1.0
  O  O101  1  0.86499000  0.24050000  0.98056000  1.0
  O  O102  1  0.36499000  0.74050000  0.51944000  1.0
  O  O103  1  0.13501000  0.75950000  0.01944000  1.0
  O  O104  1  0.67517000  0.09593000  0.50924000  1.0
  O  O105  1  0.82483000  0.40407000  0.00924000  1.0
  O  O106  1  0.32483000  0.90407000  0.49076000  1.0
  O  O107  1  0.17517000  0.59593000  0.99077000  1.0
  O  O108  1  0.12712000  0.40223000  0.07551000  1.0
  O  O109  1  0.37288000  0.09777000  0.57551000  1.0
  O  O110  1  0.87288000  0.59777000  0.92449000  1.0
  O  O111  1  0.62712000  0.90223000  0.42449000  1.0
