# generated using pymatgen
data_H4PbC2SO3F
_symmetry_space_group_name_H-M   'P 1'
_cell_length_a   4.60981000
_cell_length_b   8.79497000
_cell_length_c   13.63902423
_cell_angle_alpha   97.41682542
_cell_angle_beta   99.71699286
_cell_angle_gamma   90.01000000
_symmetry_Int_Tables_number   1
_chemical_formula_structural   H4PbC2SO3F
_chemical_formula_sum   'H16 Pb4 C8 S4 O12 F4'
_cell_volume   540.33907661
_cell_formula_units_Z   4
loop_
 _symmetry_equiv_pos_site_id
 _symmetry_equiv_pos_as_xyz
  1  'x, y, z'
loop_
 _atom_site_type_symbol
 _atom_site_label
 _atom_site_symmetry_multiplicity
 _atom_site_fract_x
 _atom_site_fract_y
 _atom_site_fract_z
 _atom_site_occupancy
  H  H0  1  0.69380000  0.35902000  0.86109000  1.0
  H  H1  1  0.83311000  0.14077000  0.13883000  1.0
  H  H2  1  0.30619000  0.64098000  0.13890000  1.0
  H  H3  1  0.16688000  0.85923000  0.86117000  1.0
  H  H4  1  0.68970000  0.56067000  0.85434000  1.0
  H  H5  1  0.83520000  0.93909000  0.14565000  1.0
  H  H6  1  0.31031000  0.43933000  0.14566000  1.0
  H  H7  1  0.16480000  0.06092000  0.85436000  1.0
  H  H8  1  0.25089000  0.38505000  0.94982000  1.0
  H  H9  1  0.30117000  0.11486000  0.05031000  1.0
  H  H10  1  0.74910000  0.61495000  0.05017000  1.0
  H  H11  1  0.69883000  0.88514000  0.94969000  1.0
  H  H12  1  0.24705000  0.58385000  0.94222000  1.0
  H  H13  1  0.30495000  0.91604000  0.05782000  1.0
  H  H14  1  0.75295000  0.41614000  0.05778000  1.0
  H  H15  1  0.69506000  0.08396000  0.94218000  1.0
  Pb  Pb16  1  0.80951000  0.14322000  0.59324000  1.0
  Pb  Pb17  1  0.21656000  0.35688000  0.40664000  1.0
  Pb  Pb18  1  0.19049000  0.85678000  0.40676000  1.0
  Pb  Pb19  1  0.78344000  0.64312000  0.59336000  1.0
  C  C20  1  0.55481000  0.46055000  0.86076000  1.0
  C  C21  1  0.69422000  0.03930000  0.13919000  1.0
  C  C22  1  0.44518000  0.53945000  0.13923000  1.0
  C  C23  1  0.30578000  0.96070000  0.86081000  1.0
  C  C24  1  0.39340000  0.48570000  0.95027000  1.0
  C  C25  1  0.44317000  0.01424000  0.04976000  1.0
  C  C26  1  0.60659000  0.51430000  0.04972000  1.0
  C  C27  1  0.55682000  0.98576000  0.95024000  1.0
  S  S28  1  0.30225000  0.42891000  0.74553000  1.0
  S  S29  1  0.55667000  0.07108000  0.25443000  1.0
  S  S30  1  0.69774000  0.57109000  0.25446000  1.0
  S  S31  1  0.44333000  0.92891000  0.74557000  1.0
  O  O32  1  0.12588000  0.29113000  0.75094000  1.0
  O  O33  1  0.37455000  0.20866000  0.24878000  1.0
  O  O34  1  0.87410000  0.70886000  0.24905000  1.0
  O  O35  1  0.62544000  0.79135000  0.75122000  1.0
  O  O36  1  0.12163000  0.56776000  0.74323000  1.0
  O  O37  1  0.37873000  0.93215000  0.25689000  1.0
  O  O38  1  0.87837000  0.43224000  0.25676000  1.0
  O  O39  1  0.62127000  0.06786000  0.74311000  1.0
  O  O40  1  0.47440000  0.40763000  0.66270000  1.0
  O  O41  1  0.81125000  0.09276000  0.33735000  1.0
  O  O42  1  0.52559000  0.59237000  0.33729000  1.0
  O  O43  1  0.18874000  0.90724000  0.66265000  1.0
  F  F44  1  0.71628000  0.87533000  0.49628000  1.0
  F  F45  1  0.21940000  0.62449000  0.50366000  1.0
  F  F46  1  0.28372000  0.12467000  0.50372000  1.0
  F  F47  1  0.78061000  0.37551000  0.49634000  1.0
