# generated using pymatgen
data_Zn4H52C79(N8F)2
_symmetry_space_group_name_H-M   'P 1'
_cell_length_a   19.63950000
_cell_length_b   20.83620000
_cell_length_c   21.38060000
_cell_angle_alpha   106.95200000
_cell_angle_beta   105.36200000
_cell_angle_gamma   113.72400000
_symmetry_Int_Tables_number   1
_chemical_formula_structural   Zn4H52C79(N8F)2
_chemical_formula_sum   'Zn4 H52 C79 N16 F2'
_cell_volume   6893.47647188
_cell_formula_units_Z   1
loop_
 _symmetry_equiv_pos_site_id
 _symmetry_equiv_pos_as_xyz
  1  'x, y, z'
loop_
 _atom_site_type_symbol
 _atom_site_label
 _atom_site_symmetry_multiplicity
 _atom_site_fract_x
 _atom_site_fract_y
 _atom_site_fract_z
 _atom_site_occupancy
  Zn  Zn0  1  0.40497000  0.38535000  0.49770000  1.0
  Zn  Zn1  1  0.62165000  0.62477000  0.50339000  1.0
  Zn  Zn2  1  0.41154000  0.49955000  0.41190000  1.0
  Zn  Zn3  1  0.61228000  0.52233000  0.60599000  1.0
  H  H4  1  0.26705000  0.21820000  0.35334000  1.0
  H  H5  1  0.71607000  0.55831000  0.42568000  1.0
  H  H6  1  0.64118000  0.02590000  0.55301000  1.0
  H  H7  1  0.68132000  0.09633000  0.46204000  1.0
  H  H8  1  0.88478000  0.27452000  0.30258000  1.0
  H  H9  1  0.99197000  0.41016000  0.51694000  1.0
  H  H10  1  0.94450000  0.51636000  0.49242000  1.0
  H  H11  1  0.99893000  0.50792000  0.38097000  1.0
  H  H12  1  0.83750000  0.38015000  0.27796000  1.0
  H  H13  1  0.59337000  0.42031000  0.80215000  1.0
  H  H14  1  0.43114000  0.38279000  0.29431000  1.0
  H  H15  1  0.62702000  0.77976000  0.54787000  1.0
  H  H16  1  0.40705000  0.34584000  0.16196000  1.0
  H  H17  1  0.66796000  0.51367000  0.25451000  1.0
  H  H18  1  0.59058000  0.40197000  0.00543000  1.0
  H  H19  1  0.34754000  0.35996000  0.85135000  1.0
  H  H20  1  0.40305000  0.30072000  0.04027000  1.0
  H  H21  1  0.35777000  0.40301000  0.75618000  1.0
  H  H22  1  0.40416000  0.33885000  0.94976000  1.0
  H  H23  1  0.58432000  0.37922000  0.89786000  1.0
  H  H24  1  0.66339000  0.46982000  0.13219000  1.0
  H  H25  1  0.08663000  0.28753000  0.22051000  1.0
  H  H26  1  0.30082000  0.55507000  0.45754000  1.0
  H  H27  1  0.69034000  0.76190000  0.84634000  1.0
  H  H28  1  0.79244000  0.92334000  0.76184000  1.0
  H  H29  1  0.88763000  0.08634000  0.00730000  1.0
  H  H30  1  0.98919000  0.00988000  0.16813000  1.0
  H  H31  1  0.74949000  0.87230000  0.96529000  1.0
  H  H32  1  0.12953000  0.11374000  0.26276000  1.0
  H  H33  1  0.86783000  0.96486000  0.06600000  1.0
  H  H34  1  0.94812000  0.18360000  0.12405000  1.0
  H  H35  1  0.85117000  0.03408000  0.88153000  1.0
  H  H36  1  0.63946000  0.59998000  0.33686000  1.0
  H  H37  1  0.65590000  0.65934000  0.74514000  1.0
  H  H38  1  0.40902000  0.23460000  0.40241000  1.0
  H  H39  1  0.64944000  0.39371000  0.51526000  1.0
  H  H40  1  0.22460000  0.37468000  0.27530000  1.0
  H  H41  1  0.36112000  0.38598000  0.62757000  1.0
  H  H42  1  0.32099000  0.64747000  0.37185000  1.0
  H  H43  1  0.36872000  0.64890000  0.31241000  1.0
  H  H44  1  0.32380000  0.56320000  0.32507000  1.0
  H  H45  1  0.84995000  0.23182000  0.42482000  1.0
  H  H46  1  0.80277000  0.28035000  0.46167000  1.0
  H  H47  1  0.75811000  0.22084000  0.36644000  1.0
  H  H48  1  0.21014000  0.33712000  0.47504000  1.0
  H  H49  1  0.63295000  0.30212000  0.64426000  1.0
  H  H50  1  0.69190000  0.33775000  0.59936000  1.0
  H  H51  1  0.67743000  0.40269000  0.66270000  1.0
  H  H52  1  0.62496000  0.52645000  0.76413000  1.0
  H  H53  1  0.44241000  0.97443000  0.32182000  1.0
  H  H54  1  0.57462000  0.94614000  0.33938000  1.0
  H  H55  1  0.40127000  0.90333000  0.41238000  1.0
  C  C56  1  0.27041000  0.26651000  0.34162000  1.0
  C  C57  1  0.24615000  0.39213000  0.47431000  1.0
  C  C58  1  0.56245000  0.49549000  0.72150000  1.0
  C  C59  1  0.69569000  0.52614000  0.45524000  1.0
  C  C60  1  0.43967000  0.65879000  0.41359000  1.0
  C  C61  1  0.48758000  0.44499000  0.71952000  1.0
  C  C62  1  0.50862000  0.73676000  0.45378000  1.0
  C  C63  1  0.21997000  0.44131000  0.45709000  1.0
  C  C64  1  0.71174000  0.76641000  0.72721000  1.0
  C  C65  1  0.55993000  0.97067000  0.38296000  1.0
  C  C66  1  0.48621000  0.98500000  0.37305000  1.0
  C  C67  1  0.69660000  0.45842000  0.45411000  1.0
  C  C68  1  0.53165000  0.19283000  0.46557000  1.0
  C  C69  1  0.51872000  0.80302000  0.44339000  1.0
  C  C70  1  0.61913000  0.05309000  0.45099000  1.0
  C  C71  1  0.48247000  0.44210000  0.31545000  1.0
  C  C72  1  0.54521000  0.06887000  0.44118000  1.0
  C  C73  1  0.59739000  0.01533000  0.50181000  1.0
  C  C74  1  0.53714000  0.93143000  0.43369000  1.0
  C  C75  1  0.52323000  0.02802000  0.49090000  1.0
  C  C76  1  0.46308000  0.94684000  0.42314000  1.0
  C  C77  1  0.54342000  0.13812000  0.44995000  1.0
  C  C78  1  0.53701000  0.47320000  0.28659000  1.0
  C  C79  1  0.52964000  0.86132000  0.43492000  1.0
  C  C80  1  0.89791000  0.32858000  0.34481000  1.0
  C  C81  1  0.86851000  0.33249000  0.40667000  1.0
  C  C82  1  0.73374000  0.42275000  0.42114000  1.0
  C  C83  1  0.57139000  0.32350000  0.56034000  1.0
  C  C84  1  0.13899000  0.42713000  0.43465000  1.0
  C  C85  1  0.87237000  0.38723000  0.33129000  1.0
  C  C86  1  0.84255000  0.39261000  0.39360000  1.0
  C  C87  1  0.96083000  0.45814000  0.38841000  1.0
  C  C88  1  0.98802000  0.39983000  0.40257000  1.0
  C  C89  1  0.52138000  0.25704000  0.49042000  1.0
  C  C90  1  0.93303000  0.46304000  0.45065000  1.0
  C  C91  1  0.95692000  0.40386000  0.46405000  1.0
  C  C92  1  0.77537000  0.39987000  0.39950000  1.0
  C  C93  1  0.06704000  0.41024000  0.41421000  1.0
  C  C94  1  0.47771000  0.41746000  0.77377000  1.0
  C  C95  1  0.58905000  0.55303000  0.33780000  1.0
  C  C96  1  0.54029000  0.40902000  0.81428000  1.0
  C  C97  1  0.53484000  0.38539000  0.86789000  1.0
  C  C98  1  0.46638000  0.36934000  0.88403000  1.0
  C  C99  1  0.40168000  0.37322000  0.84048000  1.0
  C  C100  1  0.42790000  0.42428000  0.65188000  1.0
  C  C101  1  0.40731000  0.39731000  0.78686000  1.0
  C  C102  1  0.46122000  0.34815000  0.08702000  1.0
  C  C103  1  0.46369000  0.37314000  0.15578000  1.0
  C  C104  1  0.60944000  0.46754000  0.20751000  1.0
  C  C105  1  0.60708000  0.44234000  0.13885000  1.0
  C  C106  1  0.53198000  0.38568000  0.07644000  1.0
  C  C107  1  0.46004000  0.27014000  0.45646000  1.0
  C  C108  1  0.46354000  0.35714000  0.94715000  1.0
  C  C109  1  0.53004000  0.37784000  0.00604000  1.0
  C  C110  1  0.53688000  0.43637000  0.21701000  1.0
  C  C111  1  0.56574000  0.73279000  0.50597000  1.0
  C  C112  1  0.12120000  0.20844000  0.24592000  1.0
  C  C113  1  0.06641000  0.22639000  0.20798000  1.0
  C  C114  1  0.98794000  0.16776000  0.15378000  1.0
  C  C115  1  0.95999000  0.08797000  0.13543000  1.0
  C  C116  1  0.01076000  0.07106000  0.17960000  1.0
  C  C117  1  0.08999000  0.12970000  0.23288000  1.0
  C  C118  1  0.75995000  0.88397000  0.92109000  1.0
  C  C119  1  0.66174000  0.44152000  0.50088000  1.0
  C  C120  1  0.72649000  0.82148000  0.85359000  1.0
  C  C121  1  0.78264000  0.91149000  0.80605000  1.0
  C  C122  1  0.29235000  0.50366000  0.46540000  1.0
  C  C123  1  0.81555000  0.97406000  0.87366000  1.0
  C  C124  1  0.80883000  0.96206000  0.93382000  1.0
  C  C125  1  0.88936000  0.02315000  0.06826000  1.0
  C  C126  1  0.86063000  0.02836000  0.00599000  1.0
  C  C127  1  0.73967000  0.83340000  0.79506000  1.0
  C  C128  1  0.24829000  0.34624000  0.30225000  1.0
  C  C129  1  0.20740000  0.26929000  0.29429000  1.0
  C  C130  1  0.35908000  0.62772000  0.35255000  1.0
  C  C131  1  0.81714000  0.26279000  0.41542000  1.0
  C  C132  1  0.64745000  0.34263000  0.61979000  1.0
  C  C133  1  0.67422000  0.68653000  0.71151000  1.0
  C  C134  1  0.71835000  0.76284000  0.66252000  1.0
  N  N135  1  0.34266000  0.33623000  0.37563000  1.0
  N  N136  1  0.50072000  0.49913000  0.37852000  1.0
  N  N137  1  0.54189000  0.37164000  0.56682000  1.0
  N  N138  1  0.56663000  0.56819000  0.39194000  1.0
  N  N139  1  0.47294000  0.33840000  0.50314000  1.0
  N  N140  1  0.64295000  0.49593000  0.52807000  1.0
  N  N141  1  0.32798000  0.38496000  0.35026000  1.0
  N  N142  1  0.46449000  0.45825000  0.61568000  1.0
  N  N143  1  0.53455000  0.65838000  0.49745000  1.0
  N  N144  1  0.35628000  0.49195000  0.48500000  1.0
  N  N145  1  0.66135000  0.64166000  0.64478000  1.0
  N  N146  1  0.68938000  0.69003000  0.61356000  1.0
  N  N147  1  0.32659000  0.42313000  0.49058000  1.0
  N  N148  1  0.54736000  0.50290000  0.65952000  1.0
  N  N149  1  0.45705000  0.61347000  0.44047000  1.0
  N  N150  1  0.66389000  0.54813000  0.49975000  1.0
  F  F151  1  0.74950000  0.82263000  0.64555000  1.0
  F  F152  1  0.50503000  0.05835000  0.54600000  1.0
