# generated using pymatgen
data_CdH10C18S(NO2)2
_symmetry_space_group_name_H-M   'P 1'
_cell_length_a   7.45685000
_cell_length_b   9.93776000
_cell_length_c   21.72680000
_cell_angle_alpha   90.00010000
_cell_angle_beta   90.00030000
_cell_angle_gamma   76.19500000
_symmetry_Int_Tables_number   1
_chemical_formula_structural   CdH10C18S(NO2)2
_chemical_formula_sum   'Cd4 H40 C72 S4 N8 O16'
_cell_volume   1563.54235922
_cell_formula_units_Z   4
loop_
 _symmetry_equiv_pos_site_id
 _symmetry_equiv_pos_as_xyz
  1  'x, y, z'
loop_
 _atom_site_type_symbol
 _atom_site_label
 _atom_site_symmetry_multiplicity
 _atom_site_fract_x
 _atom_site_fract_y
 _atom_site_fract_z
 _atom_site_occupancy
  Cd  Cd0  1  0.19124000  0.96858000  0.44334000  1.0
  Cd  Cd1  1  0.80876000  0.53142000  0.94334000  1.0
  Cd  Cd2  1  0.80877000  0.03142000  0.55666000  1.0
  Cd  Cd3  1  0.19124000  0.46857000  0.05666000  1.0
  H  H4  1  0.52638000  0.13064000  0.40978000  1.0
  H  H5  1  0.47361000  0.36937000  0.90978000  1.0
  H  H6  1  0.47361000  0.86936000  0.59021000  1.0
  H  H7  1  0.52638000  0.63064000  0.09021000  1.0
  H  H8  1  0.67560000  0.19941000  0.31593000  1.0
  H  H9  1  0.32440000  0.30060000  0.81593000  1.0
  H  H10  1  0.32441000  0.80058000  0.68406000  1.0
  H  H11  1  0.67559000  0.69941000  0.18407000  1.0
  H  H12  1  0.55200000  0.15053000  0.21045000  1.0
  H  H13  1  0.44800000  0.34947000  0.71044000  1.0
  H  H14  1  0.44800000  0.84946000  0.78955000  1.0
  H  H15  1  0.55200000  0.65053000  0.28955000  1.0
  H  H16  1  0.88056000  0.80816000  0.19854000  1.0
  H  H17  1  0.11944000  0.69184000  0.69854000  1.0
  H  H18  1  0.11945000  0.19183000  0.80146000  1.0
  H  H19  1  0.88055000  0.30817000  0.30146000  1.0
  H  H20  1  0.74059000  0.75108000  0.29941000  1.0
  H  H21  1  0.25941000  0.74892000  0.79941000  1.0
  H  H22  1  0.25941000  0.24891000  0.70059000  1.0
  H  H23  1  0.74058000  0.25109000  0.20059000  1.0
  H  H24  1  0.86875000  0.81662000  0.39813000  1.0
  H  H25  1  0.13125000  0.68339000  0.89813000  1.0
  H  H26  1  0.13125000  0.18338000  0.60187000  1.0
  H  H27  1  0.86875000  0.31662000  0.10187000  1.0
  H  H28  1  0.34575000  0.04904000  0.15036000  1.0
  H  H29  1  0.65425000  0.45096000  0.65036000  1.0
  H  H30  1  0.65425000  0.95096000  0.84964000  1.0
  H  H31  1  0.34576000  0.54904000  0.34964000  1.0
  H  H32  1  0.09548000  0.91815000  0.14571000  1.0
  H  H33  1  0.90452000  0.58184000  0.64572000  1.0
  H  H34  1  0.90452000  0.08184000  0.85428000  1.0
  H  H35  1  0.09548000  0.41816000  0.35429000  1.0
  H  H36  1  0.66427000  0.64113000  0.57094000  1.0
  H  H37  1  0.33573000  0.85887000  0.07094000  1.0
  H  H38  1  0.33573000  0.35887000  0.42906000  1.0
  H  H39  1  0.66427000  0.14112000  0.92906000  1.0
  H  H40  1  0.88470000  0.38639000  0.57344000  1.0
  H  H41  1  0.11531000  0.11361000  0.07344000  1.0
  H  H42  1  0.11530000  0.61361000  0.42656000  1.0
  H  H43  1  0.88471000  0.88639000  0.92656000  1.0
  C  C44  1  0.48006000  0.10950000  0.36376000  1.0
  C  C45  1  0.51994000  0.39051000  0.86376000  1.0
  C  C46  1  0.51994000  0.89050000  0.63624000  1.0
  C  C47  1  0.48006000  0.60950000  0.13624000  1.0
  C  C48  1  0.56227000  0.14878000  0.31054000  1.0
  C  C49  1  0.43772000  0.35123000  0.81053000  1.0
  C  C50  1  0.43772000  0.85122000  0.68946000  1.0
  C  C51  1  0.56228000  0.64878000  0.18946000  1.0
  C  C52  1  0.49742000  0.12081000  0.25358000  1.0
  C  C53  1  0.50258000  0.37919000  0.75358000  1.0
  C  C54  1  0.50258000  0.87918000  0.74642000  1.0
  C  C55  1  0.49742000  0.62081000  0.24642000  1.0
  C  C56  1  0.35334000  0.05124000  0.24982000  1.0
  C  C57  1  0.64666000  0.44876000  0.74982000  1.0
  C  C58  1  0.64665000  0.94876000  0.75018000  1.0
  C  C59  1  0.35335000  0.55124000  0.25018000  1.0
  C  C60  1  0.27834000  0.01483000  0.30580000  1.0
  C  C61  1  0.72166000  0.48517000  0.80580000  1.0
  C  C62  1  0.72166000  0.98517000  0.69419000  1.0
  C  C63  1  0.27834000  0.51483000  0.19419000  1.0
  C  C64  1  0.13156000  0.94232000  0.30307000  1.0
  C  C65  1  0.86843000  0.55768000  0.80307000  1.0
  C  C66  1  0.86843000  0.05768000  0.69693000  1.0
  C  C67  1  0.13156000  0.44232000  0.19693000  1.0
  C  C68  1  0.06841000  0.90858000  0.24462000  1.0
  C  C69  1  0.93160000  0.59142000  0.74463000  1.0
  C  C70  1  0.93159000  0.09142000  0.75538000  1.0
  C  C71  1  0.06840000  0.40858000  0.25538000  1.0
  C  C72  1  0.92614000  0.83677000  0.24334000  1.0
  C  C73  1  0.07385000  0.66323000  0.74334000  1.0
  C  C74  1  0.07385000  0.16322000  0.75666000  1.0
  C  C75  1  0.92614000  0.33678000  0.25666000  1.0
  C  C76  1  0.85212000  0.80404000  0.29799000  1.0
  C  C77  1  0.14787000  0.69596000  0.79799000  1.0
  C  C78  1  0.14788000  0.19595000  0.70201000  1.0
  C  C79  1  0.85212000  0.30405000  0.20201000  1.0
  C  C80  1  0.92230000  0.84108000  0.35380000  1.0
  C  C81  1  0.07770000  0.65893000  0.85380000  1.0
  C  C82  1  0.07770000  0.15892000  0.64620000  1.0
  C  C83  1  0.92230000  0.34107000  0.14620000  1.0
  C  C84  1  0.28486000  0.01685000  0.19185000  1.0
  C  C85  1  0.71514000  0.48316000  0.69185000  1.0
  C  C86  1  0.71513000  0.98315000  0.80815000  1.0
  C  C87  1  0.28487000  0.51685000  0.30815000  1.0
  C  C88  1  0.14807000  0.94700000  0.18937000  1.0
  C  C89  1  0.85193000  0.55300000  0.68937000  1.0
  C  C90  1  0.85192000  0.05300000  0.81063000  1.0
  C  C91  1  0.14808000  0.44700000  0.31063000  1.0
  C  C92  1  0.50172000  0.73851000  0.45126000  1.0
  C  C93  1  0.49827000  0.76149000  0.95126000  1.0
  C  C94  1  0.49829000  0.26149000  0.54874000  1.0
  C  C95  1  0.50172000  0.23851000  0.04874000  1.0
  C  C96  1  0.64048000  0.61465000  0.47245000  1.0
  C  C97  1  0.35952000  0.88536000  0.97245000  1.0
  C  C98  1  0.35953000  0.38536000  0.52755000  1.0
  C  C99  1  0.64048000  0.11464000  0.02755000  1.0
  C  C100  1  0.70430000  0.57457000  0.53106000  1.0
  C  C101  1  0.29570000  0.92543000  0.03106000  1.0
  C  C102  1  0.29571000  0.42543000  0.46894000  1.0
  C  C103  1  0.70430000  0.07457000  0.96894000  1.0
  C  C104  1  0.81967000  0.43917000  0.53245000  1.0
  C  C105  1  0.18033000  0.06083000  0.03245000  1.0
  C  C106  1  0.18033000  0.56083000  0.46755000  1.0
  C  C107  1  0.81968000  0.93917000  0.96755000  1.0
  C  C108  1  0.84216000  0.37810000  0.47479000  1.0
  C  C109  1  0.15784000  0.12190000  0.97480000  1.0
  C  C110  1  0.15784000  0.62190000  0.52521000  1.0
  C  C111  1  0.84217000  0.87810000  0.02521000  1.0
  C  C112  1  0.94684000  0.23971000  0.45526000  1.0
  C  C113  1  0.05315000  0.26029000  0.95526000  1.0
  C  C114  1  0.05316000  0.76029000  0.54474000  1.0
  C  C115  1  0.94685000  0.73970000  0.04474000  1.0
  S  S116  1  0.72371000  0.48720000  0.41912000  1.0
  S  S117  1  0.27628000  0.01280000  0.91912000  1.0
  S  S118  1  0.27630000  0.51281000  0.58088000  1.0
  S  S119  1  0.72372000  0.98719000  0.08088000  1.0
  N  N120  1  0.34191000  0.04614000  0.36117000  1.0
  N  N121  1  0.65808000  0.45387000  0.86118000  1.0
  N  N122  1  0.65808000  0.95386000  0.63882000  1.0
  N  N123  1  0.34191000  0.54614000  0.13883000  1.0
  N  N124  1  0.05794000  0.90674000  0.35596000  1.0
  N  N125  1  0.94206000  0.59326000  0.85596000  1.0
  N  N126  1  0.94206000  0.09326000  0.64404000  1.0
  N  N127  1  0.05794000  0.40674000  0.14404000  1.0
  O  O128  1  0.45554000  0.74412000  0.39533000  1.0
  O  O129  1  0.54444000  0.75588000  0.89533000  1.0
  O  O130  1  0.54447000  0.25588000  0.60467000  1.0
  O  O131  1  0.45555000  0.24412000  0.10467000  1.0
  O  O132  1  0.43135000  0.83082000  0.49224000  1.0
  O  O133  1  0.56865000  0.66918000  0.99224000  1.0
  O  O134  1  0.56865000  0.16918000  0.50777000  1.0
  O  O135  1  0.43135000  0.33082000  0.00776000  1.0
  O  O136  1  0.96333000  0.21313000  0.39881000  1.0
  O  O137  1  0.03666000  0.28687000  0.89881000  1.0
  O  O138  1  0.03667000  0.78687000  0.60119000  1.0
  O  O139  1  0.96334000  0.71313000  0.10119000  1.0
  O  O140  1  0.01891000  0.15034000  0.49817000  1.0
  O  O141  1  0.98108000  0.34967000  0.99817000  1.0
  O  O142  1  0.98109000  0.84967000  0.50182000  1.0
  O  O143  1  0.01892000  0.65033000  0.00183000  1.0
