# generated using pymatgen
data_Zn4H10C32S4O25F8
_symmetry_space_group_name_H-M   'P 1'
_cell_length_a   13.03530000
_cell_length_b   13.08880000
_cell_length_c   17.96950000
_cell_angle_alpha   69.99560000
_cell_angle_beta   69.77020000
_cell_angle_gamma   87.28200000
_symmetry_Int_Tables_number   1
_chemical_formula_structural   Zn4H10C32S4O25F8
_chemical_formula_sum   'Zn4 H10 C32 S4 O25 F8'
_cell_volume   2694.45478953
_cell_formula_units_Z   1
loop_
 _symmetry_equiv_pos_site_id
 _symmetry_equiv_pos_as_xyz
  1  'x, y, z'
loop_
 _atom_site_type_symbol
 _atom_site_label
 _atom_site_symmetry_multiplicity
 _atom_site_fract_x
 _atom_site_fract_y
 _atom_site_fract_z
 _atom_site_occupancy
  Zn  Zn0  1  0.58196000  0.55982000  0.55671000  1.0
  Zn  Zn1  1  0.60379000  0.41409000  0.44068000  1.0
  Zn  Zn2  1  0.45723000  0.61462000  0.42408000  1.0
  Zn  Zn3  1  0.38017000  0.39997000  0.59643000  1.0
  H  H4  1  0.57586000  0.10703000  0.44664000  1.0
  H  H5  1  0.77998000  0.51404000  0.25383000  1.0
  H  H6  1  0.57084000  0.95768000  0.38313000  1.0
  H  H7  1  0.93697000  0.37953000  0.47724000  1.0
  H  H8  1  0.04867000  0.54120000  0.57815000  1.0
  H  H9  1  0.72762000  0.70493000  0.88189000  1.0
  H  H10  1  0.34063000  0.43696000  0.17173000  1.0
  H  H11  1  0.26297000  0.16496000  0.63288000  1.0
  H  H12  1  0.08556000  0.75876000  0.39814000  1.0
  H  H13  1  0.09071000  0.50861000  0.29122000  1.0
  C  C14  1  0.45704000  0.21079000  0.53982000  1.0
  C  C15  1  0.58777000  0.60670000  0.90317000  1.0
  C  C16  1  0.66045000  0.64561000  0.92851000  1.0
  C  C17  1  0.55417000  0.78207000  0.45646000  1.0
  C  C18  1  0.64397000  0.61301000  0.01570000  1.0
  C  C19  1  0.54676000  0.54703000  0.07681000  1.0
  C  C20  1  0.72098000  0.65005000  0.04251000  1.0
  C  C21  1  0.70454000  0.62821000  0.12681000  1.0
  C  C22  1  0.53305000  0.52705000  0.16243000  1.0
  C  C23  1  0.55714000  0.89881000  0.44619000  1.0
  C  C24  1  0.52818000  0.93488000  0.51201000  1.0
  C  C25  1  0.27719000  0.40576000  0.87491000  1.0
  C  C26  1  0.44190000  0.09171000  0.55565000  1.0
  C  C27  1  0.51602000  0.04871000  0.50287000  1.0
  C  C28  1  0.11247000  0.53455000  0.52184000  1.0
  C  C29  1  0.78337000  0.45928000  0.48740000  1.0
  C  C30  1  0.08365000  0.53177000  0.45765000  1.0
  C  C31  1  0.90260000  0.45787000  0.47478000  1.0
  C  C32  1  0.96923000  0.54255000  0.46077000  1.0
  C  C33  1  0.22637000  0.52872000  0.52357000  1.0
  C  C34  1  0.57790000  0.54262000  0.28115000  1.0
  C  C35  1  0.42231000  0.44724000  0.72876000  1.0
  C  C36  1  0.45875000  0.47018000  0.85111000  1.0
  C  C37  1  0.38626000  0.43926000  0.81925000  1.0
  C  C38  1  0.60617000  0.56685000  0.18796000  1.0
  C  C39  1  0.24490000  0.39999000  0.95824000  1.0
  C  C40  1  0.42653000  0.48047000  0.93171000  1.0
  C  C41  1  0.31787000  0.43530000  0.98864000  1.0
  C  C42  1  0.49738000  0.52865000  0.95980000  1.0
  C  C43  1  0.47103000  0.50758000  0.04796000  1.0
  C  C44  1  0.36643000  0.45304000  0.10435000  1.0
  C  C45  1  0.29294000  0.42481000  0.07478000  1.0
  S  S46  1  0.32667000  0.01242000  0.64485000  1.0
  S  S47  1  0.92343000  0.67701000  0.45216000  1.0
  S  S48  1  0.18712000  0.51925000  0.36425000  1.0
  S  S49  1  0.79882000  0.67349000  0.16415000  1.0
  O  O50  1  0.50434000  0.49468000  0.50432000  1.0
  O  O51  1  0.63699000  0.47585000  0.31669000  1.0
  O  O52  1  0.37369000  0.38171000  0.71055000  1.0
  O  O53  1  0.49747000  0.58708000  0.31675000  1.0
  O  O54  1  0.49716000  0.52184000  0.67716000  1.0
  O  O55  1  0.29577000  0.92043000  0.62908000  1.0
  O  O56  1  0.34996000  0.00071000  0.71978000  1.0
  O  O57  1  0.23315000  0.09390000  0.63629000  1.0
  O  O58  1  0.83711000  0.69521000  0.41817000  1.0
  O  O59  1  0.91421000  0.69322000  0.52945000  1.0
  O  O60  1  0.02753000  0.75166000  0.37668000  1.0
  O  O61  1  0.72308000  0.49451000  0.54425000  1.0
  O  O62  1  0.22342000  0.62629000  0.30172000  1.0
  O  O63  1  0.26142000  0.44380000  0.39118000  1.0
  O  O64  1  0.11867000  0.45536000  0.33183000  1.0
  O  O65  1  0.89075000  0.73850000  0.09569000  1.0
  O  O66  1  0.73223000  0.71187000  0.23046000  1.0
  O  O67  1  0.84392000  0.56017000  0.20566000  1.0
  O  O68  1  0.24028000  0.44780000  0.58213000  1.0
  O  O69  1  0.54383000  0.26229000  0.48071000  1.0
  O  O70  1  0.51561000  0.75763000  0.40755000  1.0
  O  O71  1  0.38354000  0.25176000  0.58792000  1.0
  O  O72  1  0.58740000  0.71732000  0.51282000  1.0
  O  O73  1  0.75397000  0.41942000  0.44167000  1.0
  O  O74  1  0.29531000  0.60686000  0.46862000  1.0
  F  F75  1  0.19199000  0.38094000  0.13129000  1.0
  F  F76  1  0.81174000  0.70950000  0.98102000  1.0
  F  F77  1  0.50700000  0.86542000  0.59178000  1.0
  F  F78  1  0.44496000  0.46254000  0.22572000  1.0
  F  F79  1  0.14110000  0.36065000  0.00921000  1.0
  F  F80  1  0.20158000  0.37760000  0.84859000  1.0
  F  F81  1  0.56652000  0.48177000  0.80494000  1.0
  F  F82  1  0.59854000  0.65231000  0.82073000  1.0
