# generated using pymatgen
data_CdH18C28O5
_symmetry_space_group_name_H-M   'P 1'
_cell_length_a   8.20369000
_cell_length_b   9.30182000
_cell_length_c   16.98271725
_cell_angle_alpha   76.28914959
_cell_angle_beta   84.57541721
_cell_angle_gamma   89.04220000
_symmetry_Int_Tables_number   1
_chemical_formula_structural   CdH18C28O5
_chemical_formula_sum   'Cd2 H36 C56 O10'
_cell_volume   1253.34946365
_cell_formula_units_Z   2
loop_
 _symmetry_equiv_pos_site_id
 _symmetry_equiv_pos_as_xyz
  1  'x, y, z'
loop_
 _atom_site_type_symbol
 _atom_site_label
 _atom_site_symmetry_multiplicity
 _atom_site_fract_x
 _atom_site_fract_y
 _atom_site_fract_z
 _atom_site_occupancy
  Cd  Cd0  1  0.77793000  0.56494000  0.99712000  1.0
  Cd  Cd1  1  0.22202000  0.43498000  0.00285000  1.0
  H  H2  1  0.78491000  0.24341000  0.03255000  1.0
  H  H3  1  0.60790000  0.31968000  0.03938000  1.0
  H  H4  1  0.21501000  0.75649000  0.96745000  1.0
  H  H5  1  0.39204000  0.68023000  0.96060000  1.0
  H  H6  1  0.27035000  0.28135000  0.21157000  1.0
  H  H7  1  0.22610000  0.51855000  0.78088000  1.0
  H  H8  1  0.72958000  0.71860000  0.78842000  1.0
  H  H9  1  0.77387000  0.48146000  0.21909000  1.0
  H  H10  1  0.10798000  0.28198000  0.34283000  1.0
  H  H11  1  0.38944000  0.63244000  0.65100000  1.0
  H  H12  1  0.89197000  0.71803000  0.65716000  1.0
  H  H13  1  0.61056000  0.36763000  0.34899000  1.0
  H  H14  1  0.28372000  0.72143000  0.32871000  1.0
  H  H15  1  0.22566000  0.06378000  0.67414000  1.0
  H  H16  1  0.71627000  0.27853000  0.67127000  1.0
  H  H17  1  0.77441000  0.93628000  0.32592000  1.0
  H  H18  1  0.44875000  0.71863000  0.19759000  1.0
  H  H19  1  0.06067000  0.94845000  0.80445000  1.0
  H  H20  1  0.55126000  0.28132000  0.80238000  1.0
  H  H21  1  0.93935000  0.05155000  0.19560000  1.0
  H  H22  1  0.39348000  0.38441000  0.44132000  1.0
  H  H23  1  0.11394000  0.82814000  0.55604000  1.0
  H  H24  1  0.60651000  0.61562000  0.55866000  1.0
  H  H25  1  0.88612000  0.17186000  0.44399000  1.0
  H  H26  1  0.51655000  0.28876000  0.57024000  1.0
  H  H27  1  0.98922000  0.85722000  0.42694000  1.0
  H  H28  1  0.48345000  0.71130000  0.42974000  1.0
  H  H29  1  0.01087000  0.14272000  0.57309000  1.0
  H  H30  1  0.35499000  0.28552000  0.70313000  1.0
  H  H31  1  0.14425000  0.98326000  0.29537000  1.0
  H  H32  1  0.64499000  0.71454000  0.29684000  1.0
  H  H33  1  0.85585000  0.01673000  0.70466000  1.0
  H  H34  1  0.92788000  0.61960000  0.29389000  1.0
  H  H35  1  0.57780000  0.91845000  0.70593000  1.0
  H  H36  1  0.07210000  0.38042000  0.70608000  1.0
  H  H37  1  0.42227000  0.08163000  0.29412000  1.0
  C  C38  1  0.47835000  0.49054000  0.12253000  1.0
  C  C39  1  0.02594000  0.65742000  0.87536000  1.0
  C  C40  1  0.52160000  0.50937000  0.87745000  1.0
  C  C41  1  0.97402000  0.34256000  0.12463000  1.0
  C  C42  1  0.37112000  0.49891000  0.19725000  1.0
  C  C43  1  0.13266000  0.72616000  0.80050000  1.0
  C  C44  1  0.62886000  0.50104000  0.80273000  1.0
  C  C45  1  0.86733000  0.27385000  0.19950000  1.0
  C  C46  1  0.27276000  0.37729000  0.23777000  1.0
  C  C47  1  0.22638000  0.63792000  0.75714000  1.0
  C  C48  1  0.72719000  0.62267000  0.76221000  1.0
  C  C49  1  0.77361000  0.36210000  0.24285000  1.0
  C  C50  1  0.18194000  0.37818000  0.31112000  1.0
  C  C51  1  0.31821000  0.70244000  0.68444000  1.0
  C  C52  1  0.81803000  0.62181000  0.68887000  1.0
  C  C53  1  0.68181000  0.29761000  0.31557000  1.0
  C  C54  1  0.18646000  0.50130000  0.34500000  1.0
  C  C55  1  0.31807000  0.85623000  0.65367000  1.0
  C  C56  1  0.81353000  0.49869000  0.65498000  1.0
  C  C57  1  0.68199000  0.14382000  0.34637000  1.0
  C  C58  1  0.28160000  0.62474000  0.30305000  1.0
  C  C59  1  0.22601000  0.94428000  0.69801000  1.0
  C  C60  1  0.71841000  0.37523000  0.69693000  1.0
  C  C61  1  0.77405000  0.05577000  0.30204000  1.0
  C  C62  1  0.37355000  0.62360000  0.23000000  1.0
  C  C63  1  0.13424000  0.88040000  0.77062000  1.0
  C  C64  1  0.62645000  0.37636000  0.76997000  1.0
  C  C65  1  0.86578000  0.11962000  0.22942000  1.0
  C  C66  1  0.09157000  0.50070000  0.42421000  1.0
  C  C67  1  0.41185000  0.92767000  0.57507000  1.0
  C  C68  1  0.90841000  0.49933000  0.57576000  1.0
  C  C69  1  0.58820000  0.07239000  0.42497000  1.0
  C  C70  1  0.93152000  0.55805000  0.42527000  1.0
  C  C71  1  0.56957000  0.98559000  0.57497000  1.0
  C  C72  1  0.06846000  0.44198000  0.57470000  1.0
  C  C73  1  0.43048000  0.01446000  0.42508000  1.0
  C  C74  1  0.16143000  0.44247000  0.49786000  1.0
  C  C75  1  0.34100000  0.94084000  0.50117000  1.0
  C  C76  1  0.83855000  0.55756000  0.50211000  1.0
  C  C77  1  0.65905000  0.05921000  0.49887000  1.0
  C  C78  1  0.32353000  0.38421000  0.49910000  1.0
  C  C79  1  0.18135000  0.88396000  0.49894000  1.0
  C  C80  1  0.67645000  0.61583000  0.50087000  1.0
  C  C81  1  0.81871000  0.11607000  0.50110000  1.0
  C  C82  1  0.39170000  0.33043000  0.57097000  1.0
  C  C83  1  0.11223000  0.89960000  0.42689000  1.0
  C  C84  1  0.60828000  0.66961000  0.42901000  1.0
  C  C85  1  0.88785000  0.10040000  0.57314000  1.0
  C  C86  1  0.29982000  0.32887000  0.64639000  1.0
  C  C87  1  0.20038000  0.97133000  0.35223000  1.0
  C  C88  1  0.70016000  0.67118000  0.35358000  1.0
  C  C89  1  0.79968000  0.02869000  0.64780000  1.0
  C  C90  1  0.85738000  0.61801000  0.35181000  1.0
  C  C91  1  0.64491000  0.97389000  0.64864000  1.0
  C  C92  1  0.14260000  0.38202000  0.64816000  1.0
  C  C93  1  0.35513000  0.02616000  0.35141000  1.0
  O  O94  1  0.59706000  0.58244000  0.10059000  1.0
  O  O95  1  0.93174000  0.74211000  0.90893000  1.0
  O  O96  1  0.40290000  0.41746000  0.89939000  1.0
  O  O97  1  0.06820000  0.25785000  0.09107000  1.0
  O  O98  1  0.71265000  0.31739000  0.00363000  1.0
  O  O99  1  0.28731000  0.68254000  0.99637000  1.0
  O  O100  1  0.44824000  0.38852000  0.08613000  1.0
  O  O101  1  0.02683000  0.51686000  0.90434000  1.0
  O  O102  1  0.55169000  0.61138000  0.91386000  1.0
  O  O103  1  0.97313000  0.48310000  0.09564000  1.0
