# generated using pymatgen
data_AlH12C33(BrO2)3
_symmetry_space_group_name_H-M   'P 1'
_cell_length_a   3.99486000
_cell_length_b   20.43660000
_cell_length_c   20.47750000
_cell_angle_alpha   60.07640000
_cell_angle_beta   86.27590000
_cell_angle_gamma   86.08840000
_symmetry_Int_Tables_number   1
_chemical_formula_structural   AlH12C33(BrO2)3
_chemical_formula_sum   'Al1 H12 C33 Br3 O6'
_cell_volume   1444.64401448
_cell_formula_units_Z   1
loop_
 _symmetry_equiv_pos_site_id
 _symmetry_equiv_pos_as_xyz
  1  'x, y, z'
loop_
 _atom_site_type_symbol
 _atom_site_label
 _atom_site_symmetry_multiplicity
 _atom_site_fract_x
 _atom_site_fract_y
 _atom_site_fract_z
 _atom_site_occupancy
  Al  Al0  1  0.03702000  0.49951000  0.49986000  1.0
  H  H1  1  0.83916000  0.30915000  0.70626000  1.0
  H  H2  1  0.81673000  0.23632000  0.84709000  1.0
  H  H3  1  0.23260000  0.70954000  0.30743000  1.0
  H  H4  1  0.22720000  0.85070000  0.23616000  1.0
  H  H5  1  0.28142000  0.30983000  0.48453000  1.0
  H  H6  1  0.29406000  0.23828000  0.41489000  1.0
  H  H7  1  0.77273000  0.70675000  0.48369000  1.0
  H  H8  1  0.74592000  0.84794000  0.41593000  1.0
  H  H9  1  0.17592000  0.48209000  0.70966000  1.0
  H  H10  1  0.17219000  0.41287000  0.85050000  1.0
  H  H11  1  0.88753000  0.47906000  0.30743000  1.0
  H  H12  1  0.88099000  0.41112000  0.23438000  1.0
  C  C13  1  0.51948000  0.44209000  0.61591000  1.0
  C  C14  1  0.57262000  0.44061000  0.44220000  1.0
  C  C15  1  0.51687000  0.61582000  0.44118000  1.0
  C  C16  1  0.68899000  0.33053000  0.73847000  1.0
  C  C17  1  0.67755000  0.29021000  0.81669000  1.0
  C  C18  1  0.34916000  0.74038000  0.33000000  1.0
  C  C19  1  0.34505000  0.81879000  0.29052000  1.0
  C  C20  1  0.41737000  0.33064000  0.43045000  1.0
  C  C21  1  0.42370000  0.29098000  0.39170000  1.0
  C  C22  1  0.64863000  0.73889000  0.43017000  1.0
  C  C23  1  0.63477000  0.81728000  0.39244000  1.0
  C  C24  1  0.31984000  0.42894000  0.74035000  1.0
  C  C25  1  0.31697000  0.39035000  0.81859000  1.0
  C  C26  1  0.75374000  0.42702000  0.32975000  1.0
  C  C27  1  0.75121000  0.38912000  0.28930000  1.0
  C  C28  1  0.50857000  0.39984000  0.69967000  1.0
  C  C29  1  0.49427000  0.32007000  0.85795000  1.0
  C  C30  1  0.49114000  0.28029000  0.93761000  1.0
  C  C31  1  0.49280000  0.24603000  0.00629000  1.0
  C  C32  1  0.50008000  0.20678000  0.08566000  1.0
  C  C33  1  0.50410000  0.69979000  0.39965000  1.0
  C  C34  1  0.48614000  0.85841000  0.32148000  1.0
  C  C35  1  0.48297000  0.93818000  0.28173000  1.0
  C  C36  1  0.48609000  0.00699000  0.24747000  1.0
  C  C37  1  0.49621000  0.08635000  0.20723000  1.0
  C  C38  1  0.58355000  0.39868000  0.40010000  1.0
  C  C39  1  0.58702000  0.32029000  0.31989000  1.0
  C  C40  1  0.57983000  0.28142000  0.27912000  1.0
  C  C41  1  0.56411000  0.24748000  0.24457000  1.0
  C  C42  1  0.54022000  0.20752000  0.20557000  1.0
  C  C43  1  0.48137000  0.12731000  0.12775000  1.0
  C  C44  1  0.52530000  0.12791000  0.24470000  1.0
  C  C45  1  0.52899000  0.24544000  0.12606000  1.0
  Br  Br46  1  0.54832000  0.07526000  0.35070000  1.0
  Br  Br47  1  0.55571000  0.35148000  0.07189000  1.0
  Br  Br48  1  0.43348000  0.07397000  0.07593000  1.0
  O  O49  1  0.29773000  0.58244000  0.42686000  1.0
  O  O50  1  0.27883000  0.48984000  0.58281000  1.0
  O  O51  1  0.33128000  0.42697000  0.49088000  1.0
  O  O52  1  0.74731000  0.58238000  0.48890000  1.0
  O  O53  1  0.80120000  0.48728000  0.42744000  1.0
  O  O54  1  0.77055000  0.42770000  0.58242000  1.0
