# generated using pymatgen
data_La2Cu3H30C24(NO4)6
_symmetry_space_group_name_H-M   'P 1'
_cell_length_a   13.45460000
_cell_length_b   13.45460000
_cell_length_c   14.95120000
_cell_angle_alpha   90.00010000
_cell_angle_beta   89.99980000
_cell_angle_gamma   60.00000000
_symmetry_Int_Tables_number   1
_chemical_formula_structural   La2Cu3H30C24(NO4)6
_chemical_formula_sum   'La4 Cu6 H60 C48 N12 O48'
_cell_volume   2343.94957468
_cell_formula_units_Z   2
loop_
 _symmetry_equiv_pos_site_id
 _symmetry_equiv_pos_as_xyz
  1  'x, y, z'
loop_
 _atom_site_type_symbol
 _atom_site_label
 _atom_site_symmetry_multiplicity
 _atom_site_fract_x
 _atom_site_fract_y
 _atom_site_fract_z
 _atom_site_occupancy
  La  La0  1  0.33333333  0.33333333  0.33082000  1.0
  La  La1  1  0.66666667  0.66666667  0.16919000  1.0
  La  La2  1  0.66666667  0.66666667  0.66918000  1.0
  La  La3  1  0.33333333  0.33333333  0.83081000  1.0
  Cu  Cu4  1  0.00000000  0.50000000  0.50000000  1.0
  Cu  Cu5  1  0.50000000  0.00000000  0.50000000  1.0
  Cu  Cu6  1  0.50000000  0.50000000  0.50000000  1.0
  Cu  Cu7  1  0.00000000  0.50000000  0.00000000  1.0
  Cu  Cu8  1  0.50000000  0.50000000  0.00000000  1.0
  Cu  Cu9  1  0.50000000  0.00000000  0.00000000  1.0
  H  H10  1  0.95982000  0.67766000  0.58052000  1.0
  H  H11  1  0.13504000  0.69458000  0.52730000  1.0
  H  H12  1  0.02593000  0.71395000  0.44981000  1.0
  H  H13  1  0.07805000  0.60697000  0.69928000  1.0
  H  H14  1  0.19891000  0.53946000  0.62966000  1.0
  H  H15  1  0.36252000  0.95982000  0.58052000  1.0
  H  H16  1  0.17038000  0.13504000  0.52730000  1.0
  H  H17  1  0.26012000  0.02592000  0.44981000  1.0
  H  H18  1  0.31498000  0.07805000  0.69928000  1.0
  H  H19  1  0.26163000  0.19890000  0.62966000  1.0
  H  H20  1  0.67766000  0.36252000  0.58052000  1.0
  H  H21  1  0.69458000  0.17038000  0.52729000  1.0
  H  H22  1  0.71396000  0.26011000  0.44981000  1.0
  H  H23  1  0.60697000  0.31498000  0.69928000  1.0
  H  H24  1  0.53947000  0.26163000  0.62966000  1.0
  H  H25  1  0.04018000  0.63748000  0.91948000  1.0
  H  H26  1  0.86496000  0.82962000  0.97271000  1.0
  H  H27  1  0.97408000  0.73988000  0.05019000  1.0
  H  H28  1  0.92195000  0.68503000  0.80072000  1.0
  H  H29  1  0.80109000  0.73838000  0.87034000  1.0
  H  H30  1  0.63748000  0.32234000  0.91948000  1.0
  H  H31  1  0.82962000  0.30542000  0.97271000  1.0
  H  H32  1  0.73988000  0.28604000  0.05019000  1.0
  H  H33  1  0.68503000  0.39302000  0.80072000  1.0
  H  H34  1  0.73838000  0.46053000  0.87034000  1.0
  H  H35  1  0.32235000  0.04017000  0.91948000  1.0
  H  H36  1  0.30542000  0.86496000  0.97271000  1.0
  H  H37  1  0.28605000  0.97407000  0.05019000  1.0
  H  H38  1  0.39302000  0.92195000  0.80072000  1.0
  H  H39  1  0.46053000  0.80109000  0.87033000  1.0
  H  H40  1  0.04018000  0.32234000  0.41948000  1.0
  H  H41  1  0.86496000  0.30542000  0.47271000  1.0
  H  H42  1  0.97407000  0.28605000  0.55019000  1.0
  H  H43  1  0.92195000  0.39303000  0.30072000  1.0
  H  H44  1  0.80109000  0.46054000  0.37034000  1.0
  H  H45  1  0.63748000  0.04018000  0.41948000  1.0
  H  H46  1  0.82962000  0.86496000  0.47271000  1.0
  H  H47  1  0.73988000  0.97408000  0.55019000  1.0
  H  H48  1  0.68502000  0.92195000  0.30072000  1.0
  H  H49  1  0.73837000  0.80110000  0.37034000  1.0
  H  H50  1  0.32234000  0.63748000  0.41948000  1.0
  H  H51  1  0.30542000  0.82962000  0.47271000  1.0
  H  H52  1  0.28604000  0.73989000  0.55019000  1.0
  H  H53  1  0.39303000  0.68502000  0.30072000  1.0
  H  H54  1  0.46053000  0.73837000  0.37034000  1.0
  H  H55  1  0.95982000  0.36252000  0.08052000  1.0
  H  H56  1  0.13504000  0.17038000  0.02729000  1.0
  H  H57  1  0.02592000  0.26012000  0.94981000  1.0
  H  H58  1  0.07805000  0.31497000  0.19928000  1.0
  H  H59  1  0.19891000  0.26162000  0.12966000  1.0
  H  H60  1  0.36252000  0.67766000  0.08052000  1.0
  H  H61  1  0.17038000  0.69458000  0.02729000  1.0
  H  H62  1  0.26012000  0.71396000  0.94980000  1.0
  H  H63  1  0.31497000  0.60698000  0.19928000  1.0
  H  H64  1  0.26162000  0.53947000  0.12966000  1.0
  H  H65  1  0.67766000  0.95982000  0.08052000  1.0
  H  H66  1  0.69458000  0.13504000  0.02729000  1.0
  H  H67  1  0.71396000  0.02592000  0.94980000  1.0
  H  H68  1  0.60698000  0.07805000  0.19928000  1.0
  H  H69  1  0.53947000  0.19891000  0.12966000  1.0
  C  C70  1  0.18042000  0.55456000  0.43555000  1.0
  C  C71  1  0.09283000  0.65186000  0.49471000  1.0
  C  C72  1  0.11159000  0.55372000  0.63888000  1.0
  C  C73  1  0.12257000  0.43725000  0.65734000  1.0
  C  C74  1  0.26502000  0.18042000  0.43555000  1.0
  C  C75  1  0.25531000  0.09283000  0.49472000  1.0
  C  C76  1  0.33469000  0.11159000  0.63889000  1.0
  C  C77  1  0.44018000  0.12258000  0.65734000  1.0
  C  C78  1  0.55456000  0.26502000  0.43555000  1.0
  C  C79  1  0.65186000  0.25531000  0.49472000  1.0
  C  C80  1  0.55372000  0.33469000  0.63889000  1.0
  C  C81  1  0.43724000  0.44018000  0.65734000  1.0
  C  C82  1  0.81958000  0.73498000  0.06446000  1.0
  C  C83  1  0.90717000  0.74469000  0.00529000  1.0
  C  C84  1  0.88841000  0.66531000  0.86112000  1.0
  C  C85  1  0.87743000  0.55982000  0.84266000  1.0
  C  C86  1  0.73498000  0.44544000  0.06446000  1.0
  C  C87  1  0.74469000  0.34814000  0.00529000  1.0
  C  C88  1  0.66532000  0.44627000  0.86112000  1.0
  C  C89  1  0.55982000  0.56275000  0.84266000  1.0
  C  C90  1  0.44544000  0.81958000  0.06445000  1.0
  C  C91  1  0.34814000  0.90717000  0.00529000  1.0
  C  C92  1  0.44628000  0.88840000  0.86111000  1.0
  C  C93  1  0.56275000  0.87743000  0.84266000  1.0
  C  C94  1  0.81958000  0.44544000  0.56445000  1.0
  C  C95  1  0.90717000  0.34814000  0.50529000  1.0
  C  C96  1  0.88841000  0.44628000  0.36112000  1.0
  C  C97  1  0.87743000  0.56275000  0.34266000  1.0
  C  C98  1  0.73498000  0.81958000  0.56445000  1.0
  C  C99  1  0.74469000  0.90717000  0.50528000  1.0
  C  C100  1  0.66531000  0.88841000  0.36111000  1.0
  C  C101  1  0.55982000  0.87742000  0.34266000  1.0
  C  C102  1  0.44544000  0.73498000  0.56445000  1.0
  C  C103  1  0.34814000  0.74469000  0.50529000  1.0
  C  C104  1  0.44628000  0.66531000  0.36112000  1.0
  C  C105  1  0.56276000  0.55981000  0.34266000  1.0
  C  C106  1  0.18042000  0.26502000  0.93554000  1.0
  C  C107  1  0.09283000  0.25531000  0.99471000  1.0
  C  C108  1  0.11159000  0.33469000  0.13888000  1.0
  C  C109  1  0.12257000  0.44018000  0.15734000  1.0
  C  C110  1  0.26502000  0.55456000  0.93554000  1.0
  C  C111  1  0.25531000  0.65186000  0.99471000  1.0
  C  C112  1  0.33468000  0.55373000  0.13888000  1.0
  C  C113  1  0.44018000  0.43725000  0.15734000  1.0
  C  C114  1  0.55456000  0.18042000  0.93555000  1.0
  C  C115  1  0.65186000  0.09283000  0.99471000  1.0
  C  C116  1  0.55372000  0.11160000  0.13888000  1.0
  C  C117  1  0.43725000  0.12257000  0.15734000  1.0
  N  N118  1  0.03947000  0.61156000  0.56017000  1.0
  N  N119  1  0.34898000  0.03946000  0.56017000  1.0
  N  N120  1  0.61156000  0.34897000  0.56017000  1.0
  N  N121  1  0.96053000  0.65103000  0.93983000  1.0
  N  N122  1  0.65103000  0.38844000  0.93983000  1.0
  N  N123  1  0.38844000  0.96053000  0.93983000  1.0
  N  N124  1  0.96053000  0.38845000  0.43983000  1.0
  N  N125  1  0.65102000  0.96054000  0.43983000  1.0
  N  N126  1  0.38844000  0.65103000  0.43983000  1.0
  N  N127  1  0.03947000  0.34897000  0.06017000  1.0
  N  N128  1  0.34897000  0.61156000  0.06017000  1.0
  N  N129  1  0.61156000  0.03947000  0.06017000  1.0
  O  O130  1  0.18619000  0.45706000  0.44287000  1.0
  O  O131  1  0.24089000  0.57383000  0.38131000  1.0
  O  O132  1  0.07695000  0.39845000  0.60301000  1.0
  O  O133  1  0.17828000  0.38246000  0.72563000  1.0
  O  O134  1  0.35675000  0.18618000  0.44287000  1.0
  O  O135  1  0.18528000  0.24090000  0.38131000  1.0
  O  O136  1  0.52460000  0.07695000  0.60301000  1.0
  O  O137  1  0.43927000  0.17828000  0.72564000  1.0
  O  O138  1  0.45707000  0.35676000  0.44286000  1.0
  O  O139  1  0.57382000  0.18529000  0.38131000  1.0
  O  O140  1  0.39845000  0.52460000  0.60301000  1.0
  O  O141  1  0.38245000  0.43926000  0.72564000  1.0
  O  O142  1  0.81383000  0.64324000  0.05715000  1.0
  O  O143  1  0.75910000  0.81472000  0.11869000  1.0
  O  O144  1  0.92305000  0.47540000  0.89699000  1.0
  O  O145  1  0.82172000  0.56074000  0.77436000  1.0
  O  O146  1  0.64324000  0.54293000  0.05715000  1.0
  O  O147  1  0.81472000  0.42617000  0.11870000  1.0
  O  O148  1  0.47540000  0.60155000  0.89699000  1.0
  O  O149  1  0.56074000  0.61754000  0.77436000  1.0
  O  O150  1  0.54293000  0.81382000  0.05714000  1.0
  O  O151  1  0.42618000  0.75910000  0.11870000  1.0
  O  O152  1  0.60155000  0.92305000  0.89699000  1.0
  O  O153  1  0.61754000  0.82172000  0.77436000  1.0
  O  O154  1  0.81381000  0.54294000  0.55713000  1.0
  O  O155  1  0.75911000  0.42618000  0.61870000  1.0
  O  O156  1  0.92305000  0.60155000  0.39699000  1.0
  O  O157  1  0.82172000  0.61754000  0.27437000  1.0
  O  O158  1  0.64325000  0.81382000  0.55713000  1.0
  O  O159  1  0.81472000  0.75910000  0.61869000  1.0
  O  O160  1  0.47540000  0.92305000  0.39699000  1.0
  O  O161  1  0.56073000  0.82172000  0.27436000  1.0
  O  O162  1  0.54293000  0.64324000  0.55714000  1.0
  O  O163  1  0.42618000  0.81471000  0.61869000  1.0
  O  O164  1  0.60155000  0.47540000  0.39699000  1.0
  O  O165  1  0.61755000  0.56074000  0.27436000  1.0
  O  O166  1  0.18616000  0.35677000  0.94285000  1.0
  O  O167  1  0.24090000  0.18528000  0.88131000  1.0
  O  O168  1  0.07695000  0.52460000  0.10301000  1.0
  O  O169  1  0.17828000  0.43926000  0.22564000  1.0
  O  O170  1  0.35676000  0.45707000  0.94285000  1.0
  O  O171  1  0.18528000  0.57383000  0.88130000  1.0
  O  O172  1  0.52460000  0.39845000  0.10301000  1.0
  O  O173  1  0.43926000  0.38246000  0.22564000  1.0
  O  O174  1  0.45707000  0.18618000  0.94286000  1.0
  O  O175  1  0.57382000  0.24090000  0.88130000  1.0
  O  O176  1  0.39846000  0.07694000  0.10301000  1.0
  O  O177  1  0.38246000  0.17828000  0.22564000  1.0
