# generated using pymatgen
data_Zr3H21C44Cl5O16
_symmetry_space_group_name_H-M   'P 1'
_cell_length_a   19.01945347
_cell_length_b   19.24654905
_cell_length_c   19.24600000
_cell_angle_alpha   90.60296457
_cell_angle_beta   119.61414522
_cell_angle_gamma   119.61602123
_symmetry_Int_Tables_number   1
_chemical_formula_structural   Zr3H21C44Cl5O16
_chemical_formula_sum   'Zr6 H42 C88 Cl10 O32'
_cell_volume   5013.17091012
_cell_formula_units_Z   2
loop_
 _symmetry_equiv_pos_site_id
 _symmetry_equiv_pos_as_xyz
  1  'x, y, z'
loop_
 _atom_site_type_symbol
 _atom_site_label
 _atom_site_symmetry_multiplicity
 _atom_site_fract_x
 _atom_site_fract_y
 _atom_site_fract_z
 _atom_site_occupancy
  Zr  Zr0  1  0.68505000  0.09191000  0.09193000  1.0
  Zr  Zr1  1  0.31545000  0.90810000  0.90809000  1.0
  Zr  Zr2  1  0.50169000  0.90826000  0.90825000  1.0
  Zr  Zr3  1  0.49873000  0.09170000  0.09168000  1.0
  Zr  Zr4  1  0.50026000  0.09130000  0.90875000  1.0
  Zr  Zr5  1  0.50029000  0.90876000  0.09133000  1.0
  H  H6  1  0.64682000  0.07212000  0.92829000  1.0
  H  H7  1  0.35366000  0.07170000  0.92789000  1.0
  H  H8  1  0.35578000  0.78343000  0.92727000  1.0
  H  H9  1  0.64474000  0.07275000  0.21661000  1.0
  H  H10  1  0.06801000  0.68186000  0.89006000  1.0
  H  H11  1  0.93229000  0.32149000  0.11326000  1.0
  H  H12  1  0.70988000  0.32176000  0.89107000  1.0
  H  H13  1  0.83806000  0.44647000  0.89228000  1.0
  H  H14  1  0.29044000  0.68144000  0.11205000  1.0
  H  H15  1  0.16235000  0.55400000  0.10808000  1.0
  H  H16  1  0.06815000  0.88678000  0.67869000  1.0
  H  H17  1  0.93251000  0.11000000  0.31828000  1.0
  H  H18  1  0.70998000  0.88809000  0.31874000  1.0
  H  H19  1  0.83803000  0.89224000  0.44639000  1.0
  H  H20  1  0.29052000  0.10912000  0.67853000  1.0
  H  H21  1  0.16232000  0.10808000  0.55402000  1.0
  H  H22  1  0.50417000  0.68495000  0.11241000  1.0
  H  H23  1  0.50286000  0.31828000  0.89088000  1.0
  H  H24  1  0.50281000  0.32462000  0.11326000  1.0
  H  H25  1  0.50034000  0.44921000  0.10874000  1.0
  H  H26  1  0.50349000  0.67814000  0.88969000  1.0
  H  H27  1  0.49943000  0.55038000  0.89108000  1.0
  H  H28  1  0.49718000  0.10895000  0.68153000  1.0
  H  H29  1  0.49604000  0.88754000  0.31490000  1.0
  H  H30  1  0.49664000  0.11022000  0.32166000  1.0
  H  H31  1  0.50038000  0.10868000  0.44928000  1.0
  H  H32  1  0.49720000  0.88657000  0.67508000  1.0
  H  H33  1  0.49943000  0.89104000  0.55038000  1.0
  H  H34  1  0.06702000  0.88696000  0.88991000  1.0
  H  H35  1  0.88827000  0.82308000  0.82308000  1.0
  H  H36  1  0.29008000  0.10986000  0.11279000  1.0
  H  H37  1  0.24225000  0.17681000  0.17683000  1.0
  H  H38  1  0.93348000  0.11016000  0.11297000  1.0
  H  H39  1  0.11218000  0.17693000  0.17685000  1.0
  H  H40  1  0.71041000  0.88729000  0.89009000  1.0
  H  H41  1  0.75823000  0.82322000  0.82315000  1.0
  H  H42  1  0.29422000  0.68287000  0.67954000  1.0
  H  H43  1  0.70631000  0.32044000  0.31716000  1.0
  H  H44  1  0.93430000  0.32329000  0.32025000  1.0
  H  H45  1  0.05725000  0.44763000  0.44715000  1.0
  H  H46  1  0.06623000  0.67975000  0.67669000  1.0
  H  H47  1  0.94331000  0.55286000  0.55235000  1.0
  C  C48  1  0.73473000  0.23539000  0.00304000  1.0
  C  C49  1  0.26572000  0.99698000  0.76470000  1.0
  C  C50  1  0.26558000  0.76938000  0.00164000  1.0
  C  C51  1  0.73491000  0.99838000  0.23069000  1.0
  C  C52  1  0.73674000  0.99813000  0.00219000  1.0
  C  C53  1  0.73322000  0.23569000  0.23116000  1.0
  C  C54  1  0.26376000  0.99780000  0.00191000  1.0
  C  C55  1  0.26728000  0.76883000  0.76429000  1.0
  C  C56  1  0.49660000  0.99746000  0.76474000  1.0
  C  C57  1  0.50640000  0.76959000  0.00229000  1.0
  C  C58  1  0.49402000  0.99776000  0.23039000  1.0
  C  C59  1  0.50372000  0.23518000  0.00246000  1.0
  C  C60  1  0.18834000  0.69151000  0.00135000  1.0
  C  C61  1  0.81198000  0.31259000  0.00268000  1.0
  C  C62  1  0.08856000  0.65338000  0.93846000  1.0
  C  C63  1  0.01433000  0.57962000  0.93545000  1.0
  C  C64  1  0.91176000  0.34951000  0.06438000  1.0
  C  C65  1  0.98606000  0.42110000  0.06520000  1.0
  C  C66  1  0.78725000  0.34929000  0.94045000  1.0
  C  C67  1  0.86129000  0.42055000  0.94183000  1.0
  C  C68  1  0.21307000  0.65360000  0.06235000  1.0
  C  C69  1  0.13908000  0.58069000  0.05930000  1.0
  C  C70  1  0.03631000  0.53904000  0.99750000  1.0
  C  C71  1  0.96407000  0.46135000  0.00282000  1.0
  C  C72  1  0.18844000  0.99743000  0.68762000  1.0
  C  C73  1  0.81214000  0.99875000  0.30865000  1.0
  C  C74  1  0.08867000  0.93575000  0.65075000  1.0
  C  C75  1  0.01436000  0.93501000  0.57926000  1.0
  C  C76  1  0.91190000  0.06164000  0.34681000  1.0
  C  C77  1  0.98611000  0.06474000  0.42067000  1.0
  C  C78  1  0.78735000  0.93779000  0.34660000  1.0
  C  C79  1  0.86132000  0.94094000  0.41963000  1.0
  C  C80  1  0.21315000  0.05975000  0.65101000  1.0
  C  C81  1  0.13910000  0.05845000  0.57988000  1.0
  C  C82  1  0.03631000  0.99743000  0.53904000  1.0
  C  C83  1  0.96409000  0.00275000  0.46131000  1.0
  C  C84  1  0.50504000  0.69150000  0.00178000  1.0
  C  C85  1  0.50335000  0.31241000  0.00219000  1.0
  C  C86  1  0.50350000  0.65504000  0.06357000  1.0
  C  C87  1  0.50063000  0.58120000  0.06456000  1.0
  C  C88  1  0.50237000  0.34762000  0.93915000  1.0
  C  C89  1  0.50045000  0.41910000  0.93584000  1.0
  C  C90  1  0.50241000  0.35080000  0.06327000  1.0
  C  C91  1  0.50091000  0.42194000  0.05987000  1.0
  C  C92  1  0.50319000  0.65168000  0.93935000  1.0
  C  C93  1  0.50082000  0.57864000  0.94089000  1.0
  C  C94  1  0.50007000  0.53878000  0.00232000  1.0
  C  C95  1  0.50004000  0.46101000  0.99763000  1.0
  C  C96  1  0.49670000  0.99766000  0.68737000  1.0
  C  C97  1  0.49515000  0.99816000  0.30836000  1.0
  C  C98  1  0.49761000  0.06067000  0.65214000  1.0
  C  C99  1  0.49939000  0.06394000  0.58058000  1.0
  C  C100  1  0.49662000  0.93633000  0.34477000  1.0
  C  C101  1  0.49929000  0.93526000  0.41851000  1.0
  C  C102  1  0.49686000  0.06052000  0.34809000  1.0
  C  C103  1  0.49907000  0.05891000  0.42106000  1.0
  C  C104  1  0.49756000  0.93655000  0.64892000  1.0
  C  C105  1  0.49893000  0.93993000  0.57771000  1.0
  C  C106  1  0.49978000  0.00216000  0.53866000  1.0
  C  C107  1  0.49978000  0.99746000  0.46090000  1.0
  C  C108  1  0.08568000  0.93555000  0.93808000  1.0
  C  C109  1  0.01078000  0.93497000  0.93625000  1.0
  C  C110  1  0.90793000  0.87167000  0.87211000  1.0
  C  C111  1  0.21195000  0.06174000  0.06425000  1.0
  C  C112  1  0.13954000  0.06364000  0.06492000  1.0
  C  C113  1  0.16425000  0.12781000  0.12826000  1.0
  C  C114  1  0.91480000  0.06198000  0.06437000  1.0
  C  C115  1  0.98969000  0.06377000  0.06497000  1.0
  C  C116  1  0.09253000  0.12789000  0.12829000  1.0
  C  C117  1  0.78856000  0.93582000  0.93823000  1.0
  C  C118  1  0.86095000  0.93511000  0.93633000  1.0
  C  C119  1  0.83623000  0.87176000  0.87217000  1.0
  C  C120  1  0.18533000  0.99818000  0.00157000  1.0
  C  C121  1  0.03757000  0.99944000  0.00050000  1.0
  C  C122  1  0.81514000  0.99850000  0.00175000  1.0
  C  C123  1  0.96291000  0.99950000  0.00053000  1.0
  C  C124  1  0.18985000  0.69117000  0.68716000  1.0
  C  C125  1  0.81067000  0.31283000  0.30882000  1.0
  C  C126  1  0.21623000  0.65392000  0.65101000  1.0
  C  C127  1  0.14579000  0.58046000  0.57962000  1.0
  C  C128  1  0.78429000  0.34895000  0.34609000  1.0
  C  C129  1  0.85475000  0.42037000  0.41953000  1.0
  C  C130  1  0.91106000  0.35024000  0.34737000  1.0
  C  C131  1  0.98064000  0.42132000  0.42001000  1.0
  C  C132  1  0.08946000  0.65262000  0.64974000  1.0
  C  C133  1  0.01991000  0.57998000  0.57866000  1.0
  C  C134  1  0.04171000  0.53912000  0.53855000  1.0
  C  C135  1  0.95885000  0.46145000  0.46087000  1.0
  Cl  Cl136  1  0.89762000  0.54738000  0.84773000  1.0
  Cl  Cl137  1  0.10285000  0.45045000  0.15004000  1.0
  Cl  Cl138  1  0.89755000  0.85017000  0.54989000  1.0
  Cl  Cl139  1  0.10283000  0.15247000  0.45293000  1.0
  Cl  Cl140  1  0.49694000  0.55129000  0.14908000  1.0
  Cl  Cl141  1  0.49825000  0.44612000  0.84839000  1.0
  Cl  Cl142  1  0.50147000  0.15134000  0.55351000  1.0
  Cl  Cl143  1  0.50280000  0.85065000  0.44834000  1.0
  Cl  Cl144  1  0.20348000  0.54958000  0.55150000  1.0
  Cl  Cl145  1  0.79706000  0.44847000  0.45042000  1.0
  O  O146  1  0.76390000  0.20512000  0.06164000  1.0
  O  O147  1  0.23656000  0.93836000  0.79496000  1.0
  O  O148  1  0.23641000  0.79906000  0.94246000  1.0
  O  O149  1  0.76408000  0.05747000  0.20093000  1.0
  O  O150  1  0.64680000  0.93940000  0.94298000  1.0
  O  O151  1  0.64308000  0.20497000  0.20114000  1.0
  O  O152  1  0.35369000  0.05705000  0.06061000  1.0
  O  O153  1  0.35742000  0.79882000  0.79501000  1.0
  O  O154  1  0.49712000  0.05683000  0.79590000  1.0
  O  O155  1  0.50553000  0.80012000  0.06095000  1.0
  O  O156  1  0.49495000  0.93912000  0.19991000  1.0
  O  O157  1  0.50330000  0.20410000  0.94315000  1.0
  O  O158  1  0.50650000  0.79922000  0.94322000  1.0
  O  O159  1  0.49400000  0.05685000  0.20076000  1.0
  O  O160  1  0.50279000  0.20509000  0.06111000  1.0
  O  O161  1  0.49765000  0.93888000  0.79487000  1.0
  O  O162  1  0.76469000  0.05723000  0.06097000  1.0
  O  O163  1  0.23755000  0.79869000  0.79468000  1.0
  O  O164  1  0.23581000  0.93904000  0.94280000  1.0
  O  O165  1  0.76299000  0.20529000  0.20136000  1.0
  O  O166  1  0.64499000  0.93958000  0.20036000  1.0
  O  O167  1  0.64485000  0.20447000  0.94359000  1.0
  O  O168  1  0.35560000  0.05636000  0.79555000  1.0
  O  O169  1  0.35549000  0.79973000  0.06045000  1.0
  O  O170  1  0.60362000  0.05204000  0.15505000  1.0
  O  O171  1  0.39690000  0.84499000  0.94797000  1.0
  O  O172  1  0.39545000  0.05142000  0.94836000  1.0
  O  O173  1  0.60502000  0.05163000  0.94857000  1.0
  O  O174  1  0.42405000  0.96155000  0.88581000  1.0
  O  O175  1  0.57644000  0.11421000  0.03847000  1.0
  O  O176  1  0.42306000  0.96211000  0.03777000  1.0
  O  O177  1  0.57740000  0.96226000  0.03788000  1.0
