# generated using pymatgen
data_CdPH10C2NClO5
_symmetry_space_group_name_H-M   'P 1'
_cell_length_a   6.87129000
_cell_length_b   7.12034000
_cell_length_c   16.35540000
_cell_angle_alpha   89.99970000
_cell_angle_beta   100.17700000
_cell_angle_gamma   89.99980000
_symmetry_Int_Tables_number   1
_chemical_formula_structural   CdPH10C2NClO5
_chemical_formula_sum   'Cd4 P4 H40 C8 N4 Cl4 O20'
_cell_volume   787.61310695
_cell_formula_units_Z   4
loop_
 _symmetry_equiv_pos_site_id
 _symmetry_equiv_pos_as_xyz
  1  'x, y, z'
loop_
 _atom_site_type_symbol
 _atom_site_label
 _atom_site_symmetry_multiplicity
 _atom_site_fract_x
 _atom_site_fract_y
 _atom_site_fract_z
 _atom_site_occupancy
  Cd  Cd0  1  0.46760000  0.90590000  0.88539000  1.0
  Cd  Cd1  1  0.96760000  0.59409000  0.38539000  1.0
  Cd  Cd2  1  0.53241000  0.09410000  0.11461000  1.0
  Cd  Cd3  1  0.03242000  0.40591000  0.61461000  1.0
  P  P4  1  0.95494000  0.93931000  0.85667000  1.0
  P  P5  1  0.45494000  0.56068000  0.35666000  1.0
  P  P6  1  0.04506000  0.06073000  0.14333000  1.0
  P  P7  1  0.54507000  0.43929000  0.64334000  1.0
  H  H8  1  0.83945000  0.22907000  0.96526000  1.0
  H  H9  1  0.33946000  0.27094000  0.46526000  1.0
  H  H10  1  0.16052000  0.77093000  0.03475000  1.0
  H  H11  1  0.66053000  0.72906000  0.53475000  1.0
  H  H12  1  0.08128000  0.19432000  0.99236000  1.0
  H  H13  1  0.58130000  0.30568000  0.49236000  1.0
  H  H14  1  0.91871000  0.80568000  0.00765000  1.0
  H  H15  1  0.41872000  0.69433000  0.50765000  1.0
  H  H16  1  0.45018000  0.50185000  0.88394000  1.0
  H  H17  1  0.95019000  0.99815000  0.38394000  1.0
  H  H18  1  0.54981000  0.49815000  0.11606000  1.0
  H  H19  1  0.04981000  0.00185000  0.61606000  1.0
  H  H20  1  0.51744000  0.52008000  0.79689000  1.0
  H  H21  1  0.01743000  0.97991000  0.29689000  1.0
  H  H22  1  0.48256000  0.47991000  0.20310000  1.0
  H  H23  1  0.98258000  0.02009000  0.70311000  1.0
  H  H24  1  0.49752000  0.17289000  0.75285000  1.0
  H  H25  1  0.99752000  0.32711000  0.25284000  1.0
  H  H26  1  0.50249000  0.82711000  0.24715000  1.0
  H  H27  1  0.00249000  0.67289000  0.74715000  1.0
  H  H28  1  0.29386000  0.06626000  0.72268000  1.0
  H  H29  1  0.79384000  0.43373000  0.22268000  1.0
  H  H30  1  0.70616000  0.93373000  0.27732000  1.0
  H  H31  1  0.20615000  0.56626000  0.77732000  1.0
  H  H32  1  0.11283000  0.24080000  0.84354000  1.0
  H  H33  1  0.61285000  0.25921000  0.34354000  1.0
  H  H34  1  0.88714000  0.75921000  0.15647000  1.0
  H  H35  1  0.38716000  0.74078000  0.65647000  1.0
  H  H36  1  0.85093000  0.26379000  0.81990000  1.0
  H  H37  1  0.35094000  0.23620000  0.31990000  1.0
  H  H38  1  0.14906000  0.73621000  0.18011000  1.0
  H  H39  1  0.64908000  0.76380000  0.68011000  1.0
  H  H40  1  0.89600000  0.53915000  0.90977000  1.0
  H  H41  1  0.39602000  0.96086000  0.40978000  1.0
  H  H42  1  0.10396000  0.46084000  0.09022000  1.0
  H  H43  1  0.60400000  0.03915000  0.59022000  1.0
  H  H44  1  0.15365000  0.49827000  0.94176000  1.0
  H  H45  1  0.65366000  0.00172000  0.44176000  1.0
  H  H46  1  0.84633000  0.50172000  0.05823000  1.0
  H  H47  1  0.34636000  0.99829000  0.55824000  1.0
  C  C48  1  0.97373000  0.19572000  0.86158000  1.0
  C  C49  1  0.47375000  0.30427000  0.36159000  1.0
  C  C50  1  0.02625000  0.80420000  0.13838000  1.0
  C  C51  1  0.52626000  0.69579000  0.63839000  1.0
  C  C52  1  0.00691000  0.46893000  0.95617000  1.0
  C  C53  1  0.50691000  0.03109000  0.45616000  1.0
  C  C54  1  0.99307000  0.53115000  0.04386000  1.0
  C  C55  1  0.49309000  0.96887000  0.54385000  1.0
  N  N56  1  0.97401000  0.26281000  0.94795000  1.0
  N  N57  1  0.47403000  0.23720000  0.44794000  1.0
  N  N58  1  0.02596000  0.73718000  0.05205000  1.0
  N  N59  1  0.52598000  0.76282000  0.55205000  1.0
  Cl  Cl60  1  0.49068000  0.24841000  0.95685000  1.0
  Cl  Cl61  1  0.99069000  0.25159000  0.45686000  1.0
  Cl  Cl62  1  0.50932000  0.75159000  0.04315000  1.0
  Cl  Cl63  1  0.00932000  0.74840000  0.54314000  1.0
  O  O64  1  0.89896000  0.88873000  0.76436000  1.0
  O  O65  1  0.39894000  0.61125000  0.26436000  1.0
  O  O66  1  0.10108000  0.11128000  0.23566000  1.0
  O  O67  1  0.60108000  0.38873000  0.73566000  1.0
  O  O68  1  0.79761000  0.88474000  0.90942000  1.0
  O  O69  1  0.29760000  0.61527000  0.40942000  1.0
  O  O70  1  0.20243000  0.11526000  0.09056000  1.0
  O  O71  1  0.70243000  0.38474000  0.59057000  1.0
  O  O72  1  0.42712000  0.05170000  0.75792000  1.0
  O  O73  1  0.92710000  0.44829000  0.25792000  1.0
  O  O74  1  0.57289000  0.94830000  0.24208000  1.0
  O  O75  1  0.07289000  0.55170000  0.74208000  1.0
  O  O76  1  0.43971000  0.58831000  0.83606000  1.0
  O  O77  1  0.93971000  0.91169000  0.33605000  1.0
  O  O78  1  0.56028000  0.41169000  0.16394000  1.0
  O  O79  1  0.06029000  0.08830000  0.66394000  1.0
  O  O80  1  0.15459000  0.86070000  0.89952000  1.0
  O  O81  1  0.65460000  0.63930000  0.39951000  1.0
  O  O82  1  0.84535000  0.13931000  0.10047000  1.0
  O  O83  1  0.34538000  0.36069000  0.60048000  1.0
