# generated using pymatgen
data_KPH12C9N2O9
_symmetry_space_group_name_H-M   'P 1'
_cell_length_a   8.09240000
_cell_length_b   10.40310000
_cell_length_c   16.06800000
_cell_angle_alpha   90.00000000
_cell_angle_beta   90.00010000
_cell_angle_gamma   89.99990000
_symmetry_Int_Tables_number   1
_chemical_formula_structural   KPH12C9N2O9
_chemical_formula_sum   'K4 P4 H48 C36 N8 O36'
_cell_volume   1352.70139419
_cell_formula_units_Z   4
loop_
 _symmetry_equiv_pos_site_id
 _symmetry_equiv_pos_as_xyz
  1  'x, y, z'
loop_
 _atom_site_type_symbol
 _atom_site_label
 _atom_site_symmetry_multiplicity
 _atom_site_fract_x
 _atom_site_fract_y
 _atom_site_fract_z
 _atom_site_occupancy
  K  K0  1  0.79060000  0.40479000  0.32814000  1.0
  K  K1  1  0.70940000  0.59522000  0.82815000  1.0
  K  K2  1  0.20940000  0.90479000  0.17185000  1.0
  K  K3  1  0.29060000  0.09521000  0.67185000  1.0
  P  P4  1  0.86793000  0.32548000  0.53979000  1.0
  P  P5  1  0.63207000  0.67452000  0.03979000  1.0
  P  P6  1  0.13207000  0.82548000  0.96021000  1.0
  P  P7  1  0.36793000  0.17452000  0.46021000  1.0
  H  H8  1  0.93401000  0.00888000  0.65593000  1.0
  H  H9  1  0.56599000  0.99112000  0.15593000  1.0
  H  H10  1  0.06599000  0.50888000  0.84407000  1.0
  H  H11  1  0.43401000  0.49112000  0.34407000  1.0
  H  H12  1  0.63300000  0.27284000  0.67192000  1.0
  H  H13  1  0.86700000  0.72716000  0.17192000  1.0
  H  H14  1  0.36700000  0.77283000  0.82808000  1.0
  H  H15  1  0.13300000  0.22717000  0.32808000  1.0
  H  H16  1  0.83345000  0.28569000  0.71753000  1.0
  H  H17  1  0.66655000  0.71431000  0.21753000  1.0
  H  H18  1  0.16655000  0.78569000  0.78247000  1.0
  H  H19  1  0.33345000  0.21431000  0.28247000  1.0
  H  H20  1  0.69092000  0.11446000  0.78533000  1.0
  H  H21  1  0.80909000  0.88554000  0.28533000  1.0
  H  H22  1  0.30909000  0.61446000  0.71467000  1.0
  H  H23  1  0.19091000  0.38554000  0.21467000  1.0
  H  H24  1  0.55313000  0.83366000  0.71606000  1.0
  H  H25  1  0.94687000  0.16634000  0.21606000  1.0
  H  H26  1  0.44687000  0.33366000  0.78394000  1.0
  H  H27  1  0.05313000  0.66634000  0.28394000  1.0
  H  H28  1  0.89378000  0.79944000  0.71673000  1.0
  H  H29  1  0.60622000  0.20056000  0.21673000  1.0
  H  H30  1  0.10622000  0.29944000  0.78327000  1.0
  H  H31  1  0.39378000  0.70056000  0.28327000  1.0
  H  H32  1  0.71972000  0.00544000  0.54476000  1.0
  H  H33  1  0.78028000  0.99456000  0.04476000  1.0
  H  H34  1  0.28028000  0.50544000  0.95524000  1.0
  H  H35  1  0.21972000  0.49456000  0.45524000  1.0
  H  H36  1  0.77534000  0.90903000  0.40612000  1.0
  H  H37  1  0.72466000  0.09097000  0.90612000  1.0
  H  H38  1  0.22466000  0.40903000  0.09388000  1.0
  H  H39  1  0.27534000  0.59097000  0.59388000  1.0
  H  H40  1  0.05759000  0.20181000  0.47842000  1.0
  H  H41  1  0.44241000  0.79819000  0.97842000  1.0
  H  H42  1  0.94241000  0.70181000  0.02158000  1.0
  H  H43  1  0.55759000  0.29819000  0.52158000  1.0
  H  H44  1  0.85823000  0.87598000  0.86040000  1.0
  H  H45  1  0.64178000  0.12402000  0.36040000  1.0
  H  H46  1  0.14177000  0.37598000  0.63960000  1.0
  H  H47  1  0.35822000  0.62402000  0.13960000  1.0
  H  H48  1  0.68458000  0.54411000  0.51689000  1.0
  H  H49  1  0.81542000  0.45589000  0.01689000  1.0
  H  H50  1  0.31542000  0.04411000  0.98311000  1.0
  H  H51  1  0.18459000  0.95589000  0.48311000  1.0
  H  H52  1  0.02287000  0.00975000  0.82625000  1.0
  H  H53  1  0.47713000  0.99025000  0.32624000  1.0
  H  H54  1  0.97713000  0.50975000  0.67375000  1.0
  H  H55  1  0.52287000  0.49025000  0.17376000  1.0
  C  C56  1  0.88842000  0.01105000  0.72068000  1.0
  C  C57  1  0.61158000  0.98895000  0.22068000  1.0
  C  C58  1  0.11158000  0.51105000  0.77932000  1.0
  C  C59  1  0.38842000  0.48895000  0.27932000  1.0
  C  C60  1  0.75329000  0.22455000  0.67887000  1.0
  C  C61  1  0.74671000  0.77545000  0.17887000  1.0
  C  C62  1  0.24671000  0.72455000  0.82113000  1.0
  C  C63  1  0.25329000  0.27545000  0.32113000  1.0
  C  C64  1  0.73414000  0.09669000  0.72148000  1.0
  C  C65  1  0.76586000  0.90331000  0.22148000  1.0
  C  C66  1  0.26586000  0.59668000  0.77852000  1.0
  C  C67  1  0.23414000  0.40331000  0.27852000  1.0
  C  C68  1  0.65956000  0.69603000  0.59785000  1.0
  C  C69  1  0.84044000  0.30397000  0.09785000  1.0
  C  C70  1  0.34044000  0.19603000  0.90215000  1.0
  C  C71  1  0.15956000  0.80397000  0.40215000  1.0
  C  C72  1  0.73069000  0.71142000  0.44820000  1.0
  C  C73  1  0.76930000  0.28858000  0.94820000  1.0
  C  C74  1  0.26930000  0.21142000  0.05180000  1.0
  C  C75  1  0.23070000  0.78858000  0.55180000  1.0
  C  C76  1  0.65404000  0.88649000  0.68597000  1.0
  C  C77  1  0.84596000  0.11351000  0.18597000  1.0
  C  C78  1  0.34596000  0.38649000  0.81403000  1.0
  C  C79  1  0.15404000  0.61351000  0.31403000  1.0
  C  C80  1  0.81322000  0.87833000  0.73825000  1.0
  C  C81  1  0.68678000  0.12167000  0.23825000  1.0
  C  C82  1  0.18678000  0.37833000  0.76175000  1.0
  C  C83  1  0.31322000  0.62167000  0.26175000  1.0
  C  C84  1  0.71462000  0.90214000  0.53422000  1.0
  C  C85  1  0.78538000  0.09787000  0.03422000  1.0
  C  C86  1  0.28538000  0.40214000  0.96578000  1.0
  C  C87  1  0.21462000  0.59786000  0.46578000  1.0
  C  C88  1  0.74363000  0.84833000  0.45861000  1.0
  C  C89  1  0.75637000  0.15168000  0.95860000  1.0
  C  C90  1  0.25637000  0.34832000  0.04140000  1.0
  C  C91  1  0.24363000  0.65168000  0.54140000  1.0
  N  N92  1  0.67455000  0.82967000  0.60234000  1.0
  N  N93  1  0.82544000  0.17033000  0.10234000  1.0
  N  N94  1  0.32545000  0.32967000  0.89766000  1.0
  N  N95  1  0.17456000  0.67033000  0.39766000  1.0
  N  N96  1  0.68615000  0.64471000  0.52030000  1.0
  N  N97  1  0.81385000  0.35529000  0.02030000  1.0
  N  N98  1  0.31385000  0.14471000  0.97970000  1.0
  N  N99  1  0.18615000  0.85529000  0.47970000  1.0
  O  O100  1  0.82592000  0.20335000  0.59814000  1.0
  O  O101  1  0.67408000  0.79665000  0.09814000  1.0
  O  O102  1  0.17408000  0.70335000  0.90186000  1.0
  O  O103  1  0.32592000  0.29665000  0.40185000  1.0
  O  O104  1  0.61240000  0.01861000  0.67816000  1.0
  O  O105  1  0.88760000  0.98139000  0.17816000  1.0
  O  O106  1  0.38760000  0.51861000  0.82184000  1.0
  O  O107  1  0.11240000  0.48139000  0.32184000  1.0
  O  O108  1  0.76220000  0.86074000  0.82207000  1.0
  O  O109  1  0.73780000  0.13926000  0.32207000  1.0
  O  O110  1  0.23780000  0.36074000  0.67793000  1.0
  O  O111  1  0.26220000  0.63926000  0.17793000  1.0
  O  O112  1  0.95626000  0.25865000  0.46440000  1.0
  O  O113  1  0.54374000  0.74135000  0.96440000  1.0
  O  O114  1  0.04374000  0.75865000  0.03560000  1.0
  O  O115  1  0.45626000  0.24135000  0.53560000  1.0
  O  O116  1  0.62553000  0.63043000  0.65996000  1.0
  O  O117  1  0.87447000  0.36957000  0.15996000  1.0
  O  O118  1  0.37447000  0.13043000  0.84004000  1.0
  O  O119  1  0.12553000  0.86957000  0.34004000  1.0
  O  O120  1  0.70698000  0.38237000  0.50619000  1.0
  O  O121  1  0.79303000  0.61763000  0.00619000  1.0
  O  O122  1  0.29302000  0.88237000  0.99381000  1.0
  O  O123  1  0.20698000  0.11763000  0.49381000  1.0
  O  O124  1  0.01984000  0.05424000  0.77121000  1.0
  O  O125  1  0.48016000  0.94576000  0.27121000  1.0
  O  O126  1  0.98016000  0.55424000  0.72879000  1.0
  O  O127  1  0.51984000  0.44576000  0.22879000  1.0
  O  O128  1  0.75524000  0.65113000  0.38198000  1.0
  O  O129  1  0.74476000  0.34887000  0.88198000  1.0
  O  O130  1  0.24476000  0.15113000  0.11802000  1.0
  O  O131  1  0.25524000  0.84887000  0.61802000  1.0
  O  O132  1  0.97726000  0.41885000  0.58655000  1.0
  O  O133  1  0.52275000  0.58115000  0.08655000  1.0
  O  O134  1  0.02275000  0.91885000  0.91345000  1.0
  O  O135  1  0.47725000  0.08115000  0.41345000  1.0
