# generated using pymatgen
data_ZnH16C22N3O4
_symmetry_space_group_name_H-M   'P 1'
_cell_length_a   9.94048000
_cell_length_b   10.82580000
_cell_length_c   15.39070000
_cell_angle_alpha   84.86500000
_cell_angle_beta   89.25850000
_cell_angle_gamma   88.76130000
_symmetry_Int_Tables_number   1
_chemical_formula_structural   ZnH16C22N3O4
_chemical_formula_sum   'Zn2 H32 C44 N6 O8'
_cell_volume   1649.11590277
_cell_formula_units_Z   2
loop_
 _symmetry_equiv_pos_site_id
 _symmetry_equiv_pos_as_xyz
  1  'x, y, z'
loop_
 _atom_site_type_symbol
 _atom_site_label
 _atom_site_symmetry_multiplicity
 _atom_site_fract_x
 _atom_site_fract_y
 _atom_site_fract_z
 _atom_site_occupancy
  Zn  Zn0  1  0.65056000  0.50615000  0.49701000  1.0
  Zn  Zn1  1  0.34942000  0.49386000  0.50303000  1.0
  H  H2  1  0.47472000  0.80639000  0.07207000  1.0
  H  H3  1  0.52535000  0.19361000  0.92795000  1.0
  H  H4  1  0.55164000  0.87307000  0.85064000  1.0
  H  H5  1  0.37784000  0.88839000  0.87066000  1.0
  H  H6  1  0.49374000  0.92969000  0.94954000  1.0
  H  H7  1  0.44841000  0.12692000  0.14936000  1.0
  H  H8  1  0.50632000  0.07032000  0.05047000  1.0
  H  H9  1  0.62221000  0.11165000  0.12935000  1.0
  H  H10  1  0.22148000  0.82647000  0.46182000  1.0
  H  H11  1  0.17200000  0.98227000  0.43057000  1.0
  H  H12  1  0.26605000  0.89593000  0.35686000  1.0
  H  H13  1  0.77854000  0.17352000  0.53817000  1.0
  H  H14  1  0.73396000  0.10411000  0.64314000  1.0
  H  H15  1  0.82801000  0.01773000  0.56946000  1.0
  H  H16  1  0.34913000  0.26118000  0.38997000  1.0
  H  H17  1  0.27408000  0.13002000  0.35148000  1.0
  H  H18  1  0.21374000  0.18916000  0.44856000  1.0
  H  H19  1  0.65088000  0.73881000  0.61003000  1.0
  H  H20  1  0.78626000  0.81083000  0.55144000  1.0
  H  H21  1  0.72593000  0.86998000  0.64853000  1.0
  H  H22  1  0.24052000  0.30463000  0.59746000  1.0
  H  H23  1  0.14527000  0.35875000  0.68536000  1.0
  H  H24  1  0.08281000  0.23878000  0.62651000  1.0
  H  H25  1  0.75943000  0.69533000  0.40251000  1.0
  H  H26  1  0.91712000  0.76124000  0.37350000  1.0
  H  H27  1  0.85477000  0.64126000  0.31464000  1.0
  H  H28  1  0.24778000  0.64917000  0.37651000  1.0
  H  H29  1  0.16759000  0.54963000  0.30979000  1.0
  H  H30  1  0.09467000  0.69763000  0.32498000  1.0
  H  H31  1  0.75231000  0.35066000  0.62348000  1.0
  H  H32  1  0.90541000  0.30260000  0.67516000  1.0
  H  H33  1  0.83210000  0.45051000  0.69014000  1.0
  C  C34  1  0.47305000  0.73582000  0.49103000  1.0
  C  C35  1  0.52694000  0.26418000  0.50900000  1.0
  C  C36  1  0.52554000  0.48774000  0.32874000  1.0
  C  C37  1  0.47444000  0.51228000  0.67129000  1.0
  C  C38  1  0.50942000  0.39904000  0.81896000  1.0
  C  C39  1  0.49058000  0.60096000  0.18105000  1.0
  C  C40  1  0.48403000  0.51164000  0.76936000  1.0
  C  C41  1  0.51598000  0.48836000  0.23066000  1.0
  C  C42  1  0.46519000  0.62141000  0.81113000  1.0
  C  C43  1  0.53485000  0.37859000  0.18889000  1.0
  C  C44  1  0.47860000  0.62206000  0.90330000  1.0
  C  C45  1  0.52145000  0.37795000  0.09672000  1.0
  C  C46  1  0.49715000  0.50461000  0.95351000  1.0
  C  C47  1  0.50292000  0.49539000  0.04650000  1.0
  C  C48  1  0.51072000  0.39308000  0.91137000  1.0
  C  C49  1  0.48933000  0.60691000  0.08864000  1.0
  C  C50  1  0.47501000  0.73408000  0.94802000  1.0
  C  C51  1  0.52503000  0.26592000  0.05199000  1.0
  C  C52  1  0.47813000  0.72253000  0.03759000  1.0
  C  C53  1  0.52192000  0.27747000  0.96243000  1.0
  C  C54  1  0.38183000  0.95619000  0.46298000  1.0
  C  C55  1  0.61817000  0.04381000  0.53704000  1.0
  C  C56  1  0.40339000  0.08449000  0.46086000  1.0
  C  C57  1  0.59661000  0.91552000  0.53916000  1.0
  C  C58  1  0.51898000  0.12756000  0.50046000  1.0
  C  C59  1  0.48103000  0.87244000  0.49955000  1.0
  C  C60  1  0.06778000  0.41909000  0.55833000  1.0
  C  C61  1  0.93220000  0.58094000  0.44169000  1.0
  C  C62  1  0.07225000  0.55992000  0.43372000  1.0
  C  C63  1  0.92774000  0.44012000  0.56631000  1.0
  C  C64  1  0.53205000  0.28838000  0.77681000  1.0
  C  C65  1  0.46794000  0.71161000  0.22321000  1.0
  C  C66  1  0.42383000  0.72836000  0.75631000  1.0
  C  C67  1  0.57618000  0.27164000  0.24371000  1.0
  C  C68  1  0.47415000  0.86262000  0.90209000  1.0
  C  C69  1  0.52590000  0.13739000  0.09792000  1.0
  C  C70  1  0.25305000  0.91279000  0.42603000  1.0
  C  C71  1  0.74696000  0.08721000  0.57398000  1.0
  C  C72  1  0.30551000  0.17135000  0.41038000  1.0
  C  C73  1  0.69450000  0.82865000  0.58963000  1.0
  C  C74  1  0.13869000  0.32564000  0.62011000  1.0
  C  C75  1  0.86128000  0.67435000  0.37989000  1.0
  C  C76  1  0.14937000  0.61833000  0.35743000  1.0
  C  C77  1  0.85060000  0.38174000  0.64260000  1.0
  N  N78  1  0.86222000  0.51844000  0.50693000  1.0
  N  N79  1  0.13777000  0.48159000  0.49309000  1.0
  N  N80  1  0.55286000  0.19601000  0.74450000  1.0
  N  N81  1  0.44719000  0.80399000  0.25551000  1.0
  N  N82  1  0.38337000  0.81059000  0.70870000  1.0
  N  N83  1  0.61664000  0.18939000  0.29134000  1.0
  O  O84  1  0.58382000  0.68135000  0.47283000  1.0
  O  O85  1  0.41618000  0.31865000  0.52720000  1.0
  O  O86  1  0.63857000  0.32027000  0.49963000  1.0
  O  O87  1  0.36143000  0.67972000  0.50041000  1.0
  O  O88  1  0.64225000  0.49636000  0.35818000  1.0
  O  O89  1  0.35773000  0.50362000  0.64186000  1.0
  O  O90  1  0.58591000  0.51938000  0.63025000  1.0
  O  O91  1  0.41408000  0.48064000  0.36977000  1.0
