# generated using pymatgen
data_CoH22C30(NO)6
_symmetry_space_group_name_H-M   'P 1'
_cell_length_a   7.38841000
_cell_length_b   8.62971000
_cell_length_c   9.90051000
_cell_angle_alpha   103.58940000
_cell_angle_beta   92.20920000
_cell_angle_gamma   92.85540000
_symmetry_Int_Tables_number   1
_chemical_formula_structural   CoH22C30(NO)6
_chemical_formula_sum   'Co1 H22 C30 N6 O6'
_cell_volume   611.99918187
_cell_formula_units_Z   1
loop_
 _symmetry_equiv_pos_site_id
 _symmetry_equiv_pos_as_xyz
  1  'x, y, z'
loop_
 _atom_site_type_symbol
 _atom_site_label
 _atom_site_symmetry_multiplicity
 _atom_site_fract_x
 _atom_site_fract_y
 _atom_site_fract_z
 _atom_site_occupancy
  Co  Co0  1  0.50000000  0.50000000  0.00000000  1.0
  H  H1  1  0.26434000  0.25627000  0.37728000  1.0
  H  H2  1  0.73566000  0.74373000  0.62272000  1.0
  H  H3  1  0.99186000  0.85786000  0.75122000  1.0
  H  H4  1  0.00815000  0.14215000  0.24878000  1.0
  H  H5  1  0.81338000  0.89505000  0.16561000  1.0
  H  H6  1  0.18662000  0.10496000  0.83439000  1.0
  H  H7  1  0.36503000  0.75267000  0.87619000  1.0
  H  H8  1  0.63497000  0.24732000  0.12380000  1.0
  H  H9  1  0.25554000  0.77352000  0.63986000  1.0
  H  H10  1  0.74446000  0.22648000  0.36014000  1.0
  H  H11  1  0.21380000  0.52236000  0.44784000  1.0
  H  H12  1  0.78620000  0.47763000  0.55216000  1.0
  H  H13  1  0.37071000  0.25999000  0.74895000  1.0
  H  H14  1  0.62929000  0.74001000  0.25105000  1.0
  H  H15  1  0.09012000  0.77771000  0.40453000  1.0
  H  H16  1  0.90989000  0.22228000  0.59548000  1.0
  H  H17  1  0.46273000  0.10157000  0.26635000  1.0
  H  H18  1  0.53727000  0.89843000  0.73365000  1.0
  H  H19  1  0.51048000  0.88341000  0.06143000  1.0
  H  H20  1  0.48951000  0.11659000  0.93856000  1.0
  H  H21  1  0.14976000  0.57156000  0.19032000  1.0
  H  H22  1  0.85025000  0.42844000  0.80968000  1.0
  C  C23  1  0.99571000  0.92045000  0.86038000  1.0
  C  C24  1  0.00430000  0.07955000  0.13962000  1.0
  C  C25  1  0.89364000  0.94094000  0.09233000  1.0
  C  C26  1  0.10636000  0.05906000  0.90767000  1.0
  C  C27  1  0.88757000  0.86008000  0.95163000  1.0
  C  C28  1  0.11243000  0.13993000  0.04837000  1.0
  C  C29  1  0.76277000  0.71465000  0.89663000  1.0
  C  C30  1  0.23723000  0.28535000  0.10337000  1.0
  C  C31  1  0.34272000  0.64695000  0.79151000  1.0
  C  C32  1  0.65728000  0.35305000  0.20849000  1.0
  C  C33  1  0.28030000  0.65703000  0.65967000  1.0
  C  C34  1  0.71969000  0.34297000  0.34033000  1.0
  C  C35  1  0.25498000  0.51895000  0.55388000  1.0
  C  C36  1  0.74502000  0.48105000  0.44611000  1.0
  C  C37  1  0.28680000  0.37184000  0.58502000  1.0
  C  C38  1  0.71320000  0.62816000  0.41498000  1.0
  C  C39  1  0.34642000  0.37128000  0.72101000  1.0
  C  C40  1  0.65358000  0.62872000  0.27898000  1.0
  C  C41  1  0.27377000  0.95661000  0.35418000  1.0
  C  C42  1  0.72623000  0.04339000  0.64582000  1.0
  C  C43  1  0.18444000  0.80519000  0.33045000  1.0
  C  C44  1  0.81556000  0.19481000  0.66955000  1.0
  C  C45  1  0.38916000  0.98635000  0.25340000  1.0
  C  C46  1  0.61084000  0.01365000  0.74661000  1.0
  C  C47  1  0.41444000  0.86432000  0.13758000  1.0
  C  C48  1  0.58556000  0.13569000  0.86242000  1.0
  C  C49  1  0.21614000  0.69059000  0.21034000  1.0
  C  C50  1  0.78386000  0.30940000  0.78966000  1.0
  C  C51  1  0.25332000  0.07827000  0.48703000  1.0
  C  C52  1  0.74667000  0.92173000  0.51296000  1.0
  N  N53  1  0.33370000  0.71669000  0.11612000  1.0
  N  N54  1  0.66630000  0.28331000  0.88388000  1.0
  N  N55  1  0.26971000  0.23365000  0.47633000  1.0
  N  N56  1  0.73028000  0.76636000  0.52368000  1.0
  N  N57  1  0.37995000  0.50673000  0.82098000  1.0
  N  N58  1  0.62005000  0.49327000  0.17903000  1.0
  O  O59  1  0.68698000  0.65898000  0.99234000  1.0
  O  O60  1  0.31302000  0.34103000  0.00767000  1.0
  O  O61  1  0.73854000  0.65876000  0.76710000  1.0
  O  O62  1  0.26147000  0.34124000  0.23290000  1.0
  O  O63  1  0.22746000  0.03633000  0.59690000  1.0
  O  O64  1  0.77254000  0.96367000  0.40310000  1.0
