# generated using pymatgen
data_KH8C10N3
_symmetry_space_group_name_H-M   'P 1'
_cell_length_a   6.70016000
_cell_length_b   6.75897000
_cell_length_c   20.55270000
_cell_angle_alpha   89.99970000
_cell_angle_beta   89.99990000
_cell_angle_gamma   90.00000000
_symmetry_Int_Tables_number   1
_chemical_formula_structural   KH8C10N3
_chemical_formula_sum   'K4 H32 C40 N12'
_cell_volume   930.75328062
_cell_formula_units_Z   4
loop_
 _symmetry_equiv_pos_site_id
 _symmetry_equiv_pos_as_xyz
  1  'x, y, z'
loop_
 _atom_site_type_symbol
 _atom_site_label
 _atom_site_symmetry_multiplicity
 _atom_site_fract_x
 _atom_site_fract_y
 _atom_site_fract_z
 _atom_site_occupancy
  K  K0  1  0.04488000  0.85306000  0.25000000  1.0
  K  K1  1  0.45511000  0.35304000  0.25000000  1.0
  K  K2  1  0.54489000  0.64694000  0.75000000  1.0
  K  K3  1  0.95511000  0.14695000  0.75000000  1.0
  H  H4  1  0.77292000  0.59008000  0.35415000  1.0
  H  H5  1  0.72708000  0.09009000  0.35414000  1.0
  H  H6  1  0.27292000  0.90991000  0.85415000  1.0
  H  H7  1  0.77292000  0.59009000  0.14586000  1.0
  H  H8  1  0.22707000  0.40991000  0.64586000  1.0
  H  H9  1  0.27292000  0.90991000  0.64586000  1.0
  H  H10  1  0.72707000  0.09009000  0.14585000  1.0
  H  H11  1  0.22708000  0.40991000  0.85414000  1.0
  H  H12  1  0.83165000  0.47620000  0.46704000  1.0
  H  H13  1  0.66836000  0.97620000  0.46704000  1.0
  H  H14  1  0.33164000  0.02380000  0.96704000  1.0
  H  H15  1  0.83164000  0.47620000  0.03296000  1.0
  H  H16  1  0.16836000  0.52380000  0.53296000  1.0
  H  H17  1  0.33164000  0.02380000  0.53296000  1.0
  H  H18  1  0.66836000  0.97620000  0.03296000  1.0
  H  H19  1  0.16836000  0.52380000  0.96704000  1.0
  H  H20  1  0.06392000  0.18452000  0.48596000  1.0
  H  H21  1  0.43609000  0.68452000  0.48596000  1.0
  H  H22  1  0.56390000  0.31548000  0.98596000  1.0
  H  H23  1  0.06390000  0.18452000  0.01404000  1.0
  H  H24  1  0.93609000  0.81548000  0.51404000  1.0
  H  H25  1  0.56390000  0.31548000  0.51404000  1.0
  H  H26  1  0.43610000  0.68452000  0.01404000  1.0
  H  H27  1  0.93610000  0.81548000  0.98596000  1.0
  H  H28  1  0.23111000  0.03628000  0.38921000  1.0
  H  H29  1  0.26890000  0.53628000  0.38921000  1.0
  H  H30  1  0.73110000  0.46372000  0.88921000  1.0
  H  H31  1  0.23110000  0.03628000  0.11079000  1.0
  H  H32  1  0.76890000  0.96372000  0.61079000  1.0
  H  H33  1  0.73110000  0.46372000  0.61079000  1.0
  H  H34  1  0.26890000  0.53628000  0.11079000  1.0
  H  H35  1  0.76890000  0.96372000  0.88921000  1.0
  C  C36  1  0.96570000  0.37000000  0.30959000  1.0
  C  C37  1  0.53430000  0.87000000  0.30958000  1.0
  C  C38  1  0.46569000  0.13000000  0.80959000  1.0
  C  C39  1  0.96570000  0.37000000  0.19041000  1.0
  C  C40  1  0.03430000  0.62999000  0.69042000  1.0
  C  C41  1  0.46569000  0.12999000  0.69042000  1.0
  C  C42  1  0.53430000  0.87000000  0.19041000  1.0
  C  C43  1  0.03430000  0.63000000  0.80959000  1.0
  C  C44  1  0.87227000  0.46600000  0.36378000  1.0
  C  C45  1  0.62774000  0.96601000  0.36378000  1.0
  C  C46  1  0.37226000  0.03399000  0.86378000  1.0
  C  C47  1  0.87226000  0.46601000  0.13622000  1.0
  C  C48  1  0.12773000  0.53399000  0.63622000  1.0
  C  C49  1  0.37226000  0.03399000  0.63622000  1.0
  C  C50  1  0.62774000  0.96601000  0.13622000  1.0
  C  C51  1  0.12774000  0.53399000  0.86378000  1.0
  C  C52  1  0.90512000  0.40163000  0.42655000  1.0
  C  C53  1  0.59489000  0.90162000  0.42655000  1.0
  C  C54  1  0.40511000  0.09838000  0.92655000  1.0
  C  C55  1  0.90511000  0.40162000  0.07345000  1.0
  C  C56  1  0.09489000  0.59838000  0.57345000  1.0
  C  C57  1  0.40511000  0.09837000  0.57345000  1.0
  C  C58  1  0.59489000  0.90162000  0.07345000  1.0
  C  C59  1  0.09489000  0.59838000  0.92655000  1.0
  C  C60  1  0.03451000  0.24128000  0.43733000  1.0
  C  C61  1  0.46550000  0.74128000  0.43733000  1.0
  C  C62  1  0.53449000  0.25872000  0.93733000  1.0
  C  C63  1  0.03449000  0.24128000  0.06267000  1.0
  C  C64  1  0.96550000  0.75872000  0.56267000  1.0
  C  C65  1  0.53449000  0.25872000  0.56267000  1.0
  C  C66  1  0.46551000  0.74128000  0.06267000  1.0
  C  C67  1  0.96551000  0.75872000  0.93733000  1.0
  C  C68  1  0.12597000  0.15856000  0.38307000  1.0
  C  C69  1  0.37404000  0.65855000  0.38307000  1.0
  C  C70  1  0.62596000  0.34144000  0.88307000  1.0
  C  C71  1  0.12596000  0.15855000  0.11693000  1.0
  C  C72  1  0.87404000  0.84145000  0.61693000  1.0
  C  C73  1  0.62596000  0.34145000  0.61693000  1.0
  C  C74  1  0.37405000  0.65856000  0.11693000  1.0
  C  C75  1  0.87404000  0.84145000  0.88307000  1.0
  N  N76  1  0.91314000  0.44083000  0.25000000  1.0
  N  N77  1  0.58686000  0.94083000  0.25000000  1.0
  N  N78  1  0.41314000  0.05917000  0.75000000  1.0
  N  N79  1  0.08686000  0.55916000  0.75000000  1.0
  N  N80  1  0.09648000  0.21751000  0.32104000  1.0
  N  N81  1  0.40352000  0.71752000  0.32104000  1.0
  N  N82  1  0.59647000  0.28248000  0.82104000  1.0
  N  N83  1  0.09648000  0.21752000  0.17896000  1.0
  N  N84  1  0.90352000  0.78248000  0.67896000  1.0
  N  N85  1  0.59647000  0.28248000  0.67896000  1.0
  N  N86  1  0.40352000  0.71752000  0.17896000  1.0
  N  N87  1  0.90352000  0.78248000  0.82104000  1.0
