# generated using pymatgen
data_CdH8C12S2(BrN2)2
_symmetry_space_group_name_H-M   'P 1'
_cell_length_a   8.20109000
_cell_length_b   9.11785000
_cell_length_c   10.93750000
_cell_angle_alpha   89.99890000
_cell_angle_beta   78.64400000
_cell_angle_gamma   89.99830000
_symmetry_Int_Tables_number   1
_chemical_formula_structural   CdH8C12S2(BrN2)2
_chemical_formula_sum   'Cd2 H16 C24 S4 Br4 N8'
_cell_volume   801.85424770
_cell_formula_units_Z   2
loop_
 _symmetry_equiv_pos_site_id
 _symmetry_equiv_pos_as_xyz
  1  'x, y, z'
loop_
 _atom_site_type_symbol
 _atom_site_label
 _atom_site_symmetry_multiplicity
 _atom_site_fract_x
 _atom_site_fract_y
 _atom_site_fract_z
 _atom_site_occupancy
  Cd  Cd0  1  0.00000000  0.99999000  0.99999000  1.0
  Cd  Cd1  1  0.50000000  0.50000000  1.00000000  1.0
  H  H2  1  0.03357000  0.75936000  0.77824000  1.0
  H  H3  1  0.53356000  0.74062000  0.77825000  1.0
  H  H4  1  0.96643000  0.24064000  0.22175000  1.0
  H  H5  1  0.46643000  0.25936000  0.22176000  1.0
  H  H6  1  0.95682000  0.72627000  0.56892000  1.0
  H  H7  1  0.45685000  0.77376000  0.56891000  1.0
  H  H8  1  0.04318000  0.27373000  0.43107000  1.0
  H  H9  1  0.54318000  0.22625000  0.43108000  1.0
  H  H10  1  0.64163000  0.10927000  0.65133000  1.0
  H  H11  1  0.14161000  0.39074000  0.65134000  1.0
  H  H12  1  0.35837000  0.89076000  0.34866000  1.0
  H  H13  1  0.85838000  0.60926000  0.34865000  1.0
  H  H14  1  0.73293000  0.12614000  0.85522000  1.0
  H  H15  1  0.23292000  0.37387000  0.85523000  1.0
  H  H16  1  0.26709000  0.87388000  0.14476000  1.0
  H  H17  1  0.76707000  0.62613000  0.14476000  1.0
  C  C18  1  0.61238000  0.84322000  0.07191000  1.0
  C  C19  1  0.11238000  0.65677000  0.07193000  1.0
  C  C20  1  0.38760000  0.15676000  0.92808000  1.0
  C  C21  1  0.88762000  0.34322000  0.92808000  1.0
  C  C22  1  0.94885000  0.83521000  0.74526000  1.0
  C  C23  1  0.44883000  0.66479000  0.74530000  1.0
  C  C24  1  0.05113000  0.16479000  0.25474000  1.0
  C  C25  1  0.55116000  0.33521000  0.25472000  1.0
  C  C26  1  0.90496000  0.81645000  0.62946000  1.0
  C  C27  1  0.40501000  0.68356000  0.62946000  1.0
  C  C28  1  0.09504000  0.18356000  0.37054000  1.0
  C  C29  1  0.59503000  0.31644000  0.37054000  1.0
  C  C30  1  0.79709000  0.91878000  0.59343000  1.0
  C  C31  1  0.29708000  0.58124000  0.59345000  1.0
  C  C32  1  0.20289000  0.08122000  0.40657000  1.0
  C  C33  1  0.70291000  0.41878000  0.40656000  1.0
  C  C34  1  0.72970000  0.03027000  0.67499000  1.0
  C  C35  1  0.22971000  0.46972000  0.67501000  1.0
  C  C36  1  0.27030000  0.96974000  0.32501000  1.0
  C  C37  1  0.77030000  0.53026000  0.32499000  1.0
  C  C38  1  0.78087000  0.04008000  0.78866000  1.0
  C  C39  1  0.28085000  0.45994000  0.78869000  1.0
  C  C40  1  0.21913000  0.95991000  0.21134000  1.0
  C  C41  1  0.71914000  0.54007000  0.21132000  1.0
  S  S42  1  0.68463000  0.97564000  0.14631000  1.0
  S  S43  1  0.18464000  0.52436000  0.14633000  1.0
  S  S44  1  0.31537000  0.02435000  0.85369000  1.0
  S  S45  1  0.81538000  0.47563000  0.85369000  1.0
  Br  Br46  1  0.74539000  0.91155000  0.43104000  1.0
  Br  Br47  1  0.24535000  0.58846000  0.43105000  1.0
  Br  Br48  1  0.25465000  0.08846000  0.56894000  1.0
  Br  Br49  1  0.75460000  0.41157000  0.56896000  1.0
  N  N50  1  0.55647000  0.74862000  0.01837000  1.0
  N  N51  1  0.05645000  0.75137000  0.01839000  1.0
  N  N52  1  0.44352000  0.25137000  0.98162000  1.0
  N  N53  1  0.94355000  0.24861000  0.98163000  1.0
  N  N54  1  0.89060000  0.94641000  0.82210000  1.0
  N  N55  1  0.39062000  0.55357000  0.82212000  1.0
  N  N56  1  0.10941000  0.05359000  0.17791000  1.0
  N  N57  1  0.60940000  0.44641000  0.17789000  1.0
