# generated using pymatgen
data_ZnH9C15N2Cl3O4
_symmetry_space_group_name_H-M   'P 1'
_cell_length_a   9.00063000
_cell_length_b   11.54380000
_cell_length_c   16.93220000
_cell_angle_alpha   109.60500000
_cell_angle_beta   89.99990000
_cell_angle_gamma   89.99990000
_symmetry_Int_Tables_number   1
_chemical_formula_structural   ZnH9C15N2Cl3O4
_chemical_formula_sum   'Zn4 H36 C60 N8 Cl12 O16'
_cell_volume   1657.29181308
_cell_formula_units_Z   4
loop_
 _symmetry_equiv_pos_site_id
 _symmetry_equiv_pos_as_xyz
  1  'x, y, z'
loop_
 _atom_site_type_symbol
 _atom_site_label
 _atom_site_symmetry_multiplicity
 _atom_site_fract_x
 _atom_site_fract_y
 _atom_site_fract_z
 _atom_site_occupancy
  Zn  Zn0  1  0.74484000  0.80023000  0.82300000  1.0
  Zn  Zn1  1  0.75517000  0.30023000  0.32300000  1.0
  Zn  Zn2  1  0.25517000  0.19977000  0.17700000  1.0
  Zn  Zn3  1  0.24483000  0.69977000  0.67700000  1.0
  H  H4  1  0.27295000  0.57099000  0.87892000  1.0
  H  H5  1  0.22706000  0.07099000  0.37892000  1.0
  H  H6  1  0.72706000  0.42901000  0.12108000  1.0
  H  H7  1  0.77294000  0.92901000  0.62108000  1.0
  H  H8  1  0.29058000  0.53588000  0.01600000  1.0
  H  H9  1  0.20942000  0.03588000  0.51600000  1.0
  H  H10  1  0.70942000  0.46412000  0.98400000  1.0
  H  H11  1  0.79058000  0.96412000  0.48400000  1.0
  H  H12  1  0.47252000  0.65673000  0.12318000  1.0
  H  H13  1  0.02748000  0.15673000  0.62318000  1.0
  H  H14  1  0.52748000  0.34327000  0.87682000  1.0
  H  H15  1  0.97252000  0.84327000  0.37682000  1.0
  H  H16  1  0.63789000  0.80760000  0.09194000  1.0
  H  H17  1  0.86211000  0.30760000  0.59194000  1.0
  H  H18  1  0.36211000  0.19240000  0.90806000  1.0
  H  H19  1  0.13788000  0.69240000  0.40806000  1.0
  H  H20  1  0.66513000  0.98703000  0.06671000  1.0
  H  H21  1  0.83487000  0.48703000  0.56671000  1.0
  H  H22  1  0.33487000  0.01297000  0.93329000  1.0
  H  H23  1  0.16513000  0.51297000  0.43328000  1.0
  H  H24  1  0.83761000  0.16714000  0.09041000  1.0
  H  H25  1  0.66239000  0.66714000  0.59041000  1.0
  H  H26  1  0.16239000  0.83286000  0.90959000  1.0
  H  H27  1  0.33761000  0.33286000  0.40959000  1.0
  H  H28  1  0.02245000  0.27872000  0.03248000  1.0
  H  H29  1  0.47755000  0.77872000  0.53248000  1.0
  H  H30  1  0.97755000  0.72128000  0.96752000  1.0
  H  H31  1  0.52245000  0.22128000  0.46752000  1.0
  H  H32  1  0.08985000  0.18973000  0.87856000  1.0
  H  H33  1  0.41015000  0.68973000  0.37856000  1.0
  H  H34  1  0.91015000  0.81027000  0.12144000  1.0
  H  H35  1  0.58985000  0.31027000  0.62144000  1.0
  H  H36  1  0.97613000  0.99098000  0.79236000  1.0
  H  H37  1  0.52387000  0.49098000  0.29236000  1.0
  H  H38  1  0.02387000  0.00902000  0.20764000  1.0
  H  H39  1  0.47613000  0.50902000  0.70764000  1.0
  C  C40  1  0.42705000  0.72084000  0.82244000  1.0
  C  C41  1  0.07295000  0.22084000  0.32244000  1.0
  C  C42  1  0.57296000  0.27916000  0.17756000  1.0
  C  C43  1  0.92705000  0.77916000  0.67756000  1.0
  C  C44  1  0.44830000  0.70390000  0.90594000  1.0
  C  C45  1  0.05171000  0.20390000  0.40594000  1.0
  C  C46  1  0.55171000  0.29610000  0.09406000  1.0
  C  C47  1  0.94829000  0.79610000  0.59406000  1.0
  C  C48  1  0.35455000  0.62044000  0.92548000  1.0
  C  C49  1  0.14545000  0.12044000  0.42548000  1.0
  C  C50  1  0.64545000  0.37956000  0.07452000  1.0
  C  C51  1  0.85454000  0.87956000  0.57452000  1.0
  C  C52  1  0.36333000  0.60228000  0.00251000  1.0
  C  C53  1  0.13667000  0.10228000  0.50252000  1.0
  C  C54  1  0.63667000  0.39772000  0.99748000  1.0
  C  C55  1  0.86333000  0.89772000  0.49749000  1.0
  C  C56  1  0.46518000  0.66995000  0.06257000  1.0
  C  C57  1  0.03482000  0.16994000  0.56257000  1.0
  C  C58  1  0.53482000  0.33005000  0.93743000  1.0
  C  C59  1  0.96518000  0.83006000  0.43743000  1.0
  C  C60  1  0.55833000  0.75446000  0.04523000  1.0
  C  C61  1  0.94167000  0.25446000  0.54523000  1.0
  C  C62  1  0.44167000  0.24554000  0.95477000  1.0
  C  C63  1  0.05833000  0.74554000  0.45477000  1.0
  C  C64  1  0.55166000  0.77166000  0.96698000  1.0
  C  C65  1  0.94834000  0.27165000  0.46698000  1.0
  C  C66  1  0.44834000  0.22834000  0.03302000  1.0
  C  C67  1  0.05166000  0.72835000  0.53302000  1.0
  C  C68  1  0.69919000  0.95217000  0.00057000  1.0
  C  C69  1  0.80081000  0.45217000  0.50057000  1.0
  C  C70  1  0.30080000  0.04783000  0.99943000  1.0
  C  C71  1  0.19920000  0.54783000  0.49943000  1.0
  C  C72  1  0.80827000  0.02225000  0.97106000  1.0
  C  C73  1  0.69173000  0.52225000  0.47105000  1.0
  C  C74  1  0.19173000  0.97775000  0.02894000  1.0
  C  C75  1  0.30827000  0.47775000  0.52895000  1.0
  C  C76  1  0.86924000  0.13174000  0.02439000  1.0
  C  C77  1  0.63076000  0.63174000  0.52439000  1.0
  C  C78  1  0.13076000  0.86826000  0.97561000  1.0
  C  C79  1  0.36924000  0.36826000  0.47561000  1.0
  C  C80  1  0.97200000  0.19408000  0.99151000  1.0
  C  C81  1  0.52800000  0.69407000  0.49151000  1.0
  C  C82  1  0.02800000  0.80592000  0.00849000  1.0
  C  C83  1  0.47200000  0.30592000  0.50849000  1.0
  C  C84  1  0.01003000  0.14497000  0.90710000  1.0
  C  C85  1  0.48997000  0.64497000  0.40711000  1.0
  C  C86  1  0.98997000  0.85503000  0.09290000  1.0
  C  C87  1  0.51003000  0.35503000  0.59290000  1.0
  C  C88  1  0.94582000  0.03377000  0.85798000  1.0
  C  C89  1  0.55418000  0.53377000  0.35798000  1.0
  C  C90  1  0.05418000  0.96623000  0.14202000  1.0
  C  C91  1  0.44582000  0.46623000  0.64202000  1.0
  C  C92  1  0.84088000  0.54853000  0.77673000  1.0
  C  C93  1  0.65912000  0.04853000  0.27674000  1.0
  C  C94  1  0.15912000  0.45147000  0.22326000  1.0
  C  C95  1  0.34088000  0.95147000  0.72327000  1.0
  C  C96  1  0.93485000  0.44308000  0.79357000  1.0
  C  C97  1  0.56515000  0.94308000  0.29358000  1.0
  C  C98  1  0.06515000  0.55692000  0.20642000  1.0
  C  C99  1  0.43484000  0.05692000  0.70643000  1.0
  N  N100  1  0.64912000  0.85190000  0.94701000  1.0
  N  N101  1  0.85088000  0.35190000  0.44701000  1.0
  N  N102  1  0.35088000  0.14810000  0.05299000  1.0
  N  N103  1  0.14912000  0.64810000  0.55299000  1.0
  N  N104  1  0.84741000  0.97384000  0.88900000  1.0
  N  N105  1  0.65259000  0.47384000  0.38900000  1.0
  N  N106  1  0.15259000  0.02616000  0.11100000  1.0
  N  N107  1  0.34741000  0.52616000  0.61100000  1.0
  Cl  Cl108  1  0.98539000  0.47480000  0.90066000  1.0
  Cl  Cl109  1  0.51462000  0.97480000  0.40066000  1.0
  Cl  Cl110  1  0.01461000  0.52520000  0.09934000  1.0
  Cl  Cl111  1  0.48539000  0.02520000  0.59934000  1.0
  Cl  Cl112  1  0.10123000  0.42715000  0.73356000  1.0
  Cl  Cl113  1  0.39877000  0.92715000  0.23356000  1.0
  Cl  Cl114  1  0.89877000  0.57285000  0.26644000  1.0
  Cl  Cl115  1  0.60123000  0.07285000  0.76644000  1.0
  Cl  Cl116  1  0.83099000  0.30305000  0.76115000  1.0
  Cl  Cl117  1  0.66901000  0.80305000  0.26116000  1.0
  Cl  Cl118  1  0.16901000  0.69695000  0.23885000  1.0
  Cl  Cl119  1  0.33099000  0.19695000  0.73885000  1.0
  O  O120  1  0.53013000  0.75741000  0.78525000  1.0
  O  O121  1  0.96987000  0.25740000  0.28524000  1.0
  O  O122  1  0.46987000  0.24259000  0.21476000  1.0
  O  O123  1  0.03013000  0.74259000  0.71476000  1.0
  O  O124  1  0.29742000  0.69287000  0.79085000  1.0
  O  O125  1  0.20258000  0.19287000  0.29084000  1.0
  O  O126  1  0.70258000  0.30713000  0.20915000  1.0
  O  O127  1  0.79742000  0.80713000  0.70916000  1.0
  O  O128  1  0.83899000  0.64965000  0.83801000  1.0
  O  O129  1  0.66101000  0.14965000  0.33801000  1.0
  O  O130  1  0.16101000  0.35035000  0.16199000  1.0
  O  O131  1  0.33899000  0.85035000  0.66199000  1.0
  O  O132  1  0.78370000  0.52109000  0.70632000  1.0
  O  O133  1  0.71630000  0.02108000  0.20632000  1.0
  O  O134  1  0.21630000  0.47891000  0.29368000  1.0
  O  O135  1  0.28370000  0.97891000  0.79368000  1.0
