# generated using pymatgen
data_CuH5C4N9
_symmetry_space_group_name_H-M   'P 1'
_cell_length_a   5.88681000
_cell_length_b   7.21778000
_cell_length_c   19.36370000
_cell_angle_alpha   90.00000000
_cell_angle_beta   89.99990000
_cell_angle_gamma   100.21200000
_symmetry_Int_Tables_number   1
_chemical_formula_structural   CuH5C4N9
_chemical_formula_sum   'Cu4 H20 C16 N36'
_cell_volume   809.72407449
_cell_formula_units_Z   4
loop_
 _symmetry_equiv_pos_site_id
 _symmetry_equiv_pos_as_xyz
  1  'x, y, z'
loop_
 _atom_site_type_symbol
 _atom_site_label
 _atom_site_symmetry_multiplicity
 _atom_site_fract_x
 _atom_site_fract_y
 _atom_site_fract_z
 _atom_site_occupancy
  Cu  Cu0  1  0.55914000  0.37468000  0.71897000  1.0
  Cu  Cu1  1  0.94086000  0.62532000  0.21897000  1.0
  Cu  Cu2  1  0.44087000  0.62533000  0.28103000  1.0
  Cu  Cu3  1  0.05914000  0.37467000  0.78103000  1.0
  H  H4  1  0.52676000  0.19718000  0.42561000  1.0
  H  H5  1  0.97323000  0.80281000  0.92560000  1.0
  H  H6  1  0.47323000  0.80282000  0.57440000  1.0
  H  H7  1  0.02677000  0.19719000  0.07439000  1.0
  H  H8  1  0.17279000  0.09591000  0.49873000  1.0
  H  H9  1  0.32721000  0.90409000  0.99873000  1.0
  H  H10  1  0.82721000  0.90409000  0.50127000  1.0
  H  H11  1  0.67279000  0.09591000  0.00127000  1.0
  H  H12  1  0.20183000  0.19098000  0.62496000  1.0
  H  H13  1  0.29817000  0.80901000  0.12496000  1.0
  H  H14  1  0.79818000  0.80902000  0.37504000  1.0
  H  H15  1  0.70183000  0.19098000  0.87504000  1.0
  H  H16  1  0.89839000  0.57422000  0.64251000  1.0
  H  H17  1  0.60161000  0.42578000  0.14251000  1.0
  H  H18  1  0.10161000  0.42577000  0.35749000  1.0
  H  H19  1  0.39839000  0.57421000  0.85749000  1.0
  H  H20  1  0.03344000  0.56752000  0.56103000  1.0
  H  H21  1  0.46654000  0.43247000  0.06102000  1.0
  H  H22  1  0.96655000  0.43248000  0.43898000  1.0
  H  H23  1  0.53346000  0.56752000  0.93897000  1.0
  C  C24  1  0.71393000  0.40212000  0.57092000  1.0
  C  C25  1  0.78609000  0.59789000  0.07091000  1.0
  C  C26  1  0.28609000  0.59788000  0.42909000  1.0
  C  C27  1  0.21392000  0.40211000  0.92908000  1.0
  C  C28  1  0.52250000  0.23998000  0.47961000  1.0
  C  C29  1  0.97749000  0.76003000  0.97961000  1.0
  C  C30  1  0.47750000  0.76002000  0.52039000  1.0
  C  C31  1  0.02252000  0.23998000  0.02038000  1.0
  C  C32  1  0.32659000  0.18209000  0.52006000  1.0
  C  C33  1  0.17340000  0.81790000  0.02006000  1.0
  C  C34  1  0.67340000  0.81790000  0.47994000  1.0
  C  C35  1  0.82660000  0.18209000  0.97994000  1.0
  C  C36  1  0.34193000  0.23664000  0.58869000  1.0
  C  C37  1  0.15806000  0.76336000  0.08868000  1.0
  C  C38  1  0.65805000  0.76336000  0.41132000  1.0
  C  C39  1  0.84194000  0.23664000  0.91131000  1.0
  N  N40  1  0.53234000  0.34516000  0.61468000  1.0
  N  N41  1  0.96766000  0.65485000  0.11468000  1.0
  N  N42  1  0.46765000  0.65484000  0.38532000  1.0
  N  N43  1  0.03233000  0.34515000  0.88532000  1.0
  N  N44  1  0.71350000  0.34785000  0.50373000  1.0
  N  N45  1  0.78650000  0.65216000  0.00372000  1.0
  N  N46  1  0.28651000  0.65216000  0.49627000  1.0
  N  N47  1  0.21351000  0.34785000  0.99627000  1.0
  N  N48  1  0.90297000  0.51425000  0.59510000  1.0
  N  N49  1  0.59703000  0.48576000  0.09510000  1.0
  N  N50  1  0.09703000  0.48575000  0.40490000  1.0
  N  N51  1  0.40299000  0.51425000  0.90489000  1.0
  N  N52  1  0.77559000  0.19273000  0.73081000  1.0
  N  N53  1  0.72442000  0.80727000  0.23081000  1.0
  N  N54  1  0.22441000  0.80728000  0.26919000  1.0
  N  N55  1  0.27558000  0.19272000  0.76919000  1.0
  N  N56  1  0.79795000  0.07491000  0.68803000  1.0
  N  N57  1  0.70205000  0.92510000  0.18803000  1.0
  N  N58  1  0.20205000  0.92510000  0.31197000  1.0
  N  N59  1  0.29796000  0.07491000  0.81197000  1.0
  N  N60  1  0.82224000  0.96017000  0.64784000  1.0
  N  N61  1  0.67776000  0.03982000  0.14784000  1.0
  N  N62  1  0.17775000  0.03982000  0.35216000  1.0
  N  N63  1  0.32225000  0.96019000  0.85216000  1.0
  N  N64  1  0.34771000  0.55648000  0.73998000  1.0
  N  N65  1  0.15228000  0.44351000  0.23998000  1.0
  N  N66  1  0.65228000  0.44352000  0.26002000  1.0
  N  N67  1  0.84772000  0.55648000  0.76002000  1.0
  N  N68  1  0.32544000  0.69499000  0.70677000  1.0
  N  N69  1  0.17456000  0.30501000  0.20677000  1.0
  N  N70  1  0.67456000  0.30501000  0.29323000  1.0
  N  N71  1  0.82544000  0.69499000  0.79323000  1.0
  N  N72  1  0.29751000  0.82837000  0.67679000  1.0
  N  N73  1  0.20248000  0.17163000  0.17679000  1.0
  N  N74  1  0.70248000  0.17162000  0.32321000  1.0
  N  N75  1  0.79752000  0.82838000  0.82321000  1.0
