# generated using pymatgen
data_ZnH12C18N2O3
_symmetry_space_group_name_H-M   'P 1'
_cell_length_a   4.85500000
_cell_length_b   19.21850000
_cell_length_c   19.22450741
_cell_angle_alpha   89.08751160
_cell_angle_beta   82.79452347
_cell_angle_gamma   82.73700000
_symmetry_Int_Tables_number   1
_chemical_formula_structural   ZnH12C18N2O3
_chemical_formula_sum   'Zn4 H48 C72 N8 O12'
_cell_volume   1765.31362470
_cell_formula_units_Z   4
loop_
 _symmetry_equiv_pos_site_id
 _symmetry_equiv_pos_as_xyz
  1  'x, y, z'
loop_
 _atom_site_type_symbol
 _atom_site_label
 _atom_site_symmetry_multiplicity
 _atom_site_fract_x
 _atom_site_fract_y
 _atom_site_fract_z
 _atom_site_occupancy
  Zn  Zn0  1  0.62328000  0.43915000  0.98598000  1.0
  Zn  Zn1  1  0.04859000  0.56076000  0.01408000  1.0
  Zn  Zn2  1  0.39071000  0.98597000  0.56079000  1.0
  Zn  Zn3  1  0.93712000  0.01396000  0.43911000  1.0
  H  H4  1  0.02171000  0.33477000  0.66911000  1.0
  H  H5  1  0.08393000  0.49741000  0.86965000  1.0
  H  H6  1  0.42213000  0.55683000  0.79270000  1.0
  H  H7  1  0.32972000  0.40246000  0.59231000  1.0
  H  H8  1  0.65213000  0.49343000  0.57702000  1.0
  H  H9  1  0.49455000  0.30260000  0.91058000  1.0
  H  H10  1  0.70349000  0.56899000  0.67679000  1.0
  H  H11  1  0.60998000  0.30109000  0.67412000  1.0
  H  H12  1  0.53898000  0.18964000  0.61729000  1.0
  H  H13  1  0.68209000  0.19100000  0.86920000  1.0
  H  H14  1  0.57377000  0.08219000  0.81388000  1.0
  H  H15  1  0.53729000  0.56424000  0.95069000  1.0
  H  H16  1  0.02525000  0.66506000  0.33108000  1.0
  H  H17  1  0.44929000  0.50241000  0.13053000  1.0
  H  H18  1  0.77101000  0.44304000  0.20754000  1.0
  H  H19  1  0.32508000  0.59752000  0.40780000  1.0
  H  H20  1  0.72457000  0.50686000  0.42303000  1.0
  H  H21  1  0.70731000  0.69740000  0.08938000  1.0
  H  H22  1  0.95033000  0.43114000  0.32332000  1.0
  H  H23  1  0.58512000  0.69898000  0.32591000  1.0
  H  H24  1  0.34576000  0.81047000  0.38260000  1.0
  H  H25  1  0.74091000  0.80895000  0.13073000  1.0
  H  H26  1  0.46871000  0.91777000  0.18596000  1.0
  H  H27  1  0.05257000  0.43566000  0.04927000  1.0
  H  H28  1  0.30951000  0.66887000  0.66520000  1.0
  H  H29  1  0.04724000  0.86939000  0.50246000  1.0
  H  H30  1  0.78591000  0.79252000  0.44307000  1.0
  H  H31  1  0.07651000  0.59203000  0.59762000  1.0
  H  H32  1  0.76831000  0.57693000  0.50677000  1.0
  H  H33  1  0.59427000  0.91063000  0.69749000  1.0
  H  H34  1  0.61868000  0.67672000  0.43103000  1.0
  H  H35  1  0.71706000  0.67418000  0.69897000  1.0
  H  H36  1  0.84462000  0.61731000  0.81043000  1.0
  H  H37  1  0.44767000  0.86916000  0.80910000  1.0
  H  H38  1  0.61146000  0.81386000  0.91789000  1.0
  H  H39  1  0.51160000  0.95059000  0.43575000  1.0
  H  H40  1  0.64497000  0.33114000  0.33479000  1.0
  H  H41  1  0.41959000  0.13056000  0.49726000  1.0
  H  H42  1  0.02259000  0.20767000  0.55669000  1.0
  H  H43  1  0.26913000  0.40808000  0.40240000  1.0
  H  H44  1  0.85499000  0.42336000  0.49307000  1.0
  H  H45  1  0.20305000  0.08932000  0.30254000  1.0
  H  H46  1  0.72831000  0.32360000  0.56865000  1.0
  H  H47  1  0.09148000  0.32577000  0.30112000  1.0
  H  H48  1  0.27321000  0.38260000  0.18968000  1.0
  H  H49  1  0.12523000  0.13086000  0.19096000  1.0
  H  H50  1  0.34126000  0.18615000  0.08212000  1.0
  H  H51  1  0.89843000  0.04934000  0.56415000  1.0
  C  C52  1  0.65409000  0.25228000  0.77435000  1.0
  C  C53  1  0.02865000  0.37020000  0.71225000  1.0
  C  C54  1  0.88277000  0.36345000  0.77772000  1.0
  C  C55  1  0.21866000  0.47117000  0.75990000  1.0
  C  C56  1  0.19727000  0.42527000  0.70242000  1.0
  C  C57  1  0.06397000  0.46316000  0.82631000  1.0
  C  C58  1  0.89698000  0.40984000  0.83426000  1.0
  C  C59  1  0.40298000  0.52338000  0.74866000  1.0
  C  C60  1  0.35358000  0.43567000  0.63619000  1.0
  C  C61  1  0.52994000  0.48665000  0.62761000  1.0
  C  C62  1  0.62609000  0.33236000  0.87483000  1.0
  C  C63  1  0.55719000  0.53028000  0.68442000  1.0
  C  C64  1  0.61261000  0.25239000  0.70369000  1.0
  C  C65  1  0.55393000  0.12909000  0.71231000  1.0
  C  C66  1  0.56820000  0.19049000  0.67255000  1.0
  C  C67  1  0.64340000  0.19101000  0.81454000  1.0
  C  C68  1  0.58761000  0.13028000  0.78360000  1.0
  C  C69  1  0.49558000  0.06212000  0.68110000  1.0
  C  C70  1  0.68007000  0.74769000  0.22562000  1.0
  C  C71  1  0.11046000  0.62965000  0.28792000  1.0
  C  C72  1  0.02295000  0.63643000  0.22244000  1.0
  C  C73  1  0.44880000  0.52864000  0.24030000  1.0
  C  C74  1  0.32447000  0.57457000  0.29775000  1.0
  C  C75  1  0.35198000  0.53663000  0.17390000  1.0
  C  C76  1  0.13983000  0.59000000  0.16593000  1.0
  C  C77  1  0.67457000  0.47653000  0.25154000  1.0
  C  C78  1  0.42587000  0.56429000  0.36394000  1.0
  C  C79  1  0.64536000  0.51348000  0.37249000  1.0
  C  C80  1  0.83262000  0.66759000  0.12520000  1.0
  C  C81  1  0.77258000  0.46978000  0.31572000  1.0
  C  C82  1  0.56838000  0.74765000  0.29629000  1.0
  C  C83  1  0.39477000  0.87094000  0.28756000  1.0
  C  C84  1  0.43096000  0.80956000  0.32736000  1.0
  C  C85  1  0.64792000  0.80894000  0.18540000  1.0
  C  C86  1  0.50050000  0.86970000  0.21628000  1.0
  C  C87  1  0.23851000  0.93792000  0.31875000  1.0
  C  C88  1  0.57166000  0.77434000  0.74777000  1.0
  C  C89  1  0.25946000  0.71200000  0.62973000  1.0
  C  C90  1  0.33987000  0.77753000  0.63652000  1.0
  C  C91  1  0.02195000  0.75963000  0.52873000  1.0
  C  C92  1  0.10046000  0.70213000  0.57466000  1.0
  C  C93  1  0.11050000  0.82605000  0.53673000  1.0
  C  C94  1  0.26928000  0.83406000  0.59010000  1.0
  C  C95  1  0.84867000  0.74845000  0.47654000  1.0
  C  C96  1  0.00929000  0.63593000  0.56436000  1.0
  C  C97  1  0.84096000  0.62745000  0.51344000  1.0
  C  C98  1  0.49886000  0.87480000  0.66767000  1.0
  C  C99  1  0.75771000  0.68427000  0.46970000  1.0
  C  C100  1  0.68452000  0.70372000  0.74768000  1.0
  C  C101  1  0.73388000  0.71233000  0.87099000  1.0
  C  C102  1  0.75994000  0.67258000  0.80958000  1.0
  C  C103  1  0.54162000  0.81452000  0.80904000  1.0
  C  C104  1  0.62846000  0.78360000  0.86977000  1.0
  C  C105  1  0.82291000  0.68120000  0.93803000  1.0
  C  C106  1  0.09404000  0.22565000  0.25227000  1.0
  C  C107  1  0.60265000  0.28801000  0.37024000  1.0
  C  C108  1  0.75501000  0.22246000  0.36348000  1.0
  C  C109  1  0.31186000  0.24046000  0.47118000  1.0
  C  C110  1  0.37913000  0.29794000  0.42530000  1.0
  C  C111  1  0.47413000  0.17394000  0.46312000  1.0
  C  C112  1  0.69427000  0.16592000  0.40981000  1.0
  C  C113  1  0.07527000  0.25173000  0.52331000  1.0
  C  C114  1  0.21216000  0.36421000  0.43561000  1.0
  C  C115  1  0.98446000  0.37278000  0.48644000  1.0
  C  C116  1  0.04206000  0.12514000  0.33232000  1.0
  C  C117  1  0.91369000  0.31599000  0.53010000  1.0
  C  C118  1  0.13642000  0.29626000  0.25240000  1.0
  C  C119  1  0.31642000  0.28767000  0.12904000  1.0
  C  C120  1  0.24226000  0.32739000  0.19050000  1.0
  C  C121  1  0.16444000  0.18550000  0.19099000  1.0
  C  C122  1  0.28039000  0.21643000  0.13023000  1.0
  C  C123  1  0.44136000  0.31879000  0.06205000  1.0
  N  N124  1  0.73170000  0.38837000  0.89350000  1.0
  N  N125  1  0.70928000  0.31439000  0.80622000  1.0
  N  N126  1  0.01263000  0.61152000  0.10661000  1.0
  N  N127  1  0.82916000  0.68555000  0.19383000  1.0
  N  N128  1  0.37488000  0.89341000  0.61160000  1.0
  N  N129  1  0.48451000  0.80614000  0.68564000  1.0
  N  N130  1  0.88045000  0.10654000  0.38831000  1.0
  N  N131  1  0.97717000  0.19383000  0.31441000  1.0
  O  O132  1  0.90065000  0.47139000  0.03806000  1.0
  O  O133  1  0.54909000  0.05768000  0.61266000  1.0
  O  O134  1  0.40138000  0.01622000  0.72024000  1.0
  O  O135  1  0.40988000  0.52854000  0.96188000  1.0
  O  O136  1  0.21900000  0.94233000  0.38720000  1.0
  O  O137  1  0.13786000  0.98387000  0.27958000  1.0
  O  O138  1  0.06132000  0.03804000  0.52844000  1.0
  O  O139  1  0.83803000  0.61274000  0.94251000  1.0
  O  O140  1  0.87716000  0.72045000  0.98396000  1.0
  O  O141  1  0.62783000  0.96185000  0.47145000  1.0
  O  O142  1  0.39296000  0.38726000  0.05757000  1.0
  O  O143  1  0.58052000  0.27952000  0.01612000  1.0
