# generated using pymatgen
data_NiP2H20C20(NO2)4
_symmetry_space_group_name_H-M   'P 1'
_cell_length_a   11.15450000
_cell_length_b   11.15600000
_cell_length_c   21.95940000
_cell_angle_alpha   95.49440000
_cell_angle_beta   95.48660000
_cell_angle_gamma   94.06860000
_symmetry_Int_Tables_number   1
_chemical_formula_structural   NiP2H20C20(NO2)4
_chemical_formula_sum   'Ni4 P8 H80 C80 N16 O32'
_cell_volume   2698.73941634
_cell_formula_units_Z   4
loop_
 _symmetry_equiv_pos_site_id
 _symmetry_equiv_pos_as_xyz
  1  'x, y, z'
loop_
 _atom_site_type_symbol
 _atom_site_label
 _atom_site_symmetry_multiplicity
 _atom_site_fract_x
 _atom_site_fract_y
 _atom_site_fract_z
 _atom_site_occupancy
  Ni  Ni0  1  0.59680000  0.40322000  0.75003000  1.0
  Ni  Ni1  1  0.40321000  0.59677000  0.24998000  1.0
  Ni  Ni2  1  0.99999000  0.00002000  0.00000000  1.0
  Ni  Ni3  1  0.00001000  0.99998000  0.49999000  1.0
  P  P4  1  0.62444000  0.43344000  0.92491000  1.0
  P  P5  1  0.43342000  0.62451000  0.42485000  1.0
  P  P6  1  0.37554000  0.56656000  0.07509000  1.0
  P  P7  1  0.56659000  0.37547000  0.57515000  1.0
  P  P8  1  0.97784000  0.67070000  0.98363000  1.0
  P  P9  1  0.67072000  0.97780000  0.48366000  1.0
  P  P10  1  0.02216000  0.32932000  0.01637000  1.0
  P  P11  1  0.32929000  0.02216000  0.51634000  1.0
  H  H12  1  0.38704000  0.40965000  0.65513000  1.0
  H  H13  1  0.40963000  0.38688000  0.15505000  1.0
  H  H14  1  0.61298000  0.59033000  0.34489000  1.0
  H  H15  1  0.59038000  0.61312000  0.84496000  1.0
  H  H16  1  0.16253000  0.40919000  0.65111000  1.0
  H  H17  1  0.40921000  0.16245000  0.15107000  1.0
  H  H18  1  0.83748000  0.59079000  0.34890000  1.0
  H  H19  1  0.59082000  0.83756000  0.84894000  1.0
  H  H20  1  0.19883000  0.37790000  0.84706000  1.0
  H  H21  1  0.37784000  0.19881000  0.34699000  1.0
  H  H22  1  0.80118000  0.62216000  0.15296000  1.0
  H  H23  1  0.62217000  0.80120000  0.65302000  1.0
  H  H24  1  0.42065000  0.37425000  0.84168000  1.0
  H  H25  1  0.37413000  0.42059000  0.34158000  1.0
  H  H26  1  0.57936000  0.62580000  0.15834000  1.0
  H  H27  1  0.62584000  0.57941000  0.65842000  1.0
  H  H28  1  0.81400000  0.50682000  0.83442000  1.0
  H  H29  1  0.50689000  0.81415000  0.33441000  1.0
  H  H30  1  0.18598000  0.49317000  0.16558000  1.0
  H  H31  1  0.49313000  0.18585000  0.66558000  1.0
  H  H32  1  0.03672000  0.50509000  0.83851000  1.0
  H  H33  1  0.50510000  0.03678000  0.33848000  1.0
  H  H34  1  0.96326000  0.49493000  0.16150000  1.0
  H  H35  1  0.49490000  0.96321000  0.66152000  1.0
  H  H36  1  0.98367000  0.28905000  0.66158000  1.0
  H  H37  1  0.28903000  0.98365000  0.16152000  1.0
  H  H38  1  0.01635000  0.71096000  0.33843000  1.0
  H  H39  1  0.71096000  0.01632000  0.83848000  1.0
  H  H40  1  0.76154000  0.30049000  0.66513000  1.0
  H  H41  1  0.30051000  0.76160000  0.16511000  1.0
  H  H42  1  0.23848000  0.69949000  0.33487000  1.0
  H  H43  1  0.69947000  0.23837000  0.83490000  1.0
  H  H44  1  0.79027000  0.37646000  0.98127000  1.0
  H  H45  1  0.37644000  0.79031000  0.48125000  1.0
  H  H46  1  0.20972000  0.62356000  0.01873000  1.0
  H  H47  1  0.62358000  0.20967000  0.51876000  1.0
  H  H48  1  0.46199000  0.40243000  0.97876000  1.0
  H  H49  1  0.40245000  0.46213000  0.47871000  1.0
  H  H50  1  0.53799000  0.59760000  0.02124000  1.0
  H  H51  1  0.59756000  0.53785000  0.52130000  1.0
  H  H52  1  0.07216000  0.17602000  0.91584000  1.0
  H  H53  1  0.17606000  0.07227000  0.41583000  1.0
  H  H54  1  0.92778000  0.82403000  0.08416000  1.0
  H  H55  1  0.82395000  0.92771000  0.58417000  1.0
  H  H56  1  0.08730000  0.17663000  0.80351000  1.0
  H  H57  1  0.17667000  0.08740000  0.30349000  1.0
  H  H58  1  0.91264000  0.82341000  0.19649000  1.0
  H  H59  1  0.82332000  0.91263000  0.69651000  1.0
  H  H60  1  0.91804000  0.81214000  0.77930000  1.0
  H  H61  1  0.81206000  0.91803000  0.27927000  1.0
  H  H62  1  0.08194000  0.18788000  0.22070000  1.0
  H  H63  1  0.18793000  0.08200000  0.72072000  1.0
  H  H64  1  0.91563000  0.82448000  0.89374000  1.0
  H  H65  1  0.82444000  0.91560000  0.39372000  1.0
  H  H66  1  0.08439000  0.17555000  0.10626000  1.0
  H  H67  1  0.17559000  0.08437000  0.60628000  1.0
  H  H68  1  0.79185000  0.80991000  0.01478000  1.0
  H  H69  1  0.80983000  0.79174000  0.51476000  1.0
  H  H70  1  0.20814000  0.19012000  0.98520000  1.0
  H  H71  1  0.19020000  0.20822000  0.48527000  1.0
  H  H72  1  0.57444000  0.81269000  0.02423000  1.0
  H  H73  1  0.81265000  0.57440000  0.52427000  1.0
  H  H74  1  0.42553000  0.18728000  0.97569000  1.0
  H  H75  1  0.18739000  0.42557000  0.47579000  1.0
  H  H76  1  0.59741000  0.17260000  0.96343000  1.0
  H  H77  1  0.17261000  0.59729000  0.46343000  1.0
  H  H78  1  0.40257000  0.82742000  0.03655000  1.0
  H  H79  1  0.82738000  0.40265000  0.53655000  1.0
  H  H80  1  0.81443000  0.15406000  0.95918000  1.0
  H  H81  1  0.15409000  0.81427000  0.45911000  1.0
  H  H82  1  0.18556000  0.84600000  0.04083000  1.0
  H  H83  1  0.84591000  0.18567000  0.54086000  1.0
  H  H84  1  0.92490000  0.53521000  0.04368000  1.0
  H  H85  1  0.53517000  0.92484000  0.54367000  1.0
  H  H86  1  0.07511000  0.46483000  0.95632000  1.0
  H  H87  1  0.46485000  0.07512000  0.45633000  1.0
  H  H88  1  0.78639000  0.61272000  0.94611000  1.0
  H  H89  1  0.61275000  0.78644000  0.44607000  1.0
  H  H90  1  0.21361000  0.38730000  0.05389000  1.0
  H  H91  1  0.38725000  0.21352000  0.55393000  1.0
  C  C92  1  0.34058000  0.40228000  0.69619000  1.0
  C  C93  1  0.40227000  0.34049000  0.19612000  1.0
  C  C94  1  0.65944000  0.59770000  0.30383000  1.0
  C  C95  1  0.59774000  0.65951000  0.80389000  1.0
  C  C96  1  0.21584000  0.40124000  0.69459000  1.0
  C  C97  1  0.40125000  0.21576000  0.19453000  1.0
  C  C98  1  0.78417000  0.59874000  0.30543000  1.0
  C  C99  1  0.59878000  0.78424000  0.80548000  1.0
  C  C100  1  0.16105000  0.39453000  0.74917000  1.0
  C  C101  1  0.39446000  0.16102000  0.24910000  1.0
  C  C102  1  0.83895000  0.60549000  0.25085000  1.0
  C  C103  1  0.60555000  0.83899000  0.75091000  1.0
  C  C104  1  0.23595000  0.38502000  0.80324000  1.0
  C  C105  1  0.38498000  0.23589000  0.30316000  1.0
  C  C106  1  0.76406000  0.61500000  0.19678000  1.0
  C  C107  1  0.61503000  0.76411000  0.69684000  1.0
  C  C108  1  0.35975000  0.38316000  0.80090000  1.0
  C  C109  1  0.38311000  0.35967000  0.30082000  1.0
  C  C110  1  0.64026000  0.61686000  0.19912000  1.0
  C  C111  1  0.61689000  0.64034000  0.69919000  1.0
  C  C112  1  0.85533000  0.46051000  0.79687000  1.0
  C  C113  1  0.46052000  0.85542000  0.29687000  1.0
  C  C114  1  0.14466000  0.53949000  0.20313000  1.0
  C  C115  1  0.53947000  0.14457000  0.70313000  1.0
  C  C116  1  0.98001000  0.45827000  0.79895000  1.0
  C  C117  1  0.45823000  0.98008000  0.29891000  1.0
  C  C118  1  0.01998000  0.54175000  0.20106000  1.0
  C  C119  1  0.54177000  0.01991000  0.70109000  1.0
  C  C120  1  0.02959000  0.39749000  0.74962000  1.0
  C  C121  1  0.39743000  0.02958000  0.24957000  1.0
  C  C122  1  0.97042000  0.60253000  0.25039000  1.0
  C  C123  1  0.60257000  0.97042000  0.75043000  1.0
  C  C124  1  0.95009000  0.33962000  0.70048000  1.0
  C  C125  1  0.33955000  0.95007000  0.20044000  1.0
  C  C126  1  0.04993000  0.66040000  0.29953000  1.0
  C  C127  1  0.66043000  0.04991000  0.79956000  1.0
  C  C128  1  0.82654000  0.34459000  0.70213000  1.0
  C  C129  1  0.34458000  0.82656000  0.20213000  1.0
  C  C130  1  0.17348000  0.65541000  0.29787000  1.0
  C  C131  1  0.65541000  0.17342000  0.79788000  1.0
  C  C132  1  0.04384000  0.09600000  0.88430000  1.0
  C  C133  1  0.09601000  0.04393000  0.38431000  1.0
  C  C134  1  0.95614000  0.90404000  0.11569000  1.0
  C  C135  1  0.90401000  0.95607000  0.61569000  1.0
  C  C136  1  0.05084000  0.09617000  0.82191000  1.0
  C  C137  1  0.09617000  0.05094000  0.32191000  1.0
  C  C138  1  0.94911000  0.90386000  0.17808000  1.0
  C  C139  1  0.90383000  0.94908000  0.67809000  1.0
  C  C140  1  0.00564000  0.99337000  0.78306000  1.0
  C  C141  1  0.99336000  0.00568000  0.28306000  1.0
  C  C142  1  0.99434000  0.00665000  0.21693000  1.0
  C  C143  1  0.00662000  0.99433000  0.71694000  1.0
  C  C144  1  0.95445000  0.89379000  0.80834000  1.0
  C  C145  1  0.89374000  0.95447000  0.30833000  1.0
  C  C146  1  0.04555000  0.10623000  0.19167000  1.0
  C  C147  1  0.10625000  0.04555000  0.69168000  1.0
  C  C148  1  0.95276000  0.89973000  0.87147000  1.0
  C  C149  1  0.89971000  0.95279000  0.37147000  1.0
  C  C150  1  0.04723000  0.10030000  0.12853000  1.0
  C  C151  1  0.10030000  0.04721000  0.62853000  1.0
  C  C152  1  0.74522000  0.88924000  0.00492000  1.0
  C  C153  1  0.88923000  0.74516000  0.50491000  1.0
  C  C154  1  0.25474000  0.11075000  0.99503000  1.0
  C  C155  1  0.11080000  0.25481000  0.49511000  1.0
  C  C156  1  0.62235000  0.89158000  0.00955000  1.0
  C  C157  1  0.89156000  0.62232000  0.50959000  1.0
  C  C158  1  0.37760000  0.10839000  0.99035000  1.0
  C  C159  1  0.10849000  0.37765000  0.49045000  1.0
  C  C160  1  0.56447000  0.99526000  0.99633000  1.0
  C  C161  1  0.99528000  0.56446000  0.49640000  1.0
  C  C162  1  0.43550000  0.00471000  0.00356000  1.0
  C  C163  1  0.00475000  0.43551000  0.50363000  1.0
  C  C164  1  0.63464000  0.08976000  0.97587000  1.0
  C  C165  1  0.08978000  0.63457000  0.47589000  1.0
  C  C166  1  0.36535000  0.91025000  0.02407000  1.0
  C  C167  1  0.91023000  0.36539000  0.52412000  1.0
  C  C168  1  0.75714000  0.08050000  0.97280000  1.0
  C  C169  1  0.08052000  0.75705000  0.47279000  1.0
  C  C170  1  0.24286000  0.91953000  0.02717000  1.0
  C  C171  1  0.91949000  0.24290000  0.52720000  1.0
  N  N172  1  0.78010000  0.40491000  0.74939000  1.0
  N  N173  1  0.40492000  0.78014000  0.24938000  1.0
  N  N174  1  0.21991000  0.59509000  0.25061000  1.0
  N  N175  1  0.59508000  0.21984000  0.75062000  1.0
  N  N176  1  0.41176000  0.39390000  0.74853000  1.0
  N  N177  1  0.39382000  0.41168000  0.24845000  1.0
  N  N178  1  0.58825000  0.60611000  0.25149000  1.0
  N  N179  1  0.60619000  0.58832000  0.75156000  1.0
  N  N180  1  0.99773000  0.99895000  0.90857000  1.0
  N  N181  1  0.99893000  0.99779000  0.40857000  1.0
  N  N182  1  0.00226000  0.00109000  0.09144000  1.0
  N  N183  1  0.00109000  0.00219000  0.59143000  1.0
  N  N184  1  0.81299000  0.98331000  0.98865000  1.0
  N  N185  1  0.98332000  0.81292000  0.48863000  1.0
  N  N186  1  0.18698000  0.01671000  0.01132000  1.0
  N  N187  1  0.01670000  0.18704000  0.51137000  1.0
  O  O188  1  0.61330000  0.42393000  0.85523000  1.0
  O  O189  1  0.42382000  0.61336000  0.35517000  1.0
  O  O190  1  0.38670000  0.57604000  0.14477000  1.0
  O  O191  1  0.57618000  0.38661000  0.64483000  1.0
  O  O192  1  0.50154000  0.36590000  0.94347000  1.0
  O  O193  1  0.36585000  0.50162000  0.44342000  1.0
  O  O194  1  0.49842000  0.63414000  0.05653000  1.0
  O  O195  1  0.63416000  0.49836000  0.55659000  1.0
  O  O196  1  0.72874000  0.34995000  0.94481000  1.0
  O  O197  1  0.34990000  0.72876000  0.44477000  1.0
  O  O198  1  0.27121000  0.65004000  0.05522000  1.0
  O  O199  1  0.65011000  0.27123000  0.55523000  1.0
  O  O200  1  0.64486000  0.55919000  0.96002000  1.0
  O  O201  1  0.55918000  0.64489000  0.45995000  1.0
  O  O202  1  0.35514000  0.44081000  0.03998000  1.0
  O  O203  1  0.44083000  0.35509000  0.54005000  1.0
  O  O204  1  0.00164000  0.80640000  0.99244000  1.0
  O  O205  1  0.80641000  0.00161000  0.49246000  1.0
  O  O206  1  0.99836000  0.19363000  0.00756000  1.0
  O  O207  1  0.19360000  0.99838000  0.50754000  1.0
  O  O208  1  0.93158000  0.62845000  0.04530000  1.0
  O  O209  1  0.62843000  0.93145000  0.54531000  1.0
  O  O210  1  0.06841000  0.37160000  0.95470000  1.0
  O  O211  1  0.37158000  0.06851000  0.45469000  1.0
  O  O212  1  0.86789000  0.63202000  0.93101000  1.0
  O  O213  1  0.63199000  0.86797000  0.43101000  1.0
  O  O214  1  0.13211000  0.36802000  0.06899000  1.0
  O  O215  1  0.36802000  0.13200000  0.56899000  1.0
  O  O216  1  0.08639000  0.60319000  0.96588000  1.0
  O  O217  1  0.60319000  0.08636000  0.46594000  1.0
  O  O218  1  0.91361000  0.39685000  0.03412000  1.0
  O  O219  1  0.39682000  0.91361000  0.53406000  1.0
