# generated using pymatgen
data_Cd2H7C10N5O7
_symmetry_space_group_name_H-M   'P 1'
_cell_length_a   6.87487000
_cell_length_b   10.37424910
_cell_length_c   11.44260000
_cell_angle_alpha   101.30510533
_cell_angle_beta   104.90920000
_cell_angle_gamma   108.55690134
_symmetry_Int_Tables_number   1
_chemical_formula_structural   Cd2H7C10N5O7
_chemical_formula_sum   'Cd4 H14 C20 N10 O14'
_cell_volume   712.39454211
_cell_formula_units_Z   2
loop_
 _symmetry_equiv_pos_site_id
 _symmetry_equiv_pos_as_xyz
  1  'x, y, z'
loop_
 _atom_site_type_symbol
 _atom_site_label
 _atom_site_symmetry_multiplicity
 _atom_site_fract_x
 _atom_site_fract_y
 _atom_site_fract_z
 _atom_site_occupancy
  Cd  Cd0  1  0.45713000  0.57273000  0.36631000  1.0
  Cd  Cd1  1  0.54288000  0.42727000  0.63369000  1.0
  Cd  Cd2  1  0.95767000  0.31887000  0.07735000  1.0
  Cd  Cd3  1  0.04234000  0.68113000  0.92265000  1.0
  H  H4  1  0.76019000  0.98788000  0.04626000  1.0
  H  H5  1  0.23981000  0.01213000  0.95374000  1.0
  H  H6  1  0.77751000  0.01922000  0.91853000  1.0
  H  H7  1  0.22249000  0.98078000  0.08147000  1.0
  H  H8  1  0.28271000  0.96991000  0.33467000  1.0
  H  H9  1  0.71729000  0.03010000  0.66533000  1.0
  H  H10  1  0.15994000  0.95245000  0.68214000  1.0
  H  H11  1  0.84006000  0.04755000  0.31786000  1.0
  H  H12  1  0.95446000  0.56455000  0.38151000  1.0
  H  H13  1  0.04554000  0.43545000  0.61849000  1.0
  H  H14  1  0.36996000  0.18148000  0.83767000  1.0
  H  H15  1  0.63004000  0.81852000  0.16233000  1.0
  H  H16  1  0.14474000  0.18147000  0.86934000  1.0
  H  H17  1  0.85526000  0.81854000  0.13066000  1.0
  C  C18  1  0.12425000  0.75801000  0.34617000  1.0
  C  C19  1  0.87575000  0.24200000  0.65383000  1.0
  C  C20  1  0.21767000  0.90697000  0.39176000  1.0
  C  C21  1  0.78233000  0.09303000  0.60824000  1.0
  C  C22  1  0.23763000  0.97740000  0.51436000  1.0
  C  C23  1  0.76237000  0.02260000  0.48565000  1.0
  C  C24  1  0.15107000  0.89867000  0.58805000  1.0
  C  C25  1  0.84893000  0.10133000  0.41195000  1.0
  C  C26  1  0.04126000  0.75067000  0.53848000  1.0
  C  C27  1  0.95874000  0.24933000  0.46152000  1.0
  C  C28  1  0.03537000  0.67991000  0.41967000  1.0
  C  C29  1  0.96463000  0.32009000  0.58033000  1.0
  C  C30  1  0.11453000  0.68269000  0.21788000  1.0
  C  C31  1  0.88548000  0.31731000  0.78212000  1.0
  C  C32  1  0.34626000  0.13620000  0.56409000  1.0
  C  C33  1  0.65374000  0.86379000  0.43591000  1.0
  C  C34  1  0.91807000  0.67062000  0.60934000  1.0
  C  C35  1  0.08191000  0.32936000  0.39064000  1.0
  C  C36  1  0.41283000  0.28270000  0.02046000  1.0
  C  C37  1  0.58717000  0.71730000  0.97954000  1.0
  N  N38  1  0.31872000  0.33744000  0.09610000  1.0
  N  N39  1  0.68128000  0.66256000  0.90390000  1.0
  N  N40  1  0.48685000  0.42826000  0.20153000  1.0
  N  N41  1  0.51315000  0.57174000  0.79847000  1.0
  N  N42  1  0.67230000  0.43066000  0.19237000  1.0
  N  N43  1  0.32770000  0.56934000  0.80763000  1.0
  N  N44  1  0.63262000  0.33965000  0.07921000  1.0
  N  N45  1  0.36739000  0.66035000  0.92078000  1.0
  N  N46  1  0.29609000  0.17803000  0.90561000  1.0
  N  N47  1  0.70391000  0.82197000  0.09438000  1.0
  O  O48  1  0.78723000  0.06397000  0.00390000  1.0
  O  O49  1  0.21276000  0.93603000  0.99610000  1.0
  O  O50  1  0.14653000  0.56661000  0.20174000  1.0
  O  O51  1  0.85348000  0.43340000  0.79826000  1.0
  O  O52  1  0.07542000  0.74144000  0.13168000  1.0
  O  O53  1  0.92459000  0.25857000  0.86832000  1.0
  O  O54  1  0.40282000  0.20478000  0.48885000  1.0
  O  O55  1  0.59718000  0.79522000  0.51116000  1.0
  O  O56  1  0.38062000  0.20004000  0.67935000  1.0
  O  O57  1  0.61941000  0.79996000  0.32066000  1.0
  O  O58  1  0.98077000  0.72027000  0.72798000  1.0
  O  O59  1  0.01921000  0.27972000  0.27203000  1.0
  O  O60  1  0.74846000  0.55521000  0.54027000  1.0
  O  O61  1  0.25153000  0.44478000  0.45972000  1.0
