# generated using pymatgen
data_ZnH30C45N4(O2F3)2
_symmetry_space_group_name_H-M   'P 1'
_cell_length_a   13.90890000
_cell_length_b   13.90890000
_cell_length_c   28.98510000
_cell_angle_alpha   80.11950000
_cell_angle_beta   80.11940000
_cell_angle_gamma   63.14600000
_symmetry_Int_Tables_number   1
_chemical_formula_structural   ZnH30C45N4(O2F3)2
_chemical_formula_sum   'Zn4 H120 C180 N16 O16 F24'
_cell_volume   4900.16895071
_cell_formula_units_Z   4
loop_
 _symmetry_equiv_pos_site_id
 _symmetry_equiv_pos_as_xyz
  1  'x, y, z'
loop_
 _atom_site_type_symbol
 _atom_site_label
 _atom_site_symmetry_multiplicity
 _atom_site_fract_x
 _atom_site_fract_y
 _atom_site_fract_z
 _atom_site_occupancy
  Zn  Zn0  1  0.54465000  0.90837000  0.72053000  1.0
  Zn  Zn1  1  0.09164000  0.45535000  0.77947000  1.0
  Zn  Zn2  1  0.45535000  0.09163000  0.27947000  1.0
  Zn  Zn3  1  0.90836000  0.54465000  0.22053000  1.0
  H  H4  1  0.38735000  0.16146000  0.70073000  1.0
  H  H5  1  0.83854000  0.61266000  0.79927000  1.0
  H  H6  1  0.61265000  0.83854000  0.29927000  1.0
  H  H7  1  0.16146000  0.38735000  0.20073000  1.0
  H  H8  1  0.68968000  0.85817000  0.61835000  1.0
  H  H9  1  0.14184000  0.31032000  0.88164000  1.0
  H  H10  1  0.31031000  0.14183000  0.38165000  1.0
  H  H11  1  0.85816000  0.68969000  0.11836000  1.0
  H  H12  1  0.78689000  0.90179000  0.54268000  1.0
  H  H13  1  0.09822000  0.21311000  0.95732000  1.0
  H  H14  1  0.21311000  0.09821000  0.45732000  1.0
  H  H15  1  0.90178000  0.78689000  0.04268000  1.0
  H  H16  1  0.73242000  0.09146000  0.50739000  1.0
  H  H17  1  0.90855000  0.26758000  0.99261000  1.0
  H  H18  1  0.26758000  0.90854000  0.49261000  1.0
  H  H19  1  0.09144000  0.73242000  0.00739000  1.0
  H  H20  1  0.58158000  0.24462000  0.54593000  1.0
  H  H21  1  0.75539000  0.41842000  0.95407000  1.0
  H  H22  1  0.41843000  0.75538000  0.45407000  1.0
  H  H23  1  0.24461000  0.58158000  0.04593000  1.0
  H  H24  1  0.32814000  0.34575000  0.64156000  1.0
  H  H25  1  0.65425000  0.67186000  0.85844000  1.0
  H  H26  1  0.67186000  0.65425000  0.35844000  1.0
  H  H27  1  0.34574000  0.32815000  0.14156000  1.0
  H  H28  1  0.43216000  0.34984000  0.59678000  1.0
  H  H29  1  0.65016000  0.56784000  0.90322000  1.0
  H  H30  1  0.56784000  0.65016000  0.40322000  1.0
  H  H31  1  0.34984000  0.43217000  0.09678000  1.0
  H  H32  1  0.30011000  0.47367000  0.69210000  1.0
  H  H33  1  0.52633000  0.69989000  0.80790000  1.0
  H  H34  1  0.69989000  0.52633000  0.30790000  1.0
  H  H35  1  0.47366000  0.30011000  0.19210000  1.0
  H  H36  1  0.36811000  0.53737000  0.74805000  1.0
  H  H37  1  0.46263000  0.63188000  0.75195000  1.0
  H  H38  1  0.63188000  0.46263000  0.25195000  1.0
  H  H39  1  0.53737000  0.36812000  0.24805000  1.0
  H  H40  1  0.69351000  0.30059000  0.71071000  1.0
  H  H41  1  0.69941000  0.30649000  0.78929000  1.0
  H  H42  1  0.30649000  0.69941000  0.28929000  1.0
  H  H43  1  0.30059000  0.69351000  0.21071000  1.0
  H  H44  1  0.62595000  0.23848000  0.65412000  1.0
  H  H45  1  0.76153000  0.37406000  0.84588000  1.0
  H  H46  1  0.37405000  0.76152000  0.34587000  1.0
  H  H47  1  0.23847000  0.62595000  0.15412000  1.0
  H  H48  1  0.76832000  0.68853000  0.71402000  1.0
  H  H49  1  0.31148000  0.23168000  0.78599000  1.0
  H  H50  1  0.23167000  0.31147000  0.28598000  1.0
  H  H51  1  0.68852000  0.76832000  0.21401000  1.0
  H  H52  1  0.38904000  0.85777000  0.66788000  1.0
  H  H53  1  0.14223000  0.61096000  0.83212000  1.0
  H  H54  1  0.61096000  0.14223000  0.33212000  1.0
  H  H55  1  0.85777000  0.38904000  0.16788000  1.0
  H  H56  1  0.33441000  0.75361000  0.62345000  1.0
  H  H57  1  0.24638000  0.66559000  0.87655000  1.0
  H  H58  1  0.66560000  0.24638000  0.37655000  1.0
  H  H59  1  0.75362000  0.33440000  0.12345000  1.0
  H  H60  1  0.46440000  0.57203000  0.60162000  1.0
  H  H61  1  0.42796000  0.53560000  0.89838000  1.0
  H  H62  1  0.53560000  0.42797000  0.39838000  1.0
  H  H63  1  0.57203000  0.46440000  0.10162000  1.0
  H  H64  1  0.65351000  0.48475000  0.62339000  1.0
  H  H65  1  0.51524000  0.34649000  0.87661000  1.0
  H  H66  1  0.34649000  0.51524000  0.37661000  1.0
  H  H67  1  0.48476000  0.65351000  0.12339000  1.0
  H  H68  1  0.87719000  0.50740000  0.69373000  1.0
  H  H69  1  0.49260000  0.12281000  0.80627000  1.0
  H  H70  1  0.12281000  0.49260000  0.30627000  1.0
  H  H71  1  0.50740000  0.87719000  0.19373000  1.0
  H  H72  1  0.81313000  0.43193000  0.68045000  1.0
  H  H73  1  0.56807000  0.18687000  0.81955000  1.0
  H  H74  1  0.18687000  0.56807000  0.31955000  1.0
  H  H75  1  0.43193000  0.81313000  0.18045000  1.0
  H  H76  1  0.77463000  0.67611000  0.59726000  1.0
  H  H77  1  0.32389000  0.22538000  0.90274000  1.0
  H  H78  1  0.22537000  0.32389000  0.40274000  1.0
  H  H79  1  0.67610000  0.77462000  0.09726000  1.0
  H  H80  1  0.85934000  0.67125000  0.51646000  1.0
  H  H81  1  0.32875000  0.14066000  0.98354000  1.0
  H  H82  1  0.14065000  0.32875000  0.48354000  1.0
  H  H83  1  0.67125000  0.85934000  0.01646000  1.0
  H  H84  1  0.07506000  0.33333333  0.54810000  1.0
  H  H85  1  0.66672000  0.92493000  0.95190000  1.0
  H  H86  1  0.92493000  0.66672000  0.45190000  1.0
  H  H87  1  0.33333333  0.07507000  0.04810000  1.0
  H  H88  1  0.98802000  0.33942000  0.62867000  1.0
  H  H89  1  0.66058000  0.01198000  0.87133000  1.0
  H  H90  1  0.01198000  0.66058000  0.37133000  1.0
  H  H91  1  0.33942000  0.98802000  0.12867000  1.0
  H  H92  1  0.19458000  0.14178000  0.82997000  1.0
  H  H93  1  0.85822000  0.80542000  0.67003000  1.0
  H  H94  1  0.80542000  0.85822000  0.17003000  1.0
  H  H95  1  0.14178000  0.19458000  0.32997000  1.0
  H  H96  1  0.02950000  0.13895000  0.87542000  1.0
  H  H97  1  0.86104000  0.97050000  0.62458000  1.0
  H  H98  1  0.97050000  0.86104000  0.12458000  1.0
  H  H99  1  0.13896000  0.02951000  0.37542000  1.0
  H  H100  1  0.09734000  0.84581000  0.81736000  1.0
  H  H101  1  0.15420000  0.90266000  0.68264000  1.0
  H  H102  1  0.90266000  0.15419000  0.18264000  1.0
  H  H103  1  0.84581000  0.09734000  0.31736000  1.0
  H  H104  1  0.26790000  0.84698000  0.77425000  1.0
  H  H105  1  0.15302000  0.73210000  0.72575000  1.0
  H  H106  1  0.73211000  0.15302000  0.22575000  1.0
  H  H107  1  0.84698000  0.26790000  0.27425000  1.0
  H  H108  1  0.89424000  0.05328000  0.79227000  1.0
  H  H109  1  0.94672000  0.10575000  0.70773000  1.0
  H  H110  1  0.10576000  0.94672000  0.20773000  1.0
  H  H111  1  0.05328000  0.89425000  0.29227000  1.0
  H  H112  1  0.78290000  0.00661000  0.74934000  1.0
  H  H113  1  0.99339000  0.21710000  0.75066000  1.0
  H  H114  1  0.21710000  0.99339000  0.25066000  1.0
  H  H115  1  0.00661000  0.78290000  0.24934000  1.0
  H  H116  1  0.78680000  0.75981000  0.86101000  1.0
  H  H117  1  0.24019000  0.21320000  0.63899000  1.0
  H  H118  1  0.21320000  0.24019000  0.13899000  1.0
  H  H119  1  0.75981000  0.78680000  0.36101000  1.0
  H  H120  1  0.89164000  0.80784000  0.90538000  1.0
  H  H121  1  0.19216000  0.10837000  0.59462000  1.0
  H  H122  1  0.10837000  0.19216000  0.09462000  1.0
  H  H123  1  0.80784000  0.89164000  0.40538000  1.0
  C  C124  1  0.44853000  0.13198000  0.67119000  1.0
  C  C125  1  0.86802000  0.55148000  0.82881000  1.0
  C  C126  1  0.55147000  0.86802000  0.32881000  1.0
  C  C127  1  0.13198000  0.44853000  0.17119000  1.0
  C  C128  1  0.55090000  0.13583000  0.60381000  1.0
  C  C129  1  0.86417000  0.44911000  0.89619000  1.0
  C  C130  1  0.44910000  0.86417000  0.39619000  1.0
  C  C131  1  0.13583000  0.55090000  0.10381000  1.0
  C  C132  1  0.58099000  0.02747000  0.62431000  1.0
  C  C133  1  0.97253000  0.41901000  0.87569000  1.0
  C  C134  1  0.41901000  0.97253000  0.37569000  1.0
  C  C135  1  0.02747000  0.58099000  0.12431000  1.0
  C  C136  1  0.66611000  0.94144000  0.60252000  1.0
  C  C137  1  0.05856000  0.33389000  0.89748000  1.0
  C  C138  1  0.33388000  0.05856000  0.39748000  1.0
  C  C139  1  0.94144000  0.66611000  0.10252000  1.0
  C  C140  1  0.71924000  0.96668000  0.56036000  1.0
  C  C141  1  0.03333000  0.28076000  0.93964000  1.0
  C  C142  1  0.28076000  0.03332000  0.43964000  1.0
  C  C143  1  0.96667000  0.71924000  0.06036000  1.0
  C  C144  1  0.68843000  0.07476000  0.54017000  1.0
  C  C145  1  0.92525000  0.31157000  0.95983000  1.0
  C  C146  1  0.31157000  0.92524000  0.45983000  1.0
  C  C147  1  0.07475000  0.68843000  0.04017000  1.0
  C  C148  1  0.60395000  0.16130000  0.56151000  1.0
  C  C149  1  0.83871000  0.39606000  0.93848000  1.0
  C  C150  1  0.39606000  0.83870000  0.43849000  1.0
  C  C151  1  0.16129000  0.60394000  0.06151000  1.0
  C  C152  1  0.41600000  0.31759000  0.63314000  1.0
  C  C153  1  0.68241000  0.58400000  0.86686000  1.0
  C  C154  1  0.58401000  0.68241000  0.36686000  1.0
  C  C155  1  0.31759000  0.41600000  0.13313000  1.0
  C  C156  1  0.45866000  0.35408000  0.66805000  1.0
  C  C157  1  0.64592000  0.54133000  0.83195000  1.0
  C  C158  1  0.54134000  0.64592000  0.33195000  1.0
  C  C159  1  0.35408000  0.45867000  0.16805000  1.0
  C  C160  1  0.38691000  0.43783000  0.69501000  1.0
  C  C161  1  0.56217000  0.61309000  0.80499000  1.0
  C  C162  1  0.61309000  0.56217000  0.30499000  1.0
  C  C163  1  0.43783000  0.38691000  0.19501000  1.0
  C  C164  1  0.42531000  0.47313000  0.72683000  1.0
  C  C165  1  0.52687000  0.57470000  0.77317000  1.0
  C  C166  1  0.57469000  0.52687000  0.27317000  1.0
  C  C167  1  0.47312000  0.42530000  0.22683000  1.0
  C  C168  1  0.53585000  0.42473000  0.73330000  1.0
  C  C169  1  0.57527000  0.46415000  0.76670000  1.0
  C  C170  1  0.46415000  0.57527000  0.26670000  1.0
  C  C171  1  0.42473000  0.53585000  0.23330000  1.0
  C  C172  1  0.60694000  0.33898000  0.70685000  1.0
  C  C173  1  0.66103000  0.39306000  0.79315000  1.0
  C  C174  1  0.39306000  0.66102000  0.29315000  1.0
  C  C175  1  0.33897000  0.60694000  0.20685000  1.0
  C  C176  1  0.56898000  0.30462000  0.67446000  1.0
  C  C177  1  0.69538000  0.43102000  0.82554000  1.0
  C  C178  1  0.43102000  0.69538000  0.32553000  1.0
  C  C179  1  0.30462000  0.56898000  0.17446000  1.0
  C  C180  1  0.70441000  0.68660000  0.69762000  1.0
  C  C181  1  0.31340000  0.29560000  0.80238000  1.0
  C  C182  1  0.29559000  0.31340000  0.30238000  1.0
  C  C183  1  0.68660000  0.70440000  0.19762000  1.0
  C  C184  1  0.62531000  0.62340000  0.65823000  1.0
  C  C185  1  0.37660000  0.37470000  0.84177000  1.0
  C  C186  1  0.37470000  0.37660000  0.34177000  1.0
  C  C187  1  0.62340000  0.62530000  0.15823000  1.0
  C  C188  1  0.55207000  0.72864000  0.67010000  1.0
  C  C189  1  0.27136000  0.44793000  0.82990000  1.0
  C  C190  1  0.44793000  0.27136000  0.32990000  1.0
  C  C191  1  0.72864000  0.55207000  0.17010000  1.0
  C  C192  1  0.44589000  0.77759000  0.65791000  1.0
  C  C193  1  0.22241000  0.55411000  0.84210000  1.0
  C  C194  1  0.55411000  0.22241000  0.34209000  1.0
  C  C195  1  0.77759000  0.44589000  0.15790000  1.0
  C  C196  1  0.41662000  0.71893000  0.63328000  1.0
  C  C197  1  0.28107000  0.58338000  0.86672000  1.0
  C  C198  1  0.58338000  0.28107000  0.36672000  1.0
  C  C199  1  0.71893000  0.41662000  0.13328000  1.0
  C  C200  1  0.49097000  0.61509000  0.62075000  1.0
  C  C201  1  0.38491000  0.50904000  0.87926000  1.0
  C  C202  1  0.50903000  0.38491000  0.37925000  1.0
  C  C203  1  0.61509000  0.49096000  0.12074000  1.0
  C  C204  1  0.59673000  0.56523000  0.63287000  1.0
  C  C205  1  0.43476000  0.40327000  0.86713000  1.0
  C  C206  1  0.40327000  0.43477000  0.36713000  1.0
  C  C207  1  0.56524000  0.59673000  0.13287000  1.0
  C  C208  1  0.82441000  0.50633000  0.66971000  1.0
  C  C209  1  0.49367000  0.17559000  0.83029000  1.0
  C  C210  1  0.17559000  0.49367000  0.33029000  1.0
  C  C211  1  0.50633000  0.82441000  0.16971000  1.0
  C  C212  1  0.87521000  0.50779000  0.61924000  1.0
  C  C213  1  0.49222000  0.12479000  0.88076000  1.0
  C  C214  1  0.12479000  0.49221000  0.38076000  1.0
  C  C215  1  0.50778000  0.87521000  0.11924000  1.0
  C  C216  1  0.84117000  0.60049000  0.58684000  1.0
  C  C217  1  0.39951000  0.15883000  0.91316000  1.0
  C  C218  1  0.15883000  0.39951000  0.41316000  1.0
  C  C219  1  0.60049000  0.84117000  0.08684000  1.0
  C  C220  1  0.88977000  0.59731000  0.54059000  1.0
  C  C221  1  0.40269000  0.11023000  0.95941000  1.0
  C  C222  1  0.11023000  0.40269000  0.45941000  1.0
  C  C223  1  0.59731000  0.88977000  0.04059000  1.0
  C  C224  1  0.97492000  0.50180000  0.52475000  1.0
  C  C225  1  0.49820000  0.02508000  0.97525000  1.0
  C  C226  1  0.02508000  0.49820000  0.47525000  1.0
  C  C227  1  0.50180000  0.97492000  0.02475000  1.0
  C  C228  1  0.00954000  0.40981000  0.55809000  1.0
  C  C229  1  0.59019000  0.99046000  0.94191000  1.0
  C  C230  1  0.99046000  0.59019000  0.44191000  1.0
  C  C231  1  0.40981000  0.00954000  0.05809000  1.0
  C  C232  1  0.96040000  0.41275000  0.60413000  1.0
  C  C233  1  0.58726000  0.03960000  0.89587000  1.0
  C  C234  1  0.03960000  0.58725000  0.39587000  1.0
  C  C235  1  0.41274000  0.96040000  0.10413000  1.0
  C  C236  1  0.34599000  0.99418000  0.77461000  1.0
  C  C237  1  0.00582000  0.65401000  0.72539000  1.0
  C  C238  1  0.65401000  0.00582000  0.22539000  1.0
  C  C239  1  0.99417000  0.34600000  0.27461000  1.0
  C  C240  1  0.24225000  0.99406000  0.79973000  1.0
  C  C241  1  0.00594000  0.75775000  0.70028000  1.0
  C  C242  1  0.75775000  0.00594000  0.20028000  1.0
  C  C243  1  0.99406000  0.24225000  0.29972000  1.0
  C  C244  1  0.17326000  0.07656000  0.82771000  1.0
  C  C245  1  0.92344000  0.82674000  0.67230000  1.0
  C  C246  1  0.82674000  0.92344000  0.17230000  1.0
  C  C247  1  0.07656000  0.17326000  0.32770000  1.0
  C  C248  1  0.07926000  0.07503000  0.85296000  1.0
  C  C249  1  0.92496000  0.92074000  0.64705000  1.0
  C  C250  1  0.92074000  0.92496000  0.14705000  1.0
  C  C251  1  0.07504000  0.07926000  0.35295000  1.0
  C  C252  1  0.05129000  0.99155000  0.84979000  1.0
  C  C253  1  0.00844000  0.94871000  0.65022000  1.0
  C  C254  1  0.94871000  0.00844000  0.15021000  1.0
  C  C255  1  0.99156000  0.05129000  0.34978000  1.0
  C  C256  1  0.11893000  0.91037000  0.82062000  1.0
  C  C257  1  0.08963000  0.88107000  0.67939000  1.0
  C  C258  1  0.88108000  0.08963000  0.17939000  1.0
  C  C259  1  0.91037000  0.11893000  0.32061000  1.0
  C  C260  1  0.21393000  0.91108000  0.79616000  1.0
  C  C261  1  0.08892000  0.78607000  0.70384000  1.0
  C  C262  1  0.78607000  0.08892000  0.20384000  1.0
  C  C263  1  0.91108000  0.21393000  0.29616000  1.0
  C  C264  1  0.95397000  0.97984000  0.87992000  1.0
  C  C265  1  0.02016000  0.04603000  0.62008000  1.0
  C  C266  1  0.04603000  0.02016000  0.12008000  1.0
  C  C267  1  0.97984000  0.95397000  0.37992000  1.0
  C  C268  1  0.86420000  0.09051000  0.89596000  1.0
  C  C269  1  0.90949000  0.13579000  0.60404000  1.0
  C  C270  1  0.13580000  0.90948000  0.10404000  1.0
  C  C271  1  0.09052000  0.86421000  0.39596000  1.0
  C  C272  1  0.99880000  0.90329000  0.92511000  1.0
  C  C273  1  0.09670000  0.00120000  0.57489000  1.0
  C  C274  1  0.00120000  0.09670000  0.07489000  1.0
  C  C275  1  0.90330000  0.99880000  0.42511000  1.0
  C  C276  1  0.89862000  0.93658000  0.85262000  1.0
  C  C277  1  0.06341000  0.10137000  0.64739000  1.0
  C  C278  1  0.10138000  0.06341000  0.14738000  1.0
  C  C279  1  0.93659000  0.89862000  0.35261000  1.0
  C  C280  1  0.86960000  0.98966000  0.80779000  1.0
  C  C281  1  0.01034000  0.13039000  0.69221000  1.0
  C  C282  1  0.13040000  0.01034000  0.19221000  1.0
  C  C283  1  0.98966000  0.86960000  0.30779000  1.0
  C  C284  1  0.80830000  0.96332000  0.78344000  1.0
  C  C285  1  0.03668000  0.19170000  0.71656000  1.0
  C  C286  1  0.19170000  0.03668000  0.21656000  1.0
  C  C287  1  0.96332000  0.80830000  0.28344000  1.0
  C  C288  1  0.77660000  0.88126000  0.80288000  1.0
  C  C289  1  0.11874000  0.22340000  0.69712000  1.0
  C  C290  1  0.22340000  0.11874000  0.19712000  1.0
  C  C291  1  0.88126000  0.77660000  0.30288000  1.0
  C  C292  1  0.81101000  0.82399000  0.84609000  1.0
  C  C293  1  0.17601000  0.18899000  0.65391000  1.0
  C  C294  1  0.18899000  0.17601000  0.15391000  1.0
  C  C295  1  0.82399000  0.81101000  0.34609000  1.0
  C  C296  1  0.87030000  0.85178000  0.87106000  1.0
  C  C297  1  0.14821000  0.12970000  0.62894000  1.0
  C  C298  1  0.12970000  0.14821000  0.12894000  1.0
  C  C299  1  0.85179000  0.87030000  0.37106000  1.0
  C  C300  1  0.70064000  0.85889000  0.78002000  1.0
  C  C301  1  0.14110000  0.29935000  0.71998000  1.0
  C  C302  1  0.29935000  0.14111000  0.21998000  1.0
  C  C303  1  0.85890000  0.70065000  0.28002000  1.0
  N  N304  1  0.60495000  0.76551000  0.69430000  1.0
  N  N305  1  0.23449000  0.39505000  0.80570000  1.0
  N  N306  1  0.39505000  0.23449000  0.30570000  1.0
  N  N307  1  0.76551000  0.60495000  0.19430000  1.0
  N  N308  1  0.72051000  0.59955000  0.67675000  1.0
  N  N309  1  0.40045000  0.27949000  0.82325000  1.0
  N  N310  1  0.27949000  0.40045000  0.32325000  1.0
  N  N311  1  0.59955000  0.72051000  0.17675000  1.0
  N  N312  1  0.51491000  0.02854000  0.66633000  1.0
  N  N313  1  0.97146000  0.48509000  0.83367000  1.0
  N  N314  1  0.48508000  0.97146000  0.33367000  1.0
  N  N315  1  0.02853000  0.51491000  0.16633000  1.0
  N  N316  1  0.46601000  0.19950000  0.63444000  1.0
  N  N317  1  0.80050000  0.53399000  0.86556000  1.0
  N  N318  1  0.53399000  0.80050000  0.36556000  1.0
  N  N319  1  0.19950000  0.46601000  0.13444000  1.0
  O  O320  1  0.36585000  0.07385000  0.77406000  1.0
  O  O321  1  0.92615000  0.63416000  0.72595000  1.0
  O  O322  1  0.63415000  0.92615000  0.22594000  1.0
  O  O323  1  0.07385000  0.36585000  0.27406000  1.0
  O  O324  1  0.41039000  0.90740000  0.75471000  1.0
  O  O325  1  0.09260000  0.58961000  0.74529000  1.0
  O  O326  1  0.58961000  0.09260000  0.24529000  1.0
  O  O327  1  0.90740000  0.41039000  0.25471000  1.0
  O  O328  1  0.65565000  0.92996000  0.74558000  1.0
  O  O329  1  0.07004000  0.34435000  0.75442000  1.0
  O  O330  1  0.34435000  0.07004000  0.25442000  1.0
  O  O331  1  0.92996000  0.65565000  0.24558000  1.0
  O  O332  1  0.68244000  0.77829000  0.79538000  1.0
  O  O333  1  0.22172000  0.31756000  0.70462000  1.0
  O  O334  1  0.31756000  0.22172000  0.20462000  1.0
  O  O335  1  0.77828000  0.68244000  0.29538000  1.0
  F  F336  1  0.83935000  0.16935000  0.85865000  1.0
  F  F337  1  0.83065000  0.16065000  0.64135000  1.0
  F  F338  1  0.16065000  0.83065000  0.14135000  1.0
  F  F339  1  0.16935000  0.83936000  0.35865000  1.0
  F  F340  1  0.77047000  0.08393000  0.91438000  1.0
  F  F341  1  0.91607000  0.22953000  0.58562000  1.0
  F  F342  1  0.22953000  0.91606000  0.08562000  1.0
  F  F343  1  0.08394000  0.77047000  0.41437000  1.0
  F  F344  1  0.89329000  0.12749000  0.92926000  1.0
  F  F345  1  0.87251000  0.10671000  0.57074000  1.0
  F  F346  1  0.10671000  0.87251000  0.07074000  1.0
  F  F347  1  0.12749000  0.89330000  0.42926000  1.0
  F  F348  1  0.91846000  0.89880000  0.95881000  1.0
  F  F349  1  0.10120000  0.08153000  0.54119000  1.0
  F  F350  1  0.08154000  0.10120000  0.04119000  1.0
  F  F351  1  0.89880000  0.91847000  0.45881000  1.0
  F  F352  1  0.05940000  0.93426000  0.94572000  1.0
  F  F353  1  0.06574000  0.94060000  0.55428000  1.0
  F  F354  1  0.94061000  0.06574000  0.05428000  1.0
  F  F355  1  0.93426000  0.05940000  0.44572000  1.0
  F  F356  1  0.06414000  0.79960000  0.91478000  1.0
  F  F357  1  0.20039000  0.93586000  0.58523000  1.0
  F  F358  1  0.93586000  0.20039000  0.08523000  1.0
  F  F359  1  0.79961000  0.06415000  0.41477000  1.0
