# generated using pymatgen
data_Li2H8C16O7
_symmetry_space_group_name_H-M   'P 1'
_cell_length_a   7.39629000
_cell_length_b   9.48492000
_cell_length_c   18.84420000
_cell_angle_alpha   89.99990000
_cell_angle_beta   83.41370000
_cell_angle_gamma   89.99970000
_symmetry_Int_Tables_number   1
_chemical_formula_structural   Li2H8C16O7
_chemical_formula_sum   'Li8 H32 C64 O28'
_cell_volume   1313.25650258
_cell_formula_units_Z   4
loop_
 _symmetry_equiv_pos_site_id
 _symmetry_equiv_pos_as_xyz
  1  'x, y, z'
loop_
 _atom_site_type_symbol
 _atom_site_label
 _atom_site_symmetry_multiplicity
 _atom_site_fract_x
 _atom_site_fract_y
 _atom_site_fract_z
 _atom_site_occupancy
  Li  Li0  1  0.27161000  0.20214000  0.65691000  1.0
  Li  Li1  1  0.22838000  0.70214000  0.34309000  1.0
  Li  Li2  1  0.72840000  0.79786000  0.34310000  1.0
  Li  Li3  1  0.77161000  0.29786000  0.65691000  1.0
  Li  Li4  1  0.34032000  0.50036000  0.45344000  1.0
  Li  Li5  1  0.15968000  0.00037000  0.54656000  1.0
  Li  Li6  1  0.65968000  0.49964000  0.54656000  1.0
  Li  Li7  1  0.84032000  0.99964000  0.45344000  1.0
  H  H8  1  0.51369000  0.14581000  0.54106000  1.0
  H  H9  1  0.98630000  0.64581000  0.45894000  1.0
  H  H10  1  0.48630000  0.85420000  0.45894000  1.0
  H  H11  1  0.01371000  0.35419000  0.54106000  1.0
  H  H12  1  0.33270000  0.21755000  0.52491000  1.0
  H  H13  1  0.16729000  0.71755000  0.47509000  1.0
  H  H14  1  0.66729000  0.78246000  0.47509000  1.0
  H  H15  1  0.83271000  0.28246000  0.52491000  1.0
  H  H16  1  0.73255000  0.88021000  0.96369000  1.0
  H  H17  1  0.76745000  0.38022000  0.03630000  1.0
  H  H18  1  0.26745000  0.11979000  0.03631000  1.0
  H  H19  1  0.23255000  0.61978000  0.96369000  1.0
  H  H20  1  0.78362000  0.12761000  0.00424000  1.0
  H  H21  1  0.71638000  0.62763000  0.99576000  1.0
  H  H22  1  0.21639000  0.87238000  0.99577000  1.0
  H  H23  1  0.28361000  0.37237000  0.00423000  1.0
  H  H24  1  0.67719000  0.32924000  0.93452000  1.0
  H  H25  1  0.82280000  0.82925000  0.06548000  1.0
  H  H26  1  0.32282000  0.67075000  0.06548000  1.0
  H  H27  1  0.17717000  0.17074000  0.93452000  1.0
  H  H28  1  0.52509000  0.28369000  0.82545000  1.0
  H  H29  1  0.97490000  0.78370000  0.17455000  1.0
  H  H30  1  0.47492000  0.71631000  0.17456000  1.0
  H  H31  1  0.02507000  0.21631000  0.82544000  1.0
  H  H32  1  0.36517000  0.95531000  0.64091000  1.0
  H  H33  1  0.13482000  0.45531000  0.35909000  1.0
  H  H34  1  0.63484000  0.04469000  0.35909000  1.0
  H  H35  1  0.86517000  0.54469000  0.64091000  1.0
  H  H36  1  0.51385000  0.54986000  0.78991000  1.0
  H  H37  1  0.98615000  0.04987000  0.21008000  1.0
  H  H38  1  0.48615000  0.45013000  0.21008000  1.0
  H  H39  1  0.01385000  0.95013000  0.78992000  1.0
  C  C40  1  0.56883000  0.79648000  0.85221000  1.0
  C  C41  1  0.93118000  0.29649000  0.14778000  1.0
  C  C42  1  0.43118000  0.20352000  0.14778000  1.0
  C  C43  1  0.06882000  0.70351000  0.85222000  1.0
  C  C44  1  0.49663000  0.77486000  0.78261000  1.0
  C  C45  1  0.00337000  0.27487000  0.21739000  1.0
  C  C46  1  0.50338000  0.22513000  0.21739000  1.0
  C  C47  1  0.99663000  0.72513000  0.78261000  1.0
  C  C48  1  0.44950000  0.89028000  0.74129000  1.0
  C  C49  1  0.05050000  0.39029000  0.25871000  1.0
  C  C50  1  0.55051000  0.10972000  0.25871000  1.0
  C  C51  1  0.94950000  0.60971000  0.74129000  1.0
  C  C52  1  0.45228000  0.03546000  0.76915000  1.0
  C  C53  1  0.04771000  0.53547000  0.23085000  1.0
  C  C54  1  0.54773000  0.96454000  0.23085000  1.0
  C  C55  1  0.95228000  0.46454000  0.76915000  1.0
  C  C56  1  0.54219000  0.05888000  0.83427000  1.0
  C  C57  1  0.95781000  0.55888000  0.16573000  1.0
  C  C58  1  0.45783000  0.94112000  0.16574000  1.0
  C  C59  1  0.04217000  0.44112000  0.83427000  1.0
  C  C60  1  0.60006000  0.94411000  0.87385000  1.0
  C  C61  1  0.89994000  0.44412000  0.12615000  1.0
  C  C62  1  0.39995000  0.05588000  0.12615000  1.0
  C  C63  1  0.10005000  0.55588000  0.87385000  1.0
  C  C64  1  0.68728000  0.97024000  0.93463000  1.0
  C  C65  1  0.81272000  0.47025000  0.06537000  1.0
  C  C66  1  0.31273000  0.02975000  0.06537000  1.0
  C  C67  1  0.18728000  0.52975000  0.93463000  1.0
  C  C68  1  0.71559000  0.10790000  0.95675000  1.0
  C  C69  1  0.78441000  0.60791000  0.04325000  1.0
  C  C70  1  0.28442000  0.89210000  0.04326000  1.0
  C  C71  1  0.21558000  0.39209000  0.95675000  1.0
  C  C72  1  0.65576000  0.22111000  0.91781000  1.0
  C  C73  1  0.84424000  0.72112000  0.08219000  1.0
  C  C74  1  0.34425000  0.77888000  0.08220000  1.0
  C  C75  1  0.15574000  0.27887000  0.91780000  1.0
  C  C76  1  0.57026000  0.19691000  0.85685000  1.0
  C  C77  1  0.92974000  0.69691000  0.14315000  1.0
  C  C78  1  0.42976000  0.80309000  0.14315000  1.0
  C  C79  1  0.07024000  0.30309000  0.85685000  1.0
  C  C80  1  0.39605000  0.86620000  0.67367000  1.0
  C  C81  1  0.10394000  0.36621000  0.32633000  1.0
  C  C82  1  0.60395000  0.13380000  0.32633000  1.0
  C  C83  1  0.89605000  0.63380000  0.67367000  1.0
  C  C84  1  0.38631000  0.73018000  0.64651000  1.0
  C  C85  1  0.11368000  0.23019000  0.35349000  1.0
  C  C86  1  0.61368000  0.26982000  0.35349000  1.0
  C  C87  1  0.88631000  0.76982000  0.64651000  1.0
  C  C88  1  0.34526000  0.70902000  0.57100000  1.0
  C  C89  1  0.15474000  0.20902000  0.42900000  1.0
  C  C90  1  0.65474000  0.29099000  0.42900000  1.0
  C  C91  1  0.84526000  0.79098000  0.57100000  1.0
  C  C92  1  0.42403000  0.61417000  0.68943000  1.0
  C  C93  1  0.07597000  0.11418000  0.31057000  1.0
  C  C94  1  0.57596000  0.38583000  0.31057000  1.0
  C  C95  1  0.92404000  0.88583000  0.68943000  1.0
  C  C96  1  0.41248000  0.46333000  0.66504000  1.0
  C  C97  1  0.08752000  0.96334000  0.33495000  1.0
  C  C98  1  0.58752000  0.53667000  0.33496000  1.0
  C  C99  1  0.91247000  0.03667000  0.66505000  1.0
  C  C100  1  0.47926000  0.63797000  0.75687000  1.0
  C  C101  1  0.02073000  0.13798000  0.24313000  1.0
  C  C102  1  0.52073000  0.36202000  0.24313000  1.0
  C  C103  1  0.97927000  0.86202000  0.75687000  1.0
  O  O104  1  0.60563000  0.69483000  0.88940000  1.0
  O  O105  1  0.89440000  0.19484000  0.11060000  1.0
  O  O106  1  0.39439000  0.30517000  0.11060000  1.0
  O  O107  1  0.10560000  0.80517000  0.88941000  1.0
  O  O108  1  0.37745000  0.13433000  0.74054000  1.0
  O  O109  1  0.12254000  0.63434000  0.25946000  1.0
  O  O110  1  0.62256000  0.86567000  0.25946000  1.0
  O  O111  1  0.87745000  0.36567000  0.74054000  1.0
  O  O112  1  0.38333000  0.14870000  0.55765000  1.0
  O  O113  1  0.11666000  0.64870000  0.44235000  1.0
  O  O114  1  0.61666000  0.85131000  0.44235000  1.0
  O  O115  1  0.88335000  0.35131000  0.55764000  1.0
  O  O116  1  0.38865000  0.59144000  0.54220000  1.0
  O  O117  1  0.11134000  0.09145000  0.45780000  1.0
  O  O118  1  0.61134000  0.40855000  0.45780000  1.0
  O  O119  1  0.88866000  0.90856000  0.54220000  1.0
  O  O120  1  0.27429000  0.81049000  0.53857000  1.0
  O  O121  1  0.22571000  0.31049000  0.46143000  1.0
  O  O122  1  0.72572000  0.18951000  0.46144000  1.0
  O  O123  1  0.77428000  0.68951000  0.53857000  1.0
  O  O124  1  0.56295000  0.40706000  0.63959000  1.0
  O  O125  1  0.93706000  0.90706000  0.36041000  1.0
  O  O126  1  0.43706000  0.59295000  0.36041000  1.0
  O  O127  1  0.06294000  0.09294000  0.63959000  1.0
  O  O128  1  0.26079000  0.40282000  0.67444000  1.0
  O  O129  1  0.23922000  0.90283000  0.32555000  1.0
  O  O130  1  0.73921000  0.59717000  0.32556000  1.0
  O  O131  1  0.76079000  0.09717000  0.67445000  1.0
