# generated using pymatgen
data_ZnH4C7O5
_symmetry_space_group_name_H-M   'P 1'
_cell_length_a   7.08051000
_cell_length_b   9.64945000
_cell_length_c   9.98550000
_cell_angle_alpha   90.00010000
_cell_angle_beta   90.00000000
_cell_angle_gamma   89.99980000
_symmetry_Int_Tables_number   1
_chemical_formula_structural   ZnH4C7O5
_chemical_formula_sum   'Zn4 H16 C28 O20'
_cell_volume   682.23958830
_cell_formula_units_Z   4
loop_
 _symmetry_equiv_pos_site_id
 _symmetry_equiv_pos_as_xyz
  1  'x, y, z'
loop_
 _atom_site_type_symbol
 _atom_site_label
 _atom_site_symmetry_multiplicity
 _atom_site_fract_x
 _atom_site_fract_y
 _atom_site_fract_z
 _atom_site_occupancy
  Zn  Zn0  1  0.90023000  0.76080000  0.50000000  1.0
  Zn  Zn1  1  0.59977000  0.26080000  0.50000000  1.0
  Zn  Zn2  1  0.40023000  0.73920000  0.50000000  1.0
  Zn  Zn3  1  0.09977000  0.23920000  0.50000000  1.0
  H  H4  1  0.41389000  0.67522000  0.12537000  1.0
  H  H5  1  0.08611000  0.17522000  0.87463000  1.0
  H  H6  1  0.91389000  0.82478000  0.87463000  1.0
  H  H7  1  0.58611000  0.32478000  0.12537000  1.0
  H  H8  1  0.58611000  0.32478000  0.87463000  1.0
  H  H9  1  0.91389000  0.82478000  0.12537000  1.0
  H  H10  1  0.08611000  0.17522000  0.12537000  1.0
  H  H11  1  0.41389000  0.67522000  0.87463000  1.0
  H  H12  1  0.67137000  0.55639000  0.57748000  1.0
  H  H13  1  0.82863000  0.05640000  0.42252000  1.0
  H  H14  1  0.17137000  0.94360000  0.42252000  1.0
  H  H15  1  0.32863000  0.44360000  0.57748000  1.0
  H  H16  1  0.32863000  0.44360000  0.42252000  1.0
  H  H17  1  0.17137000  0.94360000  0.57748000  1.0
  H  H18  1  0.82863000  0.05640000  0.57748000  1.0
  H  H19  1  0.67137000  0.55639000  0.42252000  1.0
  C  C20  1  0.30092000  0.62401000  0.07028000  1.0
  C  C21  1  0.19907000  0.12400000  0.92972000  1.0
  C  C22  1  0.80093000  0.87599000  0.92972000  1.0
  C  C23  1  0.69907000  0.37599000  0.07028000  1.0
  C  C24  1  0.69907000  0.37599000  0.92972000  1.0
  C  C25  1  0.80093000  0.87599000  0.07028000  1.0
  C  C26  1  0.19907000  0.12400000  0.07028000  1.0
  C  C27  1  0.30093000  0.62401000  0.92972000  1.0
  C  C28  1  0.14954000  0.56988000  0.14085000  1.0
  C  C29  1  0.35046000  0.06988000  0.85915000  1.0
  C  C30  1  0.64954000  0.93012000  0.85916000  1.0
  C  C31  1  0.85046000  0.43012000  0.14084000  1.0
  C  C32  1  0.85046000  0.43012000  0.85916000  1.0
  C  C33  1  0.64954000  0.93012000  0.14084000  1.0
  C  C34  1  0.35045000  0.06988000  0.14085000  1.0
  C  C35  1  0.14954000  0.56988000  0.85915000  1.0
  C  C36  1  0.00000000  0.50000000  0.07216000  1.0
  C  C37  1  0.50000000  0.00000000  0.92784000  1.0
  C  C38  1  0.00000000  0.50000000  0.92784000  1.0
  C  C39  1  0.50000000  0.00000000  0.07216000  1.0
  C  C40  1  0.14184000  0.60765000  0.28627000  1.0
  C  C41  1  0.35817000  0.10765000  0.71373000  1.0
  C  C42  1  0.64184000  0.89235000  0.71373000  1.0
  C  C43  1  0.85816000  0.39235000  0.28627000  1.0
  C  C44  1  0.85816000  0.39235000  0.71373000  1.0
  C  C45  1  0.64184000  0.89235000  0.28627000  1.0
  C  C46  1  0.35816000  0.10765000  0.28627000  1.0
  C  C47  1  0.14184000  0.60765000  0.71373000  1.0
  O  O48  1  0.98627000  0.65417000  0.33027000  1.0
  O  O49  1  0.51373000  0.15416000  0.66974000  1.0
  O  O50  1  0.48628000  0.84584000  0.66973000  1.0
  O  O51  1  0.01373000  0.34583000  0.33026000  1.0
  O  O52  1  0.01373000  0.34584000  0.66973000  1.0
  O  O53  1  0.48628000  0.84584000  0.33027000  1.0
  O  O54  1  0.51372000  0.15416000  0.33027000  1.0
  O  O55  1  0.98627000  0.65417000  0.66973000  1.0
  O  O56  1  0.29582000  0.59907000  0.35322000  1.0
  O  O57  1  0.20419000  0.09907000  0.64679000  1.0
  O  O58  1  0.79582000  0.90094000  0.64679000  1.0
  O  O59  1  0.70419000  0.40093000  0.35321000  1.0
  O  O60  1  0.70419000  0.40093000  0.64679000  1.0
  O  O61  1  0.79582000  0.90093000  0.35321000  1.0
  O  O62  1  0.20418000  0.09907000  0.35321000  1.0
  O  O63  1  0.29582000  0.59907000  0.64678000  1.0
  O  O64  1  0.65902000  0.62260000  0.50000000  1.0
  O  O65  1  0.84098000  0.12260000  0.50000000  1.0
  O  O66  1  0.15902000  0.87740000  0.50000000  1.0
  O  O67  1  0.34098000  0.37740000  0.50000000  1.0
