# generated using pymatgen
data_AgH2CN5
_symmetry_space_group_name_H-M   'P 1'
_cell_length_a   3.37238000
_cell_length_b   10.35360000
_cell_length_c   11.45024591
_cell_angle_alpha   89.99734875
_cell_angle_beta   94.81094559
_cell_angle_gamma   89.99920000
_symmetry_Int_Tables_number   1
_chemical_formula_structural   AgH2CN5
_chemical_formula_sum   'Ag4 H8 C4 N20'
_cell_volume   398.39136542
_cell_formula_units_Z   4
loop_
 _symmetry_equiv_pos_site_id
 _symmetry_equiv_pos_as_xyz
  1  'x, y, z'
loop_
 _atom_site_type_symbol
 _atom_site_label
 _atom_site_symmetry_multiplicity
 _atom_site_fract_x
 _atom_site_fract_y
 _atom_site_fract_z
 _atom_site_occupancy
  Ag  Ag0  1  0.38652000  0.84717000  0.10367000  1.0
  Ag  Ag1  1  0.11350000  0.34717000  0.39633000  1.0
  Ag  Ag2  1  0.61349000  0.15283000  0.89633000  1.0
  Ag  Ag3  1  0.88652000  0.65283000  0.60367000  1.0
  H  H4  1  0.59909000  0.52698000  0.83988000  1.0
  H  H5  1  0.90086000  0.02696000  0.66015000  1.0
  H  H6  1  0.40091000  0.47302000  0.16011000  1.0
  H  H7  1  0.09913000  0.97303000  0.33987000  1.0
  H  H8  1  0.35352000  0.58830000  0.95339000  1.0
  H  H9  1  0.14652000  0.08830000  0.54658000  1.0
  H  H10  1  0.64649000  0.41170000  0.04661000  1.0
  H  H11  1  0.85346000  0.91170000  0.45341000  1.0
  C  C12  1  0.62727000  0.72324000  0.86281000  1.0
  C  C13  1  0.87279000  0.22324000  0.63720000  1.0
  C  C14  1  0.37267000  0.27675000  0.13718000  1.0
  C  C15  1  0.12733000  0.77677000  0.36281000  1.0
  N  N16  1  0.57163000  0.82953000  0.92772000  1.0
  N  N17  1  0.92831000  0.32954000  0.57228000  1.0
  N  N18  1  0.42841000  0.17048000  0.07227000  1.0
  N  N19  1  0.07165000  0.67047000  0.42772000  1.0
  N  N20  1  0.66413000  0.93095000  0.86033000  1.0
  N  N21  1  0.83586000  0.43097000  0.63966000  1.0
  N  N22  1  0.33586000  0.06905000  0.13967000  1.0
  N  N23  1  0.16417000  0.56903000  0.36034000  1.0
  N  N24  1  0.77362000  0.88967000  0.76080000  1.0
  N  N25  1  0.72632000  0.38970000  0.73920000  1.0
  N  N26  1  0.22636000  0.11033000  0.23920000  1.0
  N  N27  1  0.27367000  0.61032000  0.26081000  1.0
  N  N28  1  0.75366000  0.75886000  0.75852000  1.0
  N  N29  1  0.74627000  0.25888000  0.74148000  1.0
  N  N30  1  0.24634000  0.24113000  0.24148000  1.0
  N  N31  1  0.25371000  0.74113000  0.25852000  1.0
  N  N32  1  0.57868000  0.60020000  0.90041000  1.0
  N  N33  1  0.92125000  0.10017000  0.59957000  1.0
  N  N34  1  0.42129000  0.39979000  0.09960000  1.0
  N  N35  1  0.07872000  0.89981000  0.40043000  1.0
