# generated using pymatgen
data_Mn3H42C30(N4O11)2
_symmetry_space_group_name_H-M   'P 1'
_cell_length_a   9.33037000
_cell_length_b   12.42250000
_cell_length_c   22.80850000
_cell_angle_alpha   89.99670000
_cell_angle_beta   101.18200000
_cell_angle_gamma   89.99940000
_symmetry_Int_Tables_number   1
_chemical_formula_structural   Mn3H42C30(N4O11)2
_chemical_formula_sum   'Mn6 H84 C60 N16 O44'
_cell_volume   2593.46709819
_cell_formula_units_Z   2
loop_
 _symmetry_equiv_pos_site_id
 _symmetry_equiv_pos_as_xyz
  1  'x, y, z'
loop_
 _atom_site_type_symbol
 _atom_site_label
 _atom_site_symmetry_multiplicity
 _atom_site_fract_x
 _atom_site_fract_y
 _atom_site_fract_z
 _atom_site_occupancy
  Mn  Mn0  1  0.05326000  0.19209000  0.68774000  1.0
  Mn  Mn1  1  0.55325000  0.80793000  0.18775000  1.0
  Mn  Mn2  1  0.38350000  0.35678000  0.71916000  1.0
  Mn  Mn3  1  0.88348000  0.64325000  0.21917000  1.0
  Mn  Mn4  1  0.77952000  0.33437000  0.72491000  1.0
  Mn  Mn5  1  0.27952000  0.66565000  0.22490000  1.0
  H  H6  1  0.60675000  0.18323000  0.74695000  1.0
  H  H7  1  0.10674000  0.81681000  0.24695000  1.0
  H  H8  1  0.52870000  0.21013000  0.67815000  1.0
  H  H9  1  0.02869000  0.78991000  0.17815000  1.0
  H  H10  1  0.48558000  0.49236000  0.64189000  1.0
  H  H11  1  0.98549000  0.50767000  0.14190000  1.0
  H  H12  1  0.54348000  0.38307000  0.62477000  1.0
  H  H13  1  0.04348000  0.61695000  0.12479000  1.0
  H  H14  1  0.83673000  0.95369000  0.85804000  1.0
  H  H15  1  0.33673000  0.04629000  0.35805000  1.0
  H  H16  1  0.77941000  0.86627000  0.79600000  1.0
  H  H17  1  0.27939000  0.13372000  0.29601000  1.0
  H  H18  1  0.03085000  0.02800000  0.79964000  1.0
  H  H19  1  0.53084000  0.97199000  0.29966000  1.0
  H  H20  1  0.93821000  0.95608000  0.73778000  1.0
  H  H21  1  0.43822000  0.04395000  0.23779000  1.0
  H  H22  1  0.26443000  0.56004000  0.82076000  1.0
  H  H23  1  0.76442000  0.43994000  0.32075000  1.0
  H  H24  1  0.19837000  0.64025000  0.75664000  1.0
  H  H25  1  0.69835000  0.35974000  0.25663000  1.0
  H  H26  1  0.94570000  0.55927000  0.75189000  1.0
  H  H27  1  0.44569000  0.44073000  0.25188000  1.0
  H  H28  1  0.01715000  0.47568000  0.81287000  1.0
  H  H29  1  0.51713000  0.52430000  0.31287000  1.0
  H  H30  1  0.25616000  0.87920000  0.99770000  1.0
  H  H31  1  0.75610000  0.12078000  0.49771000  1.0
  H  H32  1  0.36766000  0.76703000  0.98660000  1.0
  H  H33  1  0.86763000  0.23293000  0.48661000  1.0
  H  H34  1  0.07895000  0.75623000  0.03276000  1.0
  H  H35  1  0.57892000  0.24374000  0.53278000  1.0
  H  H36  1  0.17422000  0.64256000  0.01400000  1.0
  H  H37  1  0.67416000  0.35742000  0.51399000  1.0
  H  H38  1  0.37114000  0.15968000  0.50372000  1.0
  H  H39  1  0.87116000  0.84031000  0.00372000  1.0
  H  H40  1  0.28249000  0.03899000  0.51849000  1.0
  H  H41  1  0.78250000  0.96100000  0.01847000  1.0
  H  H42  1  0.16863000  0.26506000  0.54063000  1.0
  H  H43  1  0.66868000  0.73493000  0.04064000  1.0
  H  H44  1  0.10162000  0.14248000  0.56334000  1.0
  H  H45  1  0.60161000  0.85751000  0.06332000  1.0
  H  H46  1  0.94797000  0.35162000  0.31180000  1.0
  H  H47  1  0.44797000  0.64838000  0.81181000  1.0
  H  H48  1  0.07517000  0.40554000  0.37242000  1.0
  H  H49  1  0.57519000  0.59445000  0.87243000  1.0
  H  H50  1  0.16169000  0.30133000  0.26146000  1.0
  H  H51  1  0.66168000  0.69870000  0.76147000  1.0
  H  H52  1  0.27815000  0.37223000  0.31872000  1.0
  H  H53  1  0.77815000  0.62778000  0.81872000  1.0
  H  H54  1  0.78906000  0.98180000  0.39974000  1.0
  H  H55  1  0.28904000  0.01819000  0.89973000  1.0
  H  H56  1  0.77357000  0.02536000  0.32408000  1.0
  H  H57  1  0.27356000  0.97466000  0.82407000  1.0
  H  H58  1  0.94925000  0.83553000  0.38558000  1.0
  H  H59  1  0.44924000  0.16446000  0.88558000  1.0
  H  H60  1  0.00542000  0.90160000  0.32543000  1.0
  H  H61  1  0.50542000  0.09840000  0.82543000  1.0
  H  H62  1  0.32097000  0.79797000  0.69520000  1.0
  H  H63  1  0.82097000  0.20202000  0.19519000  1.0
  H  H64  1  0.30856000  0.76186000  0.61804000  1.0
  H  H65  1  0.80857000  0.23814000  0.11803000  1.0
  H  H66  1  0.19088000  0.70007000  0.66126000  1.0
  H  H67  1  0.69088000  0.29993000  0.16125000  1.0
  H  H68  1  0.94869000  0.90886000  0.57861000  1.0
  H  H69  1  0.44870000  0.09115000  0.07860000  1.0
  H  H70  1  0.95890000  0.76751000  0.59631000  1.0
  H  H71  1  0.45891000  0.23250000  0.09629000  1.0
  H  H72  1  0.06428000  0.82323000  0.54567000  1.0
  H  H73  1  0.56430000  0.17678000  0.04566000  1.0
  H  H74  1  0.24039000  0.96040000  0.70378000  1.0
  H  H75  1  0.74038000  0.03959000  0.20378000  1.0
  H  H76  1  0.09663000  0.27659000  0.94047000  1.0
  H  H77  1  0.59663000  0.72339000  0.44048000  1.0
  H  H78  1  0.05458000  0.26654000  0.86058000  1.0
  H  H79  1  0.55459000  0.73345000  0.36058000  1.0
  H  H80  1  0.07770000  0.14695000  0.90586000  1.0
  H  H81  1  0.57770000  0.85304000  0.40586000  1.0
  H  H82  1  0.71354000  0.16477000  0.94172000  1.0
  H  H83  1  0.21354000  0.83520000  0.44172000  1.0
  H  H84  1  0.87576000  0.20091000  0.99361000  1.0
  H  H85  1  0.37576000  0.79906000  0.49361000  1.0
  H  H86  1  0.87413000  0.08336000  0.94848000  1.0
  H  H87  1  0.37412000  0.91662000  0.44848000  1.0
  H  H88  1  0.67036000  0.27417000  0.86603000  1.0
  H  H89  1  0.17037000  0.72581000  0.36604000  1.0
  C  C90  1  0.02417000  0.75924000  0.80788000  1.0
  C  C91  1  0.52416000  0.24076000  0.30789000  1.0
  C  C92  1  0.20572000  0.69246000  0.89260000  1.0
  C  C93  1  0.70570000  0.30752000  0.39261000  1.0
  C  C94  1  0.06298000  0.85554000  0.90391000  1.0
  C  C95  1  0.56295000  0.14444000  0.40391000  1.0
  C  C96  1  0.87097000  0.91358000  0.82037000  1.0
  C  C97  1  0.37095000  0.08642000  0.32038000  1.0
  C  C98  1  0.92337000  0.99497000  0.77942000  1.0
  C  C99  1  0.42337000  0.00504000  0.27942000  1.0
  C  C100  1  0.82062000  0.08864000  0.76323000  1.0
  C  C101  1  0.32061000  0.91138000  0.26323000  1.0
  C  C102  1  0.16802000  0.60019000  0.79520000  1.0
  C  C103  1  0.66801000  0.39979000  0.29520000  1.0
  C  C104  1  0.04623000  0.51940000  0.77492000  1.0
  C  C105  1  0.54623000  0.48059000  0.27492000  1.0
  C  C106  1  0.08856000  0.43812000  0.73203000  1.0
  C  C107  1  0.58857000  0.56188000  0.23204000  1.0
  C  C108  1  0.25574000  0.79357000  0.98646000  1.0
  C  C109  1  0.75569000  0.20640000  0.48647000  1.0
  C  C110  1  0.18827000  0.72619000  0.02992000  1.0
  C  C111  1  0.68823000  0.27379000  0.52992000  1.0
  C  C112  1  0.27693000  0.72351000  0.09317000  1.0
  C  C113  1  0.77691000  0.27650000  0.59317000  1.0
  C  C114  1  0.17960000  0.22635000  0.41648000  1.0
  C  C115  1  0.67960000  0.77365000  0.91648000  1.0
  C  C116  1  0.96490000  0.16319000  0.34448000  1.0
  C  C117  1  0.46489000  0.83681000  0.84448000  1.0
  C  C118  1  0.05675000  0.05840000  0.43553000  1.0
  C  C119  1  0.55674000  0.94160000  0.93552000  1.0
  C  C120  1  0.26655000  0.12466000  0.50822000  1.0
  C  C121  1  0.76657000  0.87534000  0.00821000  1.0
  C  C122  1  0.20114000  0.18271000  0.55560000  1.0
  C  C123  1  0.70116000  0.81729000  0.05559000  1.0
  C  C124  1  0.30706000  0.19526000  0.61428000  1.0
  C  C125  1  0.80707000  0.80476000  0.11428000  1.0
  C  C126  1  0.05991000  0.34566000  0.33651000  1.0
  C  C127  1  0.55991000  0.65434000  0.83651000  1.0
  C  C128  1  0.16470000  0.36651000  0.29438000  1.0
  C  C129  1  0.66470000  0.63351000  0.79438000  1.0
  C  C130  1  0.12583000  0.47119000  0.26012000  1.0
  C  C131  1  0.62582000  0.52884000  0.76011000  1.0
  C  C132  1  0.84786000  0.99203000  0.36283000  1.0
  C  C133  1  0.34785000  0.00797000  0.86283000  1.0
  C  C134  1  0.91007000  0.88541000  0.34607000  1.0
  C  C135  1  0.41006000  0.11459000  0.84606000  1.0
  C  C136  1  0.80607000  0.81867000  0.30040000  1.0
  C  C137  1  0.30605000  0.18133000  0.80039000  1.0
  C  C138  1  0.24631000  0.77553000  0.65377000  1.0
  C  C139  1  0.74632000  0.22447000  0.15376000  1.0
  C  C140  1  0.02027000  0.83847000  0.58620000  1.0
  C  C141  1  0.52028000  0.16154000  0.08619000  1.0
  C  C142  1  0.14743000  0.95394000  0.66578000  1.0
  C  C143  1  0.64743000  0.04606000  0.16578000  1.0
  C  C144  1  0.03696000  0.23015000  0.90232000  1.0
  C  C145  1  0.53697000  0.76983000  0.40232000  1.0
  C  C146  1  0.83312000  0.16619000  0.94921000  1.0
  C  C147  1  0.33312000  0.83378000  0.44921000  1.0
  C  C148  1  0.78576000  0.28339000  0.86196000  1.0
  C  C149  1  0.28577000  0.71660000  0.36196000  1.0
  N  N150  1  0.98770000  0.83809000  0.84588000  1.0
  N  N151  1  0.48767000  0.16190000  0.34588000  1.0
  N  N152  1  0.12686000  0.68419000  0.83433000  1.0
  N  N153  1  0.62685000  0.31580000  0.33433000  1.0
  N  N154  1  0.17281000  0.78170000  0.92484000  1.0
  N  N155  1  0.67278000  0.21828000  0.42485000  1.0
  N  N156  1  0.16807000  0.13358000  0.44973000  1.0
  N  N157  1  0.66807000  0.86641000  0.94973000  1.0
  N  N158  1  0.07232000  0.23898000  0.36527000  1.0
  N  N159  1  0.57232000  0.76101000  0.86527000  1.0
  N  N160  1  0.96169000  0.07395000  0.38117000  1.0
  N  N161  1  0.46168000  0.92604000  0.88117000  1.0
  N  N162  1  0.13891000  0.86025000  0.63643000  1.0
  N  N163  1  0.63891000  0.13975000  0.13642000  1.0
  N  N164  1  0.88111000  0.22919000  0.90286000  1.0
  N  N165  1  0.38112000  0.77079000  0.40286000  1.0
  O  O166  1  0.96677000  0.75568000  0.75464000  1.0
  O  O167  1  0.46676000  0.24432000  0.25464000  1.0
  O  O168  1  0.30088000  0.62772000  0.91436000  1.0
  O  O169  1  0.80087000  0.37224000  0.41436000  1.0
  O  O170  1  0.03571000  0.93204000  0.93444000  1.0
  O  O171  1  0.53568000  0.06794000  0.43445000  1.0
  O  O172  1  0.86347000  0.16490000  0.73241000  1.0
  O  O173  1  0.36346000  0.83512000  0.23241000  1.0
  O  O174  1  0.69977000  0.08926000  0.78065000  1.0
  O  O175  1  0.19976000  0.91076000  0.28065000  1.0
  O  O176  1  0.19859000  0.45572000  0.70877000  1.0
  O  O177  1  0.69861000  0.54428000  0.20879000  1.0
  O  O178  1  0.00834000  0.35304000  0.72131000  1.0
  O  O179  1  0.50835000  0.64697000  0.22131000  1.0
  O  O180  1  0.22126000  0.66697000  0.13024000  1.0
  O  O181  1  0.72127000  0.33305000  0.63023000  1.0
  O  O182  1  0.39594000  0.77474000  0.10568000  1.0
  O  O183  1  0.89593000  0.22526000  0.60568000  1.0
  O  O184  1  0.27658000  0.29328000  0.43162000  1.0
  O  O185  1  0.77659000  0.70672000  0.93162000  1.0
  O  O186  1  0.87604000  0.17530000  0.29736000  1.0
  O  O187  1  0.37602000  0.82471000  0.79736000  1.0
  O  O188  1  0.04342000  0.98171000  0.46823000  1.0
  O  O189  1  0.54342000  0.01828000  0.96822000  1.0
  O  O190  1  0.25484000  0.23539000  0.65827000  1.0
  O  O191  1  0.75485000  0.76466000  0.15828000  1.0
  O  O192  1  0.43949000  0.17077000  0.61773000  1.0
  O  O193  1  0.93950000  0.82926000  0.11773000  1.0
  O  O194  1  0.01084000  0.51975000  0.26749000  1.0
  O  O195  1  0.51084000  0.48027000  0.76749000  1.0
  O  O196  1  0.21018000  0.50281000  0.22573000  1.0
  O  O197  1  0.71016000  0.49723000  0.72571000  1.0
  O  O198  1  0.69702000  0.86540000  0.26834000  1.0
  O  O199  1  0.19701000  0.13461000  0.76835000  1.0
  O  O200  1  0.84012000  0.72011000  0.29631000  1.0
  O  O201  1  0.34012000  0.27989000  0.79629000  1.0
  O  O202  1  0.56843000  0.24571000  0.71902000  1.0
  O  O203  1  0.06842000  0.75433000  0.21903000  1.0
  O  O204  1  0.05722000  0.02924000  0.65218000  1.0
  O  O205  1  0.55721000  0.97077000  0.15218000  1.0
  O  O206  1  0.82125000  0.34066000  0.82178000  1.0
  O  O207  1  0.32127000  0.65934000  0.32178000  1.0
  O  O208  1  0.45259000  0.41903000  0.63206000  1.0
  O  O209  1  0.95257000  0.58102000  0.13208000  1.0
