# generated using pymatgen
data_NdH29C26(NO4)2
_symmetry_space_group_name_H-M   'P 1'
_cell_length_a   10.96090000
_cell_length_b   11.56940000
_cell_length_c   12.56200000
_cell_angle_alpha   110.73200000
_cell_angle_beta   99.39440000
_cell_angle_gamma   111.22200000
_symmetry_Int_Tables_number   1
_chemical_formula_structural   NdH29C26(NO4)2
_chemical_formula_sum   'Nd2 H58 C52 N4 O16'
_cell_volume   1308.95579236
_cell_formula_units_Z   2
loop_
 _symmetry_equiv_pos_site_id
 _symmetry_equiv_pos_as_xyz
  1  'x, y, z'
loop_
 _atom_site_type_symbol
 _atom_site_label
 _atom_site_symmetry_multiplicity
 _atom_site_fract_x
 _atom_site_fract_y
 _atom_site_fract_z
 _atom_site_occupancy
  Nd  Nd0  1  0.90370000  0.61231000  0.56744000  1.0
  Nd  Nd1  1  0.09630000  0.38768000  0.43256000  1.0
  H  H2  1  0.49818000  0.46454000  0.78677000  1.0
  H  H3  1  0.50182000  0.53547000  0.21323000  1.0
  H  H4  1  0.47368000  0.60204000  0.45522000  1.0
  H  H5  1  0.52632000  0.39796000  0.54478000  1.0
  H  H6  1  0.52048000  0.71867000  0.60586000  1.0
  H  H7  1  0.47952000  0.28133000  0.39414000  1.0
  H  H8  1  0.47128000  0.81501000  0.45662000  1.0
  H  H9  1  0.52872000  0.18499000  0.54339000  1.0
  H  H10  1  0.61144000  0.79898000  0.41196000  1.0
  H  H11  1  0.38856000  0.20102000  0.58804000  1.0
  H  H12  1  0.62902000  0.99224000  0.66141000  1.0
  H  H13  1  0.37099000  0.00777000  0.33859000  1.0
  H  H14  1  0.76787000  0.95667000  0.63375000  1.0
  H  H15  1  0.23214000  0.04333000  0.36625000  1.0
  H  H16  1  0.63123000  0.07383000  0.49589000  1.0
  H  H17  1  0.36877000  0.92618000  0.50412000  1.0
  H  H18  1  0.77729000  0.04652000  0.48452000  1.0
  H  H19  1  0.22271000  0.95349000  0.51548000  1.0
  H  H20  1  0.76091000  0.25595000  0.70791000  1.0
  H  H21  1  0.23909000  0.74405000  0.29209000  1.0
  H  H22  1  0.90342000  0.21500000  0.70684000  1.0
  H  H23  1  0.09658000  0.78501000  0.29316000  1.0
  H  H24  1  0.43293000  0.77164000  0.83020000  1.0
  H  H25  1  0.56708000  0.22836000  0.16980000  1.0
  H  H26  1  0.28125000  0.78904000  0.84913000  1.0
  H  H27  1  0.71876000  0.21096000  0.15087000  1.0
  H  H28  1  0.43868000  0.88059000  0.68954000  1.0
  H  H29  1  0.56132000  0.11942000  0.31046000  1.0
  H  H30  1  0.28594000  0.89233000  0.70349000  1.0
  H  H31  1  0.71407000  0.10767000  0.29652000  1.0
  H  H32  1  0.56476000  0.04545000  0.91014000  1.0
  H  H33  1  0.43525000  0.95456000  0.08986000  1.0
  H  H34  1  0.41001000  0.05154000  0.92626000  1.0
  H  H35  1  0.59000000  0.94847000  0.07374000  1.0
  H  H36  1  0.56459000  0.14962000  0.76764000  1.0
  H  H37  1  0.43541000  0.85038000  0.23236000  1.0
  H  H38  1  0.39943000  0.13775000  0.76520000  1.0
  H  H39  1  0.60057000  0.86225000  0.23479000  1.0
  H  H40  1  0.49402000  0.30412000  0.98435000  1.0
  H  H41  1  0.50599000  0.69589000  0.01565000  1.0
  H  H42  1  0.66332000  0.32222000  0.99011000  1.0
  H  H43  1  0.33668000  0.67779000  0.00989000  1.0
  H  H44  1  0.00842000  0.91500000  0.54421000  1.0
  H  H45  1  0.99157000  0.08499000  0.45579000  1.0
  H  H46  1  0.13192000  0.17706000  0.65224000  1.0
  H  H47  1  0.86806000  0.82293000  0.34776000  1.0
  H  H48  1  0.22869000  0.29375000  0.87908000  1.0
  H  H49  1  0.77130000  0.70625000  0.12092000  1.0
  H  H50  1  0.26855000  0.27224000  0.07046000  1.0
  H  H51  1  0.73145000  0.72776000  0.92954000  1.0
  H  H52  1  0.24763000  0.12488000  0.17548000  1.0
  H  H53  1  0.75237000  0.87511000  0.82452000  1.0
  H  H54  1  0.15883000  0.88693000  0.16477000  1.0
  H  H55  1  0.84117000  0.11306000  0.83523000  1.0
  H  H56  1  0.01618000  0.62915000  0.03868000  1.0
  H  H57  1  0.98382000  0.37085000  0.96132000  1.0
  H  H58  1  0.91578000  0.53535000  0.81434000  1.0
  H  H59  1  0.08421000  0.46464000  0.18566000  1.0
  C  C60  1  0.68695000  0.68989000  0.55296000  1.0
  C  C61  1  0.31305000  0.31011000  0.44705000  1.0
  C  C62  1  0.55485000  0.70381000  0.52676000  1.0
  C  C63  1  0.44516000  0.29619000  0.47324000  1.0
  C  C64  1  0.57268000  0.81851000  0.48866000  1.0
  C  C65  1  0.42732000  0.18149000  0.51134000  1.0
  C  C66  1  0.67521000  0.96211000  0.59082000  1.0
  C  C67  1  0.32480000  0.03789000  0.40918000  1.0
  C  C68  1  0.72217000  0.07335000  0.54772000  1.0
  C  C69  1  0.27784000  0.92665000  0.45228000  1.0
  C  C70  1  0.81798000  0.21907000  0.65090000  1.0
  C  C71  1  0.18202000  0.78093000  0.34910000  1.0
  C  C72  1  0.88202000  0.32087000  0.60198000  1.0
  C  C73  1  0.11798000  0.67913000  0.39802000  1.0
  C  C74  1  0.25098000  0.64010000  0.67309000  1.0
  C  C75  1  0.74902000  0.35990000  0.32691000  1.0
  C  C76  1  0.33991000  0.77526000  0.78643000  1.0
  C  C77  1  0.66009000  0.22474000  0.21357000  1.0
  C  C78  1  0.38096000  0.89606000  0.75298000  1.0
  C  C79  1  0.61904000  0.10394000  0.24702000  1.0
  C  C80  1  0.46691000  0.03842000  0.86169000  1.0
  C  C81  1  0.53310000  0.96159000  0.13831000  1.0
  C  C82  1  0.49685000  0.15439000  0.82328000  1.0
  C  C83  1  0.50315000  0.84562000  0.17671000  1.0
  C  C84  1  0.56376000  0.29932000  0.93056000  1.0
  C  C85  1  0.43625000  0.70069000  0.06944000  1.0
  C  C86  1  0.59058000  0.41321000  0.89209000  1.0
  C  C87  1  0.40942000  0.58679000  0.10790000  1.0
  C  C88  1  0.05319000  0.97071000  0.64229000  1.0
  C  C89  1  0.94681000  0.02929000  0.35771000  1.0
  C  C90  1  0.12104000  0.11669000  0.70313000  1.0
  C  C91  1  0.87896000  0.88331000  0.29687000  1.0
  C  C92  1  0.17572000  0.18098000  0.82781000  1.0
  C  C93  1  0.82427000  0.81901000  0.17219000  1.0
  C  C94  1  0.16333000  0.09933000  0.89048000  1.0
  C  C95  1  0.83666000  0.90065000  0.10952000  1.0
  C  C96  1  0.21905000  0.15944000  0.01942000  1.0
  C  C97  1  0.78095000  0.84055000  0.98058000  1.0
  C  C98  1  0.20626000  0.07746000  0.07703000  1.0
  C  C99  1  0.79374000  0.92254000  0.92297000  1.0
  C  C100  1  0.13415000  0.92926000  0.01006000  1.0
  C  C101  1  0.86586000  0.07074000  0.98994000  1.0
  C  C102  1  0.11470000  0.84131000  0.06680000  1.0
  C  C103  1  0.88531000  0.15869000  0.93320000  1.0
  C  C104  1  0.03725000  0.69975000  0.99762000  1.0
  C  C105  1  0.96275000  0.30024000  0.00238000  1.0
  C  C106  1  0.98051000  0.64630000  0.87161000  1.0
  C  C107  1  0.01948000  0.35370000  0.12839000  1.0
  C  C108  1  0.07483000  0.86543000  0.88181000  1.0
  C  C109  1  0.92517000  0.13456000  0.11819000  1.0
  C  C110  1  0.09249000  0.95237000  0.82093000  1.0
  C  C111  1  0.90750000  0.04763000  0.17908000  1.0
  N  N112  1  0.03922000  0.89045000  0.69844000  1.0
  N  N113  1  0.96078000  0.10954000  0.30156000  1.0
  N  N114  1  0.99969000  0.72548000  0.81449000  1.0
  N  N115  1  0.00030000  0.27452000  0.18551000  1.0
  O  O116  1  0.71093000  0.64292000  0.62864000  1.0
  O  O117  1  0.28907000  0.35708000  0.37136000  1.0
  O  O118  1  0.77201000  0.72287000  0.49794000  1.0
  O  O119  1  0.22799000  0.27712000  0.50206000  1.0
  O  O120  1  0.97201000  0.30458000  0.55396000  1.0
  O  O121  1  0.02798000  0.69542000  0.44604000  1.0
  O  O122  1  0.84047000  0.41231000  0.61033000  1.0
  O  O123  1  0.15952000  0.58768000  0.38966000  1.0
  O  O124  1  0.12343000  0.60903000  0.62410000  1.0
  O  O125  1  0.87657000  0.39097000  0.37591000  1.0
  O  O126  1  0.30346000  0.56324000  0.62468000  1.0
  O  O127  1  0.69654000  0.43677000  0.37532000  1.0
  O  O128  1  0.47365000  0.39359000  0.81584000  1.0
  O  O129  1  0.52635000  0.60641000  0.18415000  1.0
  O  O130  1  0.70349000  0.51299000  0.92410000  1.0
  O  O131  1  0.29651000  0.48702000  0.07590000  1.0
