# generated using pymatgen
data_AgH16C16S2NO3
_symmetry_space_group_name_H-M   'P 1'
_cell_length_a   7.91339000
_cell_length_b   10.73060000
_cell_length_c   21.64390000
_cell_angle_alpha   90.00010000
_cell_angle_beta   89.99990000
_cell_angle_gamma   89.99990000
_symmetry_Int_Tables_number   1
_chemical_formula_structural   AgH16C16S2NO3
_chemical_formula_sum   'Ag4 H64 C64 S8 N4 O12'
_cell_volume   1837.90091810
_cell_formula_units_Z   4
loop_
 _symmetry_equiv_pos_site_id
 _symmetry_equiv_pos_as_xyz
  1  'x, y, z'
loop_
 _atom_site_type_symbol
 _atom_site_label
 _atom_site_symmetry_multiplicity
 _atom_site_fract_x
 _atom_site_fract_y
 _atom_site_fract_z
 _atom_site_occupancy
  Ag  Ag0  1  0.97002000  0.13149000  0.99782000  1.0
  Ag  Ag1  1  0.47002000  0.36851000  0.00218000  1.0
  Ag  Ag2  1  0.02998000  0.63149000  0.50218000  1.0
  Ag  Ag3  1  0.52998000  0.86850000  0.49782000  1.0
  H  H4  1  0.85342000  0.95192000  0.87085000  1.0
  H  H5  1  0.35342000  0.54807000  0.12915000  1.0
  H  H6  1  0.14659000  0.45192000  0.62915000  1.0
  H  H7  1  0.64658000  0.04808000  0.37085000  1.0
  H  H8  1  0.87264000  0.10007000  0.83552000  1.0
  H  H9  1  0.37263000  0.39993000  0.16448000  1.0
  H  H10  1  0.12737000  0.60007000  0.66448000  1.0
  H  H11  1  0.62737000  0.89994000  0.33552000  1.0
  H  H12  1  0.87200000  0.07768000  0.72669000  1.0
  H  H13  1  0.37199000  0.42232000  0.27331000  1.0
  H  H14  1  0.12801000  0.57768000  0.77331000  1.0
  H  H15  1  0.62800000  0.92232000  0.22669000  1.0
  H  H16  1  0.01026000  0.00100000  0.63117000  1.0
  H  H17  1  0.51024000  0.49900000  0.36883000  1.0
  H  H18  1  0.98975000  0.50100000  0.86883000  1.0
  H  H19  1  0.48974000  0.99901000  0.13117000  1.0
  H  H20  1  0.30676000  0.74613000  0.73983000  1.0
  H  H21  1  0.80675000  0.75387000  0.26017000  1.0
  H  H22  1  0.69325000  0.24613000  0.76017000  1.0
  H  H23  1  0.19324000  0.25388000  0.23983000  1.0
  H  H24  1  0.16577000  0.82107000  0.83493000  1.0
  H  H25  1  0.66577000  0.67893000  0.16507000  1.0
  H  H26  1  0.83423000  0.32107000  0.66507000  1.0
  H  H27  1  0.33423000  0.17894000  0.33493000  1.0
  H  H28  1  0.35315000  0.75303000  0.63283000  1.0
  H  H29  1  0.85313000  0.74697000  0.36717000  1.0
  H  H30  1  0.64686000  0.25303000  0.86717000  1.0
  H  H31  1  0.14686000  0.24698000  0.13282000  1.0
  H  H32  1  0.19008000  0.80949000  0.58333000  1.0
  H  H33  1  0.69008000  0.69051000  0.41667000  1.0
  H  H34  1  0.80992000  0.30949000  0.91667000  1.0
  H  H35  1  0.30993000  0.19051000  0.08333000  1.0
  H  H36  1  0.30178000  0.20384000  0.91061000  1.0
  H  H37  1  0.80178000  0.29616000  0.08939000  1.0
  H  H38  1  0.69823000  0.70384000  0.58939000  1.0
  H  H39  1  0.19823000  0.79615000  0.41061000  1.0
  H  H40  1  0.13655000  0.25060000  0.85980000  1.0
  H  H41  1  0.63655000  0.24940000  0.14020000  1.0
  H  H42  1  0.86345000  0.75060000  0.64020000  1.0
  H  H43  1  0.36345000  0.74939000  0.35980000  1.0
  H  H44  1  0.19350000  0.25935000  0.75385000  1.0
  H  H45  1  0.69351000  0.24064000  0.24615000  1.0
  H  H46  1  0.80650000  0.75935000  0.74615000  1.0
  H  H47  1  0.30650000  0.74064000  0.25385000  1.0
  H  H48  1  0.33761000  0.18218000  0.65985000  1.0
  H  H49  1  0.83761000  0.31781000  0.34015000  1.0
  H  H50  1  0.66240000  0.68218000  0.84015000  1.0
  H  H51  1  0.16239000  0.81782000  0.15985000  1.0
  H  H52  1  0.62735000  0.92826000  0.77115000  1.0
  H  H53  1  0.12735000  0.57175000  0.22885000  1.0
  H  H54  1  0.37265000  0.42825000  0.72886000  1.0
  H  H55  1  0.87266000  0.07175000  0.27115000  1.0
  H  H56  1  0.48747000  0.00801000  0.86555000  1.0
  H  H57  1  0.98746000  0.49200000  0.13445000  1.0
  H  H58  1  0.51254000  0.50800000  0.63445000  1.0
  H  H59  1  0.01254000  0.99199000  0.36555000  1.0
  H  H60  1  0.65250000  0.04556000  0.62690000  1.0
  H  H61  1  0.15250000  0.45445000  0.37310000  1.0
  H  H62  1  0.34750000  0.54555000  0.87310000  1.0
  H  H63  1  0.84750000  0.95445000  0.12690000  1.0
  H  H64  1  0.62189000  0.89861000  0.66245000  1.0
  H  H65  1  0.12189000  0.60140000  0.33755000  1.0
  H  H66  1  0.37811000  0.39861000  0.83755000  1.0
  H  H67  1  0.87811000  0.10140000  0.16245000  1.0
  C  C68  1  0.94108000  0.01367000  0.84583000  1.0
  C  C69  1  0.44108000  0.48632000  0.15417000  1.0
  C  C70  1  0.05892000  0.51367000  0.65417000  1.0
  C  C71  1  0.55892000  0.98633000  0.34582000  1.0
  C  C72  1  0.00970000  0.95531000  0.78756000  1.0
  C  C73  1  0.50969000  0.54469000  0.21244000  1.0
  C  C74  1  0.99031000  0.45531000  0.71244000  1.0
  C  C75  1  0.49030000  0.04469000  0.28756000  1.0
  C  C76  1  0.96412000  0.00239000  0.72943000  1.0
  C  C77  1  0.46411000  0.49761000  0.27057000  1.0
  C  C78  1  0.03588000  0.50239000  0.77058000  1.0
  C  C79  1  0.53588000  0.99761000  0.22943000  1.0
  C  C80  1  0.04159000  0.95908000  0.67572000  1.0
  C  C81  1  0.54158000  0.54092000  0.32428000  1.0
  C  C82  1  0.95842000  0.45908000  0.82428000  1.0
  C  C83  1  0.45841000  0.04092000  0.17572000  1.0
  C  C84  1  0.16905000  0.86862000  0.67898000  1.0
  C  C85  1  0.66904000  0.63138000  0.32102000  1.0
  C  C86  1  0.83095000  0.36862000  0.82102000  1.0
  C  C87  1  0.33095000  0.13138000  0.17898000  1.0
  C  C88  1  0.20739000  0.81645000  0.73661000  1.0
  C  C89  1  0.70738000  0.68355000  0.26339000  1.0
  C  C90  1  0.79261000  0.31645000  0.76339000  1.0
  C  C91  1  0.29261000  0.18356000  0.23661000  1.0
  C  C92  1  0.12778000  0.85833000  0.79012000  1.0
  C  C93  1  0.62778000  0.64167000  0.20988000  1.0
  C  C94  1  0.87222000  0.35833000  0.70988000  1.0
  C  C95  1  0.37222000  0.14168000  0.29012000  1.0
  C  C96  1  0.27034000  0.83273000  0.62319000  1.0
  C  C97  1  0.77033000  0.66726000  0.37681000  1.0
  C  C98  1  0.72966000  0.33273000  0.87681000  1.0
  C  C99  1  0.22966000  0.16727000  0.12319000  1.0
  C  C100  1  0.22446000  0.17480000  0.87098000  1.0
  C  C101  1  0.72447000  0.32520000  0.12903000  1.0
  C  C102  1  0.77554000  0.67480000  0.62902000  1.0
  C  C103  1  0.27554000  0.82520000  0.37097000  1.0
  C  C104  1  0.32940000  0.13875000  0.81609000  1.0
  C  C105  1  0.82940000  0.36125000  0.18391000  1.0
  C  C106  1  0.67061000  0.63875000  0.68391000  1.0
  C  C107  1  0.17060000  0.86124000  0.31609000  1.0
  C  C108  1  0.29312000  0.18946000  0.75798000  1.0
  C  C109  1  0.79313000  0.31054000  0.24201000  1.0
  C  C110  1  0.70688000  0.68946000  0.74202000  1.0
  C  C111  1  0.20688000  0.81053000  0.25799000  1.0
  C  C112  1  0.37420000  0.14612000  0.70507000  1.0
  C  C113  1  0.87420000  0.35388000  0.29493000  1.0
  C  C114  1  0.62581000  0.64612000  0.79493000  1.0
  C  C115  1  0.12580000  0.85388000  0.20507000  1.0
  C  C116  1  0.49125000  0.04867000  0.70878000  1.0
  C  C117  1  0.99125000  0.45133000  0.29122000  1.0
  C  C118  1  0.50875000  0.54867000  0.79122000  1.0
  C  C119  1  0.00875000  0.95133000  0.20878000  1.0
  C  C120  1  0.53581000  0.00375000  0.76746000  1.0
  C  C121  1  0.03580000  0.49625000  0.23254000  1.0
  C  C122  1  0.46420000  0.50375000  0.73254000  1.0
  C  C123  1  0.96420000  0.99625000  0.26746000  1.0
  C  C124  1  0.45732000  0.04880000  0.82061000  1.0
  C  C125  1  0.95732000  0.45120000  0.17939000  1.0
  C  C126  1  0.54268000  0.54880000  0.67939000  1.0
  C  C127  1  0.04268000  0.95119000  0.32061000  1.0
  C  C128  1  0.55948000  0.98703000  0.65123000  1.0
  C  C129  1  0.05947000  0.51298000  0.34877000  1.0
  C  C130  1  0.44052000  0.48703000  0.84877000  1.0
  C  C131  1  0.94053000  0.01298000  0.15123000  1.0
  S  S132  1  0.10460000  0.04450000  0.90363000  1.0
  S  S133  1  0.60460000  0.45550000  0.09637000  1.0
  S  S134  1  0.89541000  0.54450000  0.59638000  1.0
  S  S135  1  0.39540000  0.95549000  0.40363000  1.0
  S  S136  1  0.39820000  0.96041000  0.59201000  1.0
  S  S137  1  0.89820000  0.53959000  0.40799000  1.0
  S  S138  1  0.60180000  0.46041000  0.90799000  1.0
  S  S139  1  0.10180000  0.03959000  0.09201000  1.0
  N  N140  1  0.58719000  0.08263000  0.99262000  1.0
  N  N141  1  0.08717000  0.41737000  0.00737000  1.0
  N  N142  1  0.41281000  0.58263000  0.50738000  1.0
  N  N143  1  0.91281000  0.91737000  0.49262000  1.0
  O  O144  1  0.68348000  0.17912000  0.00271000  1.0
  O  O145  1  0.18347000  0.32089000  0.99730000  1.0
  O  O146  1  0.31652000  0.67912000  0.49729000  1.0
  O  O147  1  0.81653000  0.82088000  0.50271000  1.0
  O  O148  1  0.42946000  0.09971000  0.99351000  1.0
  O  O149  1  0.92945000  0.40027000  0.00648000  1.0
  O  O150  1  0.57054000  0.59971000  0.50649000  1.0
  O  O151  1  0.07054000  0.90030000  0.49351000  1.0
  O  O152  1  0.65310000  0.97868000  0.98234000  1.0
  O  O153  1  0.15306000  0.52133000  0.01765000  1.0
  O  O154  1  0.34690000  0.47868000  0.51767000  1.0
  O  O155  1  0.84689000  0.02132000  0.48234000  1.0
