# generated using pymatgen
data_CoH10C14(N3O2)2
_symmetry_space_group_name_H-M   'P 1'
_cell_length_a   9.10598000
_cell_length_b   9.33843000
_cell_length_c   9.33842000
_cell_angle_alpha   81.14710000
_cell_angle_beta   75.76000000
_cell_angle_gamma   75.76020000
_symmetry_Int_Tables_number   1
_chemical_formula_structural   CoH10C14(N3O2)2
_chemical_formula_sum   'Co2 H20 C28 N12 O8'
_cell_volume   742.35380552
_cell_formula_units_Z   2
loop_
 _symmetry_equiv_pos_site_id
 _symmetry_equiv_pos_as_xyz
  1  'x, y, z'
loop_
 _atom_site_type_symbol
 _atom_site_label
 _atom_site_symmetry_multiplicity
 _atom_site_fract_x
 _atom_site_fract_y
 _atom_site_fract_z
 _atom_site_occupancy
  Co  Co0  1  0.73723000  0.95808000  0.70390000  1.0
  Co  Co1  1  0.23723000  0.70390000  0.95808000  1.0
  H  H2  1  0.37128000  0.02913000  0.62323000  1.0
  H  H3  1  0.87129000  0.62323000  0.02913000  1.0
  H  H4  1  0.60270000  0.47489000  0.78726000  1.0
  H  H5  1  0.10269000  0.78726000  0.47491000  1.0
  H  H6  1  0.87805000  0.88223000  0.18491000  1.0
  H  H7  1  0.37805000  0.18491000  0.88223000  1.0
  H  H8  1  0.08432000  0.30620000  0.23870000  1.0
  H  H9  1  0.58433000  0.23871000  0.30621000  1.0
  H  H10  1  0.58621000  0.93431000  0.08492000  1.0
  H  H11  1  0.08621000  0.08492000  0.93429000  1.0
  H  H12  1  0.97855000  0.09875000  0.39885000  1.0
  H  H13  1  0.47853000  0.39886000  0.09876000  1.0
  H  H14  1  0.79211000  0.62699000  0.53583000  1.0
  H  H15  1  0.29210000  0.53582000  0.62700000  1.0
  H  H16  1  0.19697000  0.04047000  0.45492000  1.0
  H  H17  1  0.69698000  0.45493000  0.04045000  1.0
  H  H18  1  0.29889000  0.99518000  0.19048000  1.0
  H  H19  1  0.79889000  0.19049000  0.99516000  1.0
  H  H20  1  0.98779000  0.56509000  0.30087000  1.0
  H  H21  1  0.48780000  0.30088000  0.56509000  1.0
  C  C22  1  0.41804000  0.00504000  0.50873000  1.0
  C  C23  1  0.91805000  0.50873000  0.00503000  1.0
  C  C24  1  0.43726000  0.89837000  0.86745000  1.0
  C  C25  1  0.93727000  0.86744000  0.89837000  1.0
  C  C26  1  0.55148000  0.75266000  0.82535000  1.0
  C  C27  1  0.05148000  0.82535000  0.75267000  1.0
  C  C28  1  0.99650000  0.32887000  0.33994000  1.0
  C  C29  1  0.49651000  0.33995000  0.32888000  1.0
  C  C30  1  0.53804000  0.95077000  0.20140000  1.0
  C  C31  1  0.03804000  0.20140000  0.95075000  1.0
  C  C32  1  0.82930000  0.24720000  0.55887000  1.0
  C  C33  1  0.32929000  0.55887000  0.24721000  1.0
  C  C34  1  0.94072000  0.21218000  0.42858000  1.0
  C  C35  1  0.44071000  0.42859000  0.21218000  1.0
  C  C36  1  0.83278000  0.51401000  0.50469000  1.0
  C  C37  1  0.33276000  0.50469000  0.51402000  1.0
  C  C38  1  0.77768000  0.39555000  0.59537000  1.0
  C  C39  1  0.27767000  0.59536000  0.39557000  1.0
  C  C40  1  0.63568000  0.94082000  0.29920000  1.0
  C  C41  1  0.13568000  0.29920000  0.94081000  1.0
  C  C42  1  0.32179000  0.01253000  0.41260000  1.0
  C  C43  1  0.82180000  0.41261000  0.01251000  1.0
  C  C44  1  0.38009000  0.98719000  0.26136000  1.0
  C  C45  1  0.88009000  0.26137000  0.98716000  1.0
  C  C46  1  0.94251000  0.47728000  0.37650000  1.0
  C  C47  1  0.44250000  0.37650000  0.47729000  1.0
  C  C48  1  0.57851000  0.96842000  0.45000000  1.0
  C  C49  1  0.07852000  0.45000000  0.96841000  1.0
  N  N50  1  0.83458000  0.91812000  0.40617000  1.0
  N  N51  1  0.33459000  0.40617000  0.91812000  1.0
  N  N52  1  0.65463000  0.24876000  0.77029000  1.0
  N  N53  1  0.15462000  0.77030000  0.24878000  1.0
  N  N54  1  0.70712000  0.95381000  0.50946000  1.0
  N  N55  1  0.20713000  0.50946000  0.95381000  1.0
  N  N56  1  0.67105000  0.38785000  0.72574000  1.0
  N  N57  1  0.17104000  0.72574000  0.38787000  1.0
  N  N58  1  0.74912000  0.16205000  0.67108000  1.0
  N  N59  1  0.24911000  0.67108000  0.16206000  1.0
  N  N60  1  0.79328000  0.91063000  0.28056000  1.0
  N  N61  1  0.29329000  0.28056000  0.91063000  1.0
  O  O62  1  0.49963000  0.63548000  0.86326000  1.0
  O  O63  1  0.99963000  0.86326000  0.63548000  1.0
  O  O64  1  0.48872000  0.01601000  0.82962000  1.0
  O  O65  1  0.98873000  0.82960000  0.01602000  1.0
  O  O66  1  0.29897000  0.89348000  0.93661000  1.0
  O  O67  1  0.79897000  0.93660000  0.89349000  1.0
  O  O68  1  0.68963000  0.75913000  0.75600000  1.0
  O  O69  1  0.18964000  0.75601000  0.75913000  1.0
