# generated using pymatgen
data_CdH15C20N4O5
_symmetry_space_group_name_H-M   'P 1'
_cell_length_a   8.71217000
_cell_length_b   9.90441000
_cell_length_c   12.18290000
_cell_angle_alpha   87.80350000
_cell_angle_beta   81.75260000
_cell_angle_gamma   66.90010000
_symmetry_Int_Tables_number   1
_chemical_formula_structural   CdH15C20N4O5
_chemical_formula_sum   'Cd2 H30 C40 N8 O10'
_cell_volume   956.77568273
_cell_formula_units_Z   2
loop_
 _symmetry_equiv_pos_site_id
 _symmetry_equiv_pos_as_xyz
  1  'x, y, z'
loop_
 _atom_site_type_symbol
 _atom_site_label
 _atom_site_symmetry_multiplicity
 _atom_site_fract_x
 _atom_site_fract_y
 _atom_site_fract_z
 _atom_site_occupancy
  Cd  Cd0  1  0.02552000  0.77769000  0.06306000  1.0
  Cd  Cd1  1  0.97448000  0.22231000  0.93694000  1.0
  H  H2  1  0.60119000  0.23966000  0.89161000  1.0
  H  H3  1  0.39882000  0.76033000  0.10839000  1.0
  H  H4  1  0.98505000  0.61077000  0.65790000  1.0
  H  H5  1  0.01496000  0.38922000  0.34210000  1.0
  H  H6  1  0.77366000  0.98506000  0.87104000  1.0
  H  H7  1  0.22635000  0.01494000  0.12896000  1.0
  H  H8  1  0.61130000  0.30586000  0.68994000  1.0
  H  H9  1  0.38870000  0.69414000  0.31006000  1.0
  H  H10  1  0.33815000  0.22563000  0.99174000  1.0
  H  H11  1  0.66185000  0.77437000  0.00826000  1.0
  H  H12  1  0.10357000  0.32486000  0.71077000  1.0
  H  H13  1  0.89643000  0.67514000  0.28923000  1.0
  H  H14  1  0.22558000  0.38676000  0.54254000  1.0
  H  H15  1  0.77442000  0.61324000  0.45746000  1.0
  H  H16  1  0.36053000  0.47990000  0.55742000  1.0
  H  H17  1  0.63948000  0.52010000  0.44258000  1.0
  H  H18  1  0.71495000  0.09283000  0.35003000  1.0
  H  H19  1  0.28505000  0.90716000  0.64997000  1.0
  H  H20  1  0.26750000  0.49708000  0.38648000  1.0
  H  H21  1  0.73250000  0.50292000  0.61351000  1.0
  H  H22  1  0.53195000  0.33945000  0.06310000  1.0
  H  H23  1  0.46805000  0.66055000  0.93690000  1.0
  H  H24  1  0.65087000  0.00544000  0.68228000  1.0
  H  H25  1  0.34913000  0.99456000  0.31772000  1.0
  H  H26  1  0.71591000  0.84349000  0.60050000  1.0
  H  H27  1  0.28409000  0.15651000  0.39950000  1.0
  H  H28  1  0.87895000  0.12254000  0.68482000  1.0
  H  H29  1  0.12104000  0.87747000  0.31518000  1.0
  H  H30  1  0.91748000  0.80634000  0.43598000  1.0
  H  H31  1  0.08252000  0.19366000  0.56402000  1.0
  C  C32  1  0.49461000  0.25940000  0.84714000  1.0
  C  C33  1  0.50540000  0.74060000  0.15286000  1.0
  C  C34  1  0.95743000  0.68160000  0.72992000  1.0
  C  C35  1  0.04257000  0.31840000  0.27008000  1.0
  C  C36  1  0.84571000  0.87464000  0.83781000  1.0
  C  C37  1  0.15430000  0.12536000  0.16219000  1.0
  C  C38  1  0.49903000  0.29654000  0.73571000  1.0
  C  C39  1  0.50097000  0.70346000  0.26429000  1.0
  C  C40  1  0.34801000  0.25052000  0.90370000  1.0
  C  C41  1  0.65199000  0.74947000  0.09630000  1.0
  C  C42  1  0.21789000  0.30757000  0.74636000  1.0
  C  C43  1  0.78211000  0.69243000  0.25363000  1.0
  C  C44  1  0.35683000  0.32317000  0.68401000  1.0
  C  C45  1  0.64317000  0.67683000  0.31599000  1.0
  C  C46  1  0.34859000  0.37276000  0.56649000  1.0
  C  C47  1  0.65141000  0.62725000  0.43352000  1.0
  C  C48  1  0.49011000  0.29188000  0.38279000  1.0
  C  C49  1  0.50989000  0.70813000  0.61721000  1.0
  C  C50  1  0.62318000  0.18719000  0.31404000  1.0
  C  C51  1  0.37682000  0.81281000  0.68597000  1.0
  C  C52  1  0.37169000  0.41221000  0.33643000  1.0
  C  C53  1  0.62832000  0.58779000  0.66357000  1.0
  C  C54  1  0.63764000  0.20373000  0.19900000  1.0
  C  C55  1  0.36236000  0.79627000  0.80100000  1.0
  C  C56  1  0.51890000  0.32410000  0.15225000  1.0
  C  C57  1  0.48110000  0.67590000  0.84775000  1.0
  C  C58  1  0.38574000  0.42702000  0.22064000  1.0
  C  C59  1  0.61426000  0.57298000  0.77936000  1.0
  C  C60  1  0.25611000  0.55599000  0.17253000  1.0
  C  C61  1  0.74389000  0.44401000  0.82747000  1.0
  C  C62  1  0.77864000  0.08986000  0.12493000  1.0
  C  C63  1  0.22136000  0.91014000  0.87508000  1.0
  C  C64  1  0.76137000  0.91153000  0.64486000  1.0
  C  C65  1  0.23863000  0.08847000  0.35514000  1.0
  C  C66  1  0.88216000  0.95961000  0.56877000  1.0
  C  C67  1  0.11784000  0.04040000  0.43123000  1.0
  C  C68  1  0.92971000  0.06860000  0.60375000  1.0
  C  C69  1  0.07028000  0.93140000  0.39624000  1.0
  C  C70  1  0.95357000  0.89123000  0.46489000  1.0
  C  C71  1  0.04643000  0.10877000  0.53511000  1.0
  N  N72  1  0.95192000  0.76697000  0.89064000  1.0
  N  N73  1  0.04808000  0.23303000  0.10936000  1.0
  N  N74  1  0.84439000  0.82485000  0.73582000  1.0
  N  N75  1  0.15561000  0.17515000  0.26418000  1.0
  N  N76  1  0.02348000  0.64361000  0.82263000  1.0
  N  N77  1  0.97653000  0.35639000  0.17737000  1.0
  N  N78  1  0.21277000  0.27260000  0.85400000  1.0
  N  N79  1  0.78723000  0.72740000  0.14600000  1.0
  O  O80  1  0.88072000  0.98194000  0.17249000  1.0
  O  O81  1  0.11927000  0.01805000  0.82751000  1.0
  O  O82  1  0.15141000  0.65809000  0.23838000  1.0
  O  O83  1  0.84859000  0.34191000  0.76162000  1.0
  O  O84  1  0.25629000  0.55894000  0.06760000  1.0
  O  O85  1  0.74371000  0.44106000  0.93240000  1.0
  O  O86  1  0.48292000  0.26520000  0.49492000  1.0
  O  O87  1  0.51708000  0.73481000  0.50509000  1.0
  O  O88  1  0.78648000  0.10596000  0.02002000  1.0
  O  O89  1  0.21353000  0.89404000  0.97998000  1.0
