# generated using pymatgen
data_MnH8(C5O3)2
_symmetry_space_group_name_H-M   'P 1'
_cell_length_a   7.61503000
_cell_length_b   8.26292000
_cell_length_c   9.42499000
_cell_angle_alpha   64.05600000
_cell_angle_beta   81.22020000
_cell_angle_gamma   89.99680000
_symmetry_Int_Tables_number   1
_chemical_formula_structural   MnH8(C5O3)2
_chemical_formula_sum   'Mn2 H16 C20 O12'
_cell_volume   525.54090112
_cell_formula_units_Z   2
loop_
 _symmetry_equiv_pos_site_id
 _symmetry_equiv_pos_as_xyz
  1  'x, y, z'
loop_
 _atom_site_type_symbol
 _atom_site_label
 _atom_site_symmetry_multiplicity
 _atom_site_fract_x
 _atom_site_fract_y
 _atom_site_fract_z
 _atom_site_occupancy
  Mn  Mn0  1  0.24989000  0.92928000  0.99989000  1.0
  Mn  Mn1  1  0.75011000  0.07071000  0.00011000  1.0
  H  H2  1  0.78450000  0.13137000  0.51339000  1.0
  H  H3  1  0.71575000  0.64512000  0.48680000  1.0
  H  H4  1  0.21550000  0.86863000  0.48661000  1.0
  H  H5  1  0.28424000  0.35488000  0.51320000  1.0
  H  H6  1  0.87589000  0.36470000  0.27841000  1.0
  H  H7  1  0.62345000  0.64232000  0.72229000  1.0
  H  H8  1  0.12411000  0.63531000  0.72158000  1.0
  H  H9  1  0.37654000  0.35768000  0.27771000  1.0
  H  H10  1  0.97121000  0.34119000  0.10186000  1.0
  H  H11  1  0.52809000  0.44203000  0.89825000  1.0
  H  H12  1  0.02879000  0.65882000  0.89814000  1.0
  H  H13  1  0.47191000  0.55797000  0.10175000  1.0
  H  H14  1  0.98475000  0.16444000  0.29512000  1.0
  H  H15  1  0.51502000  0.45926000  0.70458000  1.0
  H  H16  1  0.01525000  0.83557000  0.70488000  1.0
  H  H17  1  0.48498000  0.54074000  0.29542000  1.0
  C  C18  1  0.45732000  0.02271000  0.35190000  1.0
  C  C19  1  0.04234000  0.37416000  0.64801000  1.0
  C  C20  1  0.54268000  0.97728000  0.64810000  1.0
  C  C21  1  0.95766000  0.62584000  0.35199000  1.0
  C  C22  1  0.62231000  0.09828000  0.35648000  1.0
  C  C23  1  0.87753000  0.45462000  0.64353000  1.0
  C  C24  1  0.37769000  0.90172000  0.64352000  1.0
  C  C25  1  0.12247000  0.54538000  0.35646000  1.0
  C  C26  1  0.66065000  0.07419000  0.50419000  1.0
  C  C27  1  0.83961000  0.57873000  0.49594000  1.0
  C  C28  1  0.33935000  0.92581000  0.49581000  1.0
  C  C29  1  0.16039000  0.42127000  0.50406000  1.0
  C  C30  1  0.40123000  0.03720000  0.20233000  1.0
  C  C31  1  0.09861000  0.23923000  0.79741000  1.0
  C  C32  1  0.59877000  0.96280000  0.79767000  1.0
  C  C33  1  0.90138000  0.76077000  0.20259000  1.0
  C  C34  1  0.90254000  0.27042000  0.22559000  1.0
  C  C35  1  0.59696000  0.49536000  0.77455000  1.0
  C  C36  1  0.09746000  0.72958000  0.77441000  1.0
  C  C37  1  0.40304000  0.50463000  0.22545000  1.0
  O  O38  1  0.25387000  0.95531000  0.21350000  1.0
  O  O39  1  0.24580000  0.16830000  0.78608000  1.0
  O  O40  1  0.74613000  0.04469000  0.78650000  1.0
  O  O41  1  0.75419000  0.83171000  0.21392000  1.0
  O  O42  1  0.49985000  0.12860000  0.06579000  1.0
  O  O43  1  0.00028000  0.19447000  0.93408000  1.0
  O  O44  1  0.50015000  0.87140000  0.93421000  1.0
  O  O45  1  0.99973000  0.80553000  0.06592000  1.0
  O  O46  1  0.73787000  0.19313000  0.21633000  1.0
  O  O47  1  0.76174000  0.40900000  0.78366000  1.0
  O  O48  1  0.26213000  0.80688000  0.78367000  1.0
  O  O49  1  0.23825000  0.59100000  0.21634000  1.0
