# generated using pymatgen
data_NiH12C8S(NO2)2
_symmetry_space_group_name_H-M   'P 1'
_cell_length_a   4.79763000
_cell_length_b   9.89967000
_cell_length_c   10.64550000
_cell_angle_alpha   90.00020000
_cell_angle_beta   90.00020000
_cell_angle_gamma   89.99980000
_symmetry_Int_Tables_number   1
_chemical_formula_structural   NiH12C8S(NO2)2
_chemical_formula_sum   'Ni2 H24 C16 S2 N4 O8'
_cell_volume   505.60753048
_cell_formula_units_Z   2
loop_
 _symmetry_equiv_pos_site_id
 _symmetry_equiv_pos_as_xyz
  1  'x, y, z'
loop_
 _atom_site_type_symbol
 _atom_site_label
 _atom_site_symmetry_multiplicity
 _atom_site_fract_x
 _atom_site_fract_y
 _atom_site_fract_z
 _atom_site_occupancy
  Ni  Ni0  1  0.83853000  0.13569000  0.50000000  1.0
  Ni  Ni1  1  0.16146000  0.63569000  0.50000000  1.0
  H  H2  1  0.55266000  0.81546000  0.00000000  1.0
  H  H3  1  0.44734000  0.31546000  0.00000000  1.0
  H  H4  1  0.35242000  0.89167000  0.20237000  1.0
  H  H5  1  0.64758000  0.39167000  0.79763000  1.0
  H  H6  1  0.64759000  0.39168000  0.20237000  1.0
  H  H7  1  0.35242000  0.89168000  0.79763000  1.0
  H  H8  1  0.86137000  0.18247000  0.22070000  1.0
  H  H9  1  0.13862000  0.68247000  0.77930000  1.0
  H  H10  1  0.13863000  0.68248000  0.22070000  1.0
  H  H11  1  0.86139000  0.18248000  0.77930000  1.0
  H  H12  1  0.69991000  0.02538000  0.24137000  1.0
  H  H13  1  0.30009000  0.52538000  0.75862000  1.0
  H  H14  1  0.30009000  0.52538000  0.24139000  1.0
  H  H15  1  0.69992000  0.02539000  0.75862000  1.0
  H  H16  1  0.77098000  0.14145000  0.00000000  1.0
  H  H17  1  0.22903000  0.64145000  0.00000000  1.0
  H  H18  1  0.24464000  0.10211000  0.34980000  1.0
  H  H19  1  0.75536000  0.60212000  0.65020000  1.0
  H  H20  1  0.75536000  0.60211000  0.34980000  1.0
  H  H21  1  0.24464000  0.10212000  0.65019000  1.0
  H  H22  1  0.08261000  0.95609000  0.37273000  1.0
  H  H23  1  0.91739000  0.45609000  0.62727000  1.0
  H  H24  1  0.91739000  0.45609000  0.37274000  1.0
  H  H25  1  0.08261000  0.95609000  0.62727000  1.0
  C  C26  1  0.37759000  0.88586000  0.00000000  1.0
  C  C27  1  0.62242000  0.38586000  0.00000000  1.0
  C  C28  1  0.04621000  0.02269000  0.11481000  1.0
  C  C29  1  0.95379000  0.52269000  0.88518000  1.0
  C  C30  1  0.95380000  0.52269000  0.11483000  1.0
  C  C31  1  0.04620000  0.02269000  0.88517000  1.0
  C  C32  1  0.26690000  0.93019000  0.11435000  1.0
  C  C33  1  0.73310000  0.43019000  0.88565000  1.0
  C  C34  1  0.73311000  0.43019000  0.11435000  1.0
  C  C35  1  0.26689000  0.93019000  0.88564000  1.0
  C  C36  1  0.90479000  0.07431000  0.23234000  1.0
  C  C37  1  0.09521000  0.57431000  0.76766000  1.0
  C  C38  1  0.09521000  0.57431000  0.23235000  1.0
  C  C39  1  0.90480000  0.07431000  0.76766000  1.0
  C  C40  1  0.94146000  0.06858000  1.00000000  1.0
  C  C41  1  0.05854000  0.56857000  0.00000000  1.0
  S  S42  1  0.60672000  0.82542000  0.50000000  1.0
  S  S43  1  0.39326000  0.32542000  0.50000000  1.0
  N  N44  1  0.05281000  0.05607000  0.35171000  1.0
  N  N45  1  0.94719000  0.55607000  0.64829000  1.0
  N  N46  1  0.94718000  0.55607000  0.35171000  1.0
  N  N47  1  0.05281000  0.05607000  0.64828000  1.0
  O  O48  1  0.54397000  0.97280000  0.50000000  1.0
  O  O49  1  0.45603000  0.47281000  0.50000000  1.0
  O  O50  1  0.91794000  0.81050000  0.49999000  1.0
  O  O51  1  0.08204000  0.31050000  0.50000000  1.0
  O  O52  1  0.48154000  0.75853000  0.38712000  1.0
  O  O53  1  0.51845000  0.25852000  0.61288000  1.0
  O  O54  1  0.51845000  0.25853000  0.38712000  1.0
  O  O55  1  0.48155000  0.75853000  0.61288000  1.0
