# generated using pymatgen
data_Zn2H24C15N3O8
_symmetry_space_group_name_H-M   'P 1'
_cell_length_a   15.50350000
_cell_length_b   15.53780000
_cell_length_c   17.21847123
_cell_angle_alpha   64.38755518
_cell_angle_beta   64.09689328
_cell_angle_gamma   63.63600000
_symmetry_Int_Tables_number   1
_chemical_formula_structural   Zn2H24C15N3O8
_chemical_formula_sum   'Zn8 H96 C60 N12 O32'
_cell_volume   3193.54378815
_cell_formula_units_Z   4
loop_
 _symmetry_equiv_pos_site_id
 _symmetry_equiv_pos_as_xyz
  1  'x, y, z'
loop_
 _atom_site_type_symbol
 _atom_site_label
 _atom_site_symmetry_multiplicity
 _atom_site_fract_x
 _atom_site_fract_y
 _atom_site_fract_z
 _atom_site_occupancy
  Zn  Zn0  1  0.15978000  0.82720000  0.00014000  1.0
  Zn  Zn1  1  0.96849000  0.78871000  0.16216000  1.0
  Zn  Zn2  1  0.95643000  0.87148000  0.95902000  1.0
  Zn  Zn3  1  0.96094000  0.01365000  0.04630000  1.0
  Zn  Zn4  1  0.36512000  0.41958000  0.57842000  1.0
  Zn  Zn5  1  0.54945000  0.41403000  0.40503000  1.0
  Zn  Zn6  1  0.56397000  0.22885000  0.58926000  1.0
  Zn  Zn7  1  0.56040000  0.45065000  0.56969000  1.0
  H  H8  1  0.17705000  0.50981000  0.25522000  1.0
  H  H9  1  0.29252000  0.51771000  0.16659000  1.0
  H  H10  1  0.33787000  0.58146000  0.24189000  1.0
  H  H11  1  0.21077000  0.63360000  0.30225000  1.0
  H  H12  1  0.30604000  0.40541000  0.33996000  1.0
  H  H13  1  0.14732000  0.50772000  0.47346000  1.0
  H  H14  1  0.07944000  0.29706000  0.58382000  1.0
  H  H15  1  0.01840000  0.42905000  0.66180000  1.0
  H  H16  1  0.14061000  0.39078000  0.61615000  1.0
  H  H17  1  0.94115000  0.50047000  0.50342000  1.0
  H  H18  1  0.87051000  0.47246000  0.66794000  1.0
  H  H19  1  0.80016000  0.43635000  0.63630000  1.0
  H  H20  1  0.89424000  0.34268000  0.68757000  1.0
  H  H21  1  0.99587000  0.36166000  0.43521000  1.0
  H  H22  1  0.86392000  0.39595000  0.49504000  1.0
  H  H23  1  0.94965000  0.28388000  0.54415000  1.0
  H  H24  1  0.16474000  0.83410000  0.70557000  1.0
  H  H25  1  0.28184000  0.81533000  0.71674000  1.0
  H  H26  1  0.31676000  0.63472000  0.77605000  1.0
  H  H27  1  0.19102000  0.64361000  0.79766000  1.0
  H  H28  1  0.32184000  0.72419000  0.60725000  1.0
  H  H29  1  0.12471000  0.68969000  0.68060000  1.0
  H  H30  1  0.12011000  0.74500000  0.45744000  1.0
  H  H31  1  0.98603000  0.67587000  0.58452000  1.0
  H  H32  1  0.09718000  0.59300000  0.58010000  1.0
  H  H33  1  0.99921000  0.83600000  0.61438000  1.0
  H  H34  1  0.88701000  0.81560000  0.55895000  1.0
  H  H35  1  0.87570000  0.94376000  0.52552000  1.0
  H  H36  1  0.94924000  0.87472000  0.44555000  1.0
  H  H37  1  0.13675000  0.91231000  0.50724000  1.0
  H  H38  1  0.01680000  0.99941000  0.49763000  1.0
  H  H39  1  0.09921000  0.93573000  0.41460000  1.0
  H  H40  1  0.18698000  0.15114000  0.97746000  1.0
  H  H41  1  0.29689000  0.04299000  0.98231000  1.0
  H  H42  1  0.34057000  0.05583000  0.82731000  1.0
  H  H43  1  0.21594000  0.12712000  0.82200000  1.0
  H  H44  1  0.33658000  0.21126000  0.85597000  1.0
  H  H45  1  0.16667000  0.32979000  0.77888000  1.0
  H  H46  1  0.09300000  0.50472000  0.88684000  1.0
  H  H47  1  0.02797000  0.54940000  0.75832000  1.0
  H  H48  1  0.15123000  0.50889000  0.72860000  1.0
  H  H49  1  0.98246000  0.37398000  0.90327000  1.0
  H  H50  1  0.88775000  0.55801000  0.85674000  1.0
  H  H51  1  0.82691000  0.50034000  0.97005000  1.0
  H  H52  1  0.90148000  0.57335000  0.94704000  1.0
  H  H53  1  0.05267000  0.29804000  0.03220000  1.0
  H  H54  1  0.91966000  0.35418000  0.06950000  1.0
  H  H55  1  0.00230000  0.41574000  0.05301000  1.0
  H  H56  1  0.68574000  0.83569000  0.19531000  1.0
  H  H57  1  0.67780000  0.77721000  0.13211000  1.0
  H  H58  1  0.74859000  0.60799000  0.23145000  1.0
  H  H59  1  0.77221000  0.66273000  0.28828000  1.0
  H  H60  1  0.55925000  0.71346000  0.28321000  1.0
  H  H61  1  0.60692000  0.72555000  0.42617000  1.0
  H  H62  1  0.36195000  0.85761000  0.49433000  1.0
  H  H63  1  0.48128000  0.81113000  0.58279000  1.0
  H  H64  1  0.48359000  0.71674000  0.56103000  1.0
  H  H65  1  0.51863000  0.96683000  0.39918000  1.0
  H  H66  1  0.47404000  0.95100000  0.56072000  1.0
  H  H67  1  0.40823000  0.07361000  0.50516000  1.0
  H  H68  1  0.34309000  0.98403000  0.57454000  1.0
  H  H69  1  0.38307000  0.02193000  0.32811000  1.0
  H  H70  1  0.36761000  0.11565000  0.37157000  1.0
  H  H71  1  0.28943000  0.03731000  0.43150000  1.0
  H  H72  1  0.67460000  0.04075000  0.26196000  1.0
  H  H73  1  0.70494000  0.93626000  0.35520000  1.0
  H  H74  1  0.76286000  0.02813000  0.39481000  1.0
  H  H75  1  0.78908000  0.11043000  0.28308000  1.0
  H  H76  1  0.57411000  0.10733000  0.40206000  1.0
  H  H77  1  0.65237000  0.25119000  0.22768000  1.0
  H  H78  1  0.40761000  0.38786000  0.21240000  1.0
  H  H79  1  0.55416000  0.45172000  0.09674000  1.0
  H  H80  1  0.53219000  0.44732000  0.20075000  1.0
  H  H81  1  0.59008000  0.25742000  0.10202000  1.0
  H  H82  1  0.51746000  0.43190000  0.00676000  1.0
  H  H83  1  0.49103000  0.34048000  0.99238000  1.0
  H  H84  1  0.39509000  0.41713000  0.06130000  1.0
  H  H85  1  0.48293000  0.15265000  0.21658000  1.0
  H  H86  1  0.45797000  0.19358000  0.11230000  1.0
  H  H87  1  0.37159000  0.25130000  0.19878000  1.0
  H  H88  1  0.70405000  0.15481000  0.92498000  1.0
  H  H89  1  0.76721000  0.24422000  0.87633000  1.0
  H  H90  1  0.81409000  0.23419000  0.72734000  1.0
  H  H91  1  0.81680000  0.10708000  0.76791000  1.0
  H  H92  1  0.61862000  0.27101000  0.81683000  1.0
  H  H93  1  0.64390000  0.07827000  0.79971000  1.0
  H  H94  1  0.42158000  0.07692000  0.96659000  1.0
  H  H95  1  0.51166000  0.94572000  0.88223000  1.0
  H  H96  1  0.49915000  0.06197000  0.81433000  1.0
  H  H97  1  0.62303000  0.92927000  0.99567000  1.0
  H  H98  1  0.53936000  0.82993000  0.98944000  1.0
  H  H99  1  0.52169000  0.80905000  0.10399000  1.0
  H  H100  1  0.42092000  0.89079000  0.05814000  1.0
  H  H101  1  0.53268000  0.04753000  0.08875000  1.0
  H  H102  1  0.52080000  0.92636000  0.15956000  1.0
  H  H103  1  0.41878000  0.02264000  0.12214000  1.0
  C  C104  1  0.16998333  0.65528000  0.16335000  1.0
  C  C105  1  0.22818000  0.55554000  0.21451000  1.0
  C  C106  1  0.26437000  0.56822000  0.27796000  1.0
  C  C107  1  0.27185000  0.47441000  0.36077000  1.0
  C  C108  1  0.14189000  0.39010000  0.45747000  1.0
  C  C109  1  0.06268000  0.37935000  0.55179000  1.0
  C  C110  1  0.95381000  0.42131000  0.54582000  1.0
  C  C111  1  0.87573000  0.41839000  0.63965000  1.0
  C  C112  1  0.94027000  0.36271000  0.50195000  1.0
  C  C113  1  0.34189000  0.46681000  0.40552000  1.0
  C  C114  1  0.15930000  0.80358000  0.83984000  1.0
  C  C115  1  0.21606000  0.78875000  0.74728000  1.0
  C  C116  1  0.25090000  0.67811000  0.75093000  1.0
  C  C117  1  0.27823000  0.67252000  0.65600000  1.0
  C  C118  1  0.19709000  0.71694000  0.54504000  1.0
  C  C119  1  0.09807000  0.74062000  0.52914000  1.0
  C  C120  1  0.02284000  0.84365000  0.54181000  1.0
  C  C121  1  0.92862000  0.87027000  0.51673000  1.0
  C  C122  1  0.07186000  0.92719000  0.48739000  1.0
  C  C123  1  0.34903000  0.56916000  0.64436000  1.0
  C  C124  1  0.16848000  0.01828000  0.98841000  1.0
  C  C125  1  0.23306000  0.08400000  0.95455000  1.0
  C  C126  1  0.27291000  0.11524000  0.85061000  1.0
  C  C127  1  0.29550000  0.21482000  0.81555000  1.0
  C  C128  1  0.18058000  0.35838000  0.87584000  1.0
  C  C129  1  0.08699000  0.45072000  0.86499000  1.0
  C  C130  1  0.98860000  0.42458000  0.92871000  1.0
  C  C131  1  0.89644000  0.51951000  0.92480000  1.0
  C  C132  1  0.99128000  0.36984000  0.02627000  1.0
  C  C133  1  0.36238000  0.23493000  0.71733000  1.0
  C  C134  1  0.82631000  0.77195000  0.11126000  1.0
  C  C135  1  0.72188000  0.76795000  0.17228000  1.0
  C  C136  1  0.72089000  0.67461000  0.25379000  1.0
  C  C137  1  0.61385000  0.68332000  0.32054000  1.0
  C  C138  1  0.48469000  0.81909000  0.38369000  1.0
  C  C139  1  0.44220000  0.85476000  0.46776000  1.0
  C  C140  1  0.44173000  0.96374000  0.44225000  1.0
  C  C141  1  0.41595000  0.99363000  0.52579000  1.0
  C  C142  1  0.36667000  0.03912000  0.38946000  1.0
  C  C143  1  0.60869000  0.57828000  0.38114000  1.0
  C  C144  1  0.82755000  0.95620000  0.23336000  1.0
  C  C145  1  0.73022000  0.99817000  0.29991000  1.0
  C  C146  1  0.73569000  0.07006000  0.33531000  1.0
  C  C147  1  0.63098000  0.14643000  0.36008000  1.0
  C  C148  1  0.50426000  0.26444000  0.28301000  1.0
  C  C149  1  0.48866000  0.34418000  0.19448000  1.0
  C  C150  1  0.50796000  0.29595000  0.12408000  1.0
  C  C151  1  0.47659000  0.37636000  0.04148000  1.0
  C  C152  1  0.45222000  0.21868000  0.16541000  1.0
  C  C153  1  0.62540000  0.20261000  0.41713000  1.0
  C  C154  1  0.85694000  0.09026000  0.91122000  1.0
  C  C155  1  0.77308000  0.17236000  0.87386000  1.0
  C  C156  1  0.77559000  0.18031000  0.78125000  1.0
  C  C157  1  0.66611000  0.21364000  0.78114000  1.0
  C  C158  1  0.54705000  0.12842000  0.90785000  1.0
  C  C159  1  0.50416000  0.04271000  0.93904000  1.0
  C  C160  1  0.53959000  0.95516000  0.01849000  1.0
  C  C161  1  0.50351000  0.86673000  0.04291000  1.0
  C  C162  1  0.50161000  0.98994000  0.10170000  1.0
  C  C163  1  0.65388000  0.26203000  0.68673000  1.0
  N  N164  1  0.17400000  0.47150000  0.42626000  1.0
  N  N165  1  0.07377000  0.42911000  0.60134000  1.0
  N  N166  1  0.18825000  0.70394000  0.63170000  1.0
  N  N167  1  0.05304000  0.66043000  0.59314000  1.0
  N  N168  1  0.20344000  0.29804000  0.82625000  1.0
  N  N169  1  0.08831000  0.48753000  0.77036000  1.0
  N  N170  1  0.57974000  0.75011000  0.37328000  1.0
  N  N171  1  0.49936000  0.78317000  0.53203000  1.0
  N  N172  1  0.60327000  0.21507000  0.27945000  1.0
  N  N173  1  0.55615000  0.40416000  0.15977000  1.0
  N  N174  1  0.62517000  0.13086000  0.82977000  1.0
  N  N175  1  0.53276000  0.00736000  0.86210000  1.0
  O  O176  1  0.01178000  0.87626000  0.04007000  1.0
  O  O177  1  0.07933000  0.69319000  0.20899000  1.0
  O  O178  1  0.21404000  0.69484000  0.08109000  1.0
  O  O179  1  0.17302000  0.32987000  0.41512000  1.0
  O  O180  1  0.43513000  0.45125000  0.36065000  1.0
  O  O181  1  0.30141000  0.47611000  0.48500000  1.0
  O  O182  1  0.06796000  0.80291000  0.87222000  1.0
  O  O183  1  0.20700000  0.81414000  0.87775000  1.0
  O  O184  1  0.27904000  0.71101000  0.48466000  1.0
  O  O185  1  0.44256000  0.55304000  0.62631000  1.0
  O  O186  1  0.30868000  0.50794000  0.65365000  1.0
  O  O187  1  0.07324000  0.06149000  0.01172000  1.0
  O  O188  1  0.21419000  0.92695000  0.98768000  1.0
  O  O189  1  0.22821000  0.33961000  0.92601000  1.0
  O  O190  1  0.45650000  0.18619000  0.70260000  1.0
  O  O191  1  0.32064000  0.29990000  0.65670000  1.0
  O  O192  1  0.90025000  0.72009000  0.14387000  1.0
  O  O193  1  0.83391000  0.83041000  0.03026000  1.0
  O  O194  1  0.43648000  0.84963000  0.33068000  1.0
  O  O195  1  0.60033000  0.52729000  0.34478000  1.0
  O  O196  1  0.61499000  0.54938000  0.46041000  1.0
  O  O197  1  0.87123000  0.01873000  0.16942000  1.0
  O  O198  1  0.85678000  0.86171000  0.24534000  1.0
  O  O199  1  0.43354000  0.24500000  0.35109000  1.0
  O  O200  1  0.60650000  0.15858000  0.50218000  1.0
  O  O201  1  0.63987000  0.28776000  0.37650000  1.0
  O  O202  1  0.90023000  0.01095000  0.88629000  1.0
  O  O203  1  0.87377000  0.10610000  0.96947000  1.0
  O  O204  1  0.51284000  0.18977000  0.95023000  1.0
  O  O205  1  0.63626000  0.35724000  0.65530000  1.0
  O  O206  1  0.66053000  0.20526000  0.64741000  1.0
  O  O207  1  0.51194000  0.37636000  0.53776000  1.0
