# generated using pymatgen
data_Dy2CoH20(C7O6)4
_symmetry_space_group_name_H-M   'P 1'
_cell_length_a   9.18187000
_cell_length_b   10.07890000
_cell_length_c   11.58900000
_cell_angle_alpha   73.65250000
_cell_angle_beta   79.45870000
_cell_angle_gamma   83.16920000
_symmetry_Int_Tables_number   1
_chemical_formula_structural   Dy2CoH20(C7O6)4
_chemical_formula_sum   'Dy2 Co1 H20 C28 O24'
_cell_volume   1009.16725111
_cell_formula_units_Z   1
loop_
 _symmetry_equiv_pos_site_id
 _symmetry_equiv_pos_as_xyz
  1  'x, y, z'
loop_
 _atom_site_type_symbol
 _atom_site_label
 _atom_site_symmetry_multiplicity
 _atom_site_fract_x
 _atom_site_fract_y
 _atom_site_fract_z
 _atom_site_occupancy
  Dy  Dy0  1  0.90845000  0.91582000  0.36102000  1.0
  Dy  Dy1  1  0.09155000  0.08418000  0.63898000  1.0
  Co  Co2  1  0.00000000  0.00000000  0.00000000  1.0
  H  H3  1  0.78987000  0.65730000  0.49035000  1.0
  H  H4  1  0.21013000  0.34270000  0.50965000  1.0
  H  H5  1  0.73322000  0.99502000  0.57501000  1.0
  H  H6  1  0.26678000  0.00498000  0.42499000  1.0
  H  H7  1  0.25938000  0.21607000  0.98011000  1.0
  H  H8  1  0.74063000  0.78393000  0.01989000  1.0
  H  H9  1  0.56418000  0.23338000  0.92845000  1.0
  H  H10  1  0.43582000  0.76662000  0.07155000  1.0
  H  H11  1  0.84034000  0.29353000  0.15057000  1.0
  H  H12  1  0.15966000  0.70647000  0.84943000  1.0
  H  H13  1  0.84979000  0.56860000  0.02662000  1.0
  H  H14  1  0.15021000  0.43140000  0.97338000  1.0
  H  H15  1  0.49787000  0.88056000  0.61863000  1.0
  H  H16  1  0.50213000  0.11944000  0.38137000  1.0
  H  H17  1  0.66079000  0.77108000  0.65672000  1.0
  H  H18  1  0.33921000  0.22892000  0.34328000  1.0
  H  H19  1  0.52610000  0.67212000  0.53518000  1.0
  H  H20  1  0.47390000  0.32788000  0.46482000  1.0
  H  H21  1  0.53503000  0.83082000  0.41698000  1.0
  H  H22  1  0.46497000  0.16918000  0.58302000  1.0
  C  C23  1  0.17504000  0.02084000  0.22328000  1.0
  C  C24  1  0.82496000  0.97916000  0.77672000  1.0
  C  C25  1  0.31302000  0.07495000  0.15014000  1.0
  C  C26  1  0.68698000  0.92505000  0.84986000  1.0
  C  C27  1  0.34289000  0.16667000  0.03671000  1.0
  C  C28  1  0.65711000  0.83333000  0.96329000  1.0
  C  C29  1  0.49872000  0.17432000  0.01036000  1.0
  C  C30  1  0.50128000  0.82569000  0.98964000  1.0
  C  C31  1  0.55553000  0.08704000  0.10937000  1.0
  C  C32  1  0.44447000  0.91296000  0.89063000  1.0
  C  C33  1  0.70915000  0.04198000  0.12942000  1.0
  C  C34  1  0.29085000  0.95802000  0.87058000  1.0
  C  C35  1  0.96949000  0.72668000  0.17196000  1.0
  C  C36  1  0.03051000  0.27332000  0.82804000  1.0
  C  C37  1  0.95604000  0.23967000  0.38649000  1.0
  C  C38  1  0.04396000  0.76033000  0.61351000  1.0
  C  C39  1  0.92977000  0.36184000  0.28613000  1.0
  C  C40  1  0.07023000  0.63816000  0.71387000  1.0
  C  C41  1  0.87496000  0.37662000  0.17959000  1.0
  C  C42  1  0.12504000  0.62339000  0.82041000  1.0
  C  C43  1  0.88146000  0.51846000  0.11511000  1.0
  C  C44  1  0.11855000  0.48155000  0.88489000  1.0
  C  C45  1  0.93964000  0.58204000  0.18596000  1.0
  C  C46  1  0.06036000  0.41796000  0.81404000  1.0
  C  C47  1  0.60772000  0.84020000  0.58122000  1.0
  C  C48  1  0.39228000  0.15980000  0.41878000  1.0
  C  C49  1  0.59102000  0.76296000  0.49035000  1.0
  C  C50  1  0.40898000  0.23703000  0.50965000  1.0
  O  O51  1  0.17268000  0.95327000  0.33587000  1.0
  O  O52  1  0.82732000  0.04673000  0.66413000  1.0
  O  O53  1  0.05673000  0.04259000  0.17533000  1.0
  O  O54  1  0.94328000  0.95741000  0.82467000  1.0
  O  O55  1  0.44295000  0.02705000  0.19632000  1.0
  O  O56  1  0.55705000  0.97295000  0.80368000  1.0
  O  O57  1  0.73468000  0.97567000  0.23528000  1.0
  O  O58  1  0.26532000  0.02433000  0.76472000  1.0
  O  O59  1  0.80323000  0.07424000  0.03178000  1.0
  O  O60  1  0.19678000  0.92576000  0.96822000  1.0
  O  O61  1  0.94797000  0.81081000  0.06988000  1.0
  O  O62  1  0.05203000  0.18919000  0.93012000  1.0
  O  O63  1  0.01022000  0.75539000  0.26033000  1.0
  O  O64  1  0.98978000  0.24461000  0.73967000  1.0
  O  O65  1  0.90336000  0.12850000  0.38666000  1.0
  O  O66  1  0.09664000  0.87150000  0.61334000  1.0
  O  O67  1  0.02957000  0.25052000  0.46605000  1.0
  O  O68  1  0.97043000  0.74949000  0.53394000  1.0
  O  O69  1  0.96944000  0.48683000  0.29074000  1.0
  O  O70  1  0.03056000  0.51317000  0.70926000  1.0
  O  O71  1  0.69974000  0.95226000  0.51659000  1.0
  O  O72  1  0.30026000  0.04774000  0.48341000  1.0
  O  O73  1  0.73490000  0.72201000  0.43020000  1.0
  O  O74  1  0.26510000  0.27799000  0.56980000  1.0
