# generated using pymatgen
data_ZnH16C13I2NO4
_symmetry_space_group_name_H-M   'P 1'
_cell_length_a   9.56312000
_cell_length_b   14.61560000
_cell_length_c   16.03940000
_cell_angle_alpha   90.01840000
_cell_angle_beta   90.00000000
_cell_angle_gamma   89.99900000
_symmetry_Int_Tables_number   1
_chemical_formula_structural   ZnH16C13I2NO4
_chemical_formula_sum   'Zn4 H64 C52 I8 N4 O16'
_cell_volume   2241.83863783
_cell_formula_units_Z   4
loop_
 _symmetry_equiv_pos_site_id
 _symmetry_equiv_pos_as_xyz
  1  'x, y, z'
loop_
 _atom_site_type_symbol
 _atom_site_label
 _atom_site_symmetry_multiplicity
 _atom_site_fract_x
 _atom_site_fract_y
 _atom_site_fract_z
 _atom_site_occupancy
  Zn  Zn0  1  0.64757000  0.50433000  0.99964000  1.0
  Zn  Zn1  1  0.35127000  0.49572000  0.99985000  1.0
  Zn  Zn2  1  0.64873000  0.99572000  0.49984000  1.0
  Zn  Zn3  1  0.35243000  0.00433000  0.49964000  1.0
  H  H4  1  0.71384000  0.71795000  0.79323000  1.0
  H  H5  1  0.43281000  0.40289000  0.29447000  1.0
  H  H6  1  0.31621000  0.61460000  0.25003000  1.0
  H  H7  1  0.56714000  0.59639000  0.29295000  1.0
  H  H8  1  0.56714000  0.90287000  0.79447000  1.0
  H  H9  1  0.31630000  0.88598000  0.75113000  1.0
  H  H10  1  0.43287000  0.09639000  0.79297000  1.0
  H  H11  1  0.68379000  0.11458000  0.75004000  1.0
  H  H12  1  0.72992000  0.28561000  0.19740000  1.0
  H  H13  1  0.29766000  0.36345000  0.22764000  1.0
  H  H14  1  0.27054000  0.71565000  0.19720000  1.0
  H  H15  1  0.27266000  0.71083000  0.82563000  1.0
  H  H16  1  0.70238000  0.63650000  0.22655000  1.0
  H  H17  1  0.70232000  0.86345000  0.72764000  1.0
  H  H18  1  0.27008000  0.78557000  0.69738000  1.0
  H  H19  1  0.29762000  0.13651000  0.72657000  1.0
  H  H20  1  0.72946000  0.21564000  0.69720000  1.0
  H  H21  1  0.57681000  0.59766000  0.73811000  1.0
  H  H22  1  0.39462000  0.61641000  0.72855000  1.0
  H  H23  1  0.42135000  0.40218000  0.73963000  1.0
  H  H24  1  0.60365000  0.38403000  0.72985000  1.0
  H  H25  1  0.60537000  0.11642000  0.22858000  1.0
  H  H26  1  0.28517000  0.28090000  0.79409000  1.0
  H  H27  1  0.42319000  0.09769000  0.23813000  1.0
  H  H28  1  0.39639000  0.88405000  0.22985000  1.0
  H  H29  1  0.57870000  0.90218000  0.23963000  1.0
  H  H30  1  0.54353000  0.20190000  0.10922000  1.0
  H  H31  1  0.36852000  0.21488000  0.14104000  1.0
  H  H32  1  0.45792000  0.79973000  0.10969000  1.0
  H  H33  1  0.63273000  0.78577000  0.14154000  1.0
  H  H34  1  0.63149000  0.71487000  0.64103000  1.0
  H  H35  1  0.45649000  0.70189000  0.60920000  1.0
  H  H36  1  0.36728000  0.28577000  0.64155000  1.0
  H  H37  1  0.72636000  0.28914000  0.82608000  1.0
  H  H38  1  0.54208000  0.29971000  0.60969000  1.0
  H  H39  1  0.12427000  0.64148000  0.00945000  1.0
  H  H40  1  0.87668000  0.64347000  0.01528000  1.0
  H  H41  1  0.87444000  0.35786000  0.99974000  1.0
  H  H42  1  0.12210000  0.35539000  0.00591000  1.0
  H  H43  1  0.12328000  0.14347000  0.51520000  1.0
  H  H44  1  0.87567000  0.14148000  0.50946000  1.0
  H  H45  1  0.87793000  0.85539000  0.50588000  1.0
  H  H46  1  0.12559000  0.85786000  0.49980000  1.0
  H  H47  1  0.12735000  0.58023000  0.10452000  1.0
  H  H48  1  0.72732000  0.21087000  0.32565000  1.0
  H  H49  1  0.87960000  0.57688000  0.10749000  1.0
  H  H50  1  0.87081000  0.41150000  0.09861000  1.0
  H  H51  1  0.11870000  0.41441000  0.10226000  1.0
  H  H52  1  0.12042000  0.07694000  0.60744000  1.0
  H  H53  1  0.87268000  0.08021000  0.60452000  1.0
  H  H54  1  0.88127000  0.91439000  0.60224000  1.0
  H  H55  1  0.12916000  0.91155000  0.59864000  1.0
  H  H56  1  0.12721000  0.56158000  0.87942000  1.0
  H  H57  1  0.87917000  0.56923000  0.88179000  1.0
  H  H58  1  0.87234000  0.44807000  0.87530000  1.0
  H  H59  1  0.28615000  0.21796000  0.29325000  1.0
  H  H60  1  0.12044000  0.44021000  0.87773000  1.0
  H  H61  1  0.12085000  0.06916000  0.38175000  1.0
  H  H62  1  0.87281000  0.06159000  0.37943000  1.0
  H  H63  1  0.87952000  0.94023000  0.37771000  1.0
  H  H64  1  0.12763000  0.94800000  0.37531000  1.0
  H  H65  1  0.27366000  0.78916000  0.32608000  1.0
  H  H66  1  0.71485000  0.78089000  0.29408000  1.0
  H  H67  1  0.68364000  0.38601000  0.25114000  1.0
  C  C68  1  0.49441000  0.61986000  0.11900000  1.0
  C  C69  1  0.50064000  0.37038000  0.88875000  1.0
  C  C70  1  0.50219000  0.12846000  0.38774000  1.0
  C  C71  1  0.49939000  0.87038000  0.38875000  1.0
  C  C72  1  0.62964000  0.76183000  0.81641000  1.0
  C  C73  1  0.35980000  0.75867000  0.81925000  1.0
  C  C74  1  0.36987000  0.23702000  0.81652000  1.0
  C  C75  1  0.63957000  0.24108000  0.81930000  1.0
  C  C76  1  0.64019000  0.25871000  0.31927000  1.0
  C  C77  1  0.37036000  0.26184000  0.31642000  1.0
  C  C78  1  0.36044000  0.74109000  0.31930000  1.0
  C  C79  1  0.50516000  0.38126000  0.11990000  1.0
  C  C80  1  0.63014000  0.73701000  0.31651000  1.0
  C  C81  1  0.65010000  0.31568000  0.23859000  1.0
  C  C82  1  0.39515000  0.34350000  0.25878000  1.0
  C  C83  1  0.35017000  0.68497000  0.23813000  1.0
  C  C84  1  0.60494000  0.65617000  0.25791000  1.0
  C  C85  1  0.60483000  0.84349000  0.75878000  1.0
  C  C86  1  0.34988000  0.81566000  0.73857000  1.0
  C  C87  1  0.39506000  0.15617000  0.75792000  1.0
  C  C88  1  0.64983000  0.18495000  0.73813000  1.0
  C  C89  1  0.49614000  0.65104000  0.73537000  1.0
  C  C90  1  0.50558000  0.11986000  0.61900000  1.0
  C  C91  1  0.50235000  0.34907000  0.73638000  1.0
  C  C92  1  0.50386000  0.15106000  0.23539000  1.0
  C  C93  1  0.49767000  0.84907000  0.23638000  1.0
  C  C94  1  0.49585000  0.70334000  0.82128000  1.0
  C  C95  1  0.50313000  0.29591000  0.82187000  1.0
  C  C96  1  0.50415000  0.20337000  0.32130000  1.0
  C  C97  1  0.49689000  0.79591000  0.32187000  1.0
  C  C98  1  0.50801000  0.31608000  0.19408000  1.0
  C  C99  1  0.49220000  0.68458000  0.19356000  1.0
  C  C100  1  0.49198000  0.81607000  0.69408000  1.0
  C  C101  1  0.49484000  0.88125000  0.61990000  1.0
  C  C102  1  0.50780000  0.18457000  0.69356000  1.0
  C  C103  1  0.47710000  0.21826000  0.16314000  1.0
  C  C104  1  0.52404000  0.78257000  0.16352000  1.0
  C  C105  1  0.52291000  0.71825000  0.66313000  1.0
  C  C106  1  0.47597000  0.28256000  0.66352000  1.0
  C  C107  1  0.08199000  0.58129000  0.04179000  1.0
  C  C108  1  0.92059000  0.58148000  0.04374000  1.0
  C  C109  1  0.91656000  0.41533000  0.03606000  1.0
  C  C110  1  0.07800000  0.41500000  0.03830000  1.0
  C  C111  1  0.07940000  0.08150000  0.54370000  1.0
  C  C112  1  0.08063000  0.50139000  0.90952000  1.0
  C  C113  1  0.91800000  0.08129000  0.54178000  1.0
  C  C114  1  0.92199000  0.91500000  0.53829000  1.0
  C  C115  1  0.08344000  0.91534000  0.53608000  1.0
  C  C116  1  0.91868000  0.50567000  0.90949000  1.0
  C  C117  1  0.08130000  0.00562000  0.40947000  1.0
  C  C118  1  0.91935000  0.00139000  0.40951000  1.0
  C  C119  1  0.49781000  0.62844000  0.88773000  1.0
  I  I120  1  0.72610000  0.80846000  0.93297000  1.0
  I  I121  1  0.32181000  0.84493000  0.92973000  1.0
  I  I122  1  0.27456000  0.18843000  0.93278000  1.0
  I  I123  1  0.67863000  0.15384000  0.92896000  1.0
  I  I124  1  0.67817000  0.34496000  0.42974000  1.0
  I  I125  1  0.27387000  0.30851000  0.43297000  1.0
  I  I126  1  0.32138000  0.65385000  0.42895000  1.0
  I  I127  1  0.72548000  0.68842000  0.43276000  1.0
  N  N128  1  0.13355000  0.49864000  0.99680000  1.0
  N  N129  1  0.86527000  0.50139000  0.99662000  1.0
  N  N130  1  0.13472000  0.00139000  0.49660000  1.0
  N  N131  1  0.86645000  0.99863000  0.49680000  1.0
  O  O132  1  0.60981000  0.61186000  0.08044000  1.0
  O  O133  1  0.38245000  0.60737000  0.92164000  1.0
  O  O134  1  0.38318000  0.40873000  0.90135000  1.0
  O  O135  1  0.61601000  0.39179000  0.92251000  1.0
  O  O136  1  0.61757000  0.10737000  0.42164000  1.0
  O  O137  1  0.38503000  0.08967000  0.40006000  1.0
  O  O138  1  0.38400000  0.89182000  0.42250000  1.0
  O  O139  1  0.61684000  0.90872000  0.40135000  1.0
  O  O140  1  0.38073000  0.57950000  0.10081000  1.0
  O  O141  1  0.38946000  0.38928000  0.08166000  1.0
  O  O142  1  0.61869000  0.42173000  0.10150000  1.0
  O  O143  1  0.61928000  0.07950000  0.60081000  1.0
  O  O144  1  0.39018000  0.11185000  0.58045000  1.0
  O  O145  1  0.38129000  0.92171000  0.60149000  1.0
  O  O146  1  0.61052000  0.88928000  0.58167000  1.0
  O  O147  1  0.61498000  0.58964000  0.90004000  1.0
