# generated using pymatgen
data_SrLa2H20C28(NO5)4
_symmetry_space_group_name_H-M   'P 1'
_cell_length_a   13.51430000
_cell_length_b   13.54260000
_cell_length_c   13.55780000
_cell_angle_alpha   114.85700000
_cell_angle_beta   98.79670000
_cell_angle_gamma   114.98700000
_symmetry_Int_Tables_number   1
_chemical_formula_structural   SrLa2H20C28(NO5)4
_chemical_formula_sum   'Sr2 La4 H40 C56 N8 O40'
_cell_volume   1868.71285788
_cell_formula_units_Z   2
loop_
 _symmetry_equiv_pos_site_id
 _symmetry_equiv_pos_as_xyz
  1  'x, y, z'
loop_
 _atom_site_type_symbol
 _atom_site_label
 _atom_site_symmetry_multiplicity
 _atom_site_fract_x
 _atom_site_fract_y
 _atom_site_fract_z
 _atom_site_occupancy
  Sr  Sr0  1  0.50113000  0.00070000  0.50093000  1.0
  Sr  Sr1  1  0.75076000  0.50035000  0.25014000  1.0
  La  La2  1  0.64886000  0.27385000  0.87502000  1.0
  La  La3  1  0.62528000  0.22661000  0.35151000  1.0
  La  La4  1  0.60121000  0.72615000  0.37495000  1.0
  La  La5  1  0.12517000  0.77388000  0.39854000  1.0
  H  H6  1  0.82454000  0.19559000  0.77719000  1.0
  H  H7  1  0.37229000  0.95422000  0.17614000  1.0
  H  H8  1  0.58131000  0.80350000  0.62804000  1.0
  H  H9  1  0.22190000  0.04658000  0.41828000  1.0
  H  H10  1  0.66854000  0.54679000  0.97241000  1.0
  H  H11  1  0.87879000  0.30405000  0.33184000  1.0
  H  H12  1  0.42555000  0.45356000  0.12233000  1.0
  H  H13  1  0.02782000  0.69574000  0.57400000  1.0
  H  H14  1  0.79226000  0.15674000  0.86882000  1.0
  H  H15  1  0.36516000  0.07784000  0.20869000  1.0
  H  H16  1  0.71171000  0.84131000  0.63371000  1.0
  H  H17  1  0.13250000  0.92365000  0.28790000  1.0
  H  H18  1  0.53790000  0.42396000  0.88270000  1.0
  H  H19  1  0.88506000  0.34301000  0.46207000  1.0
  H  H20  1  0.45869000  0.57737000  0.11548000  1.0
  H  H21  1  0.12080000  0.65821000  0.54243000  1.0
  H  H22  1  0.94077000  0.51484000  0.68298000  1.0
  H  H23  1  0.57406000  0.74321000  0.06014000  1.0
  H  H24  1  0.16801000  0.48591000  0.42671000  1.0
  H  H25  1  0.31540000  0.25552000  0.83054000  1.0
  H  H26  1  0.08124000  0.75629000  0.06522000  1.0
  H  H27  1  0.67589000  0.98616000  0.91892000  1.0
  H  H28  1  0.30899000  0.24288000  0.32440000  1.0
  H  H29  1  0.93141000  0.01296000  0.68973000  1.0
  H  H30  1  0.09745000  0.72179000  0.87346000  1.0
  H  H31  1  0.62473000  0.77815000  0.90278000  1.0
  H  H32  1  0.15182000  0.27829000  0.37588000  1.0
  H  H33  1  0.12242000  0.21995000  0.84638000  1.0
  H  H34  1  0.26290000  0.06086000  0.99465000  1.0
  H  H35  1  0.79634000  0.72949000  0.73583000  1.0
  H  H36  1  0.93375000  0.93946000  0.20223000  1.0
  H  H37  1  0.00633000  0.27007000  0.06652000  1.0
  H  H38  1  0.31633000  0.77019000  0.75681000  1.0
  H  H39  1  0.45169000  0.43847000  0.68360000  1.0
  H  H40  1  0.98672000  0.22943000  0.54572000  1.0
  H  H41  1  0.24517000  0.56195000  0.01368000  1.0
  H  H42  1  0.20266000  0.82910000  0.87609000  1.0
  H  H43  1  0.62369000  0.67030000  0.79654000  1.0
  H  H44  1  0.04701000  0.17087000  0.37338000  1.0
  H  H45  1  0.12598000  0.32975000  0.95314000  1.0
  C  C46  1  0.74402000  0.31392000  0.65956000  1.0
  C  C47  1  0.57036000  0.91606000  0.25702000  1.0
  C  C48  1  0.34561000  0.68689000  0.43067000  1.0
  C  C49  1  0.34085000  0.08400000  0.65400000  1.0
  C  C50  1  0.90417000  0.58364000  0.09012000  1.0
  C  C51  1  0.68070000  0.18715000  0.09593000  1.0
  C  C52  1  0.50662000  0.41568000  0.31993000  1.0
  C  C53  1  0.90872000  0.81320000  0.49351000  1.0
  C  C54  1  0.84243000  0.43985000  0.77193000  1.0
  C  C55  1  0.59802000  0.93024000  0.15829000  1.0
  C  C56  1  0.33199000  0.56051000  0.40292000  1.0
  C  C57  1  0.22750000  0.06958000  0.66737000  1.0
  C  C58  1  0.91779000  0.56974000  0.97735000  1.0
  C  C59  1  0.65284000  0.06077000  0.08253000  1.0
  C  C60  1  0.40760000  0.42980000  0.34771000  1.0
  C  C61  1  0.02125000  0.93920000  0.59180000  1.0
  C  C62  1  0.93700000  0.53278000  0.76791000  1.0
  C  C63  1  0.59610000  0.83198000  0.06369000  1.0
  C  C64  1  0.23505000  0.46765000  0.40466000  1.0
  C  C65  1  0.23042000  0.16708000  0.76382000  1.0
  C  C66  1  0.01446000  0.66786000  0.98056000  1.0
  C  C67  1  0.65408000  0.96778000  0.98580000  1.0
  C  C68  1  0.31275000  0.33167000  0.34631000  1.0
  C  C69  1  0.01682000  0.03142000  0.68610000  1.0
  C  C70  1  0.02333000  0.64787000  0.87402000  1.0
  C  C71  1  0.62497000  0.85226000  0.97708000  1.0
  C  C72  1  0.22622000  0.35216000  0.37559000  1.0
  C  C73  1  0.12327000  0.14653000  0.77247000  1.0
  C  C74  1  0.45622000  0.26732000  0.01600000  1.0
  C  C75  1  0.81061000  0.55909000  0.54321000  1.0
  C  C76  1  0.74880000  0.73298000  0.18914000  1.0
  C  C77  1  0.98463000  0.44077000  0.25170000  1.0
  C  C78  1  0.50172000  0.94110000  0.73474000  1.0
  C  C79  1  0.43850000  0.23261000  0.49877000  1.0
  C  C80  1  0.79360000  0.05856000  0.56021000  1.0
  C  C81  1  0.26668000  0.76779000  0.20652000  1.0
  C  C82  1  0.40777000  0.12408000  0.94156000  1.0
  C  C83  1  0.71526000  0.53286000  0.59173000  1.0
  C  C84  1  0.81751000  0.87611000  0.28375000  1.0
  C  C85  1  0.05956000  0.46710000  0.18285000  1.0
  C  C86  1  0.43272000  0.96724000  0.80948000  1.0
  C  C87  1  0.53332000  0.37585000  0.56737000  1.0
  C  C88  1  0.84233000  0.03255000  0.46530000  1.0
  C  C89  1  0.19224000  0.62445000  0.15824000  1.0
  C  C90  1  0.30978000  0.03113000  0.94204000  1.0
  C  C91  1  0.71977000  0.63046000  0.68941000  1.0
  C  C92  1  0.91093000  0.96908000  0.27873000  1.0
  C  C93  1  0.05924000  0.36937000  0.08939000  1.0
  C  C94  1  0.33906000  0.86931000  0.80931000  1.0
  C  C95  1  0.52838000  0.46850000  0.66064000  1.0
  C  C96  1  0.94012000  0.13044000  0.46954000  1.0
  C  C97  1  0.19242000  0.53176000  0.06035000  1.0
  C  C98  1  0.27701000  0.90302000  0.87576000  1.0
  C  C99  1  0.62395000  0.59659000  0.72231000  1.0
  C  C100  1  0.97282000  0.09697000  0.37391000  1.0
  C  C101  1  0.12584000  0.40345000  0.02749000  1.0
  N  N102  1  0.83374000  0.45847000  0.87482000  1.0
  N  N103  1  0.62563000  0.04189000  0.16682000  1.0
  N  N104  1  0.41624000  0.54144000  0.37524000  1.0
  N  N105  1  0.12468000  0.95840000  0.58330000  1.0
  N  N106  1  0.46616000  0.09135000  0.87548000  1.0
  N  N107  1  0.62443000  0.40883000  0.53384000  1.0
  N  N108  1  0.78416000  0.90863000  0.37473000  1.0
  N  N109  1  0.12597000  0.59136000  0.21640000  1.0
  O  O110  1  0.65965000  0.23679000  0.67271000  1.0
  O  O111  1  0.57778000  0.01331000  0.34109000  1.0
  O  O112  1  0.43587000  0.76398000  0.42348000  1.0
  O  O113  1  0.32811000  0.98721000  0.56408000  1.0
  O  O114  1  0.81411000  0.48638000  0.07734000  1.0
  O  O115  1  0.67367000  0.26412000  0.18598000  1.0
  O  O116  1  0.59096000  0.51286000  0.32696000  1.0
  O  O117  1  0.92221000  0.73674000  0.40946000  1.0
  O  O118  1  0.75052000  0.29371000  0.56162000  1.0
  O  O119  1  0.54332000  0.81167000  0.25101000  1.0
  O  O120  1  0.26775000  0.70744000  0.45753000  1.0
  O  O121  1  0.43896000  0.18794000  0.73141000  1.0
  O  O122  1  0.98157000  0.68767000  0.18787000  1.0
  O  O123  1  0.70745000  0.20778000  0.01826000  1.0
  O  O124  1  0.50060000  0.31141000  0.29331000  1.0
  O  O125  1  0.81021000  0.79226000  0.49982000  1.0
  O  O126  1  0.56368000  0.34321000  0.03342000  1.0
  O  O127  1  0.77960000  0.46987000  0.43625000  1.0
  O  O128  1  0.69067000  0.65689000  0.22071000  1.0
  O  O129  1  0.96682000  0.53031000  0.30997000  1.0
  O  O130  1  0.56045000  0.03082000  0.71709000  1.0
  O  O131  1  0.47034000  0.15696000  0.44079000  1.0
  O  O132  1  0.68610000  0.96924000  0.52925000  1.0
  O  O133  1  0.28416000  0.84327000  0.31359000  1.0
  O  O134  1  0.38943000  0.30121000  0.05399000  1.0
  O  O135  1  0.91123000  0.66305000  0.60950000  1.0
  O  O136  1  0.75257000  0.69927000  0.08870000  1.0
  O  O137  1  0.94679000  0.33641000  0.24802000  1.0
  O  O138  1  0.49762000  0.83658000  0.69677000  1.0
  O  O139  1  0.33751000  0.19840000  0.50233000  1.0
  O  O140  1  0.86006000  0.16254000  0.66031000  1.0
  O  O141  1  0.30433000  0.80221000  0.13996000  1.0
  O  O142  1  0.81640000  0.22726000  0.85584000  1.0
  O  O143  1  0.41232000  0.04157000  0.18507000  1.0
  O  O144  1  0.62812000  0.77156000  0.58772000  1.0
  O  O145  1  0.14363000  0.95927000  0.37062000  1.0
  O  O146  1  0.62107000  0.46002000  0.89418000  1.0
  O  O147  1  0.83868000  0.27260000  0.37909000  1.0
  O  O148  1  0.43438000  0.54074000  0.16218000  1.0
  O  O149  1  0.10663000  0.72777000  0.56554000  1.0
