# generated using pymatgen
data_CuH10C11S2(NCl)2
_symmetry_space_group_name_H-M   'P 1'
_cell_length_a   8.35936000
_cell_length_b   12.21120000
_cell_length_c   13.21600000
_cell_angle_alpha   98.98560000
_cell_angle_beta   89.99970000
_cell_angle_gamma   89.99990000
_symmetry_Int_Tables_number   1
_chemical_formula_structural   CuH10C11S2(NCl)2
_chemical_formula_sum   'Cu4 H40 C44 S8 N8 Cl8'
_cell_volume   1332.50425267
_cell_formula_units_Z   4
loop_
 _symmetry_equiv_pos_site_id
 _symmetry_equiv_pos_as_xyz
  1  'x, y, z'
loop_
 _atom_site_type_symbol
 _atom_site_label
 _atom_site_symmetry_multiplicity
 _atom_site_fract_x
 _atom_site_fract_y
 _atom_site_fract_z
 _atom_site_occupancy
  Cu  Cu0  1  0.00375000  0.12466000  0.42312000  1.0
  Cu  Cu1  1  0.49625000  0.62466000  0.92312000  1.0
  Cu  Cu2  1  0.99625000  0.87534000  0.57688000  1.0
  Cu  Cu3  1  0.50375000  0.37535000  0.07688000  1.0
  H  H4  1  0.74580000  0.99738000  0.07011000  1.0
  H  H5  1  0.75420000  0.49738000  0.57011000  1.0
  H  H6  1  0.25420000  0.00261000  0.92989000  1.0
  H  H7  1  0.24580000  0.50262000  0.42989000  1.0
  H  H8  1  0.48701000  0.94088000  0.14113000  1.0
  H  H9  1  0.01299000  0.44088000  0.64113000  1.0
  H  H10  1  0.51299000  0.05911000  0.85887000  1.0
  H  H11  1  0.98701000  0.55912000  0.35887000  1.0
  H  H12  1  0.45604000  0.96222000  0.33369000  1.0
  H  H13  1  0.04397000  0.46222000  0.83369000  1.0
  H  H14  1  0.54396000  0.03778000  0.66631000  1.0
  H  H15  1  0.95603000  0.53778000  0.16631000  1.0
  H  H16  1  0.68813000  0.03662000  0.44366000  1.0
  H  H17  1  0.81189000  0.53662000  0.94366000  1.0
  H  H18  1  0.31187000  0.96338000  0.55633000  1.0
  H  H19  1  0.18812000  0.46338000  0.05634000  1.0
  H  H20  1  0.02405000  0.26947000  0.27005000  1.0
  H  H21  1  0.47594000  0.76947000  0.77005000  1.0
  H  H22  1  0.97595000  0.73053000  0.72996000  1.0
  H  H23  1  0.52405000  0.23053000  0.22995000  1.0
  H  H24  1  0.11364000  0.26525000  0.14668000  1.0
  H  H25  1  0.38636000  0.76525000  0.64668000  1.0
  H  H26  1  0.88636000  0.73475000  0.85332000  1.0
  H  H27  1  0.61363000  0.23475000  0.35332000  1.0
  H  H28  1  0.05376000  0.19855000  0.98933000  1.0
  H  H29  1  0.44624000  0.69855000  0.48933000  1.0
  H  H30  1  0.94625000  0.80146000  0.01067000  1.0
  H  H31  1  0.55376000  0.30145000  0.51067000  1.0
  H  H32  1  0.00238000  0.15852000  0.80187000  1.0
  H  H33  1  0.49762000  0.65852000  0.30188000  1.0
  H  H34  1  0.99762000  0.84148000  0.19813000  1.0
  H  H35  1  0.50238000  0.34148000  0.69813000  1.0
  H  H36  1  0.73789000  0.20899000  0.73294000  1.0
  H  H37  1  0.76210000  0.70899000  0.23294000  1.0
  H  H38  1  0.26211000  0.79101000  0.26706000  1.0
  H  H39  1  0.23789000  0.29100000  0.76706000  1.0
  H  H40  1  0.53419000  0.30442000  0.85825000  1.0
  H  H41  1  0.96582000  0.80442000  0.35824000  1.0
  H  H42  1  0.46582000  0.69558000  0.14175000  1.0
  H  H43  1  0.03417000  0.19558000  0.64175000  1.0
  C  C44  1  0.85093000  0.04699000  0.21881000  1.0
  C  C45  1  0.64907000  0.54700000  0.71881000  1.0
  C  C46  1  0.14907000  0.95300000  0.78119000  1.0
  C  C47  1  0.35093000  0.45300000  0.28119000  1.0
  C  C48  1  0.72782000  0.00429000  0.15244000  1.0
  C  C49  1  0.77218000  0.50429000  0.65245000  1.0
  C  C50  1  0.27217000  0.99571000  0.84755000  1.0
  C  C51  1  0.22783000  0.49571000  0.34755000  1.0
  C  C52  1  0.58398000  0.97257000  0.19251000  1.0
  C  C53  1  0.91602000  0.47257000  0.69250000  1.0
  C  C54  1  0.41601000  0.02743000  0.80749000  1.0
  C  C55  1  0.08398000  0.52743000  0.30750000  1.0
  C  C56  1  0.56709000  0.98395000  0.29845000  1.0
  C  C57  1  0.93291000  0.48395000  0.79845000  1.0
  C  C58  1  0.43291000  0.01604000  0.70155000  1.0
  C  C59  1  0.06709000  0.51605000  0.20155000  1.0
  C  C60  1  0.69438000  0.02669000  0.36031000  1.0
  C  C61  1  0.80563000  0.52669000  0.86031000  1.0
  C  C62  1  0.30562000  0.97331000  0.63968000  1.0
  C  C63  1  0.19438000  0.47331000  0.13969000  1.0
  C  C64  1  0.01154000  0.23705000  0.18817000  1.0
  C  C65  1  0.48846000  0.73705000  0.68817000  1.0
  C  C66  1  0.98846000  0.76295000  0.81183000  1.0
  C  C67  1  0.51154000  0.26295000  0.31183000  1.0
  C  C68  1  0.81769000  0.26971000  0.02281000  1.0
  C  C69  1  0.68231000  0.76971000  0.52281000  1.0
  C  C70  1  0.18231000  0.73030000  0.97719000  1.0
  C  C71  1  0.31769000  0.23029000  0.47719000  1.0
  C  C72  1  0.93957000  0.22014000  0.95810000  1.0
  C  C73  1  0.56043000  0.72014000  0.45810000  1.0
  C  C74  1  0.06043000  0.77986000  0.04190000  1.0
  C  C75  1  0.43957000  0.27986000  0.54190000  1.0
  C  C76  1  0.91069000  0.19851000  0.85341000  1.0
  C  C77  1  0.58932000  0.69851000  0.35341000  1.0
  C  C78  1  0.08932000  0.80149000  0.14659000  1.0
  C  C79  1  0.41068000  0.30149000  0.64659000  1.0
  C  C80  1  0.76362000  0.22683000  0.81454000  1.0
  C  C81  1  0.73638000  0.72684000  0.31454000  1.0
  C  C82  1  0.23638000  0.77317000  0.18547000  1.0
  C  C83  1  0.26361000  0.27316000  0.68546000  1.0
  C  C84  1  0.65052000  0.27810000  0.88268000  1.0
  C  C85  1  0.84949000  0.77810000  0.38268000  1.0
  C  C86  1  0.34948000  0.72190000  0.11732000  1.0
  C  C87  1  0.15050000  0.22189000  0.61732000  1.0
  S  S88  1  0.03202000  0.08645000  0.16552000  1.0
  S  S89  1  0.46798000  0.58646000  0.66553000  1.0
  S  S90  1  0.96798000  0.91354000  0.83448000  1.0
  S  S91  1  0.53202000  0.41354000  0.33448000  1.0
  S  S92  1  0.82631000  0.29677000  0.15600000  1.0
  S  S93  1  0.67369000  0.79677000  0.65600000  1.0
  S  S94  1  0.17370000  0.70323000  0.84400000  1.0
  S  S95  1  0.32630000  0.20323000  0.34400000  1.0
  N  N96  1  0.83388000  0.05737000  0.32191000  1.0
  N  N97  1  0.66612000  0.55737000  0.82191000  1.0
  N  N98  1  0.16611000  0.94263000  0.67809000  1.0
  N  N99  1  0.33389000  0.44263000  0.17809000  1.0
  N  N100  1  0.67711000  0.29990000  0.98424000  1.0
  N  N101  1  0.82289000  0.79991000  0.48424000  1.0
  N  N102  1  0.32289000  0.70010000  0.01576000  1.0
  N  N103  1  0.17711000  0.20009000  0.51575000  1.0
  Cl  Cl104  1  0.87425000  0.29207000  0.44265000  1.0
  Cl  Cl105  1  0.62575000  0.79207000  0.94265000  1.0
  Cl  Cl106  1  0.12574000  0.70793000  0.55734000  1.0
  Cl  Cl107  1  0.37425000  0.20793000  0.05734000  1.0
  Cl  Cl108  1  0.14858000  0.96209000  0.40301000  1.0
  Cl  Cl109  1  0.35142000  0.46210000  0.90301000  1.0
  Cl  Cl110  1  0.85142000  0.03791000  0.59699000  1.0
  Cl  Cl111  1  0.64858000  0.53791000  0.09700000  1.0
