# generated using pymatgen
data_ZnH8(C2N)6
_symmetry_space_group_name_H-M   'P 1'
_cell_length_a   10.08730000
_cell_length_b   10.22580000
_cell_length_c   12.15490000
_cell_angle_alpha   109.54200000
_cell_angle_beta   90.00000000
_cell_angle_gamma   90.00000000
_symmetry_Int_Tables_number   1
_chemical_formula_structural   ZnH8(C2N)6
_chemical_formula_sum   'Zn4 H32 C48 N24'
_cell_volume   1181.56415336
_cell_formula_units_Z   4
loop_
 _symmetry_equiv_pos_site_id
 _symmetry_equiv_pos_as_xyz
  1  'x, y, z'
loop_
 _atom_site_type_symbol
 _atom_site_label
 _atom_site_symmetry_multiplicity
 _atom_site_fract_x
 _atom_site_fract_y
 _atom_site_fract_z
 _atom_site_occupancy
  Zn  Zn0  1  0.06623000  0.00221000  0.86052000  1.0
  Zn  Zn1  1  0.56623000  0.99779000  0.63948000  1.0
  Zn  Zn2  1  0.93377000  0.99779000  0.13948000  1.0
  Zn  Zn3  1  0.43377000  0.00221000  0.36053000  1.0
  H  H4  1  0.11187000  0.56639000  0.29238000  1.0
  H  H5  1  0.61187000  0.43361000  0.20762000  1.0
  H  H6  1  0.88813000  0.43361000  0.70762000  1.0
  H  H7  1  0.38814000  0.56639000  0.79239000  1.0
  H  H8  1  0.20809000  0.68255000  0.16016000  1.0
  H  H9  1  0.70809000  0.31745000  0.33984000  1.0
  H  H10  1  0.79191000  0.31745000  0.83984000  1.0
  H  H11  1  0.29191000  0.68255000  0.66016000  1.0
  H  H12  1  0.22991000  0.55926000  0.94820000  1.0
  H  H13  1  0.72991000  0.44074000  0.55180000  1.0
  H  H14  1  0.77009000  0.44074000  0.05180000  1.0
  H  H15  1  0.27009000  0.55926000  0.44820000  1.0
  H  H16  1  0.16085000  0.31364000  0.85816000  1.0
  H  H17  1  0.66085000  0.68636000  0.64184000  1.0
  H  H18  1  0.83915000  0.68636000  0.14184000  1.0
  H  H19  1  0.33915000  0.31364000  0.35816000  1.0
  H  H20  1  0.67628000  0.83636000  0.84005000  1.0
  H  H21  1  0.17628000  0.16364000  0.65995000  1.0
  H  H22  1  0.32372000  0.16363000  0.15995000  1.0
  H  H23  1  0.82372000  0.83637000  0.34004000  1.0
  H  H24  1  0.63606000  0.72501000  0.99196000  1.0
  H  H25  1  0.13606000  0.27499000  0.50804000  1.0
  H  H26  1  0.36394000  0.27499000  0.00804000  1.0
  H  H27  1  0.86394000  0.72502000  0.49195000  1.0
  H  H28  1  0.41679000  0.72574000  0.07806000  1.0
  H  H29  1  0.91679000  0.27425000  0.42194000  1.0
  H  H30  1  0.58321000  0.27425000  0.92194000  1.0
  H  H31  1  0.08320000  0.72575000  0.57806000  1.0
  H  H32  1  0.22022000  0.83106000  0.01234000  1.0
  H  H33  1  0.72022000  0.16894000  0.48766000  1.0
  H  H34  1  0.77978000  0.16894000  0.98766000  1.0
  H  H35  1  0.27977000  0.83106000  0.51234000  1.0
  C  C36  1  0.08462000  0.37166000  0.14879000  1.0
  C  C37  1  0.58463000  0.62834000  0.35121000  1.0
  C  C38  1  0.91538000  0.62834000  0.85121000  1.0
  C  C39  1  0.41538000  0.37166000  0.64879000  1.0
  C  C40  1  0.12357000  0.51133000  0.19921000  1.0
  C  C41  1  0.62357000  0.48867000  0.30078000  1.0
  C  C42  1  0.87643000  0.48867000  0.80079000  1.0
  C  C43  1  0.37644000  0.51133000  0.69922000  1.0
  C  C44  1  0.17586000  0.57484000  0.12461000  1.0
  C  C45  1  0.67586000  0.42516000  0.37539000  1.0
  C  C46  1  0.82414000  0.42516000  0.87539000  1.0
  C  C47  1  0.32414000  0.57484000  0.62461000  1.0
  C  C48  1  0.18867000  0.50390000  0.00282000  1.0
  C  C49  1  0.68867000  0.49610000  0.49718000  1.0
  C  C50  1  0.81133000  0.49610000  0.99718000  1.0
  C  C51  1  0.31133000  0.50390000  0.50282000  1.0
  C  C52  1  0.15054000  0.36685000  0.95170000  1.0
  C  C53  1  0.65054000  0.63315000  0.54830000  1.0
  C  C54  1  0.84946000  0.63315000  0.04830000  1.0
  C  C55  1  0.34946000  0.36685000  0.45170000  1.0
  C  C56  1  0.09863000  0.30077000  0.02688000  1.0
  C  C57  1  0.59863000  0.69923000  0.47311000  1.0
  C  C58  1  0.90137000  0.69923000  0.97311000  1.0
  C  C59  1  0.40137000  0.30077000  0.52689000  1.0
  C  C60  1  0.46734000  0.89070000  0.83823000  1.0
  C  C61  1  0.96734000  0.10930000  0.66177000  1.0
  C  C62  1  0.53265000  0.10929000  0.16178000  1.0
  C  C63  1  0.03265000  0.89071000  0.33822000  1.0
  C  C64  1  0.57746000  0.83202000  0.87511000  1.0
  C  C65  1  0.07746000  0.16798000  0.62489000  1.0
  C  C66  1  0.42254000  0.16797000  0.12489000  1.0
  C  C67  1  0.92254000  0.83203000  0.37511000  1.0
  C  C68  1  0.55429000  0.77210000  0.96022000  1.0
  C  C69  1  0.05429000  0.22790000  0.53978000  1.0
  C  C70  1  0.44571000  0.22789000  0.03978000  1.0
  C  C71  1  0.94571000  0.77211000  0.46022000  1.0
  C  C72  1  0.42695000  0.77164000  0.00936000  1.0
  C  C73  1  0.92695000  0.22836000  0.49064000  1.0
  C  C74  1  0.57305000  0.22836000  0.99065000  1.0
  C  C75  1  0.07305000  0.77164000  0.50935000  1.0
  C  C76  1  0.31775000  0.82952000  0.97353000  1.0
  C  C77  1  0.81775000  0.17048000  0.52647000  1.0
  C  C78  1  0.68225000  0.17047000  0.02647000  1.0
  C  C79  1  0.18225000  0.82953000  0.47353000  1.0
  C  C80  1  0.33982000  0.88883000  0.88622000  1.0
  C  C81  1  0.83982000  0.11117000  0.61378000  1.0
  C  C82  1  0.66018000  0.11117000  0.11378000  1.0
  C  C83  1  0.16018000  0.88883000  0.38621000  1.0
  N  N84  1  0.05509000  0.16860000  0.00693000  1.0
  N  N85  1  0.55509000  0.83140000  0.49307000  1.0
  N  N86  1  0.94491000  0.83140000  0.99307000  1.0
  N  N87  1  0.44491000  0.16860000  0.50693000  1.0
  N  N88  1  0.01677000  0.16254000  0.11186000  1.0
  N  N89  1  0.51677000  0.83745000  0.38814000  1.0
  N  N90  1  0.98323000  0.83745000  0.88814000  1.0
  N  N91  1  0.48323000  0.16255000  0.61186000  1.0
  N  N92  1  0.03219000  0.28087000  0.19817000  1.0
  N  N93  1  0.53219000  0.71913000  0.30183000  1.0
  N  N94  1  0.96781000  0.71913000  0.80183000  1.0
  N  N95  1  0.46781000  0.28087000  0.69817000  1.0
  N  N96  1  0.25699000  0.95475000  0.83165000  1.0
  N  N97  1  0.75699000  0.04525000  0.66835000  1.0
  N  N98  1  0.74302000  0.04525000  0.16835000  1.0
  N  N99  1  0.24302000  0.95475000  0.33165000  1.0
  N  N100  1  0.32673000  0.99496000  0.75565000  1.0
  N  N101  1  0.82673000  0.00504000  0.74435000  1.0
  N  N102  1  0.67328000  0.00503000  0.24435000  1.0
  N  N103  1  0.17328000  0.99497000  0.25565000  1.0
  N  N104  1  0.45320000  0.95776000  0.75809000  1.0
  N  N105  1  0.95320000  0.04224000  0.74191000  1.0
  N  N106  1  0.54680000  0.04224000  0.24191000  1.0
  N  N107  1  0.04680000  0.95777000  0.25809000  1.0
