# generated using pymatgen
data_SmCuH16C22S2N2O11
_symmetry_space_group_name_H-M   'P 1'
_cell_length_a   9.46080000
_cell_length_b   11.37620000
_cell_length_c   12.38110000
_cell_angle_alpha   99.50790000
_cell_angle_beta   100.22400000
_cell_angle_gamma   113.97200000
_symmetry_Int_Tables_number   1
_chemical_formula_structural   SmCuH16C22S2N2O11
_chemical_formula_sum   'Sm2 Cu2 H32 C44 S4 N4 O22'
_cell_volume   1155.80240173
_cell_formula_units_Z   2
loop_
 _symmetry_equiv_pos_site_id
 _symmetry_equiv_pos_as_xyz
  1  'x, y, z'
loop_
 _atom_site_type_symbol
 _atom_site_label
 _atom_site_symmetry_multiplicity
 _atom_site_fract_x
 _atom_site_fract_y
 _atom_site_fract_z
 _atom_site_occupancy
  Sm  Sm0  1  0.30675000  0.46400000  0.09625000  1.0
  Sm  Sm1  1  0.69325000  0.53600000  0.90376000  1.0
  Cu  Cu2  1  0.26141000  0.97532000  0.59468000  1.0
  Cu  Cu3  1  0.73859000  0.02468000  0.40532000  1.0
  H  H4  1  0.73983000  0.54829000  0.41889000  1.0
  H  H5  1  0.26017000  0.45171000  0.58111000  1.0
  H  H6  1  0.90264000  0.67553000  0.30341000  1.0
  H  H7  1  0.09736000  0.32447000  0.69659000  1.0
  H  H8  1  0.28528000  0.58074000  0.43474000  1.0
  H  H9  1  0.71472000  0.41926000  0.56526000  1.0
  H  H10  1  0.45324000  0.25475000  0.23164000  1.0
  H  H11  1  0.54676000  0.74525000  0.76836000  1.0
  H  H12  1  0.49929000  0.11151000  0.35411000  1.0
  H  H13  1  0.50071000  0.88850000  0.64589000  1.0
  H  H14  1  0.93531000  0.18441000  0.28253000  1.0
  H  H15  1  0.06469000  0.81559000  0.71747000  1.0
  H  H16  1  0.90742000  0.33019000  0.16169000  1.0
  H  H17  1  0.09258000  0.66981000  0.83831000  1.0
  H  H18  1  0.57262000  0.17505000  0.86240000  1.0
  H  H19  1  0.42738000  0.82495000  0.13760000  1.0
  H  H20  1  0.76254000  0.08017000  0.90836000  1.0
  H  H21  1  0.23746000  0.91983000  0.09164000  1.0
  H  H22  1  0.15894000  0.06911000  0.99542000  1.0
  H  H23  1  0.84106000  0.93089000  0.00458000  1.0
  H  H24  1  0.41692000  0.25569000  0.62703000  1.0
  H  H25  1  0.58308000  0.74431000  0.37297000  1.0
  H  H26  1  0.43761000  0.40697000  0.50125000  1.0
  H  H27  1  0.56239000  0.59303000  0.49875000  1.0
  H  H28  1  0.08647000  0.06494000  0.22945000  1.0
  H  H29  1  0.91353000  0.93506000  0.77055000  1.0
  H  H30  1  0.08325000  0.92502000  0.36374000  1.0
  H  H31  1  0.91675000  0.07498000  0.63626000  1.0
  H  H32  1  0.97217000  0.31645000  0.92876000  1.0
  H  H33  1  0.02783000  0.68355000  0.07124000  1.0
  H  H34  1  0.93772000  0.40352000  0.02426000  1.0
  H  H35  1  0.06228000  0.59648000  0.97574000  1.0
  C  C36  1  0.86034000  0.55784000  0.42467000  1.0
  C  C37  1  0.13966000  0.44216000  0.57533000  1.0
  C  C38  1  0.94948000  0.62780000  0.35966000  1.0
  C  C39  1  0.05052000  0.37220000  0.64034000  1.0
  C  C40  1  0.10347000  0.63529000  0.36434000  1.0
  C  C41  1  0.89653000  0.36471000  0.63566000  1.0
  C  C42  1  0.16759000  0.57578000  0.43390000  1.0
  C  C43  1  0.83241000  0.42422000  0.56610000  1.0
  C  C44  1  0.92131000  0.49521000  0.49753000  1.0
  C  C45  1  0.07869000  0.50479000  0.50247000  1.0
  C  C46  1  0.56275000  0.24357000  0.24387000  1.0
  C  C47  1  0.43725000  0.75643000  0.75613000  1.0
  C  C48  1  0.58702000  0.16370000  0.31100000  1.0
  C  C49  1  0.41298000  0.83630000  0.68900000  1.0
  C  C50  1  0.83148000  0.20449000  0.27107000  1.0
  C  C51  1  0.16852000  0.79551000  0.72893000  1.0
  C  C52  1  0.81481000  0.28631000  0.20359000  1.0
  C  C53  1  0.18519000  0.71369000  0.79641000  1.0
  C  C54  1  0.50053000  0.11897000  0.91251000  1.0
  C  C55  1  0.49947000  0.88103000  0.08749000  1.0
  C  C56  1  0.54871000  0.03639000  0.96731000  1.0
  C  C57  1  0.45129000  0.96361000  0.03269000  1.0
  C  C58  1  0.69036000  0.02442000  0.95886000  1.0
  C  C59  1  0.30964000  0.97558000  0.04114000  1.0
  C  C60  1  0.26543000  0.05707000  0.98739000  1.0
  C  C61  1  0.73457000  0.94293000  0.01261000  1.0
  C  C62  1  0.36275000  0.12865000  0.92328000  1.0
  C  C63  1  0.63725000  0.87134000  0.07672000  1.0
  C  C64  1  0.34656000  0.21773000  0.53857000  1.0
  C  C65  1  0.65345000  0.78227000  0.46143000  1.0
  C  C66  1  0.35614000  0.30121000  0.46751000  1.0
  C  C67  1  0.64386000  0.69879000  0.53249000  1.0
  C  C68  1  0.26239000  0.24778000  0.35459000  1.0
  C  C69  1  0.73761000  0.75222000  0.64541000  1.0
  C  C70  1  0.16124000  0.11069000  0.31675000  1.0
  C  C71  1  0.83876000  0.88931000  0.68325000  1.0
  C  C72  1  0.15886000  0.03203000  0.39160000  1.0
  C  C73  1  0.84114000  0.96797000  0.60840000  1.0
  C  C74  1  0.67695000  0.30618000  0.18829000  1.0
  C  C75  1  0.32305000  0.69382000  0.81171000  1.0
  C  C76  1  0.64686000  0.38666000  0.11027000  1.0
  C  C77  1  0.35314000  0.61334000  0.88973000  1.0
  C  C78  1  0.27420000  0.33308000  0.27318000  1.0
  C  C79  1  0.72579000  0.66692000  0.72682000  1.0
  S  S80  1  0.30359000  0.22960000  0.84984000  1.0
  S  S81  1  0.69642000  0.77040000  0.15017000  1.0
  S  S82  1  0.21499000  0.71749000  0.27437000  1.0
  S  S83  1  0.78501000  0.28251000  0.72563000  1.0
  N  N84  1  0.25085000  0.08452000  0.50056000  1.0
  N  N85  1  0.74915000  0.91548000  0.49944000  1.0
  N  N86  1  0.71945000  0.14293000  0.32377000  1.0
  N  N87  1  0.28055000  0.85707000  0.67623000  1.0
  O  O88  1  0.18047000  0.27711000  0.17211000  1.0
  O  O89  1  0.81953000  0.72289000  0.82789000  1.0
  O  O90  1  0.37901000  0.45465000  0.30359000  1.0
  O  O91  1  0.62099000  0.54535000  0.69641000  1.0
  O  O92  1  0.22293000  0.60750000  0.19550000  1.0
  O  O93  1  0.77707000  0.39250000  0.80450000  1.0
  O  O94  1  0.23388000  0.29312000  0.92418000  1.0
  O  O95  1  0.76612000  0.70688000  0.07582000  1.0
  O  O96  1  0.11933000  0.77134000  0.21128000  1.0
  O  O97  1  0.88067000  0.22866000  0.78872000  1.0
  O  O98  1  0.37193000  0.81834000  0.34620000  1.0
  O  O99  1  0.62807000  0.18166000  0.65379000  1.0
  O  O100  1  0.52498000  0.40868000  0.10616000  1.0
  O  O101  1  0.47502000  0.59132000  0.89384000  1.0
  O  O102  1  0.45204000  0.32798000  0.83212000  1.0
  O  O103  1  0.54796000  0.67202000  0.16788000  1.0
  O  O104  1  0.18678000  0.14119000  0.74296000  1.0
  O  O105  1  0.81322000  0.85881000  0.25704000  1.0
  O  O106  1  0.74388000  0.42631000  0.04997000  1.0
  O  O107  1  0.25612000  0.57369000  0.95003000  1.0
  O  O108  1  0.01392000  0.36839000  0.01016000  1.0
  O  O109  1  0.98608000  0.63162000  0.98984000  1.0
