# generated using pymatgen
data_ZnPH5C3(NO2)2
_symmetry_space_group_name_H-M   'P 1'
_cell_length_a   5.11817000
_cell_length_b   7.61545000
_cell_length_c   17.50470000
_cell_angle_alpha   89.99890000
_cell_angle_beta   89.86260000
_cell_angle_gamma   89.99960000
_symmetry_Int_Tables_number   1
_chemical_formula_structural   ZnPH5C3(NO2)2
_chemical_formula_sum   'Zn4 P4 H20 C12 N8 O16'
_cell_volume   682.28166592
_cell_formula_units_Z   4
loop_
 _symmetry_equiv_pos_site_id
 _symmetry_equiv_pos_as_xyz
  1  'x, y, z'
loop_
 _atom_site_type_symbol
 _atom_site_label
 _atom_site_symmetry_multiplicity
 _atom_site_fract_x
 _atom_site_fract_y
 _atom_site_fract_z
 _atom_site_occupancy
  Zn  Zn0  1  0.31819000  0.64022000  0.57983000  1.0
  Zn  Zn1  1  0.31820000  0.85977000  0.07983000  1.0
  Zn  Zn2  1  0.68181000  0.35979000  0.42017000  1.0
  Zn  Zn3  1  0.68182000  0.14022000  0.92017000  1.0
  P  P4  1  0.82706000  0.74076000  0.48676000  1.0
  P  P5  1  0.82706000  0.75924000  0.98676000  1.0
  P  P6  1  0.17294000  0.25926000  0.51324000  1.0
  P  P7  1  0.17294000  0.24074000  0.01324000  1.0
  H  H8  1  0.77491000  0.02933000  0.47525000  1.0
  H  H9  1  0.77491000  0.47067000  0.97525000  1.0
  H  H10  1  0.22511000  0.97068000  0.52475000  1.0
  H  H11  1  0.22511000  0.52932000  0.02475000  1.0
  H  H12  1  0.96398000  0.83640000  0.83988000  1.0
  H  H13  1  0.96399000  0.66360000  0.33989000  1.0
  H  H14  1  0.03603000  0.16359000  0.16013000  1.0
  H  H15  1  0.03598000  0.33640000  0.66011000  1.0
  H  H16  1  0.37822000  0.67155000  0.87438000  1.0
  H  H17  1  0.37822000  0.82845000  0.37438000  1.0
  H  H18  1  0.62180000  0.32845000  0.12562000  1.0
  H  H19  1  0.62174000  0.17155000  0.62562000  1.0
  H  H20  1  0.90021000  0.84895000  0.69227000  1.0
  H  H21  1  0.90023000  0.65105000  0.19228000  1.0
  H  H22  1  0.09976000  0.15106000  0.30774000  1.0
  H  H23  1  0.09977000  0.34893000  0.80772000  1.0
  H  H24  1  0.59330000  0.56456000  0.73577000  1.0
  H  H25  1  0.59329000  0.93544000  0.23577000  1.0
  H  H26  1  0.40672000  0.43545000  0.26422000  1.0
  H  H27  1  0.40669000  0.06455000  0.76423000  1.0
  C  C28  1  0.31357000  0.69199000  0.81617000  1.0
  C  C29  1  0.31357000  0.80801000  0.31618000  1.0
  C  C30  1  0.68642000  0.30802000  0.18383000  1.0
  C  C31  1  0.68639000  0.19200000  0.68383000  1.0
  C  C32  1  0.06142000  0.78712000  0.72203000  1.0
  C  C33  1  0.06143000  0.71287000  0.22204000  1.0
  C  C34  1  0.93858000  0.21288000  0.27798000  1.0
  C  C35  1  0.93858000  0.28711000  0.77796000  1.0
  C  C36  1  0.41820000  0.63996000  0.74748000  1.0
  C  C37  1  0.41821000  0.86004000  0.24749000  1.0
  C  C38  1  0.58179000  0.36005000  0.25251000  1.0
  C  C39  1  0.58177000  0.13997000  0.75251000  1.0
  N  N40  1  0.25911000  0.70028000  0.68916000  1.0
  N  N41  1  0.25913000  0.79971000  0.18917000  1.0
  N  N42  1  0.74085000  0.29973000  0.31083000  1.0
  N  N43  1  0.74087000  0.20027000  0.81083000  1.0
  N  N44  1  0.09012000  0.78454000  0.79871000  1.0
  N  N45  1  0.09013000  0.71546000  0.29871000  1.0
  N  N46  1  0.90987000  0.21547000  0.20129000  1.0
  N  N47  1  0.90987000  0.28454000  0.70128000  1.0
  O  O48  1  0.68706000  0.68510000  0.56028000  1.0
  O  O49  1  0.68707000  0.81488000  0.06028000  1.0
  O  O50  1  0.31294000  0.31490000  0.43973000  1.0
  O  O51  1  0.31295000  0.18511000  0.93972000  1.0
  O  O52  1  0.79469000  0.60639000  0.42162000  1.0
  O  O53  1  0.79469000  0.89361000  0.92162000  1.0
  O  O54  1  0.20531000  0.39361000  0.57837000  1.0
  O  O55  1  0.20532000  0.10638000  0.07838000  1.0
  O  O56  1  0.12022000  0.77765000  0.50399000  1.0
  O  O57  1  0.12023000  0.72236000  0.00399000  1.0
  O  O58  1  0.87979000  0.22236000  0.49601000  1.0
  O  O59  1  0.87978000  0.27764000  0.99601000  1.0
  O  O60  1  0.71198000  0.91598000  0.45137000  1.0
  O  O61  1  0.71200000  0.58402000  0.95137000  1.0
  O  O62  1  0.28802000  0.08403000  0.54862000  1.0
  O  O63  1  0.28802000  0.41597000  0.04863000  1.0
