# generated using pymatgen
data_Dy2H30C45(SO8)3
_symmetry_space_group_name_H-M   'P 1'
_cell_length_a   9.23500000
_cell_length_b   15.59200000
_cell_length_c   21.81170000
_cell_angle_alpha   102.85000000
_cell_angle_beta   101.60100000
_cell_angle_gamma   104.70000000
_symmetry_Int_Tables_number   1
_chemical_formula_structural   Dy2H30C45(SO8)3
_chemical_formula_sum   'Dy4 H60 C90 S6 O48'
_cell_volume   2849.24875617
_cell_formula_units_Z   2
loop_
 _symmetry_equiv_pos_site_id
 _symmetry_equiv_pos_as_xyz
  1  'x, y, z'
loop_
 _atom_site_type_symbol
 _atom_site_label
 _atom_site_symmetry_multiplicity
 _atom_site_fract_x
 _atom_site_fract_y
 _atom_site_fract_z
 _atom_site_occupancy
  Dy  Dy0  1  0.50701000  0.86338000  0.81600000  1.0
  Dy  Dy1  1  0.03347000  0.90668000  0.85291000  1.0
  Dy  Dy2  1  0.49298000  0.13662000  0.18400000  1.0
  Dy  Dy3  1  0.96653000  0.09332000  0.14708000  1.0
  H  H4  1  0.87569000  0.83610000  0.67544000  1.0
  H  H5  1  0.73250000  0.84050000  0.56780000  1.0
  H  H6  1  0.30636000  0.90245000  0.62209000  1.0
  H  H7  1  0.65075000  0.78644000  0.45203000  1.0
  H  H8  1  0.66820000  0.90532000  0.48884000  1.0
  H  H9  1  0.67849000  0.86809000  0.40628000  1.0
  H  H10  1  0.97308000  0.84414000  0.36449000  1.0
  H  H11  1  0.95866000  0.91091000  0.26944000  1.0
  H  H12  1  0.45705000  0.01581000  0.32069000  1.0
  H  H13  1  0.47409000  0.95186000  0.41729000  1.0
  H  H14  1  0.97527000  0.66742000  0.91512000  1.0
  H  H15  1  0.89786000  0.50867000  0.92910000  1.0
  H  H16  1  0.26045000  0.44774000  0.84647000  1.0
  H  H17  1  0.33998000  0.60866000  0.83535000  1.0
  H  H18  1  0.04884000  0.22874000  0.00946000  1.0
  H  H19  1  0.48140000  0.16738000  0.02913000  1.0
  H  H20  1  0.58289000  0.29037000  0.97984000  1.0
  H  H21  1  0.66203000  0.44686000  0.98243000  1.0
  H  H22  1  0.59216000  0.36404000  0.90258000  1.0
  H  H23  1  0.58712000  0.48017000  0.91200000  1.0
  H  H24  1  0.55890000  0.56278000  0.79456000  1.0
  H  H25  1  0.00409000  0.55532000  0.69936000  1.0
  H  H26  1  0.93114000  0.69860000  0.72395000  1.0
  H  H27  1  0.95458000  0.39333000  0.64744000  1.0
  H  H28  1  0.09643000  0.44354000  0.72637000  1.0
  H  H29  1  0.99649000  0.32190000  0.69797000  1.0
  H  H30  1  0.22972000  0.27319000  0.79234000  1.0
  H  H31  1  0.19145000  0.15027000  0.84910000  1.0
  H  H32  1  0.60774000  0.09666000  0.81519000  1.0
  H  H33  1  0.64724000  0.21934000  0.75730000  1.0
  H  H34  1  0.12432000  0.16390000  0.32456000  1.0
  H  H35  1  0.26750000  0.15951000  0.43220000  1.0
  H  H36  1  0.69364000  0.09755000  0.37791000  1.0
  H  H37  1  0.34925000  0.21356000  0.54797000  1.0
  H  H38  1  0.33180000  0.09469000  0.51116000  1.0
  H  H39  1  0.32151000  0.13191000  0.59372000  1.0
  H  H40  1  0.02692000  0.15586000  0.63551000  1.0
  H  H41  1  0.04134000  0.08908000  0.73056000  1.0
  H  H42  1  0.54295000  0.98419000  0.67931000  1.0
  H  H43  1  0.52591000  0.04814000  0.58271000  1.0
  H  H44  1  0.02474000  0.33258000  0.08488000  1.0
  H  H45  1  0.10214000  0.49134000  0.07090000  1.0
  H  H46  1  0.73954000  0.55226000  0.15353000  1.0
  H  H47  1  0.66002000  0.39134000  0.16464000  1.0
  H  H48  1  0.95115000  0.77126000  0.99054000  1.0
  H  H49  1  0.51860000  0.83262000  0.97087000  1.0
  H  H50  1  0.41711000  0.70964000  0.02016000  1.0
  H  H51  1  0.33797000  0.55315000  0.01757000  1.0
  H  H52  1  0.40783000  0.63597000  0.09742000  1.0
  H  H53  1  0.41287000  0.51983000  0.08800000  1.0
  H  H54  1  0.44110000  0.43723000  0.20544000  1.0
  H  H55  1  0.99592000  0.44467000  0.30064000  1.0
  H  H56  1  0.06887000  0.30139000  0.27604000  1.0
  H  H57  1  0.04543000  0.60667000  0.35256000  1.0
  H  H58  1  0.90357000  0.55646000  0.27363000  1.0
  H  H59  1  0.00352000  0.67810000  0.30203000  1.0
  H  H60  1  0.77027000  0.72681000  0.20767000  1.0
  H  H61  1  0.80854000  0.84973000  0.15090000  1.0
  H  H62  1  0.39225000  0.90334000  0.18481000  1.0
  H  H63  1  0.35276000  0.78066000  0.24270000  1.0
  C  C64  1  0.18620000  0.86467000  0.71990000  1.0
  C  C65  1  0.10010000  0.86854000  0.65614000  1.0
  C  C66  1  0.93868000  0.85227000  0.64010000  1.0
  C  C67  1  0.85818000  0.85513000  0.57974000  1.0
  C  C68  1  0.93911000  0.87713000  0.53431000  1.0
  C  C69  1  0.10235000  0.89634000  0.55204000  1.0
  C  C70  1  0.18127000  0.89021000  0.61090000  1.0
  C  C71  1  0.70710000  0.85881000  0.45501000  1.0
  C  C72  1  0.22455000  0.89318000  0.39444000  1.0
  C  C73  1  0.07805000  0.88093000  0.35394000  1.0
  C  C74  1  0.07043000  0.91796000  0.30141000  1.0
  C  C75  1  0.20727000  0.96567000  0.28929000  1.0
  C  C76  1  0.35256000  0.97771000  0.33081000  1.0
  C  C77  1  0.36228000  0.94194000  0.38403000  1.0
  C  C78  1  0.20063000  0.00625000  0.23290000  1.0
  C  C79  1  0.20658000  0.74301000  0.86690000  1.0
  C  C80  1  0.16308000  0.64754000  0.87536000  1.0
  C  C81  1  0.03851000  0.61950000  0.90146000  1.0
  C  C82  1  0.99425000  0.53090000  0.90868000  1.0
  C  C83  1  0.07520000  0.47022000  0.88869000  1.0
  C  C84  1  0.20014000  0.49657000  0.86232000  1.0
  C  C85  1  0.24403000  0.58586000  0.85609000  1.0
  C  C86  1  0.22453000  0.31391000  0.97794000  1.0
  C  C87  1  0.16578000  0.24255000  0.00310000  1.0
  C  C88  1  0.25957000  0.19031000  0.02295000  1.0
  C  C89  1  0.40956000  0.20873000  0.01425000  1.0
  C  C90  1  0.46683000  0.27812000  0.98688000  1.0
  C  C91  1  0.37523000  0.33249000  0.96859000  1.0
  C  C92  1  0.20727000  0.12343000  0.05903000  1.0
  C  C93  1  0.57562000  0.42370000  0.93462000  1.0
  C  C94  1  0.70110000  0.72778000  0.77754000  1.0
  C  C95  1  0.74014000  0.64070000  0.76057000  1.0
  C  C96  1  0.65718000  0.56195000  0.77426000  1.0
  C  C97  1  0.70310000  0.48340000  0.76347000  1.0
  C  C98  1  0.82815000  0.47825000  0.73616000  1.0
  C  C99  1  0.90764000  0.55674000  0.72073000  1.0
  C  C100  1  0.86571000  0.63711000  0.73410000  1.0
  C  C101  1  0.98584000  0.39011000  0.69800000  1.0
  C  C102  1  0.43913000  0.25147000  0.77145000  1.0
  C  C103  1  0.31121000  0.23391000  0.79695000  1.0
  C  C104  1  0.29066000  0.16568000  0.82903000  1.0
  C  C105  1  0.39748000  0.11636000  0.83526000  1.0
  C  C106  1  0.52598000  0.13564000  0.80960000  1.0
  C  C107  1  0.54771000  0.20330000  0.77720000  1.0
  C  C108  1  0.37103000  0.04005000  0.86707000  1.0
  C  C109  1  0.81380000  0.13533000  0.28010000  1.0
  C  C110  1  0.89990000  0.13146000  0.34386000  1.0
  C  C111  1  0.06132000  0.14773000  0.35989000  1.0
  C  C112  1  0.14182000  0.14487000  0.42026000  1.0
  C  C113  1  0.06089000  0.12287000  0.46569000  1.0
  C  C114  1  0.89765000  0.10366000  0.44796000  1.0
  C  C115  1  0.81873000  0.10979000  0.38910000  1.0
  C  C116  1  0.29289000  0.14119000  0.54499000  1.0
  C  C117  1  0.77545000  0.10682000  0.60556000  1.0
  C  C118  1  0.92196000  0.11907000  0.64606000  1.0
  C  C119  1  0.92957000  0.08204000  0.69859000  1.0
  C  C120  1  0.79272000  0.03433000  0.71071000  1.0
  C  C121  1  0.64744000  0.02229000  0.66919000  1.0
  C  C122  1  0.63772000  0.05806000  0.61597000  1.0
  C  C123  1  0.79938000  0.99375000  0.76710000  1.0
  C  C124  1  0.79341000  0.25699000  0.13310000  1.0
  C  C125  1  0.83691000  0.35246000  0.12464000  1.0
  C  C126  1  0.96149000  0.38050000  0.09854000  1.0
  C  C127  1  0.00575000  0.46910000  0.09132000  1.0
  C  C128  1  0.92480000  0.52978000  0.11131000  1.0
  C  C129  1  0.79986000  0.50343000  0.13768000  1.0
  C  C130  1  0.75597000  0.41413000  0.14391000  1.0
  C  C131  1  0.77547000  0.68609000  0.02206000  1.0
  C  C132  1  0.83422000  0.75744000  0.99690000  1.0
  C  C133  1  0.74043000  0.80969000  0.97705000  1.0
  C  C134  1  0.59044000  0.79126000  0.98575000  1.0
  C  C135  1  0.53317000  0.72188000  0.01312000  1.0
  C  C136  1  0.62477000  0.66751000  0.03141000  1.0
  C  C137  1  0.79273000  0.87657000  0.94097000  1.0
  C  C138  1  0.42439000  0.57630000  0.06538000  1.0
  C  C139  1  0.29891000  0.27223000  0.22246000  1.0
  C  C140  1  0.25986000  0.35930000  0.23942000  1.0
  C  C141  1  0.34283000  0.43805000  0.22573000  1.0
  C  C142  1  0.29690000  0.51660000  0.23653000  1.0
  C  C143  1  0.17185000  0.52175000  0.26384000  1.0
  C  C144  1  0.09237000  0.44326000  0.27927000  1.0
  C  C145  1  0.13430000  0.36289000  0.26590000  1.0
  C  C146  1  0.01416000  0.60988000  0.30201000  1.0
  C  C147  1  0.56086000  0.74853000  0.22855000  1.0
  C  C148  1  0.68879000  0.76609000  0.20306000  1.0
  C  C149  1  0.70934000  0.83432000  0.17097000  1.0
  C  C150  1  0.60251000  0.88363000  0.16474000  1.0
  C  C151  1  0.47401000  0.86436000  0.19040000  1.0
  C  C152  1  0.45229000  0.79670000  0.22280000  1.0
  C  C153  1  0.62896000  0.95995000  0.13293000  1.0
  S  S154  1  0.23499000  0.84643000  0.46142000  1.0
  S  S155  1  0.01534000  0.35723000  0.89734000  1.0
  S  S156  1  0.46326000  0.33804000  0.73089000  1.0
  S  S157  1  0.76501000  0.15357000  0.53859000  1.0
  S  S158  1  0.98466000  0.64278000  0.10267000  1.0
  S  S159  1  0.53674000  0.66196000  0.26911000  1.0
  O  O160  1  0.12006000  0.86799000  0.76602000  1.0
  O  O161  1  0.32389000  0.85879000  0.72689000  1.0
  O  O162  1  0.87382000  0.88131000  0.47448000  1.0
  O  O163  1  0.18479000  0.92500000  0.50901000  1.0
  O  O164  1  0.11621000  0.75859000  0.44495000  1.0
  O  O165  1  0.39459000  0.85645000  0.49141000  1.0
  O  O166  1  0.06845000  0.99789000  0.19660000  1.0
  O  O167  1  0.33023000  0.04742000  0.22499000  1.0
  O  O168  1  0.12190000  0.79313000  0.88093000  1.0
  O  O169  1  0.32554000  0.76826000  0.84646000  1.0
  O  O170  1  0.86433000  0.33944000  0.90916000  1.0
  O  O171  1  0.04564000  0.29117000  0.84795000  1.0
  O  O172  1  0.14062000  0.37537000  0.96816000  1.0
  O  O173  1  0.46268000  0.99180000  0.86729000  1.0
  O  O174  1  0.25476000  0.02519000  0.89104000  1.0
  O  O175  1  0.06557000  0.09957000  0.06084000  1.0
  O  O176  1  0.31013000  0.09571000  0.09016000  1.0
  O  O177  1  0.34491000  0.38263000  0.73491000  1.0
  O  O178  1  0.62866000  0.40748000  0.78273000  1.0
  O  O179  1  0.56460000  0.72636000  0.78159000  1.0
  O  O180  1  0.42034000  0.40217000  0.94229000  1.0
  O  O181  1  0.80978000  0.80394000  0.78910000  1.0
  O  O182  1  0.86306000  0.39839000  0.72824000  1.0
  O  O183  1  0.49115000  0.30525000  0.66865000  1.0
  O  O184  1  0.87995000  0.13201000  0.23398000  1.0
  O  O185  1  0.67612000  0.14121000  0.27311000  1.0
  O  O186  1  0.12618000  0.11869000  0.52552000  1.0
  O  O187  1  0.81520000  0.07500000  0.49099000  1.0
  O  O188  1  0.88380000  0.24141000  0.55505000  1.0
  O  O189  1  0.60542000  0.14356000  0.50859000  1.0
  O  O190  1  0.93155000  0.00211000  0.80340000  1.0
  O  O191  1  0.66977000  0.95257000  0.77501000  1.0
  O  O192  1  0.87812000  0.20687000  0.11907000  1.0
  O  O193  1  0.67447000  0.23173000  0.15353000  1.0
  O  O194  1  0.13567000  0.66056000  0.09085000  1.0
  O  O195  1  0.95435000  0.70883000  0.15206000  1.0
  O  O196  1  0.85938000  0.62464000  0.03185000  1.0
  O  O197  1  0.53731000  0.00820000  0.13271000  1.0
  O  O198  1  0.74524000  0.97481000  0.10897000  1.0
  O  O199  1  0.93442000  0.90043000  0.93916000  1.0
  O  O200  1  0.68986000  0.90429000  0.90984000  1.0
  O  O201  1  0.65509000  0.61738000  0.26509000  1.0
  O  O202  1  0.37134000  0.59252000  0.21727000  1.0
  O  O203  1  0.43541000  0.27365000  0.21841000  1.0
  O  O204  1  0.57965000  0.59783000  0.05771000  1.0
  O  O205  1  0.19022000  0.19605000  0.21090000  1.0
  O  O206  1  0.13694000  0.60161000  0.27176000  1.0
  O  O207  1  0.50885000  0.69475000  0.33135000  1.0
