# generated using pymatgen
data_CuH9C9(NO)2
_symmetry_space_group_name_H-M   'P 1'
_cell_length_a   9.18212000
_cell_length_b   9.48028000
_cell_length_c   12.43940081
_cell_angle_alpha   67.66872314
_cell_angle_beta   89.09476336
_cell_angle_gamma   87.79780000
_symmetry_Int_Tables_number   1
_chemical_formula_structural   CuH9C9(NO)2
_chemical_formula_sum   'Cu4 H36 C36 N8 O8'
_cell_volume   1000.88742749
_cell_formula_units_Z   4
loop_
 _symmetry_equiv_pos_site_id
 _symmetry_equiv_pos_as_xyz
  1  'x, y, z'
loop_
 _atom_site_type_symbol
 _atom_site_label
 _atom_site_symmetry_multiplicity
 _atom_site_fract_x
 _atom_site_fract_y
 _atom_site_fract_z
 _atom_site_occupancy
  Cu  Cu0  1  0.55708000  0.18420000  0.93564000  1.0
  Cu  Cu1  1  0.94304000  0.87966000  0.93521000  1.0
  Cu  Cu2  1  0.44290000  0.81581000  0.06435000  1.0
  Cu  Cu3  1  0.05695000  0.12033000  0.06479000  1.0
  H  H4  1  0.38867000  0.01771000  0.83006000  1.0
  H  H5  1  0.11178000  0.15131000  0.82955000  1.0
  H  H6  1  0.61131000  0.98229000  0.16993000  1.0
  H  H7  1  0.88818000  0.84870000  0.17046000  1.0
  H  H8  1  0.68551000  0.36092000  0.69440000  1.0
  H  H9  1  0.81449000  0.94427000  0.69387000  1.0
  H  H10  1  0.31449000  0.63907000  0.30560000  1.0
  H  H11  1  0.18549000  0.05571000  0.30615000  1.0
  H  H12  1  0.64140000  0.38077000  0.49242000  1.0
  H  H13  1  0.85804000  0.12690000  0.49208000  1.0
  H  H14  1  0.35862000  0.61924000  0.50757000  1.0
  H  H15  1  0.14194000  0.87309000  0.50793000  1.0
  H  H16  1  0.33148000  0.02474000  0.63087000  1.0
  H  H17  1  0.16836000  0.34390000  0.63055000  1.0
  H  H18  1  0.66850000  0.97527000  0.36911000  1.0
  H  H19  1  0.83162000  0.65611000  0.36945000  1.0
  H  H20  1  0.62920000  0.27517000  0.19512000  1.0
  H  H21  1  0.87101000  0.53069000  0.19521000  1.0
  H  H22  1  0.37082000  0.72486000  0.80487000  1.0
  H  H23  1  0.12899000  0.46930000  0.80478000  1.0
  H  H24  1  0.45291000  0.19603000  0.23230000  1.0
  H  H25  1  0.04726000  0.57219000  0.23263000  1.0
  H  H26  1  0.54712000  0.80397000  0.76769000  1.0
  H  H27  1  0.95273000  0.42782000  0.76738000  1.0
  H  H28  1  0.42050000  0.44920000  0.07544000  1.0
  H  H29  1  0.07969000  0.47654000  0.07515000  1.0
  H  H30  1  0.57951000  0.55083000  0.92455000  1.0
  H  H31  1  0.92036000  0.52345000  0.92488000  1.0
  H  H32  1  0.52322000  0.53639000  0.15236000  1.0
  H  H33  1  0.97681000  0.31250000  0.15174000  1.0
  H  H34  1  0.47680000  0.46363000  0.84765000  1.0
  H  H35  1  0.02323000  0.68750000  0.84827000  1.0
  H  H36  1  0.34951000  0.46070000  0.20532000  1.0
  H  H37  1  0.15050000  0.33511000  0.20462000  1.0
  H  H38  1  0.65051000  0.53929000  0.79468000  1.0
  H  H39  1  0.84953000  0.66490000  0.79541000  1.0
  C  C40  1  0.87529000  0.17612000  0.99856000  1.0
  C  C41  1  0.62465000  0.82559000  0.99811000  1.0
  C  C42  1  0.12470000  0.82387000  0.00146000  1.0
  C  C43  1  0.37534000  0.17441000  0.00188000  1.0
  C  C44  1  0.44146000  0.09669000  0.75242000  1.0
  C  C45  1  0.05868000  0.15017000  0.75198000  1.0
  C  C46  1  0.55853000  0.90331000  0.24757000  1.0
  C  C47  1  0.94130000  0.84983000  0.24802000  1.0
  C  C48  1  0.48238000  0.20297000  0.54622000  1.0
  C  C49  1  0.01720000  0.25079000  0.54591000  1.0
  C  C50  1  0.51762000  0.79704000  0.45376000  1.0
  C  C51  1  0.98277000  0.74920000  0.45410000  1.0
  C  C52  1  0.60717000  0.28835000  0.67749000  1.0
  C  C53  1  0.89276000  0.03373000  0.67704000  1.0
  C  C54  1  0.39282000  0.71165000  0.32250000  1.0
  C  C55  1  0.10721000  0.96625000  0.32298000  1.0
  C  C56  1  0.58250000  0.29915000  0.56440000  1.0
  C  C57  1  0.91708000  0.13642000  0.56406000  1.0
  C  C58  1  0.41750000  0.70086000  0.43559000  1.0
  C  C59  1  0.08289000  0.86357000  0.43596000  1.0
  C  C60  1  0.41037000  0.10053000  0.64258000  1.0
  C  C61  1  0.08947000  0.25645000  0.64225000  1.0
  C  C62  1  0.58963000  0.89948000  0.35740000  1.0
  C  C63  1  0.91052000  0.74353000  0.35776000  1.0
  C  C64  1  0.44785000  0.20358000  0.42940000  1.0
  C  C65  1  0.05198000  0.36709000  0.42916000  1.0
  C  C66  1  0.55218000  0.79642000  0.57059000  1.0
  C  C67  1  0.94800000  0.63288000  0.57085000  1.0
  C  C68  1  0.52142000  0.28927000  0.22990000  1.0
  C  C69  1  0.97865000  0.48164000  0.22990000  1.0
  C  C70  1  0.47861000  0.71075000  0.77010000  1.0
  C  C71  1  0.02135000  0.51835000  0.77010000  1.0
  C  C72  1  0.44984000  0.44332000  0.16222000  1.0
  C  C73  1  0.05022000  0.39555000  0.16183000  1.0
  C  C74  1  0.55019000  0.55669000  0.83778000  1.0
  C  C75  1  0.94981000  0.60445000  0.83819000  1.0
  N  N76  1  0.75314000  0.19992000  0.96716000  1.0
  N  N77  1  0.74693000  0.83265000  0.96687000  1.0
  N  N78  1  0.24686000  0.80007000  0.03283000  1.0
  N  N79  1  0.25305000  0.16734000  0.03312000  1.0
  N  N80  1  0.53849000  0.18882000  0.77038000  1.0
  N  N81  1  0.96186000  0.03997000  0.76986000  1.0
  N  N82  1  0.46150000  0.81118000  0.22961000  1.0
  N  N83  1  0.03812000  0.96003000  0.23015000  1.0
  O  O84  1  0.54908000  0.27479000  0.34937000  1.0
  O  O85  1  0.95059000  0.37664000  0.34930000  1.0
  O  O86  1  0.45095000  0.72524000  0.65062000  1.0
  O  O87  1  0.04939000  0.62337000  0.65070000  1.0
  O  O88  1  0.34059000  0.14291000  0.41081000  1.0
  O  O89  1  0.15972000  0.44571000  0.41059000  1.0
  O  O90  1  0.65946000  0.85707000  0.58918000  1.0
  O  O91  1  0.84028000  0.55423000  0.58942000  1.0
