# generated using pymatgen
data_CuH20(C8N5)2
_symmetry_space_group_name_H-M   'P 1'
_cell_length_a   9.73304000
_cell_length_b   9.81053000
_cell_length_c   11.39890000
_cell_angle_alpha   72.86240000
_cell_angle_beta   67.00760000
_cell_angle_gamma   78.12380000
_symmetry_Int_Tables_number   1
_chemical_formula_structural   CuH20(C8N5)2
_chemical_formula_sum   'Cu2 H40 C32 N20'
_cell_volume   952.37908420
_cell_formula_units_Z   2
loop_
 _symmetry_equiv_pos_site_id
 _symmetry_equiv_pos_as_xyz
  1  'x, y, z'
loop_
 _atom_site_type_symbol
 _atom_site_label
 _atom_site_symmetry_multiplicity
 _atom_site_fract_x
 _atom_site_fract_y
 _atom_site_fract_z
 _atom_site_occupancy
  Cu  Cu0  1  0.50000000  0.00000000  0.00000000  1.0
  Cu  Cu1  1  0.00000000  0.50000000  0.50000000  1.0
  H  H2  1  0.36495000  0.78481000  0.14416000  1.0
  H  H3  1  0.63505000  0.21519000  0.85584000  1.0
  H  H4  1  0.34109000  0.82446000  0.99954000  1.0
  H  H5  1  0.65891000  0.17554000  0.00046000  1.0
  H  H6  1  0.35727000  0.16963000  0.85385000  1.0
  H  H7  1  0.64273000  0.83037000  0.14615000  1.0
  H  H8  1  0.40418000  0.26415000  0.92543000  1.0
  H  H9  1  0.59582000  0.73585000  0.07457000  1.0
  H  H10  1  0.16831000  0.93526000  0.23535000  1.0
  H  H11  1  0.83168000  0.06474000  0.76465000  1.0
  H  H12  1  0.10169000  0.83602000  0.16493000  1.0
  H  H13  1  0.89831000  0.16398000  0.83506000  1.0
  H  H14  1  0.00158000  0.08073000  0.11250000  1.0
  H  H15  1  0.99842000  0.91927000  0.88749000  1.0
  H  H16  1  0.13026000  0.03787000  0.96653000  1.0
  H  H17  1  0.86974000  0.96213000  0.03347000  1.0
  H  H18  1  0.13848000  0.28215000  0.99193000  1.0
  H  H19  1  0.86152000  0.71785000  0.00807000  1.0
  H  H20  1  0.20163000  0.19856000  0.12595000  1.0
  H  H21  1  0.79837000  0.80143000  0.87405000  1.0
  H  H22  1  0.24842000  0.53584000  0.50606000  1.0
  H  H23  1  0.75158000  0.46416000  0.49394000  1.0
  H  H24  1  0.19324000  0.38331000  0.60884000  1.0
  H  H25  1  0.80676000  0.61668000  0.39116000  1.0
  H  H26  1  0.08639000  0.67038000  0.66100000  1.0
  H  H27  1  0.91361000  0.32962000  0.33901000  1.0
  H  H28  1  0.21494000  0.54242000  0.72271000  1.0
  H  H29  1  0.78507000  0.45757000  0.27730000  1.0
  H  H30  1  0.97520000  0.52267000  0.89583000  1.0
  H  H31  1  0.02481000  0.47732000  0.10418000  1.0
  H  H32  1  0.01550000  0.36889000  0.83381000  1.0
  H  H33  1  0.98449000  0.63111000  0.16619000  1.0
  H  H34  1  0.74855000  0.47923000  0.88151000  1.0
  H  H35  1  0.25145000  0.52077000  0.11850000  1.0
  H  H36  1  0.81072000  0.63832000  0.76176000  1.0
  H  H37  1  0.18929000  0.36168000  0.23824000  1.0
  H  H38  1  0.84280000  0.35524000  0.70869000  1.0
  H  H39  1  0.15720000  0.64476000  0.29131000  1.0
  H  H40  1  0.73410000  0.50154000  0.67111000  1.0
  H  H41  1  0.26590000  0.49846000  0.32889000  1.0
  C  C42  1  0.26763000  0.82560000  0.79010000  1.0
  C  C43  1  0.73238000  0.17441000  0.20990000  1.0
  C  C44  1  0.35469000  0.05951000  0.31972000  1.0
  C  C45  1  0.64531000  0.94049000  0.68028000  1.0
  C  C46  1  0.15047000  0.14186000  0.49257000  1.0
  C  C47  1  0.84953000  0.85814000  0.50743000  1.0
  C  C48  1  0.25742000  0.07745000  0.70272000  1.0
  C  C49  1  0.74259000  0.92255000  0.29729000  1.0
  C  C50  1  0.48596000  0.70144000  0.58232000  1.0
  C  C51  1  0.51404000  0.29856000  0.41768000  1.0
  C  C52  1  0.39416000  0.75500000  0.40641000  1.0
  C  C53  1  0.60584000  0.24500000  0.59359000  1.0
  C  C54  1  0.31677000  0.92452000  0.54927000  1.0
  C  C55  1  0.68323000  0.07548000  0.45073000  1.0
  C  C56  1  0.27371000  0.03991000  0.45496000  1.0
  C  C57  1  0.72629000  0.96009000  0.54504000  1.0
  C  C58  1  0.27967000  0.94071000  0.67911000  1.0
  C  C59  1  0.72034000  0.05930000  0.32089000  1.0
  C  C60  1  0.39760000  0.79525000  0.51344000  1.0
  C  C61  1  0.60240000  0.20476000  0.48656000  1.0
  C  C62  1  0.17622000  0.91861000  0.14165000  1.0
  C  C63  1  0.82378000  0.08138000  0.85835000  1.0
  C  C64  1  0.12143000  0.05543000  0.06017000  1.0
  C  C65  1  0.87857000  0.94457000  0.93983000  1.0
  C  C66  1  0.20039000  0.18547000  0.03394000  1.0
  C  C67  1  0.79961000  0.81453000  0.96606000  1.0
  C  C68  1  0.11688000  0.55484000  0.69337000  1.0
  C  C69  1  0.88312000  0.44515000  0.30664000  1.0
  C  C70  1  0.98748000  0.48598000  0.80962000  1.0
  C  C71  1  0.01252000  0.51401000  0.19039000  1.0
  C  C72  1  0.83783000  0.52151000  0.78882000  1.0
  C  C73  1  0.16217000  0.47849000  0.21119000  1.0
  N  N74  1  0.42364000  0.08031000  0.20655000  1.0
  N  N75  1  0.57636000  0.91969000  0.79344000  1.0
  N  N76  1  0.04576000  0.22600000  0.52214000  1.0
  N  N77  1  0.95424000  0.77400000  0.47787000  1.0
  N  N78  1  0.24170000  0.19042000  0.72514000  1.0
  N  N79  1  0.75830000  0.80958000  0.27486000  1.0
  N  N80  1  0.56203000  0.62282000  0.63703000  1.0
  N  N81  1  0.43796000  0.37718000  0.36297000  1.0
  N  N82  1  0.38906000  0.71699000  0.31975000  1.0
  N  N83  1  0.61093000  0.28301000  0.68025000  1.0
  N  N84  1  0.25029000  0.73607000  0.88809000  1.0
  N  N85  1  0.74971000  0.26393000  0.11191000  1.0
  N  N86  1  0.33350000  0.86566000  0.07534000  1.0
  N  N87  1  0.66650000  0.13434000  0.92466000  1.0
  N  N88  1  0.35759000  0.17235000  0.94338000  1.0
  N  N89  1  0.64241000  0.82764000  0.05662000  1.0
  N  N90  1  0.15816000  0.49030000  0.58054000  1.0
  N  N91  1  0.84184000  0.50970000  0.41946000  1.0
  N  N92  1  0.83640000  0.46479000  0.68279000  1.0
  N  N93  1  0.16360000  0.53521000  0.31721000  1.0
