# generated using pymatgen
data_CdH12C20IN4
_symmetry_space_group_name_H-M   'P 1'
_cell_length_a   16.17350000
_cell_length_b   16.17350000
_cell_length_c   16.55890000
_cell_angle_alpha   89.60020000
_cell_angle_beta   89.60010000
_cell_angle_gamma   101.13900000
_symmetry_Int_Tables_number   1
_chemical_formula_structural   CdH12C20IN4
_chemical_formula_sum   'Cd8 H96 C160 I8 N32'
_cell_volume   4249.65566992
_cell_formula_units_Z   8
loop_
 _symmetry_equiv_pos_site_id
 _symmetry_equiv_pos_as_xyz
  1  'x, y, z'
loop_
 _atom_site_type_symbol
 _atom_site_label
 _atom_site_symmetry_multiplicity
 _atom_site_fract_x
 _atom_site_fract_y
 _atom_site_fract_z
 _atom_site_occupancy
  Cd  Cd0  1  0.43285000  0.19864000  0.52564000  1.0
  Cd  Cd1  1  0.80137000  0.56715000  0.97435000  1.0
  Cd  Cd2  1  0.56715000  0.80137000  0.47436000  1.0
  Cd  Cd3  1  0.19863000  0.43285000  0.02564000  1.0
  Cd  Cd4  1  0.69617000  0.94404000  0.98704000  1.0
  Cd  Cd5  1  0.05596000  0.30383000  0.51296000  1.0
  Cd  Cd6  1  0.30383000  0.05596000  0.01296000  1.0
  Cd  Cd7  1  0.94404000  0.69617000  0.48704000  1.0
  H  H8  1  0.89216000  0.48782000  0.43306000  1.0
  H  H9  1  0.51218000  0.10784000  0.06694000  1.0
  H  H10  1  0.10783000  0.51218000  0.56694000  1.0
  H  H11  1  0.48782000  0.89216000  0.93306000  1.0
  H  H12  1  0.59670000  0.09122000  0.93206000  1.0
  H  H13  1  0.90878000  0.40330000  0.56794000  1.0
  H  H14  1  0.40330000  0.90878000  0.06794000  1.0
  H  H15  1  0.09122000  0.59670000  0.43206000  1.0
  H  H16  1  0.59921000  0.48328000  0.37977000  1.0
  H  H17  1  0.51672000  0.40079000  0.12023000  1.0
  H  H18  1  0.40079000  0.51672000  0.62023000  1.0
  H  H19  1  0.48328000  0.59921000  0.87977000  1.0
  H  H20  1  0.99790000  0.89697000  0.51482000  1.0
  H  H21  1  0.10302000  0.00210000  0.98518000  1.0
  H  H22  1  0.00210000  0.10303000  0.48518000  1.0
  H  H23  1  0.89698000  0.99789000  0.01482000  1.0
  H  H24  1  0.28275000  0.84165000  0.47049000  1.0
  H  H25  1  0.15835000  0.71726000  0.02951000  1.0
  H  H26  1  0.71726000  0.15835000  0.52951000  1.0
  H  H27  1  0.84165000  0.28275000  0.97049000  1.0
  H  H28  1  0.20003000  0.31823000  0.32963000  1.0
  H  H29  1  0.68177000  0.79998000  0.17037000  1.0
  H  H30  1  0.79997000  0.68177000  0.67037000  1.0
  H  H31  1  0.31823000  0.20002000  0.82963000  1.0
  H  H32  1  0.20757000  0.16341000  0.28149000  1.0
  H  H33  1  0.83659000  0.79243000  0.21851000  1.0
  H  H34  1  0.79243000  0.83659000  0.71851000  1.0
  H  H35  1  0.16341000  0.20757000  0.78149000  1.0
  H  H36  1  0.73814000  0.34554000  0.63258000  1.0
  H  H37  1  0.65446000  0.26186000  0.86742000  1.0
  H  H38  1  0.26186000  0.65446000  0.36742000  1.0
  H  H39  1  0.34555000  0.73814000  0.13258000  1.0
  H  H40  1  0.69806000  0.20049000  0.71585000  1.0
  H  H41  1  0.79952000  0.30194000  0.78415000  1.0
  H  H42  1  0.30194000  0.79952000  0.28415000  1.0
  H  H43  1  0.20048000  0.69806000  0.21585000  1.0
  H  H44  1  0.54500000  0.15260000  0.80789000  1.0
  H  H45  1  0.84740000  0.45500000  0.69211000  1.0
  H  H46  1  0.45500000  0.84740000  0.19211000  1.0
  H  H47  1  0.15260000  0.54500000  0.30789000  1.0
  H  H48  1  0.44765000  0.92480000  0.70360000  1.0
  H  H49  1  0.07520000  0.55235000  0.79640000  1.0
  H  H50  1  0.55235000  0.07520000  0.29640000  1.0
  H  H51  1  0.92480000  0.44765000  0.20360000  1.0
  H  H52  1  0.15419000  0.72955000  0.46276000  1.0
  H  H53  1  0.27046000  0.84581000  0.03724000  1.0
  H  H54  1  0.84581000  0.27046000  0.53724000  1.0
  H  H55  1  0.72954000  0.15419000  0.96276000  1.0
  H  H56  1  0.66942000  0.89866000  0.80253000  1.0
  H  H57  1  0.10134000  0.33058000  0.69747000  1.0
  H  H58  1  0.33058000  0.10134000  0.19748000  1.0
  H  H59  1  0.89866000  0.66942000  0.30252000  1.0
  H  H60  1  0.12148000  0.01716000  0.52740000  1.0
  H  H61  1  0.98284000  0.87852000  0.97260000  1.0
  H  H62  1  0.87852000  0.98284000  0.47260000  1.0
  H  H63  1  0.01716000  0.12148000  0.02740000  1.0
  H  H64  1  0.30648000  0.88153000  0.61929000  1.0
  H  H65  1  0.11847000  0.69352000  0.88071000  1.0
  H  H66  1  0.69352000  0.11847000  0.38071000  1.0
  H  H67  1  0.88154000  0.30649000  0.11929000  1.0
  H  H68  1  0.36704000  0.37740000  0.07981000  1.0
  H  H69  1  0.62259000  0.63296000  0.42019000  1.0
  H  H70  1  0.63296000  0.62259000  0.92019000  1.0
  H  H71  1  0.37741000  0.36704000  0.57981000  1.0
  H  H72  1  0.62212000  0.52108000  0.55400000  1.0
  H  H73  1  0.47892000  0.37788000  0.94600000  1.0
  H  H74  1  0.37788000  0.47892000  0.44600000  1.0
  H  H75  1  0.52108000  0.62212000  0.05400000  1.0
  H  H76  1  0.61535000  0.94910000  0.67335000  1.0
  H  H77  1  0.05090000  0.38465000  0.82665000  1.0
  H  H78  1  0.38464000  0.05090000  0.32665000  1.0
  H  H79  1  0.94910000  0.61535000  0.17335000  1.0
  H  H80  1  0.45822000  0.44043000  0.29435000  1.0
  H  H81  1  0.55957000  0.54178000  0.20565000  1.0
  H  H82  1  0.54178000  0.55957000  0.70565000  1.0
  H  H83  1  0.44043000  0.45822000  0.79435000  1.0
  H  H84  1  0.77663000  0.36231000  0.44312000  1.0
  H  H85  1  0.63769000  0.22337000  0.05688000  1.0
  H  H86  1  0.22337000  0.63769000  0.55688000  1.0
  H  H87  1  0.36231000  0.77663000  0.94312000  1.0
  H  H88  1  0.43012000  0.31375000  0.19708000  1.0
  H  H89  1  0.68624000  0.56988000  0.30291000  1.0
  H  H90  1  0.56988000  0.68625000  0.80292000  1.0
  H  H91  1  0.31375000  0.43012000  0.69708000  1.0
  H  H92  1  0.74362000  0.64188000  0.53585000  1.0
  H  H93  1  0.35812000  0.25638000  0.96415000  1.0
  H  H94  1  0.25638000  0.35812000  0.46415000  1.0
  H  H95  1  0.64188000  0.74363000  0.03585000  1.0
  H  H96  1  0.14575000  0.37826000  0.20764000  1.0
  H  H97  1  0.62174000  0.85426000  0.29236000  1.0
  H  H98  1  0.85426000  0.62174000  0.79236000  1.0
  H  H99  1  0.37826000  0.14574000  0.70764000  1.0
  H  H100  1  0.16803000  0.02031000  0.36598000  1.0
  H  H101  1  0.97969000  0.83197000  0.13402000  1.0
  H  H102  1  0.83197000  0.97969000  0.63402000  1.0
  H  H103  1  0.02031000  0.16803000  0.86598000  1.0
  C  C104  1  0.28107000  0.07611000  0.44195000  1.0
  C  C105  1  0.92388000  0.71892000  0.05805000  1.0
  C  C106  1  0.71893000  0.92389000  0.55805000  1.0
  C  C107  1  0.07611000  0.28107000  0.94195000  1.0
  C  C108  1  0.83144000  0.49329000  0.45978000  1.0
  C  C109  1  0.50671000  0.16855000  0.04022000  1.0
  C  C110  1  0.16856000  0.50671000  0.54022000  1.0
  C  C111  1  0.49329000  0.83145000  0.95978000  1.0
  C  C112  1  0.28637000  0.01022000  0.49795000  1.0
  C  C113  1  0.98978000  0.71363000  0.00205000  1.0
  C  C114  1  0.71363000  0.98978000  0.50205000  1.0
  C  C115  1  0.01022000  0.28637000  0.99795000  1.0
  C  C116  1  0.62229000  0.29203000  0.55942000  1.0
  C  C117  1  0.70797000  0.37771000  0.94058000  1.0
  C  C118  1  0.37771000  0.70797000  0.44058000  1.0
  C  C119  1  0.29203000  0.62229000  0.05942000  1.0
  C  C120  1  0.43472000  0.32396000  0.37480000  1.0
  C  C121  1  0.67604000  0.56528000  0.12520000  1.0
  C  C122  1  0.56528000  0.67604000  0.62520000  1.0
  C  C123  1  0.32396000  0.43472000  0.87480000  1.0
  C  C124  1  0.35775000  0.27626000  0.34502000  1.0
  C  C125  1  0.72374000  0.64225000  0.15498000  1.0
  C  C126  1  0.64225000  0.72374000  0.65498000  1.0
  C  C127  1  0.27626000  0.35775000  0.84502000  1.0
  C  C128  1  0.60236000  0.06317000  0.87307000  1.0
  C  C129  1  0.93683000  0.39764000  0.62693000  1.0
  C  C130  1  0.39764000  0.93683000  0.12693000  1.0
  C  C131  1  0.06317000  0.60236000  0.37306000  1.0
  C  C132  1  0.55085000  0.42730000  0.38783000  1.0
  C  C133  1  0.57270000  0.44915000  0.11217000  1.0
  C  C134  1  0.44915000  0.57270000  0.61217000  1.0
  C  C135  1  0.42730000  0.55085000  0.88782000  1.0
  C  C136  1  0.06246000  0.88767000  0.50593000  1.0
  C  C137  1  0.11233000  0.93754000  0.99407000  1.0
  C  C138  1  0.93754000  0.11233000  0.49407000  1.0
  C  C139  1  0.88767000  0.06246000  0.00593000  1.0
  C  C140  1  0.22102000  0.85658000  0.48192000  1.0
  C  C141  1  0.14342000  0.77899000  0.01808000  1.0
  C  C142  1  0.77898000  0.14342000  0.51808000  1.0
  C  C143  1  0.85658000  0.22101000  0.98192000  1.0
  C  C144  1  0.23989000  0.33044000  0.27590000  1.0
  C  C145  1  0.66956000  0.76011000  0.22410000  1.0
  C  C146  1  0.76011000  0.66956000  0.72410000  1.0
  C  C147  1  0.33044000  0.23989000  0.77590000  1.0
  C  C148  1  0.23905000  0.14647000  0.33512000  1.0
  C  C149  1  0.85352000  0.76095000  0.16488000  1.0
  C  C150  1  0.76095000  0.85353000  0.66488000  1.0
  C  C151  1  0.14647000  0.23905000  0.83512000  1.0
  C  C152  1  0.68520000  0.29439000  0.62201000  1.0
  C  C153  1  0.70561000  0.31480000  0.87799000  1.0
  C  C154  1  0.31480000  0.70561000  0.37799000  1.0
  C  C155  1  0.29439000  0.68520000  0.12201000  1.0
  C  C156  1  0.66422000  0.22060000  0.66531000  1.0
  C  C157  1  0.77940000  0.33578000  0.83470000  1.0
  C  C158  1  0.33578000  0.77940000  0.33470000  1.0
  C  C159  1  0.22060000  0.66422000  0.16530000  1.0
  C  C160  1  0.47102000  0.04099000  0.62265000  1.0
  C  C161  1  0.95901000  0.52899000  0.87735000  1.0
  C  C162  1  0.52898000  0.95901000  0.37735000  1.0
  C  C163  1  0.04099000  0.47101000  0.12265000  1.0
  C  C164  1  0.54495000  0.09102000  0.65536000  1.0
  C  C165  1  0.90898000  0.45505000  0.84464000  1.0
  C  C166  1  0.45505000  0.90898000  0.34464000  1.0
  C  C167  1  0.09102000  0.54495000  0.15536000  1.0
  C  C168  1  0.31346000  0.19629000  0.37218000  1.0
  C  C169  1  0.80371000  0.68654000  0.12782000  1.0
  C  C170  1  0.68654000  0.80371000  0.62782000  1.0
  C  C171  1  0.19629000  0.31346000  0.87217000  1.0
  C  C172  1  0.68900000  0.43076000  0.50006000  1.0
  C  C173  1  0.56924000  0.31100000  0.99994000  1.0
  C  C174  1  0.31100000  0.56924000  0.49994000  1.0
  C  C175  1  0.43076000  0.68900000  0.00006000  1.0
  C  C176  1  0.32141000  0.31266000  0.27424000  1.0
  C  C177  1  0.68734000  0.67859000  0.22576000  1.0
  C  C178  1  0.67859000  0.68734000  0.72576000  1.0
  C  C179  1  0.31266000  0.32141000  0.77424000  1.0
  C  C180  1  0.57356000  0.09704000  0.80384000  1.0
  C  C181  1  0.90296000  0.42645000  0.69616000  1.0
  C  C182  1  0.42644000  0.90296000  0.19616000  1.0
  C  C183  1  0.09704000  0.57355000  0.30384000  1.0
  C  C184  1  0.61692000  0.35755000  0.50325000  1.0
  C  C185  1  0.64245000  0.38308000  0.99675000  1.0
  C  C186  1  0.38308000  0.64245000  0.49675000  1.0
  C  C187  1  0.35755000  0.61692000  0.00325000  1.0
  C  C188  1  0.55159000  0.36109000  0.44720000  1.0
  C  C189  1  0.63892000  0.44841000  0.05281000  1.0
  C  C190  1  0.44841000  0.63891000  0.55281000  1.0
  C  C191  1  0.36109000  0.55159000  0.94719000  1.0
  C  C192  1  0.42727000  0.95976000  0.65386000  1.0
  C  C193  1  0.04024000  0.57273000  0.84614000  1.0
  C  C194  1  0.57273000  0.04024000  0.34614000  1.0
  C  C195  1  0.95975000  0.42727000  0.15386000  1.0
  C  C196  1  0.35304000  0.00479000  0.55208000  1.0
  C  C197  1  0.99521000  0.64696000  0.94792000  1.0
  C  C198  1  0.64696000  0.99521000  0.44792000  1.0
  C  C199  1  0.00479000  0.35304000  0.05208000  1.0
  C  C200  1  0.57786000  0.05688000  0.72960000  1.0
  C  C201  1  0.94312000  0.42214000  0.77040000  1.0
  C  C202  1  0.42214000  0.94312000  0.27040000  1.0
  C  C203  1  0.05687000  0.57786000  0.22960000  1.0
  C  C204  1  0.21265000  0.93944000  0.49838000  1.0
  C  C205  1  0.06056000  0.78735000  0.00162000  1.0
  C  C206  1  0.78735000  0.06056000  0.50162000  1.0
  C  C207  1  0.93944000  0.21265000  0.99838000  1.0
  C  C208  1  0.14901000  0.79407000  0.47698000  1.0
  C  C209  1  0.20592000  0.85099000  0.02302000  1.0
  C  C210  1  0.85099000  0.20593000  0.52302000  1.0
  C  C211  1  0.79408000  0.14901000  0.97698000  1.0
  C  C212  1  0.64049000  0.95432000  0.80100000  1.0
  C  C213  1  0.04568000  0.35951000  0.69900000  1.0
  C  C214  1  0.35950000  0.04568000  0.19900000  1.0
  C  C215  1  0.95432000  0.64049000  0.30100000  1.0
  C  C216  1  0.13093000  0.95409000  0.51214000  1.0
  C  C217  1  0.04591000  0.86907000  0.98786000  1.0
  C  C218  1  0.86907000  0.04591000  0.48786000  1.0
  C  C219  1  0.95409000  0.13093000  0.01214000  1.0
  C  C220  1  0.35486000  0.93754000  0.61051000  1.0
  C  C221  1  0.06246000  0.64514000  0.88949000  1.0
  C  C222  1  0.64514000  0.06246000  0.38949000  1.0
  C  C223  1  0.93754000  0.35486000  0.11050000  1.0
  C  C224  1  0.33265000  0.36391000  0.13678000  1.0
  C  C225  1  0.63609000  0.66735000  0.36322000  1.0
  C  C226  1  0.66735000  0.63609000  0.86322000  1.0
  C  C227  1  0.36391000  0.33265000  0.63678000  1.0
  C  C228  1  0.68089000  0.51099000  0.52671000  1.0
  C  C229  1  0.48901000  0.31911000  0.97329000  1.0
  C  C230  1  0.31911000  0.48901000  0.47329000  1.0
  C  C231  1  0.51099000  0.68089000  0.02671000  1.0
  C  C232  1  0.61129000  0.98312000  0.72928000  1.0
  C  C233  1  0.01688000  0.38871000  0.77071000  1.0
  C  C234  1  0.38871000  0.01688000  0.27072000  1.0
  C  C235  1  0.98311000  0.61129000  0.22928000  1.0
  C  C236  1  0.47877000  0.40496000  0.34364000  1.0
  C  C237  1  0.59504000  0.52123000  0.15636000  1.0
  C  C238  1  0.52123000  0.59504000  0.65636000  1.0
  C  C239  1  0.40496000  0.47877000  0.84364000  1.0
  C  C240  1  0.76679000  0.42263000  0.46630000  1.0
  C  C241  1  0.57737000  0.23321000  0.03370000  1.0
  C  C242  1  0.23321000  0.57737000  0.53370000  1.0
  C  C243  1  0.42263000  0.76679000  0.96630000  1.0
  C  C244  1  0.58837000  0.17215000  0.62954000  1.0
  C  C245  1  0.82785000  0.41163000  0.87046000  1.0
  C  C246  1  0.41163000  0.82785000  0.37046000  1.0
  C  C247  1  0.17214000  0.58836000  0.12954000  1.0
  C  C248  1  0.36773000  0.32938000  0.20206000  1.0
  C  C249  1  0.67062000  0.63227000  0.29794000  1.0
  C  C250  1  0.63227000  0.67062000  0.79794000  1.0
  C  C251  1  0.32938000  0.36773000  0.70206000  1.0
  C  C252  1  0.74868000  0.57824000  0.51751000  1.0
  C  C253  1  0.42176000  0.25132000  0.98249000  1.0
  C  C254  1  0.25132000  0.42176000  0.48249000  1.0
  C  C255  1  0.57824000  0.74868000  0.01751000  1.0
  C  C256  1  0.20918000  0.36441000  0.20762000  1.0
  C  C257  1  0.63560000  0.79082000  0.29238000  1.0
  C  C258  1  0.79082000  0.63560000  0.79238000  1.0
  C  C259  1  0.36441000  0.20918000  0.70762000  1.0
  C  C260  1  0.21894000  0.07284000  0.37834000  1.0
  C  C261  1  0.92716000  0.78106000  0.12166000  1.0
  C  C262  1  0.78106000  0.92716000  0.62166000  1.0
  C  C263  1  0.07284000  0.21894000  0.87834000  1.0
  I  I264  1  0.80045000  0.84201000  0.92531000  1.0
  I  I265  1  0.15799000  0.19955000  0.57469000  1.0
  I  I266  1  0.19956000  0.15800000  0.07469000  1.0
  I  I267  1  0.84201000  0.80045000  0.42531000  1.0
  I  I268  1  0.64105000  0.99663000  0.13362000  1.0
  I  I269  1  0.00337000  0.35895000  0.36638000  1.0
  I  I270  1  0.35894000  0.00337000  0.86637000  1.0
  I  I271  1  0.99663000  0.64105000  0.63363000  1.0
  N  N272  1  0.42464000  0.06489000  0.56081000  1.0
  N  N273  1  0.93511000  0.57536000  0.93918000  1.0
  N  N274  1  0.57536000  0.93511000  0.43919000  1.0
  N  N275  1  0.06489000  0.42463000  0.06081000  1.0
  N  N276  1  0.56616000  0.21709000  0.56572000  1.0
  N  N277  1  0.78292000  0.43384000  0.93428000  1.0
  N  N278  1  0.43384000  0.78292000  0.43428000  1.0
  N  N279  1  0.21708000  0.56616000  0.06572000  1.0
  N  N280  1  0.63635000  0.99361000  0.87193000  1.0
  N  N281  1  0.00639000  0.36365000  0.62807000  1.0
  N  N282  1  0.36364000  0.00639000  0.12807000  1.0
  N  N283  1  0.99361000  0.63635000  0.37193000  1.0
  N  N284  1  0.33661000  0.15115000  0.43545000  1.0
  N  N285  1  0.84885000  0.66339000  0.06455000  1.0
  N  N286  1  0.66339000  0.84886000  0.56456000  1.0
  N  N287  1  0.15114000  0.33661000  0.93544000  1.0
  N  N288  1  0.47999000  0.30103000  0.43776000  1.0
  N  N289  1  0.69897000  0.52001000  0.06224000  1.0
  N  N290  1  0.52001000  0.69897000  0.56224000  1.0
  N  N291  1  0.30103000  0.47999000  0.93776000  1.0
  N  N292  1  0.07081000  0.80889000  0.48751000  1.0
  N  N293  1  0.19110000  0.92920000  0.01249000  1.0
  N  N294  1  0.92919000  0.19111000  0.51249000  1.0
  N  N295  1  0.80889000  0.07080000  0.98751000  1.0
  N  N296  1  0.82275000  0.57008000  0.48454000  1.0
  N  N297  1  0.42992000  0.17724000  0.01545000  1.0
  N  N298  1  0.17724000  0.42992000  0.51546000  1.0
  N  N299  1  0.57008000  0.82276000  0.98455000  1.0
  N  N300  1  0.25489000  0.38163000  0.13932000  1.0
  N  N301  1  0.61837000  0.74511000  0.36067000  1.0
  N  N302  1  0.74511000  0.61837000  0.86068000  1.0
  N  N303  1  0.38163000  0.25490000  0.63933000  1.0
