# generated using pymatgen
data_CuH16C13S(NO)4
_symmetry_space_group_name_H-M   'P 1'
_cell_length_a   5.21455000
_cell_length_b   8.59174000
_cell_length_c   16.64340000
_cell_angle_alpha   80.35050000
_cell_angle_beta   87.54300000
_cell_angle_gamma   78.72490000
_symmetry_Int_Tables_number   1
_chemical_formula_structural   CuH16C13S(NO)4
_chemical_formula_sum   'Cu2 H32 C26 S2 N8 O8'
_cell_volume   720.88157384
_cell_formula_units_Z   2
loop_
 _symmetry_equiv_pos_site_id
 _symmetry_equiv_pos_as_xyz
  1  'x, y, z'
loop_
 _atom_site_type_symbol
 _atom_site_label
 _atom_site_symmetry_multiplicity
 _atom_site_fract_x
 _atom_site_fract_y
 _atom_site_fract_z
 _atom_site_occupancy
  Cu  Cu0  1  0.48877000  0.34375000  0.65568000  1.0
  Cu  Cu1  1  0.51123000  0.65625000  0.34432000  1.0
  H  H2  1  0.60490000  0.74608000  0.69810000  1.0
  H  H3  1  0.39509000  0.25390000  0.30189000  1.0
  H  H4  1  0.52073000  0.78817000  0.84258000  1.0
  H  H5  1  0.47925000  0.21183000  0.15742000  1.0
  H  H6  1  0.85839000  0.65669000  0.94732000  1.0
  H  H7  1  0.14162000  0.34333000  0.05268000  1.0
  H  H8  1  0.25681000  0.47336000  0.90874000  1.0
  H  H9  1  0.74320000  0.52665000  0.09126000  1.0
  H  H10  1  0.78664000  0.19115000  0.04017000  1.0
  H  H11  1  0.21332000  0.80884000  0.95983000  1.0
  H  H12  1  0.49955000  0.19937000  0.98144000  1.0
  H  H13  1  0.50042000  0.80063000  0.01857000  1.0
  H  H14  1  0.63943000  0.37321000  0.97732000  1.0
  H  H15  1  0.36054000  0.62678000  0.02269000  1.0
  H  H16  1  0.10305000  0.89875000  0.75911000  1.0
  H  H17  1  0.89696000  0.10124000  0.24089000  1.0
  H  H18  1  0.17282000  0.98646000  0.84462000  1.0
  H  H19  1  0.82717000  0.01353000  0.15538000  1.0
  H  H20  1  0.27529000  0.06080000  0.74567000  1.0
  H  H21  1  0.72469000  0.93921000  0.25433000  1.0
  H  H22  1  0.93210000  0.94028000  0.65209000  1.0
  H  H23  1  0.06791000  0.05971000  0.34791000  1.0
  H  H24  1  0.02685000  0.12274000  0.60464000  1.0
  H  H25  1  0.97318000  0.87725000  0.39537000  1.0
  H  H26  1  0.74131000  0.04383000  0.51215000  1.0
  H  H27  1  0.25871000  0.95618000  0.48784000  1.0
  H  H28  1  0.50444000  0.01793000  0.59056000  1.0
  H  H29  1  0.49559000  0.98207000  0.40944000  1.0
  H  H30  1  0.35381000  0.27382000  0.51821000  1.0
  H  H31  1  0.64620000  0.72618000  0.48179000  1.0
  H  H32  1  0.63983000  0.32500000  0.51143000  1.0
  H  H33  1  0.36018000  0.67500000  0.48858000  1.0
  C  C34  1  0.97457000  0.58773000  0.72318000  1.0
  C  C35  1  0.02542000  0.41227000  0.27683000  1.0
  C  C36  1  0.74545000  0.68707000  0.74556000  1.0
  C  C37  1  0.25458000  0.31291000  0.25445000  1.0
  C  C38  1  0.69900000  0.71066000  0.82591000  1.0
  C  C39  1  0.30099000  0.28934000  0.17408000  1.0
  C  C40  1  0.88691000  0.63514000  0.88450000  1.0
  C  C41  1  0.11309000  0.36488000  0.11549000  1.0
  C  C42  1  0.11206000  0.53421000  0.86323000  1.0
  C  C43  1  0.88796000  0.46580000  0.13678000  1.0
  C  C44  1  0.16068000  0.50409000  0.78264000  1.0
  C  C45  1  0.83934000  0.49590000  0.21736000  1.0
  C  C46  1  0.74739000  0.21764000  0.83168000  1.0
  C  C47  1  0.25261000  0.78235000  0.16832000  1.0
  C  C48  1  0.86578000  0.19395000  0.91402000  1.0
  C  C49  1  0.13419000  0.80606000  0.08599000  1.0
  C  C50  1  0.68467000  0.24136000  0.98285000  1.0
  C  C51  1  0.31530000  0.75863000  0.01716000  1.0
  C  C52  1  0.86534000  0.13040000  0.76713000  1.0
  C  C53  1  0.13466000  0.86960000  0.23287000  1.0
  C  C54  1  0.11763000  0.01059000  0.78072000  1.0
  C  C55  1  0.88236000  0.98942000  0.21928000  1.0
  C  C56  1  0.86032000  0.06888000  0.63105000  1.0
  C  C57  1  0.13970000  0.93112000  0.36895000  1.0
  C  C58  1  0.65300000  0.08915000  0.56688000  1.0
  C  C59  1  0.34701000  0.91085000  0.43312000  1.0
  S  S60  1  0.00992000  0.57608000  0.61740000  1.0
  S  S61  1  0.99008000  0.42392000  0.38260000  1.0
  N  N62  1  0.38709000  0.39211000  0.76414000  1.0
  N  N63  1  0.61292000  0.60789000  0.23586000  1.0
  N  N64  1  0.52620000  0.32597000  0.82775000  1.0
  N  N65  1  0.47378000  0.67403000  0.17224000  1.0
  N  N66  1  0.74656000  0.15318000  0.69737000  1.0
  N  N67  1  0.25344000  0.84681000  0.30263000  1.0
  N  N68  1  0.52500000  0.25951000  0.54951000  1.0
  N  N69  1  0.47500000  0.74050000  0.45049000  1.0
  O  O70  1  0.10210000  0.14345000  0.92686000  1.0
  O  O71  1  0.89789000  0.85658000  0.07315000  1.0
  O  O72  1  0.29892000  0.56021000  0.60142000  1.0
  O  O73  1  0.70108000  0.43980000  0.39858000  1.0
  O  O74  1  0.91550000  0.43353000  0.60347000  1.0
  O  O75  1  0.08452000  0.56647000  0.39653000  1.0
  O  O76  1  0.87141000  0.72845000  0.57314000  1.0
  O  O77  1  0.12859000  0.27155000  0.42686000  1.0
