# generated using pymatgen
data_ZnH3C4O3
_symmetry_space_group_name_H-M   'P 1'
_cell_length_a   3.33916000
_cell_length_b   10.21980000
_cell_length_c   12.50680000
_cell_angle_alpha   95.87390000
_cell_angle_beta   90.03910000
_cell_angle_gamma   99.39350000
_symmetry_Int_Tables_number   1
_chemical_formula_structural   ZnH3C4O3
_chemical_formula_sum   'Zn4 H12 C16 O12'
_cell_volume   418.80169636
_cell_formula_units_Z   4
loop_
 _symmetry_equiv_pos_site_id
 _symmetry_equiv_pos_as_xyz
  1  'x, y, z'
loop_
 _atom_site_type_symbol
 _atom_site_label
 _atom_site_symmetry_multiplicity
 _atom_site_fract_x
 _atom_site_fract_y
 _atom_site_fract_z
 _atom_site_occupancy
  Zn  Zn0  1  0.48317000  0.99977000  0.24999000  1.0
  Zn  Zn1  1  0.51681000  0.00024000  0.75001000  1.0
  Zn  Zn2  1  0.00000000  0.00000000  0.00000000  1.0
  Zn  Zn3  1  0.99999000  0.00000000  0.50000000  1.0
  H  H4  1  0.43190000  0.43056000  0.80370000  1.0
  H  H5  1  0.00038000  0.56960000  0.69623000  1.0
  H  H6  1  0.56811000  0.56943000  0.19631000  1.0
  H  H7  1  0.99962000  0.43040000  0.30376000  1.0
  H  H8  1  0.36998000  0.66399000  0.87564000  1.0
  H  H9  1  0.70690000  0.33600000  0.62443000  1.0
  H  H10  1  0.63005000  0.33601000  0.12438000  1.0
  H  H11  1  0.29311000  0.66400000  0.37556000  1.0
  H  H12  1  0.05882000  0.15151000  0.16535000  1.0
  H  H13  1  0.90845000  0.84830000  0.33474000  1.0
  H  H14  1  0.94117000  0.84849000  0.83464000  1.0
  H  H15  1  0.09153000  0.15171000  0.66525000  1.0
  C  C16  1  0.53671000  0.36973000  0.95938000  1.0
  C  C17  1  0.16639000  0.63030000  0.54056000  1.0
  C  C18  1  0.46337000  0.63028000  0.04064000  1.0
  C  C19  1  0.83360000  0.36970000  0.45943000  1.0
  C  C20  1  0.46378000  0.46235000  0.88952000  1.0
  C  C21  1  0.00128000  0.53773000  0.61046000  1.0
  C  C22  1  0.53623000  0.53765000  0.11050000  1.0
  C  C23  1  0.99873000  0.46227000  0.38953000  1.0
  C  C24  1  0.42837000  0.59173000  0.92966000  1.0
  C  C25  1  0.83701000  0.40830000  0.57040000  1.0
  C  C26  1  0.57167000  0.40827000  0.07035000  1.0
  C  C27  1  0.16299000  0.59170000  0.42960000  1.0
  C  C28  1  0.57589000  0.23068000  0.91602000  1.0
  C  C29  1  0.34433000  0.76935000  0.58394000  1.0
  C  C30  1  0.42414000  0.76931000  0.08398000  1.0
  C  C31  1  0.65564000  0.23065000  0.41605000  1.0
  O  O32  1  0.60194000  0.20356000  0.81537000  1.0
  O  O33  1  0.39665000  0.79652000  0.68462000  1.0
  O  O34  1  0.39806000  0.79644000  0.18464000  1.0
  O  O35  1  0.60331000  0.20349000  0.31537000  1.0
  O  O36  1  0.57690000  0.14522000  0.98517000  1.0
  O  O37  1  0.43148000  0.85475000  0.51476000  1.0
  O  O38  1  0.42309000  0.85477000  0.01484000  1.0
  O  O39  1  0.56848000  0.14526000  0.48523000  1.0
  O  O40  1  0.01481000  0.05439000  0.15510000  1.0
  O  O41  1  0.96059000  0.94544000  0.34485000  1.0
  O  O42  1  0.98516000  0.94561000  0.84490000  1.0
  O  O43  1  0.03937000  0.05457000  0.65515000  1.0
