# generated using pymatgen
data_Zn2H11C12NO9
_symmetry_space_group_name_H-M   'P 1'
_cell_length_a   10.42630000
_cell_length_b   11.40720000
_cell_length_c   20.30030000
_cell_angle_alpha   89.99980000
_cell_angle_beta   89.99990000
_cell_angle_gamma   89.99990000
_symmetry_Int_Tables_number   1
_chemical_formula_structural   Zn2H11C12NO9
_chemical_formula_sum   'Zn8 H44 C48 N4 O36'
_cell_volume   2414.41393445
_cell_formula_units_Z   4
loop_
 _symmetry_equiv_pos_site_id
 _symmetry_equiv_pos_as_xyz
  1  'x, y, z'
loop_
 _atom_site_type_symbol
 _atom_site_label
 _atom_site_symmetry_multiplicity
 _atom_site_fract_x
 _atom_site_fract_y
 _atom_site_fract_z
 _atom_site_occupancy
  Zn  Zn0  1  0.14973000  0.66932000  0.00032000  1.0
  Zn  Zn1  1  0.35027000  0.33068000  0.50032000  1.0
  Zn  Zn2  1  0.64974000  0.83068000  0.99967000  1.0
  Zn  Zn3  1  0.85026000  0.16933000  0.49968000  1.0
  Zn  Zn4  1  0.46358000  0.57769000  0.01248000  1.0
  Zn  Zn5  1  0.03643000  0.42232000  0.51248000  1.0
  Zn  Zn6  1  0.96358000  0.92232000  0.98752000  1.0
  Zn  Zn7  1  0.53642000  0.07768000  0.48752000  1.0
  H  H8  1  0.47683000  0.49237000  0.81259000  1.0
  H  H9  1  0.02317000  0.50763000  0.31259000  1.0
  H  H10  1  0.97683000  0.00765000  0.18741000  1.0
  H  H11  1  0.52317000  0.99235000  0.68741000  1.0
  H  H12  1  0.04606000  0.41972000  0.71725000  1.0
  H  H13  1  0.45394000  0.58027000  0.21725000  1.0
  H  H14  1  0.54607000  0.08028000  0.28275000  1.0
  H  H15  1  0.95393000  0.91972000  0.78276000  1.0
  H  H16  1  0.45303000  0.45286000  0.69126000  1.0
  H  H17  1  0.04697000  0.54713000  0.19125000  1.0
  H  H18  1  0.95303000  0.04713000  0.30874000  1.0
  H  H19  1  0.54697000  0.95286000  0.80874000  1.0
  H  H20  1  0.24963000  0.98529000  0.98512000  1.0
  H  H21  1  0.25035000  0.01472000  0.48512000  1.0
  H  H22  1  0.74963000  0.51472000  0.01488000  1.0
  H  H23  1  0.75036000  0.48529000  0.51488000  1.0
  H  H24  1  0.05021000  0.49800000  0.88794000  1.0
  H  H25  1  0.44979000  0.50200000  0.38794000  1.0
  H  H26  1  0.55021000  0.00199000  0.11206000  1.0
  H  H27  1  0.94979000  0.99800000  0.61206000  1.0
  H  H28  1  0.06900000  0.32110000  0.88608000  1.0
  H  H29  1  0.43101000  0.67890000  0.38608000  1.0
  H  H30  1  0.56899000  0.17890000  0.11392000  1.0
  H  H31  1  0.93101000  0.82110000  0.61393000  1.0
  H  H32  1  0.96020000  0.45139000  0.82271000  1.0
  H  H33  1  0.53979000  0.54861000  0.32271000  1.0
  H  H34  1  0.46020000  0.04861000  0.17730000  1.0
  H  H35  1  0.03980000  0.95139000  0.67730000  1.0
  H  H36  1  0.13925000  0.00071000  0.09391000  1.0
  H  H37  1  0.36076000  0.99929000  0.59390000  1.0
  H  H38  1  0.63924000  0.49930000  0.90610000  1.0
  H  H39  1  0.86076000  0.50070000  0.40609000  1.0
  H  H40  1  0.30952000  0.99905000  0.10248000  1.0
  H  H41  1  0.19048000  0.00095000  0.60248000  1.0
  H  H42  1  0.80951000  0.50095000  0.89752000  1.0
  H  H43  1  0.69048000  0.49905000  0.39752000  1.0
  H  H44  1  0.21743000  0.87045000  0.12129000  1.0
  H  H45  1  0.28257000  0.12956000  0.62128000  1.0
  H  H46  1  0.71742000  0.62956000  0.87872000  1.0
  H  H47  1  0.78257000  0.37045000  0.37872000  1.0
  H  H48  1  0.42669000  0.31603000  0.08566000  1.0
  H  H49  1  0.07331000  0.68397000  0.58566000  1.0
  H  H50  1  0.92672000  0.18396000  0.91433000  1.0
  H  H51  1  0.57329000  0.81603000  0.41432000  1.0
  C  C52  1  0.27647000  0.47649000  0.83312000  1.0
  C  C53  1  0.22354000  0.52351000  0.33311000  1.0
  C  C54  1  0.77647000  0.02351000  0.16688000  1.0
  C  C55  1  0.72353000  0.97649000  0.66689000  1.0
  C  C56  1  0.24752000  0.43561000  0.69749000  1.0
  C  C57  1  0.25248000  0.56440000  0.19749000  1.0
  C  C58  1  0.74751000  0.06439000  0.30251000  1.0
  C  C59  1  0.75248000  0.93561000  0.80251000  1.0
  C  C60  1  0.15324000  0.45385000  0.80655000  1.0
  C  C61  1  0.34677000  0.54614000  0.30655000  1.0
  C  C62  1  0.65324000  0.04615000  0.19345000  1.0
  C  C63  1  0.84676000  0.95386000  0.69345000  1.0
  C  C64  1  0.38313000  0.47481000  0.79096000  1.0
  C  C65  1  0.11687000  0.52519000  0.29096000  1.0
  C  C66  1  0.88313000  0.02521000  0.20904000  1.0
  C  C67  1  0.61686000  0.97479000  0.70904000  1.0
  C  C68  1  0.14047000  0.43502000  0.73880000  1.0
  C  C69  1  0.35953000  0.56498000  0.23880000  1.0
  C  C70  1  0.64047000  0.06498000  0.26119000  1.0
  C  C71  1  0.85953000  0.93502000  0.76120000  1.0
  C  C72  1  0.37022000  0.45378000  0.72393000  1.0
  C  C73  1  0.12978000  0.54623000  0.22393000  1.0
  C  C74  1  0.87022000  0.04623000  0.27607000  1.0
  C  C75  1  0.62978000  0.95378000  0.77607000  1.0
  C  C76  1  0.29580000  0.50976000  0.90360000  1.0
  C  C77  1  0.20420000  0.49023000  0.40360000  1.0
  C  C78  1  0.79580000  0.99024000  0.09640000  1.0
  C  C79  1  0.70421000  0.00978000  0.59640000  1.0
  C  C80  1  0.36130000  0.83558000  0.00842000  1.0
  C  C81  1  0.13869000  0.16442000  0.50841000  1.0
  C  C82  1  0.86130000  0.66442000  0.99159000  1.0
  C  C83  1  0.63870000  0.33558000  0.49159000  1.0
  C  C84  1  0.23844000  0.90706000  0.01646000  1.0
  C  C85  1  0.26156000  0.09294000  0.51646000  1.0
  C  C86  1  0.73844000  0.59294000  0.98354000  1.0
  C  C87  1  0.76156000  0.40706000  0.48354000  1.0
  C  C88  1  0.23061000  0.41753000  0.62475000  1.0
  C  C89  1  0.26938000  0.58247000  0.12474000  1.0
  C  C90  1  0.73062000  0.08248000  0.37526000  1.0
  C  C91  1  0.76938000  0.91752000  0.87526000  1.0
  C  C92  1  0.22562000  0.94673000  0.08842000  1.0
  C  C93  1  0.27438000  0.05327000  0.58841000  1.0
  C  C94  1  0.72561000  0.55327000  0.91159000  1.0
  C  C95  1  0.77438000  0.44673000  0.41159000  1.0
  C  C96  1  0.52738000  0.32846000  0.06960000  1.0
  C  C97  1  0.97262000  0.67154000  0.56960000  1.0
  C  C98  1  0.02738000  0.17154000  0.93039000  1.0
  C  C99  1  0.47262000  0.82846000  0.43039000  1.0
  N  N100  1  0.04430000  0.44300000  0.84774000  1.0
  N  N101  1  0.45570000  0.55699000  0.34774000  1.0
  N  N102  1  0.54430000  0.05698000  0.15226000  1.0
  N  N103  1  0.95570000  0.94302000  0.65226000  1.0
  O  O104  1  0.19637000  0.54161000  0.93573000  1.0
  O  O105  1  0.30363000  0.45837000  0.43573000  1.0
  O  O106  1  0.69638000  0.95838000  0.06426000  1.0
  O  O107  1  0.80363000  0.04162000  0.56427000  1.0
  O  O108  1  0.40910000  0.50632000  0.92664000  1.0
  O  O109  1  0.09090000  0.49367000  0.42664000  1.0
  O  O110  1  0.90911000  0.99368000  0.07336000  1.0
  O  O111  1  0.59091000  0.00632000  0.57336000  1.0
  O  O112  1  0.56058000  0.41357000  0.03632000  1.0
  O  O113  1  0.93941000  0.58643000  0.53632000  1.0
  O  O114  1  0.06061000  0.08642000  0.96367000  1.0
  O  O115  1  0.43941000  0.91357000  0.46367000  1.0
  O  O116  1  0.11789000  0.43400000  0.60188000  1.0
  O  O117  1  0.38211000  0.56600000  0.10188000  1.0
  O  O118  1  0.61789000  0.06599000  0.39812000  1.0
  O  O119  1  0.88210000  0.93400000  0.89812000  1.0
  O  O120  1  0.33036000  0.38834000  0.59269000  1.0
  O  O121  1  0.16962000  0.61166000  0.09269000  1.0
  O  O122  1  0.83037000  0.11166000  0.40731000  1.0
  O  O123  1  0.66963000  0.88833000  0.90731000  1.0
  O  O124  1  0.12971000  0.84209000  0.99547000  1.0
  O  O125  1  0.37030000  0.15791000  0.49547000  1.0
  O  O126  1  0.62970000  0.65791000  0.00453000  1.0
  O  O127  1  0.87030000  0.34209000  0.50453000  1.0
  O  O128  1  0.34898000  0.72773000  0.99240000  1.0
  O  O129  1  0.15102000  0.27228000  0.49239000  1.0
  O  O130  1  0.84899000  0.77227000  0.00761000  1.0
  O  O131  1  0.65102000  0.22772000  0.50761000  1.0
  O  O132  1  0.46680000  0.88705000  0.01906000  1.0
  O  O133  1  0.03320000  0.11295000  0.51904000  1.0
  O  O134  1  0.96680000  0.61295000  0.98095000  1.0
  O  O135  1  0.53321000  0.38704000  0.48095000  1.0
  O  O136  1  0.60994000  0.24824000  0.08782000  1.0
  O  O137  1  0.89006000  0.75176000  0.58782000  1.0
  O  O138  1  0.10996000  0.25175000  0.91217000  1.0
  O  O139  1  0.39005000  0.74824000  0.41218000  1.0
