# generated using pymatgen
data_CdH28C26N4O5
_symmetry_space_group_name_H-M   'P 1'
_cell_length_a   9.85471000
_cell_length_b   12.19340000
_cell_length_c   13.12600000
_cell_angle_alpha   64.43740000
_cell_angle_beta   68.72740000
_cell_angle_gamma   73.05670000
_symmetry_Int_Tables_number   1
_chemical_formula_structural   CdH28C26N4O5
_chemical_formula_sum   'Cd2 H56 C52 N8 O10'
_cell_volume   1308.73779194
_cell_formula_units_Z   2
loop_
 _symmetry_equiv_pos_site_id
 _symmetry_equiv_pos_as_xyz
  1  'x, y, z'
loop_
 _atom_site_type_symbol
 _atom_site_label
 _atom_site_symmetry_multiplicity
 _atom_site_fract_x
 _atom_site_fract_y
 _atom_site_fract_z
 _atom_site_occupancy
  Cd  Cd0  1  0.18767000  0.88354000  0.02104000  1.0
  Cd  Cd1  1  0.81233000  0.11646000  0.97896000  1.0
  H  H2  1  0.60785000  0.35947000  0.63271000  1.0
  H  H3  1  0.39215000  0.64053000  0.36729000  1.0
  H  H4  1  0.06498000  0.79455000  0.82934000  1.0
  H  H5  1  0.93502000  0.20545000  0.17066000  1.0
  H  H6  1  0.07548000  0.92554000  0.70025000  1.0
  H  H7  1  0.92452000  0.07446000  0.29975000  1.0
  H  H8  1  0.83387000  0.68342000  0.91073000  1.0
  H  H9  1  0.16613000  0.31658000  0.08927000  1.0
  H  H10  1  0.70622000  0.82278000  0.89400000  1.0
  H  H11  1  0.29377000  0.17722000  0.10600000  1.0
  H  H12  1  0.98506000  0.62787000  0.59853000  1.0
  H  H13  1  0.01494000  0.37213000  0.40147000  1.0
  H  H14  1  0.84569000  0.54452000  0.80862000  1.0
  H  H15  1  0.15431000  0.45548000  0.19138000  1.0
  H  H16  1  0.72820000  0.58807000  0.71773000  1.0
  H  H17  1  0.27180000  0.41193000  0.28227000  1.0
  H  H18  1  0.08596000  0.78824000  0.60536000  1.0
  H  H19  1  0.91404000  0.21176000  0.39464000  1.0
  H  H20  1  0.05761000  0.66404000  0.74144000  1.0
  H  H21  1  0.94239000  0.33596000  0.25856000  1.0
  H  H22  1  0.54628000  0.78806000  0.69073000  1.0
  H  H23  1  0.45372000  0.21194000  0.30927000  1.0
  H  H24  1  0.53906000  0.88480000  0.76180000  1.0
  H  H25  1  0.46094000  0.11520000  0.23820000  1.0
  H  H26  1  0.67637000  0.96793000  0.55043000  1.0
  H  H27  1  0.32363000  0.03206000  0.44957000  1.0
  H  H28  1  0.91733000  0.84838000  0.47432000  1.0
  H  H29  1  0.08267000  0.15162000  0.52568000  1.0
  H  H30  1  0.77021000  0.76590000  0.52247000  1.0
  H  H31  1  0.22979000  0.23410000  0.47753000  1.0
  H  H32  1  0.74902000  0.00348000  0.69613000  1.0
  H  H33  1  0.25098000  0.99652000  0.30387000  1.0
  H  H34  1  0.90435000  0.98861000  0.57817000  1.0
  H  H35  1  0.09565000  0.01139000  0.42183000  1.0
  H  H36  1  0.53172000  0.58600000  0.88362000  1.0
  H  H37  1  0.46828000  0.41400000  0.11638000  1.0
  H  H38  1  0.62543000  0.57343000  0.98235000  1.0
  H  H39  1  0.37457000  0.42657000  0.01765000  1.0
  H  H40  1  0.23409000  0.99675000  0.75402000  1.0
  H  H41  1  0.76591000  0.00325000  0.24598000  1.0
  H  H42  1  0.38916000  0.13319000  0.56598000  1.0
  H  H43  1  0.61084000  0.86681000  0.43402000  1.0
  H  H44  1  0.55527000  0.21687000  0.78473000  1.0
  H  H45  1  0.44473000  0.78313000  0.21527000  1.0
  H  H46  1  0.39796000  0.08098000  0.95633000  1.0
  H  H47  1  0.60204000  0.91902000  0.04367000  1.0
  H  H48  1  0.75442000  0.50543000  0.55413000  1.0
  H  H49  1  0.24558000  0.49457000  0.44587000  1.0
  H  H50  1  0.95437000  0.62321000  0.46831000  1.0
  H  H51  1  0.04563000  0.37679000  0.53169000  1.0
  H  H52  1  0.11261000  0.76585000  0.29195000  1.0
  H  H53  1  0.88739000  0.23415000  0.70805000  1.0
  H  H54  1  0.95076000  0.72007000  0.06555000  1.0
  H  H55  1  0.04924000  0.27993000  0.93445000  1.0
  H  H56  1  0.78265000  0.57702000  0.23237000  1.0
  H  H57  1  0.21735000  0.42298000  0.76763000  1.0
  C  C58  1  0.92510000  0.95753000  0.85079000  1.0
  C  C59  1  0.07490000  0.04247000  0.14921000  1.0
  C  C60  1  0.99627000  0.87430000  0.78018000  1.0
  C  C61  1  0.00373000  0.12570000  0.21982000  1.0
  C  C62  1  0.89801000  0.83083000  0.74185000  1.0
  C  C63  1  0.10199000  0.16917000  0.25815000  1.0
  C  C64  1  0.77971000  0.76154000  0.84765000  1.0
  C  C65  1  0.22029000  0.23846000  0.15235000  1.0
  C  C66  1  0.90969000  0.69260000  0.64026000  1.0
  C  C67  1  0.09031000  0.30740000  0.35974000  1.0
  C  C68  1  0.68738000  0.71204000  0.80836000  1.0
  C  C69  1  0.31262000  0.28796000  0.19164000  1.0
  C  C70  1  0.79280000  0.62437000  0.74619000  1.0
  C  C71  1  0.20720000  0.37563000  0.25381000  1.0
  C  C72  1  0.99962000  0.74113000  0.68074000  1.0
  C  C73  1  0.00038000  0.25887000  0.31926000  1.0
  C  C74  1  0.61422000  0.82126000  0.71888000  1.0
  C  C75  1  0.38578000  0.17873000  0.28112000  1.0
  C  C76  1  0.73112000  0.88966000  0.61280000  1.0
  C  C77  1  0.26888000  0.11034000  0.38720000  1.0
  C  C78  1  0.83407000  0.80063000  0.55262000  1.0
  C  C79  1  0.16593000  0.19937000  0.44738000  1.0
  C  C80  1  0.82067000  0.93834000  0.65398000  1.0
  C  C81  1  0.17933000  0.06166000  0.34602000  1.0
  C  C82  1  0.57151000  0.63895000  0.91373000  1.0
  C  C83  1  0.42849000  0.36105000  0.08627000  1.0
  C  C84  1  0.43742000  0.71859000  0.96547000  1.0
  C  C85  1  0.56258000  0.28141000  0.03453000  1.0
  C  C86  1  0.30597000  0.04949000  0.75449000  1.0
  C  C87  1  0.69403000  0.95051000  0.24551000  1.0
  C  C88  1  0.39072000  0.12448000  0.65159000  1.0
  C  C89  1  0.60928000  0.87552000  0.34841000  1.0
  C  C90  1  0.48080000  0.18963000  0.65845000  1.0
  C  C91  1  0.51920000  0.81037000  0.34155000  1.0
  C  C92  1  0.48544000  0.17393000  0.76944000  1.0
  C  C93  1  0.51456000  0.82607000  0.23056000  1.0
  C  C94  1  0.39755000  0.09581000  0.86836000  1.0
  C  C95  1  0.60245000  0.90419000  0.13164000  1.0
  C  C96  1  0.56446000  0.27218000  0.54355000  1.0
  C  C97  1  0.43554000  0.72782000  0.45645000  1.0
  C  C98  1  0.76300000  0.50730000  0.46725000  1.0
  C  C99  1  0.23701000  0.49270000  0.53275000  1.0
  C  C100  1  0.85469000  0.58950000  0.36441000  1.0
  C  C101  1  0.14531000  0.41050000  0.63559000  1.0
  C  C102  1  0.95036000  0.64230000  0.38047000  1.0
  C  C103  1  0.04964000  0.35770000  0.61953000  1.0
  C  C104  1  0.03943000  0.71997000  0.28338000  1.0
  C  C105  1  0.96057000  0.28003000  0.71662000  1.0
  C  C106  1  0.94789000  0.69488000  0.15667000  1.0
  C  C107  1  0.05211000  0.30512000  0.84333000  1.0
  C  C108  1  0.85492000  0.61644000  0.24884000  1.0
  C  C109  1  0.14508000  0.38356000  0.75116000  1.0
  N  N110  1  0.30894000  0.03610000  0.86081000  1.0
  N  N111  1  0.69106000  0.96390000  0.13918000  1.0
  N  N112  1  0.62416000  0.35688000  0.55212000  1.0
  N  N113  1  0.37584000  0.64312000  0.44788000  1.0
  N  N114  1  0.70115000  0.43573000  0.45481000  1.0
  N  N115  1  0.29885000  0.56427000  0.54519000  1.0
  N  N116  1  0.03785000  0.74634000  0.17344000  1.0
  N  N117  1  0.96215000  0.25366000  0.82656000  1.0
  O  O118  1  0.99158000  0.95065000  0.92182000  1.0
  O  O119  1  0.00842000  0.04935000  0.07818000  1.0
  O  O120  1  0.80765000  0.03403000  0.83770000  1.0
  O  O121  1  0.19236000  0.96597000  0.16230000  1.0
  O  O122  1  0.44330000  0.76003000  0.03762000  1.0
  O  O123  1  0.55670000  0.23997000  0.96238000  1.0
  O  O124  1  0.32211000  0.74369000  0.93052000  1.0
  O  O125  1  0.67789000  0.25631000  0.06948000  1.0
  O  O126  1  0.57626000  0.26736000  0.44910000  1.0
  O  O127  1  0.42375000  0.73264000  0.55090000  1.0
