# generated using pymatgen
data_AlH33(C8O)6
_symmetry_space_group_name_H-M   'P 1'
_cell_length_a   3.99237000
_cell_length_b   23.49810000
_cell_length_c   23.56440000
_cell_angle_alpha   60.10110000
_cell_angle_beta   87.90860000
_cell_angle_gamma   87.98970000
_symmetry_Int_Tables_number   1
_chemical_formula_structural   AlH33(C8O)6
_chemical_formula_sum   'Al1 H33 C48 O6'
_cell_volume   1914.78565205
_cell_formula_units_Z   1
loop_
 _symmetry_equiv_pos_site_id
 _symmetry_equiv_pos_as_xyz
  1  'x, y, z'
loop_
 _atom_site_type_symbol
 _atom_site_label
 _atom_site_symmetry_multiplicity
 _atom_site_fract_x
 _atom_site_fract_y
 _atom_site_fract_z
 _atom_site_occupancy
  Al  Al0  1  0.00303000  0.50074000  0.49986000  1.0
  H  H1  1  0.49389000  0.32235000  0.67888000  1.0
  H  H2  1  0.49449000  0.20184000  0.74246000  1.0
  H  H3  1  0.17595000  0.98347000  0.83484000  1.0
  H  H4  1  0.56036000  0.68509000  0.31523000  1.0
  H  H5  1  0.50235000  0.74310000  0.19527000  1.0
  H  H6  1  0.75454000  0.77044000  0.10671000  1.0
  H  H7  1  0.76640000  0.83351000  0.98722000  1.0
  H  H8  1  0.49762000  0.89543000  0.89383000  1.0
  H  H9  1  0.46759000  0.50011000  0.32204000  1.0
  H  H10  1  0.47296000  0.55649000  0.20206000  1.0
  H  H11  1  0.18827000  0.68448000  0.98368000  1.0
  H  H12  1  0.48579000  0.50029000  0.68420000  1.0
  H  H13  1  0.42735000  0.56299000  0.74278000  1.0
  H  H14  1  0.72365000  0.62138000  0.76798000  1.0
  H  H15  1  0.75121000  0.67781000  0.83139000  1.0
  H  H16  1  0.47325000  0.71174000  0.89543000  1.0
  H  H17  1  0.44234000  0.68052000  0.49998000  1.0
  H  H18  1  0.44072000  0.74357000  0.55762000  1.0
  H  H19  1  0.14285000  0.83541000  0.68857000  1.0
  H  H20  1  0.53203000  0.31526000  0.49990000  1.0
  H  H21  1  0.48303000  0.19453000  0.56338000  1.0
  H  H22  1  0.78106000  0.10645000  0.62327000  1.0
  H  H23  1  0.79155000  0.98603000  0.68016000  1.0
  H  H24  1  0.47416000  0.89362000  0.71251000  1.0
  H  H25  1  0.86512000  0.82377000  0.61175000  1.0
  H  H26  1  0.94519000  0.75908000  0.59429000  1.0
  H  H27  1  0.22322000  0.82566000  0.56411000  1.0
  H  H28  1  0.90379000  0.07668000  0.82096000  1.0
  H  H29  1  0.99994000  0.15726000  0.75719000  1.0
  H  H30  1  0.26473000  0.11605000  0.82537000  1.0
  H  H31  1  0.93437000  0.60596000  0.07393000  1.0
  H  H32  1  0.99952000  0.59005000  0.15482000  1.0
  H  H33  1  0.29416000  0.56074000  0.11679000  1.0
  C  C34  1  0.51314000  0.39983000  0.54854000  1.0
  C  C35  1  0.48153000  0.54972000  0.55179000  1.0
  C  C36  1  0.51377000  0.55258000  0.39937000  1.0
  C  C37  1  0.49600000  0.29397000  0.65374000  1.0
  C  C38  1  0.49040000  0.22584000  0.68939000  1.0
  C  C39  1  0.30671000  0.07901000  0.75750000  1.0
  C  C40  1  0.31759000  0.01047000  0.78885000  1.0
  C  C41  1  0.53356000  0.65723000  0.29003000  1.0
  C  C42  1  0.50572000  0.68956000  0.22225000  1.0
  C  C43  1  0.62138000  0.75176000  0.07998000  1.0
  C  C44  1  0.62905000  0.78779000  0.01206000  1.0
  C  C45  1  0.51289000  0.32671000  0.58532000  1.0
  C  C46  1  0.48310000  0.18790000  0.65837000  1.0
  C  C47  1  0.47330000  0.11525000  0.69584000  1.0
  C  C48  1  0.48605000  0.97522000  0.76268000  1.0
  C  C49  1  0.48823000  0.90271000  0.79898000  1.0
  C  C50  1  0.49188000  0.86814000  0.86764000  1.0
  C  C51  1  0.48134000  0.55347000  0.29377000  1.0
  C  C52  1  0.47629000  0.58587000  0.22584000  1.0
  C  C53  1  0.31056000  0.66576000  0.07895000  1.0
  C  C54  1  0.32187000  0.70293000  0.01062000  1.0
  C  C55  1  0.46914000  0.55379000  0.65672000  1.0
  C  C56  1  0.44052000  0.58942000  0.68938000  1.0
  C  C57  1  0.58735000  0.66790000  0.75103000  1.0
  C  C58  1  0.60333000  0.69967000  0.78715000  1.0
  C  C59  1  0.51276000  0.58874000  0.32658000  1.0
  C  C60  1  0.47886000  0.65493000  0.18802000  1.0
  C  C61  1  0.46596000  0.69026000  0.11553000  1.0
  C  C62  1  0.48034000  0.76347000  0.97553000  1.0
  C  C63  1  0.48577000  0.79939000  0.90321000  1.0
  C  C64  1  0.47758000  0.76524000  0.86855000  1.0
  C  C65  1  0.44371000  0.65498000  0.55333000  1.0
  C  C66  1  0.43582000  0.69031000  0.58627000  1.0
  C  C67  1  0.25961000  0.75776000  0.66822000  1.0
  C  C68  1  0.27866000  0.78879000  0.70545000  1.0
  C  C69  1  0.51943000  0.29003000  0.55327000  1.0
  C  C70  1  0.49561000  0.22196000  0.58935000  1.0
  C  C71  1  0.64019000  0.07956000  0.66931000  1.0
  C  C72  1  0.64717000  0.01141000  0.70135000  1.0
  C  C73  1  0.46488000  0.58641000  0.58823000  1.0
  C  C74  1  0.42735000  0.65865000  0.65515000  1.0
  C  C75  1  0.41991000  0.69552000  0.69105000  1.0
  C  C76  1  0.45101000  0.76182000  0.76431000  1.0
  C  C77  1  0.47095000  0.79832000  0.80004000  1.0
  C  C78  1  0.47859000  0.86715000  0.76588000  1.0
  C  C79  1  0.06250000  0.79307000  0.60628000  1.0
  C  C80  1  0.10814000  0.10929000  0.79169000  1.0
  C  C81  1  0.12459000  0.60222000  0.10814000  1.0
  O  O82  1  0.74109000  0.56507000  0.42808000  1.0
  O  O83  1  0.75201000  0.42854000  0.50748000  1.0
  O  O84  1  0.72212000  0.50827000  0.56396000  1.0
  O  O85  1  0.28423000  0.51037000  0.42829000  1.0
  O  O86  1  0.25399000  0.56305000  0.51003000  1.0
  O  O87  1  0.27161000  0.42872000  0.56175000  1.0
