# generated using pymatgen
data_Zn2H13C36N6Cl7O8
_symmetry_space_group_name_H-M   'P 1'
_cell_length_a   13.26860000
_cell_length_b   13.59320000
_cell_length_c   14.36890000
_cell_angle_alpha   82.81320000
_cell_angle_beta   64.57070000
_cell_angle_gamma   77.25630000
_symmetry_Int_Tables_number   1
_chemical_formula_structural   Zn2H13C36N6Cl7O8
_chemical_formula_sum   'Zn2 H13 C36 N6 Cl7 O8'
_cell_volume   2281.51403783
_cell_formula_units_Z   1
loop_
 _symmetry_equiv_pos_site_id
 _symmetry_equiv_pos_as_xyz
  1  'x, y, z'
loop_
 _atom_site_type_symbol
 _atom_site_label
 _atom_site_symmetry_multiplicity
 _atom_site_fract_x
 _atom_site_fract_y
 _atom_site_fract_z
 _atom_site_occupancy
  Zn  Zn0  1  0.62883000  0.49444000  0.46009000  1.0
  Zn  Zn1  1  0.39663000  0.47801000  0.56814000  1.0
  H  H2  1  0.81093000  0.45106000  0.52133000  1.0
  H  H3  1  0.06435000  0.30697000  0.66741000  1.0
  H  H4  1  0.69378000  0.24749000  0.30100000  1.0
  H  H5  1  0.57443000  0.97301000  0.31789000  1.0
  H  H6  1  0.45352000  0.19635000  0.66039000  1.0
  H  H7  1  0.23921000  0.70311000  0.64220000  1.0
  H  H8  1  0.15248000  0.79638000  0.73455000  1.0
  H  H9  1  0.92135000  0.68647000  0.14768000  1.0
  H  H10  1  0.04549000  0.69801000  0.15740000  1.0
  H  H11  1  0.65164000  0.86793000  0.39561000  1.0
  H  H12  1  0.61573000  0.74896000  0.41490000  1.0
  H  H13  1  0.70553000  0.17115000  0.15105000  1.0
  H  H14  1  0.66349000  0.06098000  0.15807000  1.0
  C  C15  1  0.57848000  0.29782000  0.49141000  1.0
  C  C16  1  0.47397000  0.45885000  0.25546000  1.0
  C  C17  1  0.29066000  0.92105000  0.67235000  1.0
  C  C18  1  0.41372000  0.79021000  0.54906000  1.0
  C  C19  1  0.64663000  0.18881000  0.34586000  1.0
  C  C20  1  0.64020000  0.10841000  0.29669000  1.0
  C  C21  1  0.58174000  0.03324000  0.35677000  1.0
  C  C22  1  0.52494000  0.03723000  0.46534000  1.0
  C  C23  1  0.52069000  0.12523000  0.51320000  1.0
  C  C24  1  0.46208000  0.96037000  0.52810000  1.0
  C  C25  1  0.37197000  0.98447000  0.62794000  1.0
  C  C26  1  0.51627000  0.48243000  0.69491000  1.0
  C  C27  1  0.37730000  0.07073000  0.67410000  1.0
  C  C28  1  0.45100000  0.13491000  0.62034000  1.0
  C  C29  1  0.48958000  0.85820000  0.49664000  1.0
  C  C30  1  0.30560000  0.82772000  0.63049000  1.0
  C  C31  1  0.58531000  0.19903000  0.45144000  1.0
  C  C32  1  0.94042000  0.61321000  0.27347000  1.0
  C  C33  1  0.13368000  0.44504000  0.61465000  1.0
  C  C34  1  0.06807000  0.37551000  0.61905000  1.0
  C  C35  1  0.00976000  0.39641000  0.55620000  1.0
  C  C36  1  0.01938000  0.48419000  0.48946000  1.0
  C  C37  1  0.44654000  0.68211000  0.52580000  1.0
  C  C38  1  0.10019000  0.54030000  0.48558000  1.0
  C  C39  1  0.95845000  0.51889000  0.42485000  1.0
  C  C40  1  0.00077000  0.58756000  0.33865000  1.0
  C  C41  1  0.09565000  0.63047000  0.32786000  1.0
  C  C42  1  0.13619000  0.61503000  0.40361000  1.0
  C  C43  1  0.85264000  0.49305000  0.45064000  1.0
  C  C44  1  0.83652000  0.57913000  0.30743000  1.0
  C  C45  1  0.47437000  0.46799000  0.35434000  1.0
  C  C46  1  0.52214000  0.47219000  0.79388000  1.0
  C  C47  1  0.51643000  0.46490000  0.88196000  1.0
  C  C48  1  0.50689000  0.45892000  0.97918000  1.0
  C  C49  1  0.49508000  0.45581000  0.06950000  1.0
  C  C50  1  0.48337000  0.45601000  0.16695000  1.0
  N  N51  1  0.79261000  0.52460000  0.39441000  1.0
  N  N52  1  0.15085000  0.52351000  0.55140000  1.0
  N  N53  1  0.22103000  0.77361000  0.66906000  1.0
  N  N54  1  0.97383000  0.66910000  0.18414000  1.0
  N  N55  1  0.59091000  0.82559000  0.41577000  1.0
  N  N56  1  0.69332000  0.10402000  0.18975000  1.0
  Cl  Cl57  1  0.16198000  0.70725000  0.22350000  1.0
  Cl  Cl58  1  0.20467000  0.42428000  0.69593000  1.0
  Cl  Cl59  1  0.93578000  0.30620000  0.55814000  1.0
  Cl  Cl60  1  0.23581000  0.67770000  0.39950000  1.0
  Cl  Cl61  1  0.30175000  0.09168000  0.80557000  1.0
  Cl  Cl62  1  0.15957000  0.95839000  0.77442000  1.0
  Cl  Cl63  1  0.75827000  0.61310000  0.23515000  1.0
  O  O64  1  0.66360000  0.34211000  0.44658000  1.0
  O  O65  1  0.48469000  0.33564000  0.56377000  1.0
  O  O66  1  0.60874000  0.48035000  0.61450000  1.0
  O  O67  1  0.41619000  0.49303000  0.69985000  1.0
  O  O68  1  0.55271000  0.64283000  0.48230000  1.0
  O  O69  1  0.36847000  0.62906000  0.55159000  1.0
  O  O70  1  0.56192000  0.49504000  0.35027000  1.0
  O  O71  1  0.38860000  0.44919000  0.43505000  1.0
