# generated using pymatgen
data_TbH15(C3O4)3
_symmetry_space_group_name_H-M   'P 1'
_cell_length_a   7.11795000
_cell_length_b   9.96994000
_cell_length_c   10.46900000
_cell_angle_alpha   114.63900000
_cell_angle_beta   104.88100000
_cell_angle_gamma   100.05500000
_symmetry_Int_Tables_number   1
_chemical_formula_structural   TbH15(C3O4)3
_chemical_formula_sum   'Tb2 H30 C18 O24'
_cell_volume   618.19136181
_cell_formula_units_Z   2
loop_
 _symmetry_equiv_pos_site_id
 _symmetry_equiv_pos_as_xyz
  1  'x, y, z'
loop_
 _atom_site_type_symbol
 _atom_site_label
 _atom_site_symmetry_multiplicity
 _atom_site_fract_x
 _atom_site_fract_y
 _atom_site_fract_z
 _atom_site_occupancy
  Tb  Tb0  1  0.82084000  0.94917000  0.66516000  1.0
  Tb  Tb1  1  0.65559000  0.28400000  0.33484000  1.0
  H  H2  1  0.82779000  0.60186000  0.73831000  1.0
  H  H3  1  0.58911000  0.86342000  0.26167000  1.0
  H  H4  1  0.04393000  0.37074000  0.98396000  1.0
  H  H5  1  0.56016000  0.38672000  0.01619000  1.0
  H  H6  1  0.07810000  0.85088000  0.22404000  1.0
  H  H7  1  0.35385000  0.62651000  0.77594000  1.0
  H  H8  1  0.55674000  0.08498000  0.49571000  1.0
  H  H9  1  0.56097000  0.58935000  0.50462000  1.0
  H  H10  1  0.42593000  0.91139000  0.44264000  1.0
  H  H11  1  0.48343000  0.46867000  0.55752000  1.0
  H  H12  1  0.36799000  0.76498000  0.54677000  1.0
  H  H13  1  0.32110000  0.21816000  0.45324000  1.0
  H  H14  1  0.46455000  0.82699000  0.72524000  1.0
  H  H15  1  0.23912000  0.10189000  0.27470000  1.0
  H  H16  1  0.13442000  0.79099000  0.73240000  1.0
  H  H17  1  0.90200000  0.05866000  0.26748000  1.0
  H  H18  1  0.98398000  0.65516000  0.57166000  1.0
  H  H19  1  0.91234000  0.08343000  0.42817000  1.0
  H  H20  1  0.25951000  0.02637000  0.87768000  1.0
  H  H21  1  0.88171000  0.14886000  0.12231000  1.0
  H  H22  1  0.25164000  0.15783000  0.82839000  1.0
  H  H23  1  0.92308000  0.32960000  0.17164000  1.0
  H  H24  1  0.16796000  0.06490000  0.58456000  1.0
  H  H25  1  0.08341000  0.48036000  0.41541000  1.0
  H  H26  1  0.07559000  0.88489000  0.46585000  1.0
  H  H27  1  0.10975000  0.41893000  0.53404000  1.0
  H  H28  1  0.71054000  0.15515000  0.93875000  1.0
  H  H29  1  0.27180000  0.21640000  0.06123000  1.0
  H  H30  1  0.57515000  0.15824000  0.79211000  1.0
  H  H31  1  0.28300000  0.36622000  0.20782000  1.0
  C  C32  1  0.95353000  0.74334000  0.98155000  1.0
  C  C33  1  0.47176000  0.76163000  0.01842000  1.0
  C  C34  1  0.89829000  0.60524000  0.84542000  1.0
  C  C35  1  0.55254000  0.75968000  0.15456000  1.0
  C  C36  1  0.93306000  0.47159000  0.84664000  1.0
  C  C37  1  0.58614000  0.62485000  0.15338000  1.0
  C  C38  1  0.01873000  0.47569000  0.98503000  1.0
  C  C39  1  0.53370000  0.49052000  0.01504000  1.0
  C  C40  1  0.06796000  0.61150000  0.12111000  1.0
  C  C41  1  0.44688000  0.49019000  0.87891000  1.0
  C  C42  1  0.03735000  0.74488000  0.11813000  1.0
  C  C43  1  0.41905000  0.62651000  0.88187000  1.0
  C  C44  1  0.92246000  0.88946000  0.98439000  1.0
  C  C45  1  0.43793000  0.90490000  0.01550000  1.0
  C  C46  1  0.87210000  0.32068000  0.70191000  1.0
  C  C47  1  0.66996000  0.61885000  0.29819000  1.0
  C  C48  1  0.14632000  0.61738000  0.27036000  1.0
  C  C49  1  0.37596000  0.34682000  0.72964000  1.0
  O  O50  1  0.84583000  0.88795000  0.86104000  1.0
  O  O51  1  0.48464000  0.02679000  0.13882000  1.0
  O  O52  1  0.97611000  0.01053000  0.11435000  1.0
  O  O53  1  0.36172000  0.89595000  0.88551000  1.0
  O  O54  1  0.20582000  0.74878000  0.38993000  1.0
  O  O55  1  0.31572000  0.35867000  0.61009000  1.0
  O  O56  1  0.14813000  0.49093000  0.27421000  1.0
  O  O57  1  0.37399000  0.21651000  0.72572000  1.0
  O  O58  1  0.74884000  0.30684000  0.58133000  1.0
  O  O59  1  0.66744000  0.72572000  0.41873000  1.0
  O  O60  1  0.94249000  0.21457000  0.70933000  1.0
  O  O61  1  0.73305000  0.50537000  0.29089000  1.0
  O  O62  1  0.56123000  0.99194000  0.50578000  1.0
  O  O63  1  0.55557000  0.48621000  0.49443000  1.0
  O  O64  1  0.49191000  0.78279000  0.63099000  1.0
  O  O65  1  0.36077000  0.15184000  0.36893000  1.0
  O  O66  1  0.01718000  0.76650000  0.64240000  1.0
  O  O67  1  0.87468000  0.12406000  0.35747000  1.0
  O  O68  1  0.17636000  0.09585000  0.86407000  1.0
  O  O69  1  0.81214000  0.23192000  0.13596000  1.0
  O  O70  1  0.03561000  0.97725000  0.51808000  1.0
  O  O71  1  0.01754000  0.45909000  0.48185000  1.0
  O  O72  1  0.67742000  0.11442000  0.82887000  1.0
  O  O73  1  0.34846000  0.28558000  0.17114000  1.0
