# generated using pymatgen
data_ZnH6C8(N2O)2
_symmetry_space_group_name_H-M   'P 1'
_cell_length_a   11.44390000
_cell_length_b   12.73130000
_cell_length_c   12.73170000
_cell_angle_alpha   111.45100000
_cell_angle_beta   107.38900000
_cell_angle_gamma   107.45800000
_symmetry_Int_Tables_number   1
_chemical_formula_structural   ZnH6C8(N2O)2
_chemical_formula_sum   'Zn6 H36 C48 N24 O12'
_cell_volume   1462.19585872
_cell_formula_units_Z   6
loop_
 _symmetry_equiv_pos_site_id
 _symmetry_equiv_pos_as_xyz
  1  'x, y, z'
loop_
 _atom_site_type_symbol
 _atom_site_label
 _atom_site_symmetry_multiplicity
 _atom_site_fract_x
 _atom_site_fract_y
 _atom_site_fract_z
 _atom_site_occupancy
  Zn  Zn0  1  0.12459000  0.00483000  0.36084000  1.0
  Zn  Zn1  1  0.61984000  0.99522000  0.35609000  1.0
  Zn  Zn2  1  0.11994000  0.35608000  0.99523000  1.0
  Zn  Zn3  1  0.76403000  0.63921000  0.64379000  1.0
  Zn  Zn4  1  0.62461000  0.36083000  0.00468000  1.0
  Zn  Zn5  1  0.26411000  0.64392000  0.63921000  1.0
  H  H6  1  0.90134000  0.24234000  0.20042000  1.0
  H  H7  1  0.15913000  0.75763000  0.95816000  1.0
  H  H8  1  0.65898000  0.95809000  0.75760000  1.0
  H  H9  1  0.70076000  0.79927000  0.04185000  1.0
  H  H10  1  0.40108000  0.20041000  0.24233000  1.0
  H  H11  1  0.20097000  0.04194000  0.79932000  1.0
  H  H12  1  0.84734000  0.94000000  0.35355000  1.0
  H  H13  1  0.40720000  0.06012000  0.41361000  1.0
  H  H14  1  0.90734000  0.41365000  0.06014000  1.0
  H  H15  1  0.49412000  0.64654000  0.58649000  1.0
  H  H16  1  0.34750000  0.35356000  0.94005000  1.0
  H  H17  1  0.99409000  0.58645000  0.64655000  1.0
  H  H18  1  0.69749000  0.15897000  0.23488000  1.0
  H  H19  1  0.03846000  0.84098000  0.07581000  1.0
  H  H20  1  0.53843000  0.07584000  0.84090000  1.0
  H  H21  1  0.46266000  0.76501000  0.92414000  1.0
  H  H22  1  0.19742000  0.23492000  0.15904000  1.0
  H  H23  1  0.96275000  0.92413000  0.76497000  1.0
  H  H24  1  0.49145000  0.46899000  0.69180000  1.0
  H  H25  1  0.52262000  0.53108000  0.22280000  1.0
  H  H26  1  0.02255000  0.22275000  0.53115000  1.0
  H  H27  1  0.79937000  0.30842000  0.77717000  1.0
  H  H28  1  0.99133000  0.69167000  0.46885000  1.0
  H  H29  1  0.29936000  0.77723000  0.30841000  1.0
  H  H30  1  0.27989000  0.03687000  0.61404000  1.0
  H  H31  1  0.74327000  0.96315000  0.57725000  1.0
  H  H32  1  0.24335000  0.57732000  0.96312000  1.0
  H  H33  1  0.66597000  0.38569000  0.42258000  1.0
  H  H34  1  0.78003000  0.61421000  0.03699000  1.0
  H  H35  1  0.16601000  0.42257000  0.38577000  1.0
  H  H36  1  0.30551000  0.28676000  0.47399000  1.0
  H  H37  1  0.51908000  0.71334000  0.18727000  1.0
  H  H38  1  0.01914000  0.18715000  0.71337000  1.0
  H  H39  1  0.83162000  0.52630000  0.81262000  1.0
  H  H40  1  0.80539000  0.47378000  0.28654000  1.0
  H  H41  1  0.33170000  0.81273000  0.52624000  1.0
  C  C42  1  0.89047000  0.17592000  0.23589000  1.0
  C  C43  1  0.21461000  0.82411000  0.06003000  1.0
  C  C44  1  0.71454000  0.05998000  0.82409000  1.0
  C  C45  1  0.65455000  0.76387000  0.93999000  1.0
  C  C46  1  0.39036000  0.23589000  0.17593000  1.0
  C  C47  1  0.15467000  0.94004000  0.76387000  1.0
  C  C48  1  0.99983000  0.14222000  0.27032000  1.0
  C  C49  1  0.35769000  0.85788000  0.12826000  1.0
  C  C50  1  0.85768000  0.12821000  0.85791000  1.0
  C  C51  1  0.72960000  0.72958000  0.87183000  1.0
  C  C52  1  0.49977000  0.27025000  0.14218000  1.0
  C  C53  1  0.22968000  0.87187000  0.72958000  1.0
  C  C54  1  0.86035000  0.00891000  0.32082000  1.0
  C  C55  1  0.35138000  0.99118000  0.31196000  1.0
  C  C56  1  0.85146000  0.31199000  0.99119000  1.0
  C  C57  1  0.53985000  0.67927000  0.68813000  1.0
  C  C58  1  0.36046000  0.32079000  0.00892000  1.0
  C  C59  1  0.03984000  0.68810000  0.67926000  1.0
  C  C60  1  0.77824000  0.12971000  0.25388000  1.0
  C  C61  1  0.14849000  0.87027000  0.12415000  1.0
  C  C62  1  0.64847000  0.12416000  0.87021000  1.0
  C  C63  1  0.52445000  0.74598000  0.87587000  1.0
  C  C64  1  0.27822000  0.25392000  0.12977000  1.0
  C  C65  1  0.02451000  0.87586000  0.74594000  1.0
  C  C66  1  0.44365000  0.37254000  0.67398000  1.0
  C  C67  1  0.57131000  0.62752000  0.30147000  1.0
  C  C68  1  0.07127000  0.30143000  0.62758000  1.0
  C  C69  1  0.76946000  0.32614000  0.69850000  1.0
  C  C70  1  0.94357000  0.67391000  0.37246000  1.0
  C  C71  1  0.26947000  0.69853000  0.32614000  1.0
  C  C72  1  0.48457000  0.34556000  0.77436000  1.0
  C  C73  1  0.63907000  0.65441000  0.42879000  1.0
  C  C74  1  0.13903000  0.42880000  0.65443000  1.0
  C  C75  1  0.71004000  0.22561000  0.57115000  1.0
  C  C76  1  0.98451000  0.77441000  0.34559000  1.0
  C  C77  1  0.21008000  0.57116000  0.22564000  1.0
  C  C78  1  0.32777000  0.13414000  0.63258000  1.0
  C  C79  1  0.69387000  0.86588000  0.49851000  1.0
  C  C80  1  0.19390000  0.49852000  0.86589000  1.0
  C  C81  1  0.69533000  0.36727000  0.50137000  1.0
  C  C82  1  0.82783000  0.63269000  0.13421000  1.0
  C  C83  1  0.19537000  0.50138000  0.36735000  1.0
  C  C84  1  0.34340000  0.27386000  0.55563000  1.0
  C  C85  1  0.56981000  0.72624000  0.28183000  1.0
  C  C86  1  0.06986000  0.28176000  0.72630000  1.0
  C  C87  1  0.78779000  0.44453000  0.71809000  1.0
  C  C88  1  0.84334000  0.55552000  0.27374000  1.0
  C  C89  1  0.28783000  0.71816000  0.44452000  1.0
  N  N90  1  0.97346000  0.05031000  0.30781000  1.0
  N  N91  1  0.42313000  0.94975000  0.25765000  1.0
  N  N92  1  0.92319000  0.25763000  0.94981000  1.0
  N  N93  1  0.66588000  0.69221000  0.74248000  1.0
  N  N94  1  0.47349000  0.30775000  0.05029000  1.0
  N  N95  1  0.16593000  0.74250000  0.69225000  1.0
  N  N96  1  0.76283000  0.04624000  0.29928000  1.0
  N  N97  1  0.21652000  0.95381000  0.25301000  1.0
  N  N98  1  0.71656000  0.25306000  0.95375000  1.0
  N  N99  1  0.46380000  0.70074000  0.74703000  1.0
  N  N100  1  0.26289000  0.29929000  0.04629000  1.0
  N  N101  1  0.96378000  0.74697000  0.70066000  1.0
  N  N102  1  0.42362000  0.22327000  0.74960000  1.0
  N  N103  1  0.70054000  0.77673000  0.52637000  1.0
  N  N104  1  0.20047000  0.52639000  0.77671000  1.0
  N  N105  1  0.67398000  0.25020000  0.47354000  1.0
  N  N106  1  0.92366000  0.74975000  0.22337000  1.0
  N  N107  1  0.17399000  0.47354000  0.25029000  1.0
  N  N108  1  0.28333000  0.15258000  0.53301000  1.0
  N  N109  1  0.63100000  0.84749000  0.38052000  1.0
  N  N110  1  0.13109000  0.38046000  0.84754000  1.0
  N  N111  1  0.75052000  0.46701000  0.61937000  1.0
  N  N112  1  0.78334000  0.53300000  0.15254000  1.0
  N  N113  1  0.25061000  0.61943000  0.46707000  1.0
  O  O114  1  0.11379000  0.18842000  0.27184000  1.0
  O  O115  1  0.42557000  0.81173000  0.08370000  1.0
  O  O116  1  0.92555000  0.08363000  0.81177000  1.0
  O  O117  1  0.84203000  0.72809000  0.91645000  1.0
  O  O118  1  0.61366000  0.27171000  0.18829000  1.0
  O  O119  1  0.34213000  0.91650000  0.72804000  1.0
  O  O120  1  0.57741000  0.43191000  0.88858000  1.0
  O  O121  1  0.64538000  0.56802000  0.45664000  1.0
  O  O122  1  0.14534000  0.45667000  0.56805000  1.0
  O  O123  1  0.68849000  0.11135000  0.54335000  1.0
  O  O124  1  0.07730000  0.88867000  0.43197000  1.0
  O  O125  1  0.18863000  0.54335000  0.11143000  1.0
