# generated using pymatgen
data_HoH7(C3O4)2
_symmetry_space_group_name_H-M   'P 1'
_cell_length_a   9.47268000
_cell_length_b   14.44890000
_cell_length_c   14.52050000
_cell_angle_alpha   90.00000000
_cell_angle_beta   91.48220000
_cell_angle_gamma   90.00000000
_symmetry_Int_Tables_number   1
_chemical_formula_structural   HoH7(C3O4)2
_chemical_formula_sum   'Ho8 H56 C48 O64'
_cell_volume   1986.75304678
_cell_formula_units_Z   8
loop_
 _symmetry_equiv_pos_site_id
 _symmetry_equiv_pos_as_xyz
  1  'x, y, z'
loop_
 _atom_site_type_symbol
 _atom_site_label
 _atom_site_symmetry_multiplicity
 _atom_site_fract_x
 _atom_site_fract_y
 _atom_site_fract_z
 _atom_site_occupancy
  Ho  Ho0  1  0.48371000  0.16483000  0.25525000  1.0
  Ho  Ho1  1  0.01629000  0.66484000  0.24475000  1.0
  Ho  Ho2  1  0.51629000  0.83517000  0.74475000  1.0
  Ho  Ho3  1  0.98370000  0.33517000  0.75525000  1.0
  Ho  Ho4  1  0.69654000  0.35189000  0.09221000  1.0
  Ho  Ho5  1  0.80347000  0.85189000  0.40780000  1.0
  Ho  Ho6  1  0.30348000  0.64810000  0.90779000  1.0
  Ho  Ho7  1  0.19653000  0.14811000  0.59221000  1.0
  H  H8  1  0.00425000  0.19965000  0.20125000  1.0
  H  H9  1  0.49574000  0.69966000  0.29875000  1.0
  H  H10  1  0.99575000  0.80035000  0.79875000  1.0
  H  H11  1  0.50426000  0.30034000  0.70125000  1.0
  H  H12  1  0.95668000  0.15622000  0.40639000  1.0
  H  H13  1  0.54332000  0.65622000  0.09360000  1.0
  H  H14  1  0.04332000  0.84378000  0.59360000  1.0
  H  H15  1  0.45668000  0.34378000  0.90640000  1.0
  H  H16  1  0.35359000  0.86638000  0.12598000  1.0
  H  H17  1  0.14641000  0.36638000  0.37402000  1.0
  H  H18  1  0.64641000  0.13362000  0.87402000  1.0
  H  H19  1  0.85360000  0.63363000  0.62599000  1.0
  H  H20  1  0.63019000  0.93727000  0.04277000  1.0
  H  H21  1  0.86981000  0.43728000  0.45722000  1.0
  H  H22  1  0.36980000  0.06273000  0.95723000  1.0
  H  H23  1  0.13019000  0.56273000  0.54277000  1.0
  H  H24  1  0.19087000  0.39316000  0.19542000  1.0
  H  H25  1  0.30913000  0.89316000  0.30458000  1.0
  H  H26  1  0.80914000  0.60684000  0.80458000  1.0
  H  H27  1  0.69087000  0.10684000  0.69542000  1.0
  H  H28  1  0.19079000  0.30010000  0.00281000  1.0
  H  H29  1  0.30920000  0.80010000  0.49719000  1.0
  H  H30  1  0.80920000  0.69990000  0.99719000  1.0
  H  H31  1  0.69080000  0.19990000  0.50281000  1.0
  H  H32  1  0.50352000  0.00909000  0.38582000  1.0
  H  H33  1  0.99648000  0.50909000  0.11419000  1.0
  H  H34  1  0.49648000  0.99091000  0.61419000  1.0
  H  H35  1  0.00352000  0.49091000  0.88582000  1.0
  H  H36  1  0.37747000  0.07862000  0.41219000  1.0
  H  H37  1  0.12253000  0.57862000  0.08781000  1.0
  H  H38  1  0.62253000  0.92138000  0.58781000  1.0
  H  H39  1  0.87747000  0.42138000  0.91219000  1.0
  H  H40  1  0.47483000  0.26958000  0.43579000  1.0
  H  H41  1  0.02517000  0.76958000  0.06421000  1.0
  H  H42  1  0.52517000  0.73042000  0.56421000  1.0
  H  H43  1  0.97483000  0.23042000  0.93579000  1.0
  H  H44  1  0.43276000  0.33239000  0.34948000  1.0
  H  H45  1  0.06724000  0.83239000  0.15052000  1.0
  H  H46  1  0.56724000  0.66761000  0.65052000  1.0
  H  H47  1  0.93276000  0.16761000  0.84948000  1.0
  H  H48  1  0.73080000  0.55988000  0.11162000  1.0
  H  H49  1  0.76920000  0.05988000  0.38838000  1.0
  H  H50  1  0.26920000  0.44012000  0.88838000  1.0
  H  H51  1  0.23080000  0.94013000  0.61162000  1.0
  H  H52  1  0.64713000  0.53869000  0.01735000  1.0
  H  H53  1  0.85287000  0.03869000  0.48265000  1.0
  H  H54  1  0.35287000  0.46131000  0.98265000  1.0
  H  H55  1  0.14713000  0.96131000  0.51735000  1.0
  H  H56  1  0.65439000  0.38600000  0.29338000  1.0
  H  H57  1  0.84561000  0.88600000  0.20662000  1.0
  H  H58  1  0.34561000  0.61400000  0.70662000  1.0
  H  H59  1  0.15439000  0.11400000  0.79338000  1.0
  H  H60  1  0.77889000  0.45739000  0.27067000  1.0
  H  H61  1  0.72112000  0.95739000  0.22933000  1.0
  H  H62  1  0.22112000  0.54261000  0.72933000  1.0
  H  H63  1  0.27889000  0.04260000  0.77067000  1.0
  C  C64  1  0.79153000  0.18869000  0.25993000  1.0
  C  C65  1  0.70847000  0.68869000  0.24006000  1.0
  C  C66  1  0.20848000  0.81131000  0.74006000  1.0
  C  C67  1  0.29153000  0.31131000  0.75993000  1.0
  C  C68  1  0.94772000  0.18633000  0.26428000  1.0
  C  C69  1  0.55228000  0.68633000  0.23572000  1.0
  C  C70  1  0.05229000  0.81367000  0.73572000  1.0
  C  C71  1  0.44772000  0.31367000  0.76428000  1.0
  C  C72  1  0.01591000  0.16852000  0.34446000  1.0
  C  C73  1  0.48409000  0.66851000  0.15554000  1.0
  C  C74  1  0.98409000  0.83149000  0.65554000  1.0
  C  C75  1  0.51591000  0.33148000  0.84446000  1.0
  C  C76  1  0.17129000  0.15889000  0.35692000  1.0
  C  C77  1  0.32871000  0.65889000  0.14308000  1.0
  C  C78  1  0.82871000  0.84111000  0.64308000  1.0
  C  C79  1  0.67129000  0.34111000  0.85692000  1.0
  C  C80  1  0.46662000  0.98661000  0.18427000  1.0
  C  C81  1  0.03338000  0.48661000  0.31573000  1.0
  C  C82  1  0.53338000  0.01339000  0.81573000  1.0
  C  C83  1  0.96663000  0.51339000  0.68427000  1.0
  C  C84  1  0.44999000  0.90718000  0.12111000  1.0
  C  C85  1  0.05000000  0.40718000  0.37889000  1.0
  C  C86  1  0.55000000  0.09282000  0.87889000  1.0
  C  C87  1  0.95000000  0.59282000  0.62111000  1.0
  C  C88  1  0.53675000  0.89418000  0.05075000  1.0
  C  C89  1  0.96325000  0.39418000  0.44925000  1.0
  C  C90  1  0.46325000  0.10582000  0.94925000  1.0
  C  C91  1  0.03675000  0.60582000  0.55075000  1.0
  C  C92  1  0.50093000  0.82974000  0.97387000  1.0
  C  C93  1  0.99906000  0.32975000  0.52613000  1.0
  C  C94  1  0.49907000  0.17025000  0.02613000  1.0
  C  C95  1  0.00093000  0.67026000  0.47387000  1.0
  C  C96  1  0.38964000  0.36051000  0.12886000  1.0
  C  C97  1  0.11036000  0.86051000  0.37114000  1.0
  C  C98  1  0.61036000  0.63949000  0.87114000  1.0
  C  C99  1  0.88964000  0.13949000  0.62886000  1.0
  C  C100  1  0.23392000  0.36430000  0.13267000  1.0
  C  C101  1  0.26608000  0.86429000  0.36733000  1.0
  C  C102  1  0.76608000  0.63571000  0.86734000  1.0
  C  C103  1  0.73392000  0.13571000  0.63266000  1.0
  C  C104  1  0.14935000  0.33164000  0.06479000  1.0
  C  C105  1  0.35064000  0.83164000  0.43521000  1.0
  C  C106  1  0.85065000  0.66836000  0.93521000  1.0
  C  C107  1  0.64936000  0.16836000  0.56479000  1.0
  C  C108  1  0.99449000  0.33264000  0.07378000  1.0
  C  C109  1  0.50551000  0.83264000  0.42622000  1.0
  C  C110  1  0.00552000  0.66736000  0.92622000  1.0
  C  C111  1  0.49449000  0.16736000  0.57378000  1.0
  O  O112  1  0.72515000  0.22658000  0.19167000  1.0
  O  O113  1  0.77484000  0.72658000  0.30833000  1.0
  O  O114  1  0.27485000  0.77342000  0.80832000  1.0
  O  O115  1  0.22515000  0.27342000  0.69167000  1.0
  O  O116  1  0.71975000  0.15235000  0.32376000  1.0
  O  O117  1  0.78024000  0.65236000  0.17624000  1.0
  O  O118  1  0.28025000  0.84765000  0.67624000  1.0
  O  O119  1  0.21976000  0.34765000  0.82376000  1.0
  O  O120  1  0.25288000  0.18908000  0.29582000  1.0
  O  O121  1  0.24712000  0.68908000  0.20417000  1.0
  O  O122  1  0.74712000  0.81092000  0.70417000  1.0
  O  O123  1  0.75288000  0.31092000  0.79582000  1.0
  O  O124  1  0.21345000  0.11661000  0.43055000  1.0
  O  O125  1  0.28655000  0.61661000  0.06945000  1.0
  O  O126  1  0.78655000  0.88340000  0.56945000  1.0
  O  O127  1  0.71345000  0.38339000  0.93055000  1.0
  O  O128  1  0.35676000  0.02082000  0.21881000  1.0
  O  O129  1  0.14324000  0.52082000  0.28119000  1.0
  O  O130  1  0.64324000  0.97918000  0.78119000  1.0
  O  O131  1  0.85676000  0.47918000  0.71881000  1.0
  O  O132  1  0.58849000  0.02534000  0.19805000  1.0
  O  O133  1  0.91151000  0.52534000  0.30194000  1.0
  O  O134  1  0.41151000  0.97466000  0.80194000  1.0
  O  O135  1  0.08850000  0.47466000  0.69806000  1.0
  O  O136  1  0.40142000  0.77188000  0.98452000  1.0
  O  O137  1  0.09857000  0.27188000  0.51548000  1.0
  O  O138  1  0.59857000  0.22812000  0.01548000  1.0
  O  O139  1  0.90142000  0.72812000  0.48452000  1.0
  O  O140  1  0.57159000  0.83941000  0.90116000  1.0
  O  O141  1  0.92840000  0.33942000  0.59884000  1.0
  O  O142  1  0.42840000  0.16058000  0.09884000  1.0
  O  O143  1  0.07159000  0.66058000  0.40116000  1.0
  O  O144  1  0.46040000  0.32234000  0.19466000  1.0
  O  O145  1  0.03960000  0.82234000  0.30534000  1.0
  O  O146  1  0.53960000  0.67766000  0.80534000  1.0
  O  O147  1  0.96040000  0.17766000  0.69466000  1.0
  O  O148  1  0.45195000  0.39584000  0.06050000  1.0
  O  O149  1  0.04804000  0.89584000  0.43950000  1.0
  O  O150  1  0.54804000  0.60416000  0.93950000  1.0
  O  O151  1  0.95196000  0.10416000  0.56050000  1.0
  O  O152  1  0.91718000  0.27248000  0.03203000  1.0
  O  O153  1  0.58282000  0.77248000  0.46797000  1.0
  O  O154  1  0.08282000  0.72753000  0.96797000  1.0
  O  O155  1  0.41718000  0.22753000  0.53203000  1.0
  O  O156  1  0.93643000  0.39347000  0.12500000  1.0
  O  O157  1  0.56357000  0.89347000  0.37500000  1.0
  O  O158  1  0.06357000  0.60653000  0.87500000  1.0
  O  O159  1  0.43643000  0.10653000  0.62500000  1.0
  O  O160  1  0.47715000  0.07532000  0.39132000  1.0
  O  O161  1  0.02285000  0.57532000  0.10868000  1.0
  O  O162  1  0.52285000  0.92468000  0.60868000  1.0
  O  O163  1  0.97715000  0.42468000  0.89132000  1.0
  O  O164  1  0.50338000  0.28797000  0.37150000  1.0
  O  O165  1  0.99663000  0.78797000  0.12849000  1.0
  O  O166  1  0.49663000  0.71203000  0.62849000  1.0
  O  O167  1  0.00338000  0.21203000  0.87151000  1.0
  O  O168  1  0.70227000  0.50926000  0.06857000  1.0
  O  O169  1  0.79773000  0.00926000  0.43143000  1.0
  O  O170  1  0.29773000  0.49074000  0.93143000  1.0
  O  O171  1  0.20228000  0.99074000  0.56857000  1.0
  O  O172  1  0.69999000  0.41880000  0.24362000  1.0
  O  O173  1  0.80001000  0.91880000  0.25638000  1.0
  O  O174  1  0.30001000  0.58120000  0.75638000  1.0
  O  O175  1  0.19999000  0.08120000  0.74362000  1.0
