# generated using pymatgen
data_LiTbH8(C2O)8
_symmetry_space_group_name_H-M   'P 1'
_cell_length_a   6.72426000
_cell_length_b   9.80953000
_cell_length_c   14.04250000
_cell_angle_alpha   106.30200000
_cell_angle_beta   97.96850000
_cell_angle_gamma   106.71800000
_symmetry_Int_Tables_number   1
_chemical_formula_structural   LiTbH8(C2O)8
_chemical_formula_sum   'Li2 Tb2 H16 C32 O16'
_cell_volume   826.84895815
_cell_formula_units_Z   2
loop_
 _symmetry_equiv_pos_site_id
 _symmetry_equiv_pos_as_xyz
  1  'x, y, z'
loop_
 _atom_site_type_symbol
 _atom_site_label
 _atom_site_symmetry_multiplicity
 _atom_site_fract_x
 _atom_site_fract_y
 _atom_site_fract_z
 _atom_site_occupancy
  Li  Li0  1  0.84082000  0.09022000  0.18113000  1.0
  Li  Li1  1  0.15918000  0.90978000  0.81887000  1.0
  Tb  Tb2  1  0.33307000  0.08257000  0.16543000  1.0
  Tb  Tb3  1  0.66693000  0.91743000  0.83457000  1.0
  H  H4  1  0.25688000  0.47281000  0.20633000  1.0
  H  H5  1  0.44985000  0.73327000  0.20619000  1.0
  H  H6  1  0.74311000  0.52719000  0.79367000  1.0
  H  H7  1  0.55015000  0.26673000  0.79381000  1.0
  H  H8  1  0.08268000  0.31059000  0.87782000  1.0
  H  H9  1  0.29463000  0.56645000  0.87773000  1.0
  H  H10  1  0.91731000  0.68941000  0.12218000  1.0
  H  H11  1  0.70536000  0.43355000  0.12227000  1.0
  H  H12  1  0.63920000  0.52212000  0.48698000  1.0
  H  H13  1  0.34839000  0.96557000  0.48749000  1.0
  H  H14  1  0.36081000  0.47787000  0.51302000  1.0
  H  H15  1  0.65161000  0.03442000  0.51251000  1.0
  H  H16  1  0.07520000  0.32458000  0.35476000  1.0
  H  H17  1  0.77965000  0.02934000  0.35445000  1.0
  H  H18  1  0.92482000  0.67542000  0.64524000  1.0
  H  H19  1  0.22033000  0.97065000  0.64555000  1.0
  C  C20  1  0.26320000  0.49527000  0.13483000  1.0
  C  C21  1  0.37184000  0.63921000  0.13476000  1.0
  C  C22  1  0.73680000  0.50474000  0.86517000  1.0
  C  C23  1  0.62815000  0.36080000  0.86524000  1.0
  C  C24  1  0.03475000  0.22301000  0.03958000  1.0
  C  C25  1  0.50453000  0.81601000  0.03929000  1.0
  C  C26  1  0.96526000  0.77700000  0.96042000  1.0
  C  C27  1  0.49545000  0.18399000  0.96071000  1.0
  C  C28  1  0.16645000  0.40326000  0.94914000  1.0
  C  C29  1  0.28239000  0.54525000  0.94909000  1.0
  C  C30  1  0.83355000  0.59675000  0.05086000  1.0
  C  C31  1  0.71760000  0.45475000  0.05090000  1.0
  C  C32  1  0.15777000  0.37717000  0.04180000  1.0
  C  C33  1  0.38394000  0.66411000  0.04168000  1.0
  C  C34  1  0.84223000  0.62283000  0.95820000  1.0
  C  C35  1  0.61605000  0.33589000  0.95832000  1.0
  C  C36  1  0.83811000  0.41301000  0.41157000  1.0
  C  C37  1  0.07387000  0.99846000  0.41161000  1.0
  C  C38  1  0.16190000  0.58698000  0.58843000  1.0
  C  C39  1  0.92613000  0.00154000  0.58839000  1.0
  C  C40  1  0.66310000  0.31488000  0.31937000  1.0
  C  C41  1  0.15680000  0.00422000  0.31941000  1.0
  C  C42  1  0.33692000  0.68512000  0.68063000  1.0
  C  C43  1  0.84320000  0.99578000  0.68059000  1.0
  C  C44  1  0.79728000  0.51269000  0.49344000  1.0
  C  C45  1  0.19652000  0.98118000  0.49369000  1.0
  C  C46  1  0.20274000  0.48731000  0.50657000  1.0
  C  C47  1  0.80347000  0.01882000  0.50631000  1.0
  C  C48  1  0.04239000  0.40116000  0.41834000  1.0
  C  C49  1  0.87606000  0.01669000  0.41817000  1.0
  C  C50  1  0.95763000  0.59884000  0.58166000  1.0
  C  C51  1  0.12394000  0.98330000  0.58183000  1.0
  O  O52  1  0.06871000  0.18732000  0.12021000  1.0
  O  O53  1  0.55201000  0.93233000  0.12006000  1.0
  O  O54  1  0.93130000  0.81268000  0.87979000  1.0
  O  O55  1  0.44797000  0.06767000  0.87994000  1.0
  O  O56  1  0.89917000  0.13286000  0.95804000  1.0
  O  O57  1  0.55750000  0.82456000  0.95754000  1.0
  O  O58  1  0.10083000  0.86714000  0.04196000  1.0
  O  O59  1  0.44250000  0.17544000  0.04246000  1.0
  O  O60  1  0.70389000  0.21908000  0.24765000  1.0
  O  O61  1  0.04407000  0.02767000  0.24746000  1.0
  O  O62  1  0.29612000  0.78092000  0.75235000  1.0
  O  O63  1  0.95592000  0.97233000  0.75254000  1.0
  O  O64  1  0.47429000  0.31914000  0.31108000  1.0
  O  O65  1  0.33762000  0.99208000  0.31129000  1.0
  O  O66  1  0.52572000  0.68086000  0.68892000  1.0
  O  O67  1  0.66239000  0.00793000  0.68871000  1.0
