# generated using pymatgen
data_NiH18C10(NO4)2
_symmetry_space_group_name_H-M   'P 1'
_cell_length_a   9.41529000
_cell_length_b   9.42115287
_cell_length_c   9.48834000
_cell_angle_alpha   82.77267182
_cell_angle_beta   82.77710000
_cell_angle_gamma   60.59304491
_symmetry_Int_Tables_number   1
_chemical_formula_structural   NiH18C10(NO4)2
_chemical_formula_sum   'Ni2 H36 C20 N4 O16'
_cell_volume   725.38098930
_cell_formula_units_Z   2
loop_
 _symmetry_equiv_pos_site_id
 _symmetry_equiv_pos_as_xyz
  1  'x, y, z'
loop_
 _atom_site_type_symbol
 _atom_site_label
 _atom_site_symmetry_multiplicity
 _atom_site_fract_x
 _atom_site_fract_y
 _atom_site_fract_z
 _atom_site_occupancy
  Ni  Ni0  1  0.22946000  0.77059000  0.24995000  1.0
  Ni  Ni1  1  0.77054000  0.22941000  0.75006000  1.0
  H  H2  1  0.35948000  0.45703000  0.36815000  1.0
  H  H3  1  0.54330000  0.64043000  0.13193000  1.0
  H  H4  1  0.64053000  0.54297000  0.63185000  1.0
  H  H5  1  0.45669000  0.35957000  0.86807000  1.0
  H  H6  1  0.32399000  0.47951000  0.20098000  1.0
  H  H7  1  0.52075000  0.67589000  0.29910000  1.0
  H  H8  1  0.67600000  0.52050000  0.79901000  1.0
  H  H9  1  0.47925000  0.32411000  0.70090000  1.0
  H  H10  1  0.05084000  0.45497000  0.38014000  1.0
  H  H11  1  0.54445000  0.94963000  0.11990000  1.0
  H  H12  1  0.94915000  0.54503000  0.61986000  1.0
  H  H13  1  0.45556000  0.05036000  0.88010000  1.0
  H  H14  1  0.96977000  0.32963000  0.47576000  1.0
  H  H15  1  0.66989000  0.03056000  0.02406000  1.0
  H  H16  1  0.03021000  0.67038000  0.52423000  1.0
  H  H17  1  0.33011000  0.96944000  0.97593000  1.0
  H  H18  1  0.85737000  0.48177000  0.34185000  1.0
  H  H19  1  0.51774000  0.14301000  0.15797000  1.0
  H  H20  1  0.14262000  0.51823000  0.65815000  1.0
  H  H21  1  0.48226000  0.85699000  0.84203000  1.0
  H  H22  1  0.05745000  0.08586000  0.40167000  1.0
  H  H23  1  0.91388000  0.94289000  0.09805000  1.0
  H  H24  1  0.94254000  0.91415000  0.59833000  1.0
  H  H25  1  0.08612000  0.05711000  0.90195000  1.0
  H  H26  1  0.07766000  0.45311000  0.12408000  1.0
  H  H27  1  0.54650000  0.92283000  0.37593000  1.0
  H  H28  1  0.92234000  0.54689000  0.87592000  1.0
  H  H29  1  0.45350000  0.07717000  0.62407000  1.0
  H  H30  1  0.03748000  0.31388000  0.04541000  1.0
  H  H31  1  0.68592000  0.96297000  0.45446000  1.0
  H  H32  1  0.96252000  0.68612000  0.95459000  1.0
  H  H33  1  0.31408000  0.03703000  0.54553000  1.0
  H  H34  1  0.23717000  0.25193000  0.09412000  1.0
  H  H35  1  0.74786000  0.76343000  0.40574000  1.0
  H  H36  1  0.76282000  0.74808000  0.90587000  1.0
  H  H37  1  0.25214000  0.23657000  0.59426000  1.0
  C  C38  1  0.36494000  0.71466000  0.53454000  1.0
  C  C39  1  0.28513000  0.63509000  0.96546000  1.0
  C  C40  1  0.63506000  0.28534000  0.46546000  1.0
  C  C41  1  0.71488000  0.36491000  0.03454000  1.0
  C  C42  1  0.98081000  0.39164000  0.37269000  1.0
  C  C43  1  0.60785000  0.01962000  0.12717000  1.0
  C  C44  1  0.01919000  0.60836000  0.62731000  1.0
  C  C45  1  0.39214000  0.98038000  0.87283000  1.0
  C  C46  1  0.09558000  0.11775000  0.29334000  1.0
  C  C47  1  0.88197000  0.90480000  0.20638000  1.0
  C  C48  1  0.90442000  0.88225000  0.70666000  1.0
  C  C49  1  0.11803000  0.09520000  0.79361000  1.0
  C  C50  1  0.32963000  0.69588000  0.68646000  1.0
  C  C51  1  0.30387000  0.67025000  0.81354000  1.0
  C  C52  1  0.67038000  0.30412000  0.31354000  1.0
  C  C53  1  0.69614000  0.32974000  0.18648000  1.0
  C  C54  1  0.10640000  0.32578000  0.12428000  1.0
  C  C55  1  0.67390000  0.89414000  0.37564000  1.0
  C  C56  1  0.89360000  0.67422000  0.87572000  1.0
  C  C57  1  0.32610000  0.10586000  0.62436000  1.0
  N  N58  1  0.06479000  0.27204000  0.26658000  1.0
  N  N59  1  0.72755000  0.93576000  0.23329000  1.0
  N  N60  1  0.93520000  0.72797000  0.73342000  1.0
  N  N61  1  0.27244000  0.06424000  0.76671000  1.0
  O  O62  1  0.27920000  0.52405000  0.29579000  1.0
  O  O63  1  0.47629000  0.72069000  0.20425000  1.0
  O  O64  1  0.72080000  0.47596000  0.70421000  1.0
  O  O65  1  0.52371000  0.27931000  0.79575000  1.0
  O  O66  1  0.16419000  0.01554000  0.19979000  1.0
  O  O67  1  0.98428000  0.83617000  0.29991000  1.0
  O  O68  1  0.83582000  0.98445000  0.80021000  1.0
  O  O69  1  0.01572000  0.16383000  0.70008000  1.0
  O  O70  1  0.51451000  0.65747000  0.48920000  1.0
  O  O71  1  0.34230000  0.48561000  0.01081000  1.0
  O  O72  1  0.48550000  0.34253000  0.51080000  1.0
  O  O73  1  0.65771000  0.51438000  0.98919000  1.0
  O  O74  1  0.23999000  0.78656000  0.46189000  1.0
  O  O75  1  0.21345000  0.75994000  0.03811000  1.0
  O  O76  1  0.76002000  0.21344000  0.53812000  1.0
  O  O77  1  0.78656000  0.24005000  0.96190000  1.0
