# generated using pymatgen
data_CuH8(C3N)4
_symmetry_space_group_name_H-M   'P 1'
_cell_length_a   8.01150000
_cell_length_b   8.89314000
_cell_length_c   16.36940000
_cell_angle_alpha   89.99590000
_cell_angle_beta   89.99340000
_cell_angle_gamma   65.62200000
_symmetry_Int_Tables_number   1
_chemical_formula_structural   CuH8(C3N)4
_chemical_formula_sum   'Cu4 H32 C48 N16'
_cell_volume   1062.29435796
_cell_formula_units_Z   4
loop_
 _symmetry_equiv_pos_site_id
 _symmetry_equiv_pos_as_xyz
  1  'x, y, z'
loop_
 _atom_site_type_symbol
 _atom_site_label
 _atom_site_symmetry_multiplicity
 _atom_site_fract_x
 _atom_site_fract_y
 _atom_site_fract_z
 _atom_site_occupancy
  Cu  Cu0  1  0.52361000  0.32989000  0.85089000  1.0
  Cu  Cu1  1  0.97643000  0.67006000  0.35094000  1.0
  Cu  Cu2  1  0.47647000  0.67008000  0.14908000  1.0
  Cu  Cu3  1  0.02365000  0.32991000  0.64909000  1.0
  H  H4  1  0.41806000  0.17667000  0.00121000  1.0
  H  H5  1  0.08194000  0.82336000  0.50116000  1.0
  H  H6  1  0.58199000  0.82337000  0.99882000  1.0
  H  H7  1  0.91812000  0.17666000  0.49881000  1.0
  H  H8  1  0.20896000  0.27964000  0.11955000  1.0
  H  H9  1  0.29100000  0.72035000  0.61950000  1.0
  H  H10  1  0.79101000  0.72038000  0.88046000  1.0
  H  H11  1  0.70898000  0.27966000  0.38049000  1.0
  H  H12  1  0.02252000  0.58875000  0.13433000  1.0
  H  H13  1  0.47743000  0.41123000  0.63429000  1.0
  H  H14  1  0.97746000  0.41126000  0.86567000  1.0
  H  H15  1  0.52255000  0.58877000  0.36571000  1.0
  H  H16  1  0.05123000  0.77430000  0.02620000  1.0
  H  H17  1  0.44869000  0.22569000  0.52617000  1.0
  H  H18  1  0.94871000  0.22572000  0.97380000  1.0
  H  H19  1  0.55124000  0.77430000  0.47383000  1.0
  H  H20  1  0.10273000  0.91308000  0.93827000  1.0
  H  H21  1  0.39732000  0.08694000  0.43825000  1.0
  H  H22  1  0.89730000  0.08694000  0.06174000  1.0
  H  H23  1  0.60272000  0.91308000  0.56173000  1.0
  H  H24  1  0.18075000  0.06446000  0.82663000  1.0
  H  H25  1  0.31932000  0.93555000  0.32663000  1.0
  H  H26  1  0.81930000  0.93555000  0.17339000  1.0
  H  H27  1  0.68072000  0.06446000  0.67336000  1.0
  H  H28  1  0.41136000  0.90151000  0.72111000  1.0
  H  H29  1  0.08870000  0.09850000  0.22113000  1.0
  H  H30  1  0.58867000  0.09849000  0.27890000  1.0
  H  H31  1  0.91132000  0.90151000  0.77885000  1.0
  H  H32  1  0.55728000  0.59257000  0.73334000  1.0
  H  H33  1  0.94260000  0.40744000  0.23339000  1.0
  H  H34  1  0.44260000  0.40743000  0.26663000  1.0
  H  H35  1  0.05727000  0.59258000  0.76664000  1.0
  C  C36  1  0.67449000  0.11884000  0.90129000  1.0
  C  C37  1  0.82548000  0.88101000  0.40140000  1.0
  C  C38  1  0.32549000  0.88103000  0.09860000  1.0
  C  C39  1  0.17451000  0.11885000  0.59870000  1.0
  C  C40  1  0.21012000  0.30127000  0.73133000  1.0
  C  C41  1  0.28998000  0.69879000  0.23135000  1.0
  C  C42  1  0.79001000  0.69876000  0.26865000  1.0
  C  C43  1  0.71014000  0.30125000  0.76867000  1.0
  C  C44  1  0.33659000  0.30835000  0.00960000  1.0
  C  C45  1  0.16343000  0.69167000  0.50956000  1.0
  C  C46  1  0.66345000  0.69167000  0.99042000  1.0
  C  C47  1  0.83661000  0.30835000  0.49042000  1.0
  C  C48  1  0.21904000  0.36803000  0.07611000  1.0
  C  C49  1  0.28095000  0.63197000  0.57606000  1.0
  C  C50  1  0.78095000  0.63198000  0.92391000  1.0
  C  C51  1  0.71907000  0.36804000  0.42393000  1.0
  C  C52  1  0.11632000  0.53749000  0.08330000  1.0
  C  C53  1  0.38363000  0.46249000  0.58327000  1.0
  C  C54  1  0.88366000  0.46251000  0.91670000  1.0
  C  C55  1  0.61636000  0.53751000  0.41672000  1.0
  C  C56  1  0.13321000  0.64193000  0.02359000  1.0
  C  C57  1  0.36672000  0.35807000  0.52358000  1.0
  C  C58  1  0.86676000  0.35809000  0.97641000  1.0
  C  C59  1  0.63325000  0.64193000  0.47642000  1.0
  C  C60  1  0.20294000  0.84603000  0.89212000  1.0
  C  C61  1  0.29703000  0.15398000  0.39212000  1.0
  C  C62  1  0.79703000  0.15398000  0.10788000  1.0
  C  C63  1  0.70295000  0.84603000  0.60788000  1.0
  C  C64  1  0.24618000  0.93020000  0.82981000  1.0
  C  C65  1  0.25383000  0.06981000  0.32983000  1.0
  C  C66  1  0.75383000  0.06980000  0.17019000  1.0
  C  C67  1  0.74618000  0.93020000  0.67017000  1.0
  C  C68  1  0.37483000  0.84032000  0.77116000  1.0
  C  C69  1  0.12517000  0.15969000  0.27118000  1.0
  C  C70  1  0.62515000  0.15969000  0.22884000  1.0
  C  C71  1  0.87481000  0.84031000  0.72882000  1.0
  C  C72  1  0.45479000  0.66881000  0.77707000  1.0
  C  C73  1  0.04515000  0.33120000  0.27710000  1.0
  C  C74  1  0.54514000  0.33120000  0.22291000  1.0
  C  C75  1  0.95478000  0.66880000  0.72292000  1.0
  C  C76  1  0.25596000  0.57415000  0.95907000  1.0
  C  C77  1  0.24400000  0.42585000  0.45905000  1.0
  C  C78  1  0.74401000  0.42587000  0.04094000  1.0
  C  C79  1  0.75599000  0.57415000  0.54094000  1.0
  C  C80  1  0.28900000  0.67353000  0.89448000  1.0
  C  C81  1  0.21093000  0.32649000  0.39448000  1.0
  C  C82  1  0.71094000  0.32649000  0.10552000  1.0
  C  C83  1  0.78902000  0.67352000  0.60552000  1.0
  N  N84  1  0.77300000  0.99488000  0.93250000  1.0
  N  N85  1  0.72691000  0.00505000  0.43253000  1.0
  N  N86  1  0.22692000  0.00503000  0.06745000  1.0
  N  N87  1  0.27302000  0.99485000  0.56753000  1.0
  N  N88  1  0.32372000  0.29137000  0.77889000  1.0
  N  N89  1  0.17639000  0.70868000  0.27893000  1.0
  N  N90  1  0.67645000  0.70864000  0.22108000  1.0
  N  N91  1  0.82377000  0.29132000  0.72110000  1.0
  N  N92  1  0.35585000  0.40891000  0.95303000  1.0
  N  N93  1  0.14415000  0.59111000  0.45299000  1.0
  N  N94  1  0.64419000  0.59111000  0.04700000  1.0
  N  N95  1  0.85589000  0.40890000  0.54698000  1.0
  N  N96  1  0.41300000  0.58700000  0.83688000  1.0
  N  N97  1  0.08690000  0.41305000  0.33690000  1.0
  N  N98  1  0.58691000  0.41303000  0.16311000  1.0
  N  N99  1  0.91302000  0.58698000  0.66311000  1.0
