# generated using pymatgen
data_BaH14C20N6(ClO4)2
_symmetry_space_group_name_H-M   'P 1'
_cell_length_a   8.15605000
_cell_length_b   8.95732000
_cell_length_c   15.86550000
_cell_angle_alpha   90.00000000
_cell_angle_beta   102.71000000
_cell_angle_gamma   90.00000000
_symmetry_Int_Tables_number   1
_chemical_formula_structural   BaH14C20N6(ClO4)2
_chemical_formula_sum   'Ba2 H28 C40 N12 Cl4 O16'
_cell_volume   1130.67371498
_cell_formula_units_Z   2
loop_
 _symmetry_equiv_pos_site_id
 _symmetry_equiv_pos_as_xyz
  1  'x, y, z'
loop_
 _atom_site_type_symbol
 _atom_site_label
 _atom_site_symmetry_multiplicity
 _atom_site_fract_x
 _atom_site_fract_y
 _atom_site_fract_z
 _atom_site_occupancy
  Ba  Ba0  1  0.00000000  0.82716000  0.25000000  1.0
  Ba  Ba1  1  0.00000000  0.17284000  0.75000000  1.0
  H  H2  1  0.40774000  0.34040000  0.32365000  1.0
  H  H3  1  0.59227000  0.34040000  0.17635000  1.0
  H  H4  1  0.59227000  0.65960000  0.67635000  1.0
  H  H5  1  0.40773000  0.65960000  0.82365000  1.0
  H  H6  1  0.99086000  0.48090000  0.11008000  1.0
  H  H7  1  0.00914000  0.48090000  0.38992000  1.0
  H  H8  1  0.00914000  0.51910000  0.88992000  1.0
  H  H9  1  0.99086000  0.51910000  0.61008000  1.0
  H  H10  1  0.45859000  0.10496000  0.85818000  1.0
  H  H11  1  0.54141000  0.10496000  0.64182000  1.0
  H  H12  1  0.54140000  0.89504000  0.14182000  1.0
  H  H13  1  0.45859000  0.89504000  0.35818000  1.0
  H  H14  1  0.87804000  0.96798000  0.04330000  1.0
  H  H15  1  0.12196000  0.96798000  0.45670000  1.0
  H  H16  1  0.12196000  0.03202000  0.95670000  1.0
  H  H17  1  0.87804000  0.03202000  0.54330000  1.0
  H  H18  1  0.62777000  0.91409000  0.92430000  1.0
  H  H19  1  0.37223000  0.91410000  0.57569000  1.0
  H  H20  1  0.37223000  0.08591000  0.07569000  1.0
  H  H21  1  0.62777000  0.08590000  0.42431000  1.0
  H  H22  1  0.50151000  0.36216000  0.89380000  1.0
  H  H23  1  0.49849000  0.36216000  0.60620000  1.0
  H  H24  1  0.49849000  0.63784000  0.10620000  1.0
  H  H25  1  0.50151000  0.63784000  0.39380000  1.0
  H  H26  1  0.74661000  0.43856000  0.01212000  1.0
  H  H27  1  0.25339000  0.43856000  0.48788000  1.0
  H  H28  1  0.25339000  0.56144000  0.98788000  1.0
  H  H29  1  0.74661000  0.56144000  0.51212000  1.0
  C  C30  1  0.31274000  0.11829000  0.28072000  1.0
  C  C31  1  0.68726000  0.11829000  0.21928000  1.0
  C  C32  1  0.68726000  0.88171000  0.71928000  1.0
  C  C33  1  0.31274000  0.88171000  0.78072000  1.0
  C  C34  1  0.18927000  0.20285000  0.21501000  1.0
  C  C35  1  0.81073000  0.20285000  0.28499000  1.0
  C  C36  1  0.81073000  0.79715000  0.78499000  1.0
  C  C37  1  0.18927000  0.79715000  0.71501000  1.0
  C  C38  1  0.17348000  0.35807000  0.20212000  1.0
  C  C39  1  0.82652000  0.35807000  0.29788000  1.0
  C  C40  1  0.82652000  0.64193000  0.79788000  1.0
  C  C41  1  0.17348000  0.64193000  0.70212000  1.0
  C  C42  1  0.26497000  0.48820000  0.24704000  1.0
  C  C43  1  0.73502000  0.48819000  0.25296000  1.0
  C  C44  1  0.73502000  0.51181000  0.75296000  1.0
  C  C45  1  0.26497000  0.51181000  0.74704000  1.0
  C  C46  1  0.97675000  0.23891000  0.10803000  1.0
  C  C47  1  0.02325000  0.23891000  0.39197000  1.0
  C  C48  1  0.02325000  0.76109000  0.89197000  1.0
  C  C49  1  0.97675000  0.76109000  0.60803000  1.0
  C  C50  1  0.83317000  0.20868000  0.03765000  1.0
  C  C51  1  0.16683000  0.20868000  0.46235000  1.0
  C  C52  1  0.16683000  0.79132000  0.96235000  1.0
  C  C53  1  0.83317000  0.79132000  0.53765000  1.0
  C  C54  1  0.79930000  0.05945000  0.01258000  1.0
  C  C55  1  0.20070000  0.05945000  0.48742000  1.0
  C  C56  1  0.20070000  0.94055000  0.98742000  1.0
  C  C57  1  0.79930000  0.94055000  0.51258000  1.0
  C  C58  1  0.66282000  0.02660000  0.94713000  1.0
  C  C59  1  0.33718000  0.02660000  0.55287000  1.0
  C  C60  1  0.33718000  0.97341000  0.05287000  1.0
  C  C61  1  0.66282000  0.97340000  0.44713000  1.0
  C  C62  1  0.59008000  0.28158000  0.92963000  1.0
  C  C63  1  0.40992000  0.28158000  0.57037000  1.0
  C  C64  1  0.40992000  0.71842000  0.07037000  1.0
  C  C65  1  0.59008000  0.71842000  0.42963000  1.0
  C  C66  1  0.72591000  0.32093000  0.99479000  1.0
  C  C67  1  0.27409000  0.32093000  0.50521000  1.0
  C  C68  1  0.27409000  0.67907000  0.00521000  1.0
  C  C69  1  0.72591000  0.67907000  0.49479000  1.0
  N  N70  1  0.06608000  0.13136000  0.15674000  1.0
  N  N71  1  0.93392000  0.13136000  0.34326000  1.0
  N  N72  1  0.93392000  0.86864000  0.84326000  1.0
  N  N73  1  0.06608000  0.86864000  0.65673000  1.0
  N  N74  1  0.03836000  0.37681000  0.13445000  1.0
  N  N75  1  0.96164000  0.37681000  0.36555000  1.0
  N  N76  1  0.96164000  0.62319000  0.86555000  1.0
  N  N77  1  0.03836000  0.62319000  0.63445000  1.0
  N  N78  1  0.56201000  0.13685000  0.90754000  1.0
  N  N79  1  0.43799000  0.13685000  0.59246000  1.0
  N  N80  1  0.43799000  0.86315000  0.09246000  1.0
  N  N81  1  0.56201000  0.86315000  0.40754000  1.0
  Cl  Cl82  1  0.13988000  0.68343000  0.42926000  1.0
  Cl  Cl83  1  0.86012000  0.68343000  0.07074000  1.0
  Cl  Cl84  1  0.86012000  0.31657000  0.57074000  1.0
  Cl  Cl85  1  0.13988000  0.31657000  0.92926000  1.0
  O  O86  1  0.30083000  0.97708000  0.28230000  1.0
  O  O87  1  0.69917000  0.97708000  0.21770000  1.0
  O  O88  1  0.69917000  0.02292000  0.71770000  1.0
  O  O89  1  0.30083000  0.02292000  0.78230000  1.0
  O  O90  1  0.42510000  0.19180000  0.33361000  1.0
  O  O91  1  0.57490000  0.19180000  0.16639000  1.0
  O  O92  1  0.57490000  0.80820000  0.66639000  1.0
  O  O93  1  0.42510000  0.80820000  0.83361000  1.0
  O  O94  1  0.38778000  0.46067000  0.31368000  1.0
  O  O95  1  0.61222000  0.46067000  0.18632000  1.0
  O  O96  1  0.61222000  0.53933000  0.68632000  1.0
  O  O97  1  0.38778000  0.53933000  0.81368000  1.0
  O  O98  1  0.22271000  0.61678000  0.22213000  1.0
  O  O99  1  0.77729000  0.61678000  0.27787000  1.0
  O  O100  1  0.77729000  0.38322000  0.77787000  1.0
  O  O101  1  0.22271000  0.38322000  0.72213000  1.0
