# generated using pymatgen
data_CdH7C13NO5
_symmetry_space_group_name_H-M   'P 1'
_cell_length_a   7.57206000
_cell_length_b   8.55769000
_cell_length_c   9.08204000
_cell_angle_alpha   81.27270000
_cell_angle_beta   77.95880000
_cell_angle_gamma   82.33520000
_symmetry_Int_Tables_number   1
_chemical_formula_structural   CdH7C13NO5
_chemical_formula_sum   'Cd2 H14 C26 N2 O10'
_cell_volume   565.73908554
_cell_formula_units_Z   2
loop_
 _symmetry_equiv_pos_site_id
 _symmetry_equiv_pos_as_xyz
  1  'x, y, z'
loop_
 _atom_site_type_symbol
 _atom_site_label
 _atom_site_symmetry_multiplicity
 _atom_site_fract_x
 _atom_site_fract_y
 _atom_site_fract_z
 _atom_site_occupancy
  Cd  Cd0  1  0.18758000  0.07093000  0.08436000  1.0
  Cd  Cd1  1  0.81242000  0.92907000  0.91564000  1.0
  H  H2  1  0.39676000  0.47546000  0.77753000  1.0
  H  H3  1  0.60324000  0.52454000  0.22247000  1.0
  H  H4  1  0.88250000  0.70590000  0.58169000  1.0
  H  H5  1  0.11750000  0.29410000  0.41830000  1.0
  H  H6  1  0.05422000  0.50420000  0.73655000  1.0
  H  H7  1  0.94578000  0.49580000  0.26345000  1.0
  H  H8  1  0.09373000  0.89813000  0.60985000  1.0
  H  H9  1  0.90627000  0.10186000  0.39015000  1.0
  H  H10  1  0.29572000  0.71734000  0.75799000  1.0
  H  H11  1  0.70428000  0.28266000  0.24201000  1.0
  H  H12  1  0.73614000  0.74794000  0.39168000  1.0
  H  H13  1  0.26386000  0.25207000  0.60833000  1.0
  H  H14  1  0.55199000  0.93792000  0.23541000  1.0
  H  H15  1  0.44800000  0.06208000  0.76459000  1.0
  C  C16  1  0.30087000  0.92804000  0.40499000  1.0
  C  C17  1  0.69913000  0.07196000  0.59502000  1.0
  C  C18  1  0.93760000  0.25837000  0.93534000  1.0
  C  C19  1  0.06240000  0.74163000  0.06466000  1.0
  C  C20  1  0.53421000  0.24596000  0.96016000  1.0
  C  C21  1  0.46579000  0.75404000  0.03984000  1.0
  C  C22  1  0.82443000  0.37612000  0.84360000  1.0
  C  C23  1  0.17557000  0.62388000  0.15640000  1.0
  C  C24  1  0.63723000  0.37126000  0.85594000  1.0
  C  C25  1  0.36277000  0.62874000  0.14406000  1.0
  C  C26  1  0.54107000  0.48467000  0.76633000  1.0
  C  C27  1  0.45893000  0.51533000  0.23367000  1.0
  C  C28  1  0.62790000  0.60343000  0.66656000  1.0
  C  C29  1  0.37210000  0.39657000  0.33344000  1.0
  C  C30  1  0.81422000  0.60983000  0.65442000  1.0
  C  C31  1  0.18578000  0.39017000  0.34558000  1.0
  C  C32  1  0.91054000  0.49606000  0.74244000  1.0
  C  C33  1  0.08946000  0.50394000  0.25756000  1.0
  C  C34  1  0.23386000  0.86309000  0.55790000  1.0
  C  C35  1  0.76613000  0.13691000  0.44211000  1.0
  C  C36  1  0.34405000  0.76277000  0.63987000  1.0
  C  C37  1  0.65595000  0.23723000  0.36013000  1.0
  C  C38  1  0.59333000  0.78333000  0.43453000  1.0
  C  C39  1  0.40667000  0.21667000  0.56547000  1.0
  C  C40  1  0.48943000  0.88625000  0.34817000  1.0
  C  C41  1  0.51057000  0.11375000  0.65183000  1.0
  N  N42  1  0.52225000  0.71880000  0.57893000  1.0
  N  N43  1  0.47775000  0.28120000  0.42107000  1.0
  O  O44  1  0.94894000  0.28310000  0.06647000  1.0
  O  O45  1  0.05107000  0.71690000  0.93353000  1.0
  O  O46  1  0.02810000  0.13996000  0.87126000  1.0
  O  O47  1  0.97190000  0.86004000  0.12874000  1.0
  O  O48  1  0.62187000  0.12709000  0.02557000  1.0
  O  O49  1  0.37813000  0.87291000  0.97443000  1.0
  O  O50  1  0.36235000  0.26765000  0.97673000  1.0
  O  O51  1  0.63765000  0.73235000  0.02327000  1.0
  O  O52  1  0.19429000  0.02175000  0.32918000  1.0
  O  O53  1  0.80571000  0.97825000  0.67082000  1.0
