# generated using pymatgen
data_SnH12C5O2
_symmetry_space_group_name_H-M   'P 1'
_cell_length_a   7.63742000
_cell_length_b   9.25209000
_cell_length_c   10.77030000
_cell_angle_alpha   90.00080000
_cell_angle_beta   89.99980000
_cell_angle_gamma   89.99910000
_symmetry_Int_Tables_number   1
_chemical_formula_structural   SnH12C5O2
_chemical_formula_sum   'Sn4 H48 C20 O8'
_cell_volume   761.05198538
_cell_formula_units_Z   4
loop_
 _symmetry_equiv_pos_site_id
 _symmetry_equiv_pos_as_xyz
  1  'x, y, z'
loop_
 _atom_site_type_symbol
 _atom_site_label
 _atom_site_symmetry_multiplicity
 _atom_site_fract_x
 _atom_site_fract_y
 _atom_site_fract_z
 _atom_site_occupancy
  Sn  Sn0  1  0.74998000  0.17878000  0.08984000  1.0
  Sn  Sn1  1  0.25000000  0.67876000  0.41014000  1.0
  Sn  Sn2  1  0.75005000  0.32123000  0.58983000  1.0
  Sn  Sn3  1  0.24997000  0.82125000  0.91018000  1.0
  H  H4  1  0.74997000  0.51166000  0.12387000  1.0
  H  H5  1  0.25000000  0.01166000  0.37615000  1.0
  H  H6  1  0.75000000  0.98836000  0.62387000  1.0
  H  H7  1  0.25000000  0.48835000  0.87612000  1.0
  H  H8  1  0.86519000  0.62271000  0.23232000  1.0
  H  H9  1  0.13479000  0.12271000  0.26770000  1.0
  H  H10  1  0.63480000  0.87731000  0.73233000  1.0
  H  H11  1  0.36519000  0.37730000  0.76766000  1.0
  H  H12  1  0.13479000  0.37729000  0.76767000  1.0
  H  H13  1  0.86520000  0.87730000  0.73232000  1.0
  H  H14  1  0.36520000  0.12271000  0.26770000  1.0
  H  H15  1  0.63478000  0.62271000  0.23233000  1.0
  H  H16  1  0.96535000  0.35738000  0.96380000  1.0
  H  H17  1  0.03464000  0.85735000  0.53619000  1.0
  H  H18  1  0.53468000  0.14262000  0.46380000  1.0
  H  H19  1  0.46532000  0.64263000  0.03620000  1.0
  H  H20  1  0.03466000  0.64263000  0.03622000  1.0
  H  H21  1  0.96538000  0.14264000  0.46378000  1.0
  H  H22  1  0.46532000  0.85736000  0.53623000  1.0
  H  H23  1  0.53464000  0.35738000  0.96379000  1.0
  H  H24  1  0.08387000  0.19788000  0.00763000  1.0
  H  H25  1  0.91612000  0.69785000  0.49235000  1.0
  H  H26  1  0.41616000  0.30212000  0.50764000  1.0
  H  H27  1  0.58385000  0.80213000  0.99237000  1.0
  H  H28  1  0.91612000  0.80213000  0.99240000  1.0
  H  H29  1  0.08389000  0.30213000  0.50762000  1.0
  H  H30  1  0.58387000  0.69786000  0.49240000  1.0
  H  H31  1  0.41613000  0.19788000  0.00761000  1.0
  H  H32  1  0.04737000  0.33761000  0.11883000  1.0
  H  H33  1  0.95262000  0.83758000  0.38116000  1.0
  H  H34  1  0.45265000  0.16239000  0.61884000  1.0
  H  H35  1  0.54736000  0.66240000  0.88117000  1.0
  H  H36  1  0.95260000  0.66239000  0.88120000  1.0
  H  H37  1  0.04743000  0.16240000  0.61880000  1.0
  H  H38  1  0.54739000  0.83760000  0.38120000  1.0
  H  H39  1  0.45261000  0.33760000  0.11881000  1.0
  H  H40  1  0.75000000  0.02122000  0.30265000  1.0
  H  H41  1  0.25002000  0.52119000  0.19734000  1.0
  H  H42  1  0.75002000  0.47879000  0.80266000  1.0
  H  H43  1  0.25000000  0.97879000  0.69734000  1.0
  H  H44  1  0.86640000  0.92410000  0.18426000  1.0
  H  H45  1  0.13361000  0.42408000  0.31573000  1.0
  H  H46  1  0.63361000  0.57590000  0.68425000  1.0
  H  H47  1  0.36641000  0.07590000  0.81575000  1.0
  H  H48  1  0.13360000  0.07593000  0.81574000  1.0
  H  H49  1  0.86642000  0.57592000  0.68425000  1.0
  H  H50  1  0.36641000  0.42407000  0.31574000  1.0
  H  H51  1  0.63359000  0.92409000  0.18426000  1.0
  C  C52  1  0.74998000  0.43450000  0.31492000  1.0
  C  C53  1  0.25003000  0.93449000  0.18507000  1.0
  C  C54  1  0.75002000  0.06550000  0.81491000  1.0
  C  C55  1  0.25000000  0.56547000  0.68506000  1.0
  C  C56  1  0.74998000  0.55348000  0.21884000  1.0
  C  C57  1  0.25000000  0.05348000  0.28118000  1.0
  C  C58  1  0.75000000  0.94653000  0.71883000  1.0
  C  C59  1  0.24999000  0.44652000  0.78116000  1.0
  C  C60  1  0.99164000  0.28077000  0.03899000  1.0
  C  C61  1  0.00835000  0.78074000  0.46100000  1.0
  C  C62  1  0.50838000  0.21922000  0.53899000  1.0
  C  C63  1  0.49163000  0.71924000  0.96101000  1.0
  C  C64  1  0.00834000  0.71924000  0.96104000  1.0
  C  C65  1  0.99169000  0.21924000  0.53897000  1.0
  C  C66  1  0.49164000  0.78076000  0.46104000  1.0
  C  C67  1  0.50834000  0.28077000  0.03897000  1.0
  C  C68  1  0.75000000  0.98910000  0.20485000  1.0
  C  C69  1  0.25001000  0.48908000  0.29514000  1.0
  C  C70  1  0.75002000  0.51091000  0.70486000  1.0
  C  C71  1  0.24999000  0.01091000  0.79514000  1.0
  O  O72  1  0.75000000  0.30204000  0.28444000  1.0
  O  O73  1  0.25001000  0.80204000  0.21556000  1.0
  O  O74  1  0.75003000  0.19796000  0.78446000  1.0
  O  O75  1  0.24996000  0.69796000  0.71554000  1.0
  O  O76  1  0.75000000  0.47622000  0.42865000  1.0
  O  O77  1  0.24999000  0.97623000  0.07137000  1.0
  O  O78  1  0.75000000  0.02379000  0.92865000  1.0
  O  O79  1  0.24998000  0.52378000  0.57133000  1.0
