# generated using pymatgen
data_NdH11C8SO11
_symmetry_space_group_name_H-M   'P 1'
_cell_length_a   6.96631000
_cell_length_b   10.54070000
_cell_length_c   16.67890000
_cell_angle_alpha   90.00000000
_cell_angle_beta   90.00000000
_cell_angle_gamma   90.00000000
_symmetry_Int_Tables_number   1
_chemical_formula_structural   NdH11C8SO11
_chemical_formula_sum   'Nd4 H44 C32 S4 O44'
_cell_volume   1224.72802131
_cell_formula_units_Z   4
loop_
 _symmetry_equiv_pos_site_id
 _symmetry_equiv_pos_as_xyz
  1  'x, y, z'
loop_
 _atom_site_type_symbol
 _atom_site_label
 _atom_site_symmetry_multiplicity
 _atom_site_fract_x
 _atom_site_fract_y
 _atom_site_fract_z
 _atom_site_occupancy
  Nd  Nd0  1  0.10528000  0.74897000  0.08201000  1.0
  Nd  Nd1  1  0.89472000  0.24897000  0.91799000  1.0
  Nd  Nd2  1  0.39472000  0.24897000  0.58201000  1.0
  Nd  Nd3  1  0.60528000  0.74897000  0.41799000  1.0
  H  H4  1  0.69284000  0.85314000  0.08836000  1.0
  H  H5  1  0.30716000  0.35314000  0.91164000  1.0
  H  H6  1  0.80716000  0.35314000  0.58836000  1.0
  H  H7  1  0.19284000  0.85314000  0.41164000  1.0
  H  H8  1  0.81966000  0.97744000  0.07235000  1.0
  H  H9  1  0.18034000  0.47744000  0.92765000  1.0
  H  H10  1  0.68034000  0.47744000  0.57235000  1.0
  H  H11  1  0.31966000  0.97744000  0.42765000  1.0
  H  H12  1  0.75610000  0.57575000  0.09652000  1.0
  H  H13  1  0.24390000  0.07575000  0.90347000  1.0
  H  H14  1  0.74390000  0.07575000  0.59653000  1.0
  H  H15  1  0.25610000  0.57575000  0.40347000  1.0
  H  H16  1  0.80591000  0.56291000  0.00282000  1.0
  H  H17  1  0.19409000  0.06291000  0.99718000  1.0
  H  H18  1  0.69409000  0.06291000  0.50282000  1.0
  H  H19  1  0.30591000  0.56291000  0.49718000  1.0
  H  H20  1  0.48203000  0.82582000  0.00777000  1.0
  H  H21  1  0.51797000  0.32582000  0.99223000  1.0
  H  H22  1  0.01797000  0.32582000  0.50777000  1.0
  H  H23  1  0.98203000  0.82582000  0.49223000  1.0
  H  H24  1  0.55329000  0.69564000  0.04482000  1.0
  H  H25  1  0.44671000  0.19564000  0.95518000  1.0
  H  H26  1  0.94671000  0.19564000  0.54482000  1.0
  H  H27  1  0.05329000  0.69564000  0.45519000  1.0
  H  H28  1  0.42214000  0.42124000  0.30439000  1.0
  H  H29  1  0.57785000  0.92125000  0.69561000  1.0
  H  H30  1  0.07785000  0.92124000  0.80439000  1.0
  H  H31  1  0.92215000  0.42124000  0.19561000  1.0
  H  H32  1  0.31356000  0.21637000  0.08473000  1.0
  H  H33  1  0.68644000  0.71637000  0.91527000  1.0
  H  H34  1  0.18644000  0.71637000  0.58473000  1.0
  H  H35  1  0.81356000  0.21637000  0.41527000  1.0
  H  H36  1  0.28573000  0.02279000  0.31083000  1.0
  H  H37  1  0.71427000  0.52279000  0.68917000  1.0
  H  H38  1  0.21427000  0.52279000  0.81083000  1.0
  H  H39  1  0.78572000  0.02279000  0.18917000  1.0
  H  H40  1  0.99596000  0.64681000  0.25000000  1.0
  H  H41  1  0.00404000  0.14681000  0.75000000  1.0
  H  H42  1  0.50404000  0.14681000  0.75000000  1.0
  H  H43  1  0.49596000  0.64681000  0.25000000  1.0
  H  H44  1  0.87707000  0.77409000  0.23819000  1.0
  H  H45  1  0.12293000  0.27409000  0.76181000  1.0
  H  H46  1  0.62293000  0.27409000  0.73819000  1.0
  H  H47  1  0.37707000  0.77409000  0.26181000  1.0
  C  C48  1  0.35074000  0.22343000  0.31777000  1.0
  C  C49  1  0.64926000  0.72343000  0.68224000  1.0
  C  C50  1  0.14926000  0.72343000  0.81776000  1.0
  C  C51  1  0.85074000  0.22343000  0.18224000  1.0
  C  C52  1  0.38334000  0.33416000  0.27341000  1.0
  C  C53  1  0.61666000  0.83416000  0.72659000  1.0
  C  C54  1  0.11666000  0.83416000  0.77341000  1.0
  C  C55  1  0.88334000  0.33416000  0.22659000  1.0
  C  C56  1  0.32606000  0.21773000  0.14970000  1.0
  C  C57  1  0.67394000  0.71773000  0.85030000  1.0
  C  C58  1  0.17394000  0.71773000  0.64970000  1.0
  C  C59  1  0.82606000  0.21773000  0.35030000  1.0
  C  C60  1  0.29897000  0.10640000  0.19412000  1.0
  C  C61  1  0.70103000  0.60640000  0.80588000  1.0
  C  C62  1  0.20103000  0.60640000  0.69412000  1.0
  C  C63  1  0.79897000  0.10640000  0.30588000  1.0
  C  C64  1  0.36783000  0.33038000  0.18997000  1.0
  C  C65  1  0.63217000  0.83038000  0.81003000  1.0
  C  C66  1  0.13217000  0.83037000  0.68997000  1.0
  C  C67  1  0.86784000  0.33038000  0.31003000  1.0
  C  C68  1  0.36644000  0.22769000  0.40737000  1.0
  C  C69  1  0.63356000  0.72769000  0.59263000  1.0
  C  C70  1  0.13356000  0.72769000  0.90737000  1.0
  C  C71  1  0.86644000  0.22769000  0.09263000  1.0
  C  C72  1  0.25391000  0.98285000  0.15454000  1.0
  C  C73  1  0.74608000  0.48285000  0.84546000  1.0
  C  C74  1  0.24609000  0.48285000  0.65454000  1.0
  C  C75  1  0.75391000  0.98285000  0.34546000  1.0
  C  C76  1  0.30889000  0.11031000  0.27774000  1.0
  C  C77  1  0.69111000  0.61030000  0.72226000  1.0
  C  C78  1  0.19111000  0.61031000  0.77774000  1.0
  C  C79  1  0.80889000  0.11031000  0.22226000  1.0
  S  S80  1  0.40722000  0.47271000  0.13477000  1.0
  S  S81  1  0.59278000  0.97271000  0.86523000  1.0
  S  S82  1  0.09278000  0.97271000  0.63477000  1.0
  S  S83  1  0.90722000  0.47271000  0.36523000  1.0
  O  O84  1  0.82331000  0.88780000  0.09272000  1.0
  O  O85  1  0.17669000  0.38780000  0.90728000  1.0
  O  O86  1  0.67669000  0.38780000  0.59272000  1.0
  O  O87  1  0.32331000  0.88780000  0.40728000  1.0
  O  O88  1  0.80697000  0.62229000  0.04972000  1.0
  O  O89  1  0.19303000  0.12229000  0.95028000  1.0
  O  O90  1  0.69303000  0.12229000  0.54972000  1.0
  O  O91  1  0.30697000  0.62229000  0.45028000  1.0
  O  O92  1  0.46283000  0.76626000  0.05377000  1.0
  O  O93  1  0.53717000  0.26626000  0.94623000  1.0
  O  O94  1  0.03717000  0.26626000  0.55377000  1.0
  O  O95  1  0.96283000  0.76626000  0.44623000  1.0
  O  O96  1  0.56959000  0.53733000  0.17442000  1.0
  O  O97  1  0.43041000  0.03733000  0.82558000  1.0
  O  O98  1  0.93041000  0.03733000  0.67442000  1.0
  O  O99  1  0.06959000  0.53734000  0.32558000  1.0
  O  O100  1  0.25254000  0.88086000  0.19573000  1.0
  O  O101  1  0.74745000  0.38086000  0.80427000  1.0
  O  O102  1  0.24746000  0.38086000  0.69573000  1.0
  O  O103  1  0.75254000  0.88086000  0.30427000  1.0
  O  O104  1  0.45118000  0.43699000  0.05215000  1.0
  O  O105  1  0.54882000  0.93699000  0.94785000  1.0
  O  O106  1  0.04882000  0.93699000  0.55214000  1.0
  O  O107  1  0.95119000  0.43699000  0.44785000  1.0
  O  O108  1  0.22917000  0.54876000  0.14047000  1.0
  O  O109  1  0.77083000  0.04876000  0.85953000  1.0
  O  O110  1  0.27083000  0.04876000  0.64047000  1.0
  O  O111  1  0.72917000  0.54876000  0.35954000  1.0
  O  O112  1  0.21033000  0.97901000  0.07993000  1.0
  O  O113  1  0.78967000  0.47901000  0.92007000  1.0
  O  O114  1  0.28967000  0.47901000  0.57993000  1.0
  O  O115  1  0.71033000  0.97901000  0.42007000  1.0
  O  O116  1  0.41961000  0.33016000  0.44099000  1.0
  O  O117  1  0.58038000  0.83016000  0.55901000  1.0
  O  O118  1  0.08039000  0.83016000  0.94099000  1.0
  O  O119  1  0.91961000  0.33016000  0.05901000  1.0
  O  O120  1  0.32652000  0.12921000  0.44982000  1.0
  O  O121  1  0.67348000  0.62921000  0.55018000  1.0
  O  O122  1  0.17348000  0.62921000  0.94982000  1.0
  O  O123  1  0.82652000  0.12922000  0.05018000  1.0
  O  O124  1  0.93745000  0.70288000  0.20914000  1.0
  O  O125  1  0.06255000  0.20288000  0.79086000  1.0
  O  O126  1  0.56255000  0.20288000  0.70914000  1.0
  O  O127  1  0.43745000  0.70288000  0.29086000  1.0
