# generated using pymatgen
data_ZnH12C18(NO)6
_symmetry_space_group_name_H-M   'P 1'
_cell_length_a   11.10930000
_cell_length_b   15.98660000
_cell_length_c   17.22460000
_cell_angle_alpha   82.24820000
_cell_angle_beta   89.46980000
_cell_angle_gamma   86.27830000
_symmetry_Int_Tables_number   1
_chemical_formula_structural   ZnH12C18(NO)6
_chemical_formula_sum   'Zn2 H24 C36 N12 O12'
_cell_volume   3024.74014119
_cell_formula_units_Z   2
loop_
 _symmetry_equiv_pos_site_id
 _symmetry_equiv_pos_as_xyz
  1  'x, y, z'
loop_
 _atom_site_type_symbol
 _atom_site_label
 _atom_site_symmetry_multiplicity
 _atom_site_fract_x
 _atom_site_fract_y
 _atom_site_fract_z
 _atom_site_occupancy
  Zn  Zn0  1  0.50682000  0.40788000  0.50099000  1.0
  Zn  Zn1  1  0.49294000  0.59062000  0.49406000  1.0
  H  H2  1  0.60330000  0.70939000  0.57696000  1.0
  H  H3  1  0.60968000  0.86578000  0.57816000  1.0
  H  H4  1  0.32790000  0.90071000  0.40364000  1.0
  H  H5  1  0.67009000  0.09793000  0.59737000  1.0
  H  H6  1  0.38200000  0.12969000  0.42774000  1.0
  H  H7  1  0.38913000  0.28718000  0.42591000  1.0
  H  H8  1  0.48770000  0.61513000  0.73226000  1.0
  H  H9  1  0.49057000  0.61346000  0.87787000  1.0
  H  H10  1  0.50672000  0.34174000  0.90711000  1.0
  H  H11  1  0.48819000  0.65818000  0.08818000  1.0
  H  H12  1  0.50607000  0.38665000  0.11715000  1.0
  H  H13  1  0.50954000  0.38513000  0.26322000  1.0
  H  H14  1  0.22421000  0.60253000  0.59720000  1.0
  H  H15  1  0.77553000  0.61057000  0.60661000  1.0
  H  H16  1  0.88888000  0.40417000  0.43651000  1.0
  H  H17  1  0.11456000  0.39994000  0.43155000  1.0
  H  H18  1  0.29744000  0.67098000  0.41752000  1.0
  H  H19  1  0.24756000  0.77063000  0.37161000  1.0
  H  H20  1  0.70128000  0.32816000  0.57873000  1.0
  H  H21  1  0.75094000  0.22912000  0.62717000  1.0
  H  H22  1  0.50430000  0.32695000  0.69762000  1.0
  H  H23  1  0.49780000  0.27151000  0.79300000  1.0
  H  H24  1  0.49873000  0.67285000  0.29746000  1.0
  H  H25  1  0.49741000  0.72848000  0.20194000  1.0
  C  C26  1  0.49270000  0.48717000  0.65021000  1.0
  C  C27  1  0.73769000  0.50202000  0.50793000  1.0
  C  C28  1  0.50485000  0.51267000  0.34535000  1.0
  C  C29  1  0.26244000  0.49361000  0.49639000  1.0
  C  C30  1  0.54469000  0.75437000  0.53907000  1.0
  C  C31  1  0.54847000  0.84022000  0.53990000  1.0
  C  C32  1  0.46923000  0.89359000  0.48878000  1.0
  C  C33  1  0.38999000  0.85903000  0.44205000  1.0
  C  C34  1  0.38987000  0.77012000  0.44586000  1.0
  C  C35  1  0.60724000  0.13906000  0.55905000  1.0
  C  C36  1  0.52649000  0.10369000  0.51407000  1.0
  C  C37  1  0.44532000  0.15637000  0.46375000  1.0
  C  C38  1  0.44973000  0.24246000  0.46273000  1.0
  C  C39  1  0.60807000  0.22818000  0.55333000  1.0
  C  C40  1  0.49650000  0.48019000  0.73656000  1.0
  C  C41  1  0.49218000  0.55553000  0.77141000  1.0
  C  C42  1  0.49331000  0.55527000  0.85153000  1.0
  C  C43  1  0.49792000  0.47643000  0.89997000  1.0
  C  C44  1  0.50256000  0.40116000  0.86745000  1.0
  C  C45  1  0.50321000  0.40058000  0.78563000  1.0
  C  C46  1  0.49299000  0.59875000  0.12787000  1.0
  C  C47  1  0.49725000  0.52358000  0.09526000  1.0
  C  C48  1  0.50287000  0.44474000  0.14372000  1.0
  C  C49  1  0.50458000  0.44460000  0.22382000  1.0
  C  C50  1  0.50093000  0.51981000  0.25883000  1.0
  C  C51  1  0.49424000  0.59933000  0.20971000  1.0
  C  C52  1  0.12779000  0.49634000  0.50498000  1.0
  C  C53  1  0.06475000  0.55208000  0.55178000  1.0
  C  C54  1  0.06445000  0.44307000  0.46582000  1.0
  C  C55  1  0.12605000  0.60413000  0.59712000  1.0
  C  C56  1  0.06292000  0.65579000  0.64290000  1.0
  C  C57  1  0.87289000  0.50008000  0.51168000  1.0
  C  C58  1  0.93800000  0.44515000  0.46887000  1.0
  C  C59  1  0.93525000  0.55341000  0.55560000  1.0
  C  C60  1  0.87348000  0.60714000  0.60411000  1.0
  C  C61  1  0.93529000  0.65787000  0.64590000  1.0
  N  N62  1  0.46975000  0.71927000  0.49266000  1.0
  N  N63  1  0.46136000  0.98332000  0.48042000  1.0
  N  N64  1  0.53455000  0.01388000  0.52295000  1.0
  N  N65  1  0.52766000  0.27850000  0.50636000  1.0
  N  N66  1  0.49894000  0.46578000  0.98285000  1.0
  N  N67  1  0.49579000  0.53427000  0.01237000  1.0
  N  N68  1  0.31273000  0.73352000  0.40219000  1.0
  N  N69  1  0.68690000  0.26558000  0.59493000  1.0
  N  N70  1  0.51228000  0.32498000  0.75664000  1.0
  N  N71  1  0.48605000  0.67483000  0.23879000  1.0
  N  N72  1  0.13313000  0.70101000  0.69440000  1.0
  N  N73  1  0.86317000  0.72061000  0.68503000  1.0
  O  O74  1  0.50314000  0.41890000  0.61794000  1.0
  O  O75  1  0.47866000  0.56116000  0.61138000  1.0
  O  O76  1  0.67971000  0.57340000  0.50444000  1.0
  O  O77  1  0.69245000  0.43093000  0.50641000  1.0
  O  O78  1  0.50986000  0.58065000  0.37740000  1.0
  O  O79  1  0.50341000  0.43868000  0.38412000  1.0
  O  O80  1  0.31754000  0.42125000  0.50317000  1.0
  O  O81  1  0.31001000  0.56472000  0.48233000  1.0
  O  O82  1  0.22156000  0.73688000  0.66527000  1.0
  O  O83  1  0.10040000  0.69669000  0.76358000  1.0
  O  O84  1  0.76474000  0.70005000  0.71330000  1.0
  O  O85  1  0.90404000  0.79118000  0.68330000  1.0
