# generated using pymatgen
data_Pr2H34C51N4O15
_symmetry_space_group_name_H-M   'P 1'
_cell_length_a   8.50101000
_cell_length_b   10.74330000
_cell_length_c   13.15960000
_cell_angle_alpha   95.71400000
_cell_angle_beta   104.54900000
_cell_angle_gamma   97.61850000
_symmetry_Int_Tables_number   1
_chemical_formula_structural   Pr2H34C51N4O15
_chemical_formula_sum   'Pr2 H34 C51 N4 O15'
_cell_volume   1141.93225756
_cell_formula_units_Z   1
loop_
 _symmetry_equiv_pos_site_id
 _symmetry_equiv_pos_as_xyz
  1  'x, y, z'
loop_
 _atom_site_type_symbol
 _atom_site_label
 _atom_site_symmetry_multiplicity
 _atom_site_fract_x
 _atom_site_fract_y
 _atom_site_fract_z
 _atom_site_occupancy
  Pr  Pr0  1  0.00235000  0.14390000  0.90728000  1.0
  Pr  Pr1  1  0.74917000  0.19409000  0.60916000  1.0
  H  H2  1  0.81235000  0.82458000  0.12596000  1.0
  H  H3  1  0.65354000  0.60935000  0.12526000  1.0
  H  H4  1  0.76935000  0.47744000  0.83591000  1.0
  H  H5  1  0.93940000  0.68596000  0.84542000  1.0
  H  H6  1  0.48563000  0.40889000  0.81823000  1.0
  H  H7  1  0.41283000  0.28749000  0.88565000  1.0
  H  H8  1  0.21474000  0.42927000  0.70705000  1.0
  H  H9  1  0.05745000  0.52189000  0.71311000  1.0
  H  H10  1  0.45805000  0.76904000  0.95017000  1.0
  H  H11  1  0.64031000  0.93421000  0.89183000  1.0
  H  H12  1  0.46202000  0.74615000  0.57193000  1.0
  H  H13  1  0.28547000  0.57944000  0.62823000  1.0
  H  H14  1  0.96307000  0.51327000  0.39941000  1.0
  H  H15  1  0.11742000  0.72996000  0.39837000  1.0
  H  H16  1  0.97692000  0.86721000  0.67717000  1.0
  H  H17  1  0.80842000  0.65876000  0.66749000  1.0
  H  H18  1  0.34242000  0.05745000  0.63366000  1.0
  H  H19  1  0.27235000  0.93582000  0.70157000  1.0
  H  H20  1  0.35037000  0.00462000  0.93878000  1.0
  H  H21  1  0.64785000  0.02164000  0.04421000  1.0
  H  H22  1  0.75649000  0.18544000  0.20305000  1.0
  H  H23  1  0.70848000  0.36047000  0.32461000  1.0
  H  H24  1  0.52353000  0.50447000  0.36935000  1.0
  H  H25  1  0.24550000  0.56817000  0.33217000  1.0
  H  H26  1  0.94975000  0.52797000  0.22170000  1.0
  H  H27  1  0.85932000  0.34714000  0.07352000  1.0
  H  H28  1  0.88803000  0.99440000  0.43738000  1.0
  H  H29  1  0.78856000  0.81010000  0.29251000  1.0
  H  H30  1  0.49151000  0.77347000  0.18492000  1.0
  H  H31  1  0.21607000  0.84413000  0.14963000  1.0
  H  H32  1  0.03726000  0.99076000  0.19772000  1.0
  H  H33  1  0.99547000  0.16519000  0.32485000  1.0
  H  H34  1  0.11133000  0.32559000  0.48543000  1.0
  H  H35  1  0.41283000  0.34137000  0.58362000  1.0
  C  C36  1  0.95500000  0.89902000  0.97402000  1.0
  C  C37  1  0.88511000  0.76845000  0.98530000  1.0
  C  C38  1  0.80726000  0.74601000  0.06552000  1.0
  C  C39  1  0.71778000  0.62791000  0.06486000  1.0
  C  C40  1  0.69837000  0.53140000  0.98020000  1.0
  C  C41  1  0.78069000  0.55113000  0.90158000  1.0
  C  C42  1  0.87582000  0.66838000  0.90615000  1.0
  C  C43  1  0.52371000  0.34697000  0.87839000  1.0
  C  C44  1  0.63286000  0.26143000  0.84027000  1.0
  C  C45  1  0.08792000  0.38120000  0.81949000  1.0
  C  C46  1  0.15719000  0.48050000  0.76152000  1.0
  C  C47  1  0.36414000  0.66296000  0.79423000  1.0
  C  C48  1  0.46248000  0.76443000  0.86794000  1.0
  C  C49  1  0.56360000  0.85512000  0.83535000  1.0
  C  C50  1  0.56550000  0.84859000  0.72872000  1.0
  C  C51  1  0.46412000  0.74861000  0.65524000  1.0
  C  C52  1  0.36457000  0.65521000  0.68715000  1.0
  C  C53  1  0.65861000  0.95301000  0.69163000  1.0
  C  C54  1  0.80607000  0.44182000  0.54545000  1.0
  C  C55  1  0.87752000  0.57225000  0.53429000  1.0
  C  C56  1  0.96238000  0.59314000  0.45713000  1.0
  C  C57  1  0.04931000  0.71199000  0.45693000  1.0
  C  C58  1  0.97206000  0.79218000  0.61399000  1.0
  C  C59  1  0.87825000  0.67438000  0.60957000  1.0
  C  C60  1  0.06086000  0.81058000  0.53848000  1.0
  C  C61  1  0.23250000  0.99627000  0.64054000  1.0
  C  C62  1  0.12004000  0.07960000  0.67691000  1.0
  C  C63  1  0.40297000  0.07416000  0.00961000  1.0
  C  C64  1  0.56787000  0.08310000  0.06843000  1.0
  C  C65  1  0.62860000  0.17422000  0.15632000  1.0
  C  C66  1  0.52546000  0.25545000  0.18579000  1.0
  C  C67  1  0.58263000  0.35264000  0.27525000  1.0
  C  C68  1  0.47983000  0.43051000  0.30087000  1.0
  C  C69  1  0.31126000  0.41449000  0.24051000  1.0
  C  C70  1  0.20065000  0.49194000  0.26548000  1.0
  C  C71  1  0.03837000  0.46936000  0.20598000  1.0
  C  C72  1  0.98666000  0.36835000  0.12216000  1.0
  C  C73  1  0.24887000  0.31650000  0.15262000  1.0
  C  C74  1  0.35951000  0.23777000  0.12289000  1.0
  C  C75  1  0.75981000  0.97477000  0.39009000  1.0
  C  C76  1  0.70303000  0.87176000  0.30818000  1.0
  C  C77  1  0.53982000  0.85115000  0.25024000  1.0
  C  C78  1  0.43304000  0.93198000  0.27579000  1.0
  C  C79  1  0.26345000  0.91815000  0.21786000  1.0
  C  C80  1  0.16382000  0.99762000  0.24559000  1.0
  C  C81  1  0.22498000  0.09431000  0.33524000  1.0
  C  C82  1  0.12470000  0.17544000  0.36874000  1.0
  C  C83  1  0.18949000  0.26508000  0.45749000  1.0
  C  C84  1  0.35588000  0.27296000  0.51251000  1.0
  C  C85  1  0.39248000  0.11056000  0.39505000  1.0
  C  C86  1  0.50013000  0.03076000  0.36260000  1.0
  N  N87  1  0.30153000  0.14876000  0.03568000  1.0
  N  N88  1  0.08806000  0.29422000  0.09585000  1.0
  N  N89  1  0.45441000  0.19825000  0.48276000  1.0
  N  N90  1  0.66206000  0.05202000  0.41669000  1.0
  O  O91  1  0.91169000  0.99377000  0.02293000  1.0
  O  O92  1  0.04631000  0.91635000  0.91147000  1.0
  O  O93  1  0.59570000  0.42204000  0.97981000  1.0
  O  O94  1  0.75028000  0.23076000  0.90864000  1.0
  O  O95  1  0.59244000  0.22705000  0.74065000  1.0
  O  O96  1  0.16417000  0.36504000  0.91081000  1.0
  O  O97  1  0.95226000  0.31018000  0.76683000  1.0
  O  O98  1  0.27365000  0.57612000  0.83479000  1.0
  O  O99  1  0.78794000  0.02307000  0.75452000  1.0
  O  O100  1  0.60321000  0.97471000  0.59696000  1.0
  O  O101  1  0.85115000  0.34682000  0.49840000  1.0
  O  O102  1  0.71147000  0.42584000  0.60610000  1.0
  O  O103  1  0.16350000  0.91998000  0.53922000  1.0
  O  O104  1  0.00096000  0.10758000  0.60808000  1.0
  O  O105  1  0.15909000  0.11529000  0.77629000  1.0
