# generated using pymatgen
data_Cu3H6C9N13
_symmetry_space_group_name_H-M   'P 1'
_cell_length_a   20.79990000
_cell_length_b   21.92930000
_cell_length_c   24.38950000
_cell_angle_alpha   85.61860000
_cell_angle_beta   89.42980000
_cell_angle_gamma   87.79300000
_symmetry_Int_Tables_number   1
_chemical_formula_structural   Cu3H6C9N13
_chemical_formula_sum   'Cu12 H24 C36 N52'
_cell_volume   11083.70237225
_cell_formula_units_Z   4
loop_
 _symmetry_equiv_pos_site_id
 _symmetry_equiv_pos_as_xyz
  1  'x, y, z'
loop_
 _atom_site_type_symbol
 _atom_site_label
 _atom_site_symmetry_multiplicity
 _atom_site_fract_x
 _atom_site_fract_y
 _atom_site_fract_z
 _atom_site_occupancy
  Cu  Cu0  1  0.09030000  0.12573000  0.16686000  1.0
  Cu  Cu1  1  0.11906000  0.16878000  0.04206000  1.0
  Cu  Cu2  1  0.16124000  0.03691000  0.08619000  1.0
  Cu  Cu3  1  0.43207000  0.89167000  0.67036000  1.0
  Cu  Cu4  1  0.41160000  0.88054000  0.54881000  1.0
  Cu  Cu5  1  0.29572000  0.93450000  0.61814000  1.0
  Cu  Cu6  1  0.94108000  0.61944000  0.32998000  1.0
  Cu  Cu7  1  0.88740000  0.64880000  0.44449000  1.0
  Cu  Cu8  1  0.82340000  0.54303000  0.38584000  1.0
  Cu  Cu9  1  0.58630000  0.37013000  0.83274000  1.0
  Cu  Cu10  1  0.60878000  0.33001000  0.95912000  1.0
  Cu  Cu11  1  0.64170000  0.45991000  0.91516000  1.0
  H  H12  1  0.98953000  0.23158000  0.19856000  1.0
  H  H13  1  0.01198000  0.27516000  0.02288000  1.0
  H  H14  1  0.15887000  0.91182000  0.16161000  1.0
  H  H15  1  0.10423000  0.04259000  0.28034000  1.0
  H  H16  1  0.21523000  0.18905000  0.93858000  1.0
  H  H17  1  0.25881000  0.99830000  0.99154000  1.0
  H  H18  1  0.53617000  0.77828000  0.69814000  1.0
  H  H19  1  0.52484000  0.78548000  0.51991000  1.0
  H  H20  1  0.23975000  0.01647000  0.71311000  1.0
  H  H21  1  0.43799000  0.98231000  0.76408000  1.0
  H  H22  1  0.35298000  0.89748000  0.42981000  1.0
  H  H23  1  0.18131000  0.92192000  0.52985000  1.0
  H  H24  1  0.03721000  0.73249000  0.30629000  1.0
  H  H25  1  0.99193000  0.74121000  0.47978000  1.0
  H  H26  1  0.80118000  0.45212000  0.29282000  1.0
  H  H27  1  0.97685000  0.53601000  0.23333000  1.0
  H  H28  1  0.79121000  0.66384000  0.54342000  1.0
  H  H29  1  0.71706000  0.50192000  0.47806000  1.0
  H  H30  1  0.49349000  0.26551000  0.80065000  1.0
  H  H31  1  0.49986000  0.23255000  0.97835000  1.0
  H  H32  1  0.63520000  0.58350000  0.83863000  1.0
  H  H33  1  0.60724000  0.45128000  0.71805000  1.0
  H  H34  1  0.71013000  0.30817000  0.05976000  1.0
  H  H35  1  0.72676000  0.50222000  0.01336000  1.0
  C  C36  1  0.00420000  0.23482000  0.15569000  1.0
  C  C37  1  0.97985000  0.27368000  0.11132000  1.0
  C  C38  1  0.01534000  0.25645000  0.06528000  1.0
  C  C39  1  0.14510000  0.95191000  0.18308000  1.0
  C  C40  1  0.13345000  0.95671000  0.23942000  1.0
  C  C41  1  0.11845000  0.01933000  0.24422000  1.0
  C  C42  1  0.21771000  0.14326000  0.95881000  1.0
  C  C43  1  0.25717000  0.09199000  0.94685000  1.0
  C  C44  1  0.23950000  0.04499000  0.98593000  1.0
  C  C45  1  0.52556000  0.78860000  0.65491000  1.0
  C  C46  1  0.54934000  0.75985000  0.60851000  1.0
  C  C47  1  0.52018000  0.79308000  0.56322000  1.0
  C  C48  1  0.28946000  0.00065000  0.71870000  1.0
  C  C49  1  0.33519000  0.01795000  0.75589000  1.0
  C  C50  1  0.39167000  0.98401000  0.74390000  1.0
  C  C51  1  0.31820000  0.90468000  0.46235000  1.0
  C  C52  1  0.25070000  0.90789000  0.45952000  1.0
  C  C53  1  0.22974000  0.91568000  0.51388000  1.0
  C  C54  1  0.01734000  0.72740000  0.34758000  1.0
  C  C55  1  0.03322000  0.75734000  0.39448000  1.0
  C  C56  1  0.99510000  0.73082000  0.43704000  1.0
  C  C57  1  0.84257000  0.48022000  0.28522000  1.0
  C  C58  1  0.89054000  0.47734000  0.24419000  1.0
  C  C59  1  0.93349000  0.52265000  0.25545000  1.0
  C  C60  1  0.78065000  0.62575000  0.51956000  1.0
  C  C61  1  0.73400000  0.58121000  0.52916000  1.0
  C  C62  1  0.74323000  0.54192000  0.48664000  1.0
  C  C63  1  0.50424000  0.26432000  0.84414000  1.0
  C  C64  1  0.47659000  0.22952000  0.88867000  1.0
  C  C65  1  0.50673000  0.24820000  0.93550000  1.0
  C  C66  1  0.62771000  0.54308000  0.81683000  1.0
  C  C67  1  0.62324000  0.53781000  0.75995000  1.0
  C  C68  1  0.61495000  0.47501000  0.75469000  1.0
  C  C69  1  0.70667000  0.35457000  0.04091000  1.0
  C  C70  1  0.73831000  0.40709000  0.05455000  1.0
  C  C71  1  0.71414000  0.45456000  0.01755000  1.0
  N  N72  1  0.63703000  0.62479000  0.63620000  1.0
  N  N73  1  0.86035000  0.37575000  0.14786000  1.0
  N  N74  1  0.37477000  0.12295000  0.84689000  1.0
  N  N75  1  0.13360000  0.87806000  0.36735000  1.0
  N  N76  1  0.05817000  0.21130000  0.08099000  1.0
  N  N77  1  0.05075000  0.19737000  0.13696000  1.0
  N  N78  1  0.12108000  0.04937000  0.19414000  1.0
  N  N79  1  0.13869000  0.00774000  0.15635000  1.0
  N  N80  1  0.19360000  0.06651000  0.01907000  1.0
  N  N81  1  0.17983000  0.12737000  0.00191000  1.0
  N  N82  1  0.48120000  0.83768000  0.58105000  1.0
  N  N83  1  0.48495000  0.83515000  0.63784000  1.0
  N  N84  1  0.38018000  0.94909000  0.70239000  1.0
  N  N85  1  0.31723000  0.96009000  0.68593000  1.0
  N  N86  1  0.28141000  0.91669000  0.54637000  1.0
  N  N87  1  0.33630000  0.90868000  0.51455000  1.0
  N  N88  1  0.95814000  0.68900000  0.41679000  1.0
  N  N89  1  0.97301000  0.68580000  0.36177000  1.0
  N  N90  1  0.91207000  0.55134000  0.29918000  1.0
  N  N91  1  0.85648000  0.52408000  0.31842000  1.0
  N  N92  1  0.79115000  0.56238000  0.45344000  1.0
  N  N93  1  0.81504000  0.61353000  0.47463000  1.0
  N  N94  1  0.55011000  0.29018000  0.92002000  1.0
  N  N95  1  0.54784000  0.30089000  0.86347000  1.0
  N  N96  1  0.61441000  0.44542000  0.80512000  1.0
  N  N97  1  0.62355000  0.48748000  0.84352000  1.0
  N  N98  1  0.67221000  0.43193000  0.98362000  1.0
  N  N99  1  0.66685000  0.37019000  0.99872000  1.0
  N  N100  1  0.91461000  0.33858000  0.15356000  1.0
  N  N101  1  0.93126000  0.31863000  0.10759000  1.0
  N  N102  1  0.59971000  0.67558000  0.64646000  1.0
  N  N103  1  0.58895000  0.70877000  0.60218000  1.0
  N  N104  1  0.08768000  0.83676000  0.35999000  1.0
  N  N105  1  0.07850000  0.80071000  0.40236000  1.0
  N  N106  1  0.42493000  0.16080000  0.84570000  1.0
  N  N107  1  0.42903000  0.18672000  0.89048000  1.0
  N  N108  1  0.14516000  0.92328000  0.32663000  1.0
  N  N109  1  0.13388000  0.90748000  0.27879000  1.0
  N  N110  1  0.64211000  0.57522000  0.67406000  1.0
  N  N111  1  0.62325000  0.58781000  0.72163000  1.0
  N  N112  1  0.37661000  0.08626000  0.80453000  1.0
  N  N113  1  0.32533000  0.05873000  0.79667000  1.0
  N  N114  1  0.84750000  0.41911000  0.18441000  1.0
  N  N115  1  0.89951000  0.43976000  0.20143000  1.0
  N  N116  1  0.32316000  0.13399000  0.88401000  1.0
  N  N117  1  0.30709000  0.08466000  0.90977000  1.0
  N  N118  1  0.67461000  0.62703000  0.58944000  1.0
  N  N119  1  0.68822000  0.57550000  0.57111000  1.0
  N  N120  1  0.81713000  0.36638000  0.10769000  1.0
  N  N121  1  0.78572000  0.41564000  0.09242000  1.0
  N  N122  1  0.16205000  0.88178000  0.41784000  1.0
  N  N123  1  0.21865000  0.90101000  0.41107000  1.0
