# generated using pymatgen
data_H4PbC10N3O4
_symmetry_space_group_name_H-M   'P 1'
_cell_length_a   16.23217900
_cell_length_b   16.23380000
_cell_length_c   16.23480000
_cell_angle_alpha   93.33850000
_cell_angle_beta   118.08717001
_cell_angle_gamma   118.08673676
_symmetry_Int_Tables_number   1
_chemical_formula_structural   H4PbC10N3O4
_chemical_formula_sum   'H32 Pb8 C80 N24 O32'
_cell_volume   3106.99861397
_cell_formula_units_Z   8
loop_
 _symmetry_equiv_pos_site_id
 _symmetry_equiv_pos_as_xyz
  1  'x, y, z'
loop_
 _atom_site_type_symbol
 _atom_site_label
 _atom_site_symmetry_multiplicity
 _atom_site_fract_x
 _atom_site_fract_y
 _atom_site_fract_z
 _atom_site_occupancy
  H  H0  1  0.24244000  0.28267000  0.80839000  1.0
  H  H1  1  0.97437000  0.54024000  0.78272000  1.0
  H  H2  1  0.25748000  0.06597000  0.04041000  1.0
  H  H3  1  0.52575000  0.30858000  0.56600000  1.0
  H  H4  1  0.75748000  0.71737000  0.19154000  1.0
  H  H5  1  0.02565000  0.45974000  0.21729000  1.0
  H  H6  1  0.74260000  0.93404000  0.95974000  1.0
  H  H7  1  0.47423000  0.69142000  0.43397000  1.0
  H  H8  1  0.14804000  0.10870000  0.70589000  1.0
  H  H9  1  0.90295000  0.46074000  0.60877000  1.0
  H  H10  1  0.35195000  0.05800000  0.96084000  1.0
  H  H11  1  0.59736000  0.20616000  0.55799000  1.0
  H  H12  1  0.85182000  0.89133000  0.29400000  1.0
  H  H13  1  0.09714000  0.53933000  0.39125000  1.0
  H  H14  1  0.64818000  0.94204000  0.03935000  1.0
  H  H15  1  0.40258000  0.79379000  0.44201000  1.0
  H  H16  1  0.18194000  0.07732000  0.57284000  1.0
  H  H17  1  0.00462000  0.39546000  0.57735000  1.0
  H  H18  1  0.31814000  0.89113000  0.89545000  1.0
  H  H19  1  0.49577000  0.07304000  0.39113000  1.0
  H  H20  1  0.81799000  0.92272000  0.42711000  1.0
  H  H21  1  0.99548000  0.60465000  0.42266000  1.0
  H  H22  1  0.68195000  0.10892000  0.10466000  1.0
  H  H23  1  0.50413000  0.92689000  0.60887000  1.0
  H  H24  1  0.31441000  0.22535000  0.55547000  1.0
  H  H25  1  0.16997000  0.41093000  0.72536000  1.0
  H  H26  1  0.18563000  0.74118000  0.91090000  1.0
  H  H27  1  0.33030000  0.05558000  0.24124000  1.0
  H  H28  1  0.68557000  0.77468000  0.44452000  1.0
  H  H29  1  0.83009000  0.58911000  0.27462000  1.0
  H  H30  1  0.81441000  0.25883000  0.08913000  1.0
  H  H31  1  0.66963000  0.94437000  0.75875000  1.0
  Pb  Pb32  1  0.30948000  0.47132000  0.98013000  1.0
  Pb  Pb33  1  0.99121000  0.66191000  0.97134000  1.0
  Pb  Pb34  1  0.19057000  0.17070000  0.16197000  1.0
  Pb  Pb35  1  0.50878000  0.48019000  0.67066000  1.0
  Pb  Pb36  1  0.69053000  0.52865000  0.01984000  1.0
  Pb  Pb37  1  0.00876000  0.33803000  0.02865000  1.0
  Pb  Pb38  1  0.80944000  0.82929000  0.83802000  1.0
  Pb  Pb39  1  0.49127000  0.51985000  0.32933000  1.0
  C  C40  1  0.50853000  0.67058000  0.99339000  1.0
  C  C41  1  0.17723000  0.66205000  0.17060000  1.0
  C  C42  1  0.99141000  0.98487000  0.16216000  1.0
  C  C43  1  0.32271000  0.49345000  0.48486000  1.0
  C  C44  1  0.49148000  0.32943000  0.00662000  1.0
  C  C45  1  0.82275000  0.33789000  0.82939000  1.0
  C  C46  1  0.00857000  0.01513000  0.83784000  1.0
  C  C47  1  0.67729000  0.50657000  0.51511000  1.0
  C  C48  1  0.47801000  0.59672000  0.90830000  1.0
  C  C49  1  0.18842000  0.61863000  0.09674000  1.0
  C  C50  1  0.02187000  0.93024000  0.11876000  1.0
  C  C51  1  0.31149000  0.40834000  0.43028000  1.0
  C  C52  1  0.52204000  0.40332000  0.09172000  1.0
  C  C53  1  0.81154000  0.38128000  0.90326000  1.0
  C  C54  1  0.97808000  0.06972000  0.88123000  1.0
  C  C55  1  0.68855000  0.59171000  0.56969000  1.0
  C  C56  1  0.52205000  0.61140000  0.84948000  1.0
  C  C57  1  0.26190000  0.58923000  0.11144000  1.0
  C  C58  1  0.97773000  0.82737000  0.08930000  1.0
  C  C59  1  0.23805000  0.34958000  0.32744000  1.0
  C  C60  1  0.47803000  0.38863000  0.15054000  1.0
  C  C61  1  0.73807000  0.41068000  0.88857000  1.0
  C  C62  1  0.02223000  0.17260000  0.91069000  1.0
  C  C63  1  0.76197000  0.65045000  0.67252000  1.0
  C  C64  1  0.39222000  0.45262000  0.79591000  1.0
  C  C65  1  0.15674000  0.56034000  0.95265000  1.0
  C  C66  1  0.10764000  0.90363000  0.06042000  1.0
  C  C67  1  0.34326000  0.29598000  0.40371000  1.0
  C  C68  1  0.60782000  0.54742000  0.20409000  1.0
  C  C69  1  0.84324000  0.43959000  0.04735000  1.0
  C  C70  1  0.89231000  0.09632000  0.93957000  1.0
  C  C71  1  0.65673000  0.70403000  0.59625000  1.0
  C  C72  1  0.61767000  0.69564000  0.85304000  1.0
  C  C73  1  0.34254000  0.57778000  0.19566000  1.0
  C  C74  1  0.88204000  0.73532000  0.07785000  1.0
  C  C75  1  0.15740000  0.35318000  0.23540000  1.0
  C  C76  1  0.38242000  0.30439000  0.14702000  1.0
  C  C77  1  0.65746000  0.42215000  0.80436000  1.0
  C  C78  1  0.11789000  0.26466000  0.92212000  1.0
  C  C79  1  0.84261000  0.64686000  0.76457000  1.0
  C  C80  1  0.32839000  0.34687000  0.73654000  1.0
  C  C81  1  0.11038000  0.51845000  0.84692000  1.0
  C  C82  1  0.17152000  0.90815000  0.01854000  1.0
  C  C83  1  0.38970000  0.23665000  0.40822000  1.0
  C  C84  1  0.67162000  0.65317000  0.26343000  1.0
  C  C85  1  0.88963000  0.48153000  0.15310000  1.0
  C  C86  1  0.82845000  0.09182000  0.98148000  1.0
  C  C87  1  0.61026000  0.76333000  0.59173000  1.0
  C  C88  1  0.25600000  0.26824000  0.75117000  1.0
  C  C89  1  0.01717000  0.51225000  0.76829000  1.0
  C  C90  1  0.24393000  0.99519000  0.01236000  1.0
  C  C91  1  0.48298000  0.25134000  0.49524000  1.0
  C  C92  1  0.74395000  0.73180000  0.24878000  1.0
  C  C93  1  0.98287000  0.48775000  0.23172000  1.0
  C  C94  1  0.75611000  0.00480000  0.98773000  1.0
  C  C95  1  0.51699000  0.74865000  0.50473000  1.0
  C  C96  1  0.20274000  0.16998000  0.69288000  1.0
  C  C97  1  0.97721000  0.46729000  0.67003000  1.0
  C  C98  1  0.29725000  0.99025000  0.96736000  1.0
  C  C99  1  0.52303000  0.19307000  0.49027000  1.0
  C  C100  1  0.79719000  0.83005000  0.30705000  1.0
  C  C101  1  0.02286000  0.53277000  0.32999000  1.0
  C  C102  1  0.70282000  0.00978000  0.03276000  1.0
  C  C103  1  0.47691000  0.80689000  0.50972000  1.0
  C  C104  1  0.22203000  0.15274000  0.62045000  1.0
  C  C105  1  0.03240000  0.43077000  0.65278000  1.0
  C  C106  1  0.27801000  0.89858000  0.93079000  1.0
  C  C107  1  0.46790000  0.12064000  0.39861000  1.0
  C  C108  1  0.77793000  0.84730000  0.37950000  1.0
  C  C109  1  0.96766000  0.56930000  0.34721000  1.0
  C  C110  1  0.72206000  0.10145000  0.06931000  1.0
  C  C111  1  0.53201000  0.87930000  0.60137000  1.0
  C  C112  1  0.29580000  0.23488000  0.61036000  1.0
  C  C113  1  0.12460000  0.43909000  0.73492000  1.0
  C  C114  1  0.20421000  0.81467000  0.93910000  1.0
  C  C115  1  0.37564000  0.11050000  0.31472000  1.0
  C  C116  1  0.70417000  0.76514000  0.38960000  1.0
  C  C117  1  0.87544000  0.56095000  0.26508000  1.0
  C  C118  1  0.79582000  0.18534000  0.06096000  1.0
  C  C119  1  0.62430000  0.88945000  0.68526000  1.0
  N  N120  1  0.39624000  0.49588000  0.87319000  1.0
  N  N121  1  0.12275000  0.59960000  0.99593000  1.0
  N  N122  1  0.10368000  0.97690000  0.09975000  1.0
  N  N123  1  0.37723000  0.37325000  0.47696000  1.0
  N  N124  1  0.60376000  0.50414000  0.12679000  1.0
  N  N125  1  0.87725000  0.40032000  0.00409000  1.0
  N  N126  1  0.89628000  0.02305000  0.90025000  1.0
  N  N127  1  0.62280000  0.62679000  0.52302000  1.0
  N  N128  1  0.46561000  0.52061000  0.77997000  1.0
  N  N129  1  0.24065000  0.55491000  0.02064000  1.0
  N  N130  1  0.03417000  0.81428000  0.05492000  1.0
  N  N131  1  0.25936000  0.28006000  0.31437000  1.0
  N  N132  1  0.53446000  0.47942000  0.22006000  1.0
  N  N133  1  0.75934000  0.44504000  0.97937000  1.0
  N  N134  1  0.96579000  0.18568000  0.94507000  1.0
  N  N135  1  0.74063000  0.71995000  0.68558000  1.0
  N  N136  1  0.34821000  0.32939000  0.66693000  1.0
  N  N137  1  0.16252000  0.48114000  0.82943000  1.0
  N  N138  1  0.15176000  0.81876000  0.98119000  1.0
  N  N139  1  0.33762000  0.16702000  0.31883000  1.0
  N  N140  1  0.65180000  0.67064000  0.33306000  1.0
  N  N141  1  0.83751000  0.51885000  0.17059000  1.0
  N  N142  1  0.84823000  0.18123000  0.01882000  1.0
  N  N143  1  0.66234000  0.83295000  0.68115000  1.0
  O  O144  1  0.46195000  0.63815000  0.04170000  1.0
  O  O145  1  0.09656000  0.67629000  0.13819000  1.0
  O  O146  1  0.03806000  0.07976000  0.17636000  1.0
  O  O147  1  0.40347000  0.54175000  0.57974000  1.0
  O  O148  1  0.53802000  0.36185000  0.95827000  1.0
  O  O149  1  0.90348000  0.32370000  0.86183000  1.0
  O  O150  1  0.96193000  0.92022000  0.82363000  1.0
  O  O151  1  0.59648000  0.45825000  0.42024000  1.0
  O  O152  1  0.57706000  0.76206000  0.01840000  1.0
  O  O153  1  0.24370000  0.68497000  0.26209000  1.0
  O  O154  1  0.92283000  0.94134000  0.18508000  1.0
  O  O155  1  0.25623000  0.51847000  0.44134000  1.0
  O  O156  1  0.42295000  0.23796000  0.98161000  1.0
  O  O157  1  0.75630000  0.31497000  0.73792000  1.0
  O  O158  1  0.07713000  0.05866000  0.81490000  1.0
  O  O159  1  0.74377000  0.48155000  0.55860000  1.0
  O  O160  1  0.67523000  0.78427000  0.91110000  1.0
  O  O161  1  0.37296000  0.60872000  0.28426000  1.0
  O  O162  1  0.82434000  0.73580000  0.10877000  1.0
  O  O163  1  0.12680000  0.41122000  0.23587000  1.0
  O  O164  1  0.32490000  0.21576000  0.08899000  1.0
  O  O165  1  0.62700000  0.39118000  0.71575000  1.0
  O  O166  1  0.17557000  0.26418000  0.89117000  1.0
  O  O167  1  0.87321000  0.58882000  0.76409000  1.0
  O  O168  1  0.63862000  0.66847000  0.79240000  1.0
  O  O169  1  0.37612000  0.52978000  0.16850000  1.0
  O  O170  1  0.86119000  0.65374000  0.02980000  1.0
  O  O171  1  0.12398000  0.29253000  0.15383000  1.0
  O  O172  1  0.36146000  0.33158000  0.20766000  1.0
  O  O173  1  0.62390000  0.47020000  0.83152000  1.0
  O  O174  1  0.13874000  0.34622000  0.97016000  1.0
  O  O175  1  0.87600000  0.70747000  0.84614000  1.0
