# generated using pymatgen
data_AgH11C7SBrN2
_symmetry_space_group_name_H-M   'P 1'
_cell_length_a   6.65358000
_cell_length_b   10.78450000
_cell_length_c   14.20090000
_cell_angle_alpha   90.00030000
_cell_angle_beta   90.00060000
_cell_angle_gamma   75.56600000
_symmetry_Int_Tables_number   1
_chemical_formula_structural   AgH11C7SBrN2
_chemical_formula_sum   'Ag4 H44 C28 S4 Br4 N8'
_cell_volume   986.82905973
_cell_formula_units_Z   4
loop_
 _symmetry_equiv_pos_site_id
 _symmetry_equiv_pos_as_xyz
  1  'x, y, z'
loop_
 _atom_site_type_symbol
 _atom_site_label
 _atom_site_symmetry_multiplicity
 _atom_site_fract_x
 _atom_site_fract_y
 _atom_site_fract_z
 _atom_site_occupancy
  Ag  Ag0  1  0.25703000  0.99469000  0.97877000  1.0
  Ag  Ag1  1  0.24296000  0.50530000  0.47878000  1.0
  Ag  Ag2  1  0.74297000  0.00530000  0.02122000  1.0
  Ag  Ag3  1  0.75704000  0.49470000  0.52123000  1.0
  H  H4  1  0.86929000  0.35289000  0.25243000  1.0
  H  H5  1  0.63071000  0.14711000  0.75241000  1.0
  H  H6  1  0.13071000  0.64712000  0.74758000  1.0
  H  H7  1  0.36931000  0.85289000  0.24758000  1.0
  H  H8  1  0.22232000  0.25015000  0.35610000  1.0
  H  H9  1  0.27771000  0.24986000  0.85609000  1.0
  H  H10  1  0.77768000  0.74986000  0.64391000  1.0
  H  H11  1  0.72232000  0.75014000  0.14390000  1.0
  H  H12  1  0.92388000  0.23998000  0.01990000  1.0
  H  H13  1  0.57612000  0.26002000  0.51989000  1.0
  H  H14  1  0.07611000  0.76002000  0.98011000  1.0
  H  H15  1  0.42389000  0.73998000  0.48010000  1.0
  H  H16  1  0.03073000  0.37281000  0.00259000  1.0
  H  H17  1  0.46926000  0.12719000  0.50258000  1.0
  H  H18  1  0.96925000  0.62719000  0.99742000  1.0
  H  H19  1  0.53074000  0.87281000  0.49741000  1.0
  H  H20  1  0.75956000  0.50236000  0.11620000  1.0
  H  H21  1  0.74042000  0.99765000  0.61620000  1.0
  H  H22  1  0.24042000  0.49765000  0.88380000  1.0
  H  H23  1  0.25957000  0.00236000  0.38380000  1.0
  H  H24  1  0.64982000  0.36988000  0.12517000  1.0
  H  H25  1  0.85017000  0.13012000  0.62517000  1.0
  H  H26  1  0.35017000  0.63012000  0.87484000  1.0
  H  H27  1  0.14983000  0.86988000  0.37483000  1.0
  H  H28  1  0.60081000  0.37564000  0.94767000  1.0
  H  H29  1  0.89918000  0.12436000  0.44767000  1.0
  H  H30  1  0.39917000  0.62436000  0.05234000  1.0
  H  H31  1  0.10083000  0.87564000  0.55233000  1.0
  H  H32  1  0.68801000  0.51789000  0.94414000  1.0
  H  H33  1  0.81198000  0.98210000  0.44413000  1.0
  H  H34  1  0.31197000  0.48211000  0.05587000  1.0
  H  H35  1  0.18802000  0.01789000  0.55587000  1.0
  H  H36  1  0.58480000  0.03712000  0.24873000  1.0
  H  H37  1  0.91520000  0.46288000  0.74873000  1.0
  H  H38  1  0.41519000  0.96288000  0.75127000  1.0
  H  H39  1  0.08482000  0.53712000  0.25127000  1.0
  H  H40  1  0.60285000  0.17849000  0.31297000  1.0
  H  H41  1  0.89716000  0.32150000  0.81296000  1.0
  H  H42  1  0.39714000  0.82150000  0.68704000  1.0
  H  H43  1  0.10286000  0.67849000  0.18704000  1.0
  H  H44  1  0.67876000  0.15817000  0.19244000  1.0
  H  H45  1  0.82125000  0.34183000  0.69243000  1.0
  H  H46  1  0.32124000  0.84183000  0.80757000  1.0
  H  H47  1  0.17877000  0.65817000  0.30756000  1.0
  C  C48  1  0.28622000  0.22755000  0.12789000  1.0
  C  C49  1  0.21378000  0.27245000  0.62788000  1.0
  C  C50  1  0.71376000  0.77245000  0.87212000  1.0
  C  C51  1  0.78623000  0.72755000  0.37211000  1.0
  C  C52  1  0.02513000  0.30623000  0.22908000  1.0
  C  C53  1  0.47487000  0.19378000  0.72907000  1.0
  C  C54  1  0.97485000  0.69379000  0.77093000  1.0
  C  C55  1  0.52512000  0.80623000  0.27092000  1.0
  C  C56  1  0.19858000  0.25428000  0.28056000  1.0
  C  C57  1  0.30143000  0.24573000  0.78055000  1.0
  C  C58  1  0.80142000  0.74572000  0.71943000  1.0
  C  C59  1  0.69860000  0.75427000  0.21944000  1.0
  C  C60  1  0.94558000  0.32802000  0.05347000  1.0
  C  C61  1  0.55442000  0.17197000  0.55346000  1.0
  C  C62  1  0.05440000  0.67198000  0.94654000  1.0
  C  C63  1  0.44560000  0.82803000  0.44653000  1.0
  C  C64  1  0.73736000  0.41800000  0.07776000  1.0
  C  C65  1  0.76263000  0.08200000  0.57775000  1.0
  C  C66  1  0.26263000  0.58200000  0.92225000  1.0
  C  C67  1  0.23737000  0.91800000  0.42224000  1.0
  C  C68  1  0.60955000  0.46070000  0.98889000  1.0
  C  C69  1  0.89044000  0.03929000  0.48888000  1.0
  C  C70  1  0.39043000  0.53930000  0.01112000  1.0
  C  C71  1  0.10957000  0.96070000  0.51112000  1.0
  C  C72  1  0.56842000  0.14085000  0.24486000  1.0
  C  C73  1  0.93159000  0.35914000  0.74486000  1.0
  C  C74  1  0.43159000  0.85914000  0.75514000  1.0
  C  C75  1  0.06843000  0.64086000  0.25514000  1.0
  S  S76  1  0.41495000  0.18734000  0.02432000  1.0
  S  S77  1  0.08503000  0.31265000  0.52432000  1.0
  S  S78  1  0.58503000  0.81265000  0.97568000  1.0
  S  S79  1  0.91497000  0.68735000  0.47568000  1.0
  Br  Br80  1  0.05758000  0.95615000  0.14326000  1.0
  Br  Br81  1  0.44245000  0.54382000  0.64328000  1.0
  Br  Br82  1  0.94245000  0.04382000  0.85672000  1.0
  Br  Br83  1  0.55754000  0.45618000  0.35674000  1.0
  N  N84  1  0.08112000  0.29054000  0.13510000  1.0
  N  N85  1  0.41887000  0.20946000  0.63509000  1.0
  N  N86  1  0.91888000  0.70946000  0.86490000  1.0
  N  N87  1  0.58114000  0.79054000  0.36490000  1.0
  N  N88  1  0.35831000  0.20667000  0.21789000  1.0
  N  N89  1  0.14169000  0.29334000  0.71788000  1.0
  N  N90  1  0.64167000  0.79334000  0.78211000  1.0
  N  N91  1  0.85832000  0.70667000  0.28211000  1.0
