# generated using pymatgen
data_InPH6C6NO5
_symmetry_space_group_name_H-M   'P 1'
_cell_length_a   6.69799000
_cell_length_b   10.46060000
_cell_length_c   13.82000000
_cell_angle_alpha   73.33900000
_cell_angle_beta   89.99960000
_cell_angle_gamma   89.99920000
_symmetry_Int_Tables_number   1
_chemical_formula_structural   InPH6C6NO5
_chemical_formula_sum   'In4 P4 H24 C24 N4 O20'
_cell_volume   927.64700087
_cell_formula_units_Z   4
loop_
 _symmetry_equiv_pos_site_id
 _symmetry_equiv_pos_as_xyz
  1  'x, y, z'
loop_
 _atom_site_type_symbol
 _atom_site_label
 _atom_site_symmetry_multiplicity
 _atom_site_fract_x
 _atom_site_fract_y
 _atom_site_fract_z
 _atom_site_occupancy
  In  In0  1  0.44908000  0.92403000  0.71740000  1.0
  In  In1  1  0.94907000  0.57597000  0.78260000  1.0
  In  In2  1  0.55094000  0.07598000  0.28260000  1.0
  In  In3  1  0.05093000  0.42402000  0.21740000  1.0
  P  P4  1  0.93584000  0.90405000  0.66939000  1.0
  P  P5  1  0.43583000  0.59595000  0.83060000  1.0
  P  P6  1  0.06417000  0.09595000  0.33061000  1.0
  P  P7  1  0.56417000  0.40405000  0.16939000  1.0
  H  H8  1  0.90379000  0.97579000  0.56708000  1.0
  H  H9  1  0.40380000  0.52421000  0.93293000  1.0
  H  H10  1  0.09620000  0.02420000  0.43293000  1.0
  H  H11  1  0.59620000  0.47580000  0.06707000  1.0
  H  H12  1  0.19489000  0.35170000  0.72798000  1.0
  H  H13  1  0.69488000  0.14830000  0.77201000  1.0
  H  H14  1  0.80511000  0.64830000  0.27201000  1.0
  H  H15  1  0.30512000  0.85170000  0.22799000  1.0
  H  H16  1  0.65540000  0.53191000  0.62399000  1.0
  H  H17  1  0.15539000  0.96810000  0.87601000  1.0
  H  H18  1  0.34460000  0.46810000  0.37601000  1.0
  H  H19  1  0.84461000  0.03191000  0.12398000  1.0
  H  H20  1  0.18322000  0.21109000  0.60760000  1.0
  H  H21  1  0.68321000  0.28891000  0.89240000  1.0
  H  H22  1  0.81677000  0.78891000  0.39240000  1.0
  H  H23  1  0.31678000  0.71109000  0.10761000  1.0
  H  H24  1  0.89346000  0.24109000  0.48713000  1.0
  H  H25  1  0.39346000  0.25891000  0.01287000  1.0
  H  H26  1  0.10653000  0.75892000  0.51287000  1.0
  H  H27  1  0.60654000  0.74109000  0.98713000  1.0
  H  H28  1  0.62261000  0.40007000  0.49695000  1.0
  H  H29  1  0.12261000  0.09993000  0.00306000  1.0
  H  H30  1  0.37739000  0.59994000  0.50305000  1.0
  H  H31  1  0.87739000  0.90006000  0.99695000  1.0
  C  C32  1  0.07072000  0.35720000  0.67597000  1.0
  C  C33  1  0.57072000  0.14279000  0.82402000  1.0
  C  C34  1  0.92927000  0.64280000  0.32402000  1.0
  C  C35  1  0.42928000  0.85721000  0.17598000  1.0
  C  C36  1  0.76768000  0.45987000  0.61641000  1.0
  C  C37  1  0.26768000  0.04013000  0.88359000  1.0
  C  C38  1  0.23231000  0.54013000  0.38359000  1.0
  C  C39  1  0.73232000  0.95988000  0.11641000  1.0
  C  C40  1  0.06326000  0.28088000  0.60863000  1.0
  C  C41  1  0.56326000  0.21912000  0.89137000  1.0
  C  C42  1  0.93673000  0.71913000  0.39137000  1.0
  C  C43  1  0.43674000  0.78088000  0.10864000  1.0
  C  C44  1  0.90121000  0.29649000  0.54276000  1.0
  C  C45  1  0.40121000  0.20351000  0.95724000  1.0
  C  C46  1  0.09878000  0.70352000  0.45724000  1.0
  C  C47  1  0.59878000  0.79649000  0.04276000  1.0
  C  C48  1  0.75095000  0.38692000  0.54712000  1.0
  C  C49  1  0.25095000  0.11307000  0.95289000  1.0
  C  C50  1  0.24904000  0.61308000  0.45288000  1.0
  C  C51  1  0.74905000  0.88692000  0.04711000  1.0
  C  C52  1  0.49874000  0.92437000  0.50172000  1.0
  C  C53  1  0.99873000  0.57563000  0.99828000  1.0
  C  C54  1  0.50127000  0.07562000  0.49827000  1.0
  C  C55  1  0.00127000  0.42437000  0.00173000  1.0
  N  N56  1  0.92549000  0.44515000  0.67927000  1.0
  N  N57  1  0.42549000  0.05485000  0.82073000  1.0
  N  N58  1  0.07450000  0.55485000  0.32073000  1.0
  N  N59  1  0.57451000  0.94515000  0.17927000  1.0
  O  O60  1  0.93498000  0.75785000  0.66708000  1.0
  O  O61  1  0.43498000  0.74215000  0.83292000  1.0
  O  O62  1  0.06502000  0.24215000  0.33293000  1.0
  O  O63  1  0.56502000  0.25785000  0.16707000  1.0
  O  O64  1  0.13441000  0.95214000  0.70043000  1.0
  O  O65  1  0.63440000  0.54786000  0.79956000  1.0
  O  O66  1  0.86561000  0.04786000  0.29956000  1.0
  O  O67  1  0.36560000  0.45214000  0.20044000  1.0
  O  O68  1  0.76613000  0.93949000  0.73167000  1.0
  O  O69  1  0.26613000  0.56051000  0.76833000  1.0
  O  O70  1  0.23388000  0.06051000  0.26833000  1.0
  O  O71  1  0.73387000  0.43949000  0.23167000  1.0
  O  O72  1  0.47151000  0.83892000  0.58665000  1.0
  O  O73  1  0.97148000  0.66107000  0.91335000  1.0
  O  O74  1  0.52852000  0.16107000  0.41334000  1.0
  O  O75  1  0.02852000  0.33892000  0.08666000  1.0
  O  O76  1  0.52360000  0.89611000  0.41946000  1.0
  O  O77  1  0.02359000  0.60389000  0.08053000  1.0
  O  O78  1  0.47641000  0.10388000  0.58053000  1.0
  O  O79  1  0.97641000  0.39611000  0.91947000  1.0
