# generated using pymatgen
data_CuH5C4IN
_symmetry_space_group_name_H-M   'P 1'
_cell_length_a   4.14136000
_cell_length_b   15.83950000
_cell_length_c   16.80700000
_cell_angle_alpha   89.99970000
_cell_angle_beta   89.99970000
_cell_angle_gamma   89.99980000
_symmetry_Int_Tables_number   1
_chemical_formula_structural   CuH5C4IN
_chemical_formula_sum   'Cu8 H40 C32 I8 N8'
_cell_volume   1102.48998436
_cell_formula_units_Z   8
loop_
 _symmetry_equiv_pos_site_id
 _symmetry_equiv_pos_as_xyz
  1  'x, y, z'
loop_
 _atom_site_type_symbol
 _atom_site_label
 _atom_site_symmetry_multiplicity
 _atom_site_fract_x
 _atom_site_fract_y
 _atom_site_fract_z
 _atom_site_occupancy
  Cu  Cu0  1  0.95567000  0.70464000  0.45297000  1.0
  Cu  Cu1  1  0.54432000  0.79535000  0.95297000  1.0
  Cu  Cu2  1  0.45569000  0.79535000  0.54703000  1.0
  Cu  Cu3  1  0.04431000  0.70465000  0.04703000  1.0
  Cu  Cu4  1  0.04432000  0.29536000  0.54703000  1.0
  Cu  Cu5  1  0.45568000  0.20465000  0.04703000  1.0
  Cu  Cu6  1  0.54432000  0.20465000  0.45297000  1.0
  Cu  Cu7  1  0.95567000  0.29535000  0.95297000  1.0
  H  H8  1  0.97928000  0.82411000  0.32465000  1.0
  H  H9  1  0.52075000  0.67589000  0.82465000  1.0
  H  H10  1  0.47929000  0.67589000  0.67535000  1.0
  H  H11  1  0.02073000  0.82411000  0.17535000  1.0
  H  H12  1  0.02071000  0.17590000  0.67535000  1.0
  H  H13  1  0.47928000  0.32410000  0.17535000  1.0
  H  H14  1  0.52074000  0.32411000  0.32465000  1.0
  H  H15  1  0.97925000  0.17589000  0.82465000  1.0
  H  H16  1  0.70325000  0.53247000  0.35753000  1.0
  H  H17  1  0.79675000  0.96753000  0.85752000  1.0
  H  H18  1  0.20325000  0.96753000  0.64247000  1.0
  H  H19  1  0.29675000  0.53247000  0.14248000  1.0
  H  H20  1  0.29676000  0.46753000  0.64248000  1.0
  H  H21  1  0.20324000  0.03247000  0.14248000  1.0
  H  H22  1  0.79674000  0.03247000  0.35753000  1.0
  H  H23  1  0.70325000  0.46753000  0.85752000  1.0
  H  H24  1  0.09319000  0.54606000  0.39402000  1.0
  H  H25  1  0.40681000  0.95394000  0.89402000  1.0
  H  H26  1  0.59320000  0.95394000  0.60598000  1.0
  H  H27  1  0.90681000  0.54606000  0.10598000  1.0
  H  H28  1  0.90682000  0.45394000  0.60598000  1.0
  H  H29  1  0.59319000  0.04606000  0.10598000  1.0
  H  H30  1  0.40680000  0.04606000  0.39402000  1.0
  H  H31  1  0.09319000  0.45394000  0.89402000  1.0
  H  H32  1  0.98869000  0.40425000  0.32530000  1.0
  H  H33  1  0.51130000  0.09575000  0.82530000  1.0
  H  H34  1  0.48869000  0.09575000  0.67470000  1.0
  H  H35  1  0.01131000  0.40425000  0.17470000  1.0
  H  H36  1  0.01131000  0.59575000  0.67470000  1.0
  H  H37  1  0.48869000  0.90425000  0.17470000  1.0
  H  H38  1  0.51130000  0.90425000  0.32530000  1.0
  H  H39  1  0.98869000  0.59575000  0.82530000  1.0
  H  H40  1  0.33005000  0.45905000  0.29127000  1.0
  H  H41  1  0.16995000  0.04095000  0.79127000  1.0
  H  H42  1  0.83005000  0.04095000  0.70872000  1.0
  H  H43  1  0.66995000  0.45905000  0.20873000  1.0
  H  H44  1  0.66996000  0.54095000  0.70872000  1.0
  H  H45  1  0.83004000  0.95905000  0.20873000  1.0
  H  H46  1  0.16994000  0.95905000  0.29128000  1.0
  H  H47  1  0.33005000  0.54095000  0.79127000  1.0
  C  C48  1  0.98729000  0.76543000  0.29087000  1.0
  C  C49  1  0.51273000  0.73457000  0.79088000  1.0
  C  C50  1  0.48731000  0.73457000  0.70913000  1.0
  C  C51  1  0.01271000  0.76543000  0.20912000  1.0
  C  C52  1  0.01269000  0.23457000  0.70913000  1.0
  C  C53  1  0.48730000  0.26543000  0.20913000  1.0
  C  C54  1  0.51272000  0.26543000  0.29088000  1.0
  C  C55  1  0.98727000  0.23457000  0.79088000  1.0
  C  C56  1  0.98411000  0.61976000  0.29187000  1.0
  C  C57  1  0.51591000  0.88024000  0.79187000  1.0
  C  C58  1  0.48411000  0.88023000  0.70812000  1.0
  C  C59  1  0.01590000  0.61977000  0.20812000  1.0
  C  C60  1  0.01590000  0.38023000  0.70813000  1.0
  C  C61  1  0.48410000  0.11977000  0.20813000  1.0
  C  C62  1  0.51589000  0.11976000  0.29188000  1.0
  C  C63  1  0.98410000  0.38024000  0.79188000  1.0
  C  C64  1  0.95676000  0.53916000  0.33815000  1.0
  C  C65  1  0.54324000  0.96084000  0.83815000  1.0
  C  C66  1  0.45677000  0.96084000  0.66185000  1.0
  C  C67  1  0.04324000  0.53916000  0.16185000  1.0
  C  C68  1  0.04325000  0.46084000  0.66185000  1.0
  C  C69  1  0.45675000  0.03916000  0.16185000  1.0
  C  C70  1  0.54323000  0.03916000  0.33815000  1.0
  C  C71  1  0.95676000  0.46084000  0.83815000  1.0
  C  C72  1  0.06467000  0.46087000  0.29246000  1.0
  C  C73  1  0.43532000  0.03913000  0.79246000  1.0
  C  C74  1  0.56467000  0.03913000  0.70754000  1.0
  C  C75  1  0.93532000  0.46087000  0.20754000  1.0
  C  C76  1  0.93533000  0.53913000  0.70754000  1.0
  C  C77  1  0.56467000  0.96087000  0.20754000  1.0
  C  C78  1  0.43532000  0.96087000  0.29247000  1.0
  C  C79  1  0.06468000  0.53913000  0.79246000  1.0
  I  I80  1  0.95860000  0.87111000  0.48163000  1.0
  I  I81  1  0.54140000  0.62889000  0.98163000  1.0
  I  I82  1  0.45859000  0.62889000  0.51837000  1.0
  I  I83  1  0.04140000  0.87111000  0.01837000  1.0
  I  I84  1  0.04140000  0.12889000  0.51837000  1.0
  I  I85  1  0.45859000  0.37111000  0.01837000  1.0
  I  I86  1  0.54141000  0.37111000  0.48163000  1.0
  I  I87  1  0.95860000  0.12889000  0.98164000  1.0
  N  N88  1  0.97234000  0.69332000  0.33337000  1.0
  N  N89  1  0.52767000  0.80668000  0.83337000  1.0
  N  N90  1  0.47235000  0.80669000  0.66666667  1.0
  N  N91  1  0.02766000  0.69332000  0.16663000  1.0
  N  N92  1  0.02766000  0.30669000  0.66666667  1.0
  N  N93  1  0.47234000  0.19331000  0.16664000  1.0
  N  N94  1  0.52766000  0.19332000  0.33337000  1.0
  N  N95  1  0.97233000  0.30668000  0.83337000  1.0
