# generated using pymatgen
data_TbH11C17O6
_symmetry_space_group_name_H-M   'P 1'
_cell_length_a   6.74147000
_cell_length_b   12.84360000
_cell_length_c   17.10600000
_cell_angle_alpha   90.00000000
_cell_angle_beta   93.64740000
_cell_angle_gamma   90.00000000
_symmetry_Int_Tables_number   1
_chemical_formula_structural   TbH11C17O6
_chemical_formula_sum   'Tb4 H44 C68 O24'
_cell_volume   1478.11853954
_cell_formula_units_Z   4
loop_
 _symmetry_equiv_pos_site_id
 _symmetry_equiv_pos_as_xyz
  1  'x, y, z'
loop_
 _atom_site_type_symbol
 _atom_site_label
 _atom_site_symmetry_multiplicity
 _atom_site_fract_x
 _atom_site_fract_y
 _atom_site_fract_z
 _atom_site_occupancy
  Tb  Tb0  1  0.11477000  0.37233000  0.04743000  1.0
  Tb  Tb1  1  0.38523000  0.87233000  0.95257000  1.0
  Tb  Tb2  1  0.88523000  0.62767000  0.95257000  1.0
  Tb  Tb3  1  0.61477000  0.12767000  0.04743000  1.0
  H  H4  1  0.32172000  0.49949000  0.22406000  1.0
  H  H5  1  0.17828000  0.99949000  0.77594000  1.0
  H  H6  1  0.67829000  0.50051000  0.77594000  1.0
  H  H7  1  0.82172000  0.00051000  0.22406000  1.0
  H  H8  1  0.25559000  0.53223000  0.36322000  1.0
  H  H9  1  0.24441000  0.03222000  0.63678000  1.0
  H  H10  1  0.74441000  0.46778000  0.63678000  1.0
  H  H11  1  0.75559000  0.96777000  0.36322000  1.0
  H  H12  1  0.54616000  0.24291000  0.42911000  1.0
  H  H13  1  0.95383000  0.74291000  0.57089000  1.0
  H  H14  1  0.45383000  0.75709000  0.57089000  1.0
  H  H15  1  0.04616000  0.25709000  0.42911000  1.0
  H  H16  1  0.61296000  0.21280000  0.29032000  1.0
  H  H17  1  0.88703000  0.71280000  0.70968000  1.0
  H  H18  1  0.38703000  0.78720000  0.70968000  1.0
  H  H19  1  0.11296000  0.28720000  0.29032000  1.0
  H  H20  1  0.26570000  0.48482000  0.49336000  1.0
  H  H21  1  0.23429000  0.98482000  0.50664000  1.0
  H  H22  1  0.73429000  0.51518000  0.50664000  1.0
  H  H23  1  0.76570000  0.01518000  0.49336000  1.0
  H  H24  1  0.42153000  0.26687000  0.54083000  1.0
  H  H25  1  0.07846000  0.76687000  0.45917000  1.0
  H  H26  1  0.57847000  0.73313000  0.45917000  1.0
  H  H27  1  0.92153000  0.23313000  0.54083000  1.0
  H  H28  1  0.13890000  0.51218000  0.59471000  1.0
  H  H29  1  0.36110000  0.01218000  0.40529000  1.0
  H  H30  1  0.86110000  0.48782000  0.40529000  1.0
  H  H31  1  0.63890000  0.98782000  0.59471000  1.0
  H  H32  1  0.06216000  0.55378000  0.73027000  1.0
  H  H33  1  0.43784000  0.05378000  0.26973000  1.0
  H  H34  1  0.93785000  0.44622000  0.26973000  1.0
  H  H35  1  0.56216000  0.94622000  0.73027000  1.0
  H  H36  1  0.34383000  0.27132000  0.81297000  1.0
  H  H37  1  0.15618000  0.77132000  0.18703000  1.0
  H  H38  1  0.65618000  0.72868000  0.18703000  1.0
  H  H39  1  0.84383000  0.22868000  0.81297000  1.0
  H  H40  1  0.42780000  0.22871000  0.67702000  1.0
  H  H41  1  0.07220000  0.72871000  0.32298000  1.0
  H  H42  1  0.57220000  0.77129000  0.32298000  1.0
  H  H43  1  0.92780000  0.27129000  0.67702000  1.0
  H  H44  1  0.04964000  0.12952000  0.95259000  1.0
  H  H45  1  0.45037000  0.62951000  0.04741000  1.0
  H  H46  1  0.95036000  0.87049000  0.04741000  1.0
  H  H47  1  0.54964000  0.37048000  0.95259000  1.0
  C  C48  1  0.49425000  0.32698000  0.16480000  1.0
  C  C49  1  0.00575000  0.82697000  0.83520000  1.0
  C  C50  1  0.50575000  0.67302000  0.83520000  1.0
  C  C51  1  0.99425000  0.17302000  0.16480000  1.0
  C  C52  1  0.47052000  0.35339000  0.24856000  1.0
  C  C53  1  0.02948000  0.85338000  0.75144000  1.0
  C  C54  1  0.52948000  0.64661000  0.75144000  1.0
  C  C55  1  0.97052000  0.14661000  0.24856000  1.0
  C  C56  1  0.37147000  0.44418000  0.26940000  1.0
  C  C57  1  0.12853000  0.94417000  0.73060000  1.0
  C  C58  1  0.62854000  0.55583000  0.73060000  1.0
  C  C59  1  0.87147000  0.05583000  0.26940000  1.0
  C  C60  1  0.33390000  0.46185000  0.34717000  1.0
  C  C61  1  0.16610000  0.96184000  0.65283000  1.0
  C  C62  1  0.66610000  0.53815000  0.65283000  1.0
  C  C63  1  0.83390000  0.03815000  0.34717000  1.0
  C  C64  1  0.39083000  0.38910000  0.40620000  1.0
  C  C65  1  0.10917000  0.88909000  0.59380000  1.0
  C  C66  1  0.60917000  0.61090000  0.59380000  1.0
  C  C67  1  0.89083000  0.11090000  0.40620000  1.0
  C  C68  1  0.49623000  0.29979000  0.38482000  1.0
  C  C69  1  0.00376000  0.79979000  0.61518000  1.0
  C  C70  1  0.50376000  0.70021000  0.61518000  1.0
  C  C71  1  0.99623000  0.20021000  0.38482000  1.0
  C  C72  1  0.53520000  0.28259000  0.30730000  1.0
  C  C73  1  0.96479000  0.78259000  0.69270000  1.0
  C  C74  1  0.46480000  0.71741000  0.69270000  1.0
  C  C75  1  0.03520000  0.21741000  0.30730000  1.0
  C  C76  1  0.33311000  0.40849000  0.48526000  1.0
  C  C77  1  0.16688000  0.90849000  0.51474000  1.0
  C  C78  1  0.66688000  0.59151000  0.51474000  1.0
  C  C79  1  0.83311000  0.09151000  0.48526000  1.0
  C  C80  1  0.35198000  0.34303000  0.54745000  1.0
  C  C81  1  0.14801000  0.84303000  0.45255000  1.0
  C  C82  1  0.64801000  0.65697000  0.45255000  1.0
  C  C83  1  0.85198000  0.15697000  0.54745000  1.0
  C  C84  1  0.29197000  0.36733000  0.62559000  1.0
  C  C85  1  0.20802000  0.86733000  0.37441000  1.0
  C  C86  1  0.70803000  0.63267000  0.37441000  1.0
  C  C87  1  0.79198000  0.13267000  0.62559000  1.0
  C  C88  1  0.18514000  0.45848000  0.64173000  1.0
  C  C89  1  0.31486000  0.95848000  0.35827000  1.0
  C  C90  1  0.81486000  0.54152000  0.35827000  1.0
  C  C91  1  0.68514000  0.04152000  0.64173000  1.0
  C  C92  1  0.14088000  0.48253000  0.71741000  1.0
  C  C93  1  0.35912000  0.98253000  0.28259000  1.0
  C  C94  1  0.85912000  0.51747000  0.28259000  1.0
  C  C95  1  0.64088000  0.01747000  0.71741000  1.0
  C  C96  1  0.19821000  0.41577000  0.77984000  1.0
  C  C97  1  0.30180000  0.91578000  0.22015000  1.0
  C  C98  1  0.80180000  0.58423000  0.22015000  1.0
  C  C99  1  0.69821000  0.08423000  0.77985000  1.0
  C  C100  1  0.30029000  0.32361000  0.76466000  1.0
  C  C101  1  0.19972000  0.82362000  0.23534000  1.0
  C  C102  1  0.69972000  0.67639000  0.23534000  1.0
  C  C103  1  0.80029000  0.17639000  0.76466000  1.0
  C  C104  1  0.34606000  0.29982000  0.68850000  1.0
  C  C105  1  0.15394000  0.79982000  0.31150000  1.0
  C  C106  1  0.65394000  0.70018000  0.31150000  1.0
  C  C107  1  0.84606000  0.20018000  0.68850000  1.0
  C  C108  1  0.14666000  0.44563000  0.86030000  1.0
  C  C109  1  0.35334000  0.94563000  0.13969000  1.0
  C  C110  1  0.85335000  0.55437000  0.13970000  1.0
  C  C111  1  0.64666000  0.05437000  0.86031000  1.0
  C  C112  1  0.20546000  0.12974000  0.97667000  1.0
  C  C113  1  0.29455000  0.62974000  0.02333000  1.0
  C  C114  1  0.79454000  0.87026000  0.02333000  1.0
  C  C115  1  0.70546000  0.37026000  0.97667000  1.0
  O  O116  1  0.41556000  0.38811000  0.11190000  1.0
  O  O117  1  0.08443000  0.88811000  0.88810000  1.0
  O  O118  1  0.58443000  0.61189000  0.88810000  1.0
  O  O119  1  0.91556000  0.11189000  0.11190000  1.0
  O  O120  1  0.58445000  0.24374000  0.14948000  1.0
  O  O121  1  0.91555000  0.74374000  0.85052000  1.0
  O  O122  1  0.41555000  0.75626000  0.85052000  1.0
  O  O123  1  0.08445000  0.25626000  0.14948000  1.0
  O  O124  1  0.06389000  0.53394000  0.86756000  1.0
  O  O125  1  0.43611000  0.03394000  0.13244000  1.0
  O  O126  1  0.93611000  0.46606000  0.13244000  1.0
  O  O127  1  0.56389000  0.96606000  0.86756000  1.0
  O  O128  1  0.18631000  0.38125000  0.91620000  1.0
  O  O129  1  0.31369000  0.88125000  0.08380000  1.0
  O  O130  1  0.81369000  0.61875000  0.08380000  1.0
  O  O131  1  0.68631000  0.11875000  0.91620000  1.0
  O  O132  1  0.27980000  0.21130000  0.00938000  1.0
  O  O133  1  0.22020000  0.71129000  0.99062000  1.0
  O  O134  1  0.72020000  0.78870000  0.99062000  1.0
  O  O135  1  0.77980000  0.28870000  0.00938000  1.0
  O  O136  1  0.31039000  0.04865000  0.97129000  1.0
  O  O137  1  0.18960000  0.54864000  0.02871000  1.0
  O  O138  1  0.68960000  0.95136000  0.02871000  1.0
  O  O139  1  0.81040000  0.45135000  0.97129000  1.0
