# generated using pymatgen
data_ZnH18C15N6Cl2O
_symmetry_space_group_name_H-M   'P 1'
_cell_length_a   7.86969000
_cell_length_b   8.88471000
_cell_length_c   13.85640000
_cell_angle_alpha   104.28600000
_cell_angle_beta   100.11300000
_cell_angle_gamma   106.75600000
_symmetry_Int_Tables_number   1
_chemical_formula_structural   ZnH18C15N6Cl2O
_chemical_formula_sum   'Zn2 H36 C30 N12 Cl4 O2'
_cell_volume   866.65193431
_cell_formula_units_Z   2
loop_
 _symmetry_equiv_pos_site_id
 _symmetry_equiv_pos_as_xyz
  1  'x, y, z'
loop_
 _atom_site_type_symbol
 _atom_site_label
 _atom_site_symmetry_multiplicity
 _atom_site_fract_x
 _atom_site_fract_y
 _atom_site_fract_z
 _atom_site_occupancy
  Zn  Zn0  1  0.34757000  0.45489000  0.21031000  1.0
  Zn  Zn1  1  0.65244000  0.54511000  0.78969000  1.0
  H  H2  1  0.28998000  0.24396000  0.32848000  1.0
  H  H3  1  0.71002000  0.75604000  0.67152000  1.0
  H  H4  1  0.86060000  0.52126000  0.00264000  1.0
  H  H5  1  0.13940000  0.47874000  0.99736000  1.0
  H  H6  1  0.41252000  0.28616000  0.99499000  1.0
  H  H7  1  0.58748000  0.71384000  0.00501000  1.0
  H  H8  1  0.26415000  0.13769000  0.46582000  1.0
  H  H9  1  0.73585000  0.86231000  0.53418000  1.0
  H  H10  1  0.13074000  0.93667000  0.37857000  1.0
  H  H11  1  0.86927000  0.06332000  0.62143000  1.0
  H  H12  1  0.79272000  0.85731000  0.31740000  1.0
  H  H13  1  0.20728000  0.14268000  0.68260000  1.0
  H  H14  1  0.51127000  0.91686000  0.34051000  1.0
  H  H15  1  0.48873000  0.08313000  0.65949000  1.0
  H  H16  1  0.53905000  0.19874000  0.45036000  1.0
  H  H17  1  0.46095000  0.80125000  0.54965000  1.0
  H  H18  1  0.84441000  0.41272000  0.53534000  1.0
  H  H19  1  0.15558000  0.58728000  0.46466000  1.0
  H  H20  1  0.12869000  0.35131000  0.51280000  1.0
  H  H21  1  0.87131000  0.64869000  0.48719000  1.0
  H  H22  1  0.34403000  0.05094000  0.84057000  1.0
  H  H23  1  0.65597000  0.94906000  0.15943000  1.0
  H  H24  1  0.13314000  0.88599000  0.81888000  1.0
  H  H25  1  0.86686000  0.11402000  0.18112000  1.0
  H  H26  1  0.34777000  0.86660000  0.86967000  1.0
  H  H27  1  0.65222000  0.13340000  0.13033000  1.0
  H  H28  1  0.72833000  0.41969000  0.11347000  1.0
  H  H29  1  0.27168000  0.58032000  0.88653000  1.0
  H  H30  1  0.78720000  0.62267000  0.19877000  1.0
  H  H31  1  0.21280000  0.37734000  0.80123000  1.0
  H  H32  1  0.09571000  0.62553000  0.27676000  1.0
  H  H33  1  0.90429000  0.37447000  0.72324000  1.0
  H  H34  1  0.91670000  0.45801000  0.28683000  1.0
  H  H35  1  0.08330000  0.54199000  0.71317000  1.0
  H  H36  1  0.99774000  0.32999000  0.10710000  1.0
  H  H37  1  0.00227000  0.67002000  0.89290000  1.0
  C  C38  1  0.02680000  0.75409000  0.09530000  1.0
  C  C39  1  0.97320000  0.24591000  0.90470000  1.0
  C  C40  1  0.18743000  0.95067000  0.03806000  1.0
  C  C41  1  0.81257000  0.04933000  0.96194000  1.0
  C  C42  1  0.22995000  0.07355000  0.13300000  1.0
  C  C43  1  0.77006000  0.92645000  0.86700000  1.0
  C  C44  1  0.16996000  0.02010000  0.21425000  1.0
  C  C45  1  0.83005000  0.97990000  0.78575000  1.0
  C  C46  1  0.34689000  0.19456000  0.02897000  1.0
  C  C47  1  0.65311000  0.80544000  0.97103000  1.0
  C  C48  1  0.15133000  0.06879000  0.39532000  1.0
  C  C49  1  0.84867000  0.93121000  0.60468000  1.0
  C  C50  1  0.97864000  0.10192000  0.41125000  1.0
  C  C51  1  0.02135000  0.89808000  0.58875000  1.0
  C  C52  1  0.80436000  0.98001000  0.36415000  1.0
  C  C53  1  0.19564000  0.01999000  0.63585000  1.0
  C  C54  1  0.64571000  0.01380000  0.37746000  1.0
  C  C55  1  0.35428000  0.98620000  0.62254000  1.0
  C  C56  1  0.66077000  0.17024000  0.43848000  1.0
  C  C57  1  0.33923000  0.82976000  0.56153000  1.0
  C  C58  1  0.83419000  0.29190000  0.48672000  1.0
  C  C59  1  0.16581000  0.70809000  0.51327000  1.0
  C  C60  1  0.99249000  0.25784000  0.47352000  1.0
  C  C61  1  0.00751000  0.74216000  0.52648000  1.0
  C  C62  1  0.27269000  0.95336000  0.86941000  1.0
  C  C63  1  0.72730000  0.04665000  0.13059000  1.0
  C  C64  1  0.84336000  0.53616000  0.15527000  1.0
  C  C65  1  0.15664000  0.46384000  0.84473000  1.0
  C  C66  1  0.98442000  0.50768000  0.23247000  1.0
  C  C67  1  0.01558000  0.49232000  0.76753000  1.0
  N  N68  1  0.06711000  0.85941000  0.19122000  1.0
  N  N69  1  0.93289000  0.14059000  0.80878000  1.0
  N  N70  1  0.08607000  0.78989000  0.01374000  1.0
  N  N71  1  0.91393000  0.21011000  0.98626000  1.0
  N  N72  1  0.21090000  0.12178000  0.31097000  1.0
  N  N73  1  0.78910000  0.87823000  0.68903000  1.0
  N  N74  1  0.32795000  0.22574000  0.12475000  1.0
  N  N75  1  0.67205000  0.77426000  0.87525000  1.0
  N  N76  1  0.91559000  0.59629000  0.07732000  1.0
  N  N77  1  0.08441000  0.40371000  0.92268000  1.0
  N  N78  1  0.26696000  0.02984000  0.97414000  1.0
  N  N79  1  0.73304000  0.97016000  0.02586000  1.0
  Cl  Cl80  1  0.47331000  0.51719000  0.37641000  1.0
  Cl  Cl81  1  0.52669000  0.48281000  0.62359000  1.0
  Cl  Cl82  1  0.42257000  0.64438000  0.13026000  1.0
  Cl  Cl83  1  0.57743000  0.35562000  0.86974000  1.0
  O  O84  1  0.06600000  0.39360000  0.18365000  1.0
  O  O85  1  0.93401000  0.60640000  0.81635000  1.0
