# generated using pymatgen
data_Zn4H21C36S3N3O16
_symmetry_space_group_name_H-M   'P 1'
_cell_length_a   16.00180000
_cell_length_b   16.80810000
_cell_length_c   17.06580000
_cell_angle_alpha   64.21720000
_cell_angle_beta   63.44260000
_cell_angle_gamma   63.37470000
_symmetry_Int_Tables_number   1
_chemical_formula_structural   Zn4H21C36S3N3O16
_chemical_formula_sum   'Zn8 H42 C72 S6 N6 O32'
_cell_volume   3508.81836476
_cell_formula_units_Z   2
loop_
 _symmetry_equiv_pos_site_id
 _symmetry_equiv_pos_as_xyz
  1  'x, y, z'
loop_
 _atom_site_type_symbol
 _atom_site_label
 _atom_site_symmetry_multiplicity
 _atom_site_fract_x
 _atom_site_fract_y
 _atom_site_fract_z
 _atom_site_occupancy
  Zn  Zn0  1  0.88726000  0.05090000  0.06244000  1.0
  Zn  Zn1  1  0.09966000  0.00347000  0.07363000  1.0
  Zn  Zn2  1  0.07593000  0.01098000  0.88686000  1.0
  Zn  Zn3  1  0.03827000  0.85086000  0.07411000  1.0
  Zn  Zn4  1  0.67723000  0.46677000  0.47019000  1.0
  Zn  Zn5  1  0.50023000  0.40911000  0.48463000  1.0
  Zn  Zn6  1  0.45504000  0.61907000  0.48961000  1.0
  Zn  Zn7  1  0.50775000  0.43910000  0.64838000  1.0
  H  H8  1  0.95336000  0.10620000  0.45593000  1.0
  H  H9  1  0.02312000  0.29104000  0.48737000  1.0
  H  H10  1  0.95219000  0.45909000  0.37676000  1.0
  H  H11  1  0.87206000  0.43080000  0.28243000  1.0
  H  H12  1  0.69961000  0.18964000  0.23704000  1.0
  H  H13  1  0.63344000  0.20899000  0.34743000  1.0
  H  H14  1  0.64644000  0.30444000  0.24918000  1.0
  H  H15  1  0.58139000  0.40003000  0.92886000  1.0
  H  H16  1  0.49023000  0.67575000  0.82190000  1.0
  H  H17  1  0.60758000  0.71859000  0.64412000  1.0
  H  H18  1  0.74885000  0.55405000  0.61934000  1.0
  H  H19  1  0.87196000  0.11722000  0.74111000  1.0
  H  H20  1  0.80591000  0.19979000  0.66193000  1.0
  H  H21  1  0.92945000  0.18924000  0.63865000  1.0
  H  H22  1  0.47905000  0.95289000  0.17493000  1.0
  H  H23  1  0.38956000  0.82643000  0.09145000  1.0
  H  H24  1  0.49385000  0.64104000  0.13297000  1.0
  H  H25  1  0.63275000  0.62359000  0.19613000  1.0
  H  H26  1  0.84986000  0.74366000  0.31607000  1.0
  H  H27  1  0.78935000  0.65631000  0.37425000  1.0
  H  H28  1  0.89138000  0.64946000  0.27324000  1.0
  H  H29  1  0.23912000  0.26665000  0.01320000  1.0
  H  H30  1  0.95342000  0.37860000  0.13218000  1.0
  H  H31  1  0.85060000  0.35097000  0.05904000  1.0
  H  H32  1  0.98757000  0.27912000  0.91925000  1.0
  H  H33  1  0.35713000  0.09031000  0.72939000  1.0
  H  H34  1  0.27786000  0.17036000  0.66368000  1.0
  H  H35  1  0.39283000  0.18506000  0.63509000  1.0
  H  H36  1  0.09905000  0.55649000  0.43317000  1.0
  H  H37  1  0.21438000  0.28833000  0.43560000  1.0
  H  H38  1  0.41170000  0.25600000  0.34710000  1.0
  H  H39  1  0.44288000  0.42244000  0.28892000  1.0
  H  H40  1  0.22016000  0.80590000  0.38075000  1.0
  H  H41  1  0.34326000  0.78419000  0.30990000  1.0
  H  H42  1  0.24707000  0.86481000  0.26066000  1.0
  H  H43  1  0.01837000  0.68578000  0.95718000  1.0
  H  H44  1  0.02910000  0.51958000  0.20672000  1.0
  H  H45  1  0.21930000  0.45206000  0.20503000  1.0
  H  H46  1  0.32305000  0.53658000  0.03456000  1.0
  H  H47  1  0.17532000  0.87290000  0.68861000  1.0
  H  H48  1  0.28059000  0.87590000  0.69463000  1.0
  H  H49  1  0.29422000  0.81655000  0.62221000  1.0
  C  C50  1  0.98432000  0.14152000  0.47377000  1.0
  C  C51  1  0.96725000  0.23990000  0.42709000  1.0
  C  C52  1  0.98654000  0.30569000  0.44008000  1.0
  C  C53  1  0.94900000  0.39368000  0.38233000  1.0
  C  C54  1  0.90734000  0.38121000  0.33419000  1.0
  C  C55  1  0.88210000  0.25026000  0.32859000  1.0
  C  C56  1  0.87098000  0.16848000  0.24628000  1.0
  C  C57  1  0.90675000  0.11117000  0.18577000  1.0
  C  C58  1  0.77811000  0.22265000  0.28677000  1.0
  C  C59  1  0.68457000  0.23118000  0.27922000  1.0
  C  C60  1  0.78437000  0.26940000  0.33646000  1.0
  C  C61  1  0.70047000  0.32466000  0.39633000  1.0
  C  C62  1  0.54864000  0.47679000  0.91661000  1.0
  C  C63  1  0.59017000  0.53333000  0.82670000  1.0
  C  C64  1  0.55479000  0.62901000  0.78651000  1.0
  C  C65  1  0.61487000  0.65062000  0.69468000  1.0
  C  C66  1  0.68711000  0.56831000  0.67927000  1.0
  C  C67  1  0.73339000  0.40417000  0.76881000  1.0
  C  C68  1  0.84440000  0.24647000  0.81627000  1.0
  C  C69  1  0.89811000  0.16219000  0.87325000  1.0
  C  C70  1  0.82333000  0.25953000  0.73994000  1.0
  C  C71  1  0.85893000  0.18759000  0.69341000  1.0
  C  C72  1  0.75793000  0.35096000  0.71397000  1.0
  C  C73  1  0.70419000  0.38311000  0.64748000  1.0
  C  C74  1  0.44823000  0.93442000  0.14034000  1.0
  C  C75  1  0.48810000  0.83813000  0.13983000  1.0
  C  C76  1  0.45130000  0.79202000  0.11800000  1.0
  C  C77  1  0.50428000  0.69620000  0.14110000  1.0
  C  C78  1  0.57389000  0.68460000  0.17574000  1.0
  C  C79  1  0.63291000  0.78532000  0.19322000  1.0
  C  C80  1  0.76626000  0.83251000  0.17642000  1.0
  C  C81  1  0.83378000  0.88444000  0.14432000  1.0
  C  C82  1  0.75915000  0.75135000  0.24857000  1.0
  C  C83  1  0.82507000  0.69790000  0.30732000  1.0
  C  C84  1  0.67865000  0.72691000  0.26040000  1.0
  C  C85  1  0.63953000  0.65510000  0.34200000  1.0
  C  C86  1  0.16574000  0.30669000  0.05131000  1.0
  C  C87  1  0.08215000  0.32006000  0.02840000  1.0
  C  C88  1  0.98217000  0.35086000  0.07525000  1.0
  C  C89  1  0.92961000  0.33587000  0.03771000  1.0
  C  C90  1  0.99768000  0.29713000  0.96753000  1.0
  C  C91  1  0.17314000  0.27347000  0.88436000  1.0
  C  C92  1  0.30602000  0.30032000  0.73932000  1.0
  C  C93  1  0.38436000  0.33996000  0.67055000  1.0
  C  C94  1  0.28203000  0.22380000  0.75438000  1.0
  C  C95  1  0.33108000  0.16415000  0.69185000  1.0
  C  C96  1  0.20715000  0.20658000  0.84063000  1.0
  C  C97  1  0.17533000  0.12194000  0.88675000  1.0
  C  C98  1  0.11118000  0.48346000  0.43937000  1.0
  C  C99  1  0.21169000  0.43167000  0.39952000  1.0
  C  C100  1  0.25466000  0.33794000  0.40254000  1.0
  C  C101  1  0.35658000  0.32137000  0.35738000  1.0
  C  C102  1  0.37516000  0.40486000  0.32718000  1.0
  C  C103  1  0.27252000  0.56847000  0.32045000  1.0
  C  C104  1  0.21700000  0.73343000  0.23699000  1.0
  C  C105  1  0.17498000  0.81353000  0.16878000  1.0
  C  C106  1  0.26063000  0.72115000  0.29769000  1.0
  C  C107  1  0.26833000  0.79891000  0.31212000  1.0
  C  C108  1  0.29562000  0.62379000  0.34476000  1.0
  C  C109  1  0.35529000  0.58404000  0.40680000  1.0
  C  C110  1  0.00252000  0.64845000  0.03189000  1.0
  C  C111  1  0.08600000  0.60170000  0.06568000  1.0
  C  C112  1  0.09133000  0.53899000  0.15116000  1.0
  C  C113  1  0.19007000  0.50328000  0.14973000  1.0
  C  C114  1  0.24489000  0.54433000  0.06350000  1.0
  C  C115  1  0.21832000  0.64463000  0.91676000  1.0
  C  C116  1  0.31931000  0.65665000  0.75487000  1.0
  C  C117  1  0.39214000  0.62363000  0.67555000  1.0
  C  C118  1  0.25606000  0.74347000  0.76536000  1.0
  C  C119  1  0.25162000  0.83178000  0.68789000  1.0
  C  C120  1  0.19824000  0.73698000  0.85994000  1.0
  C  C121  1  0.13436000  0.81709000  0.89691000  1.0
  S  S122  1  0.96442000  0.17588000  0.26503000  1.0
  S  S123  1  0.78739000  0.34390000  0.85416000  1.0
  S  S124  1  0.68289000  0.87296000  0.11906000  1.0
  S  S125  1  0.23404000  0.35416000  0.82510000  1.0
  S  S126  1  0.21403000  0.63104000  0.23961000  1.0
  S  S127  1  0.30912000  0.56853000  0.85732000  1.0
  N  N128  1  0.91803000  0.28838000  0.36102000  1.0
  N  N129  1  0.67227000  0.49698000  0.75879000  1.0
  N  N130  1  0.56436000  0.77036000  0.17571000  1.0
  N  N131  1  0.09055000  0.28735000  0.96132000  1.0
  N  N132  1  0.28803000  0.47169000  0.35307000  1.0
  N  N133  1  0.18221000  0.60520000  0.01185000  1.0
  O  O134  1  0.02806000  0.98223000  0.02082000  1.0
  O  O135  1  0.02855000  0.09718000  0.53111000  1.0
  O  O136  1  0.00036000  0.07450000  0.16038000  1.0
  O  O137  1  0.84608000  0.10256000  0.16274000  1.0
  O  O138  1  0.61297000  0.34420000  0.39689000  1.0
  O  O139  1  0.72063000  0.34714000  0.44687000  1.0
  O  O140  1  0.47974000  0.50944000  0.97772000  1.0
  O  O141  1  0.87466000  0.16267000  0.95575000  1.0
  O  O142  1  0.96273000  0.09630000  0.83896000  1.0
  O  O143  1  0.73491000  0.43352000  0.56641000  1.0
  O  O144  1  0.62782000  0.35773000  0.68125000  1.0
  O  O145  1  0.38252000  0.99317000  0.10707000  1.0
  O  O146  1  0.81079000  0.96938000  0.09407000  1.0
  O  O147  1  0.91254000  0.84145000  0.16772000  1.0
  O  O148  1  0.70175000  0.57506000  0.36497000  1.0
  O  O149  1  0.54754000  0.68180000  0.38319000  1.0
  O  O150  1  0.15747000  0.33471000  0.11100000  1.0
  O  O151  1  0.39818000  0.39310000  0.69672000  1.0
  O  O152  1  0.43121000  0.32326000  0.59314000  1.0
  O  O153  1  0.15774000  0.09311000  0.83952000  1.0
  O  O154  1  0.17069000  0.08541000  0.97098000  1.0
  O  O155  1  0.04157000  0.45183000  0.47868000  1.0
  O  O156  1  0.14715000  0.79070000  0.12359000  1.0
  O  O157  1  0.16980000  0.89595000  0.15621000  1.0
  O  O158  1  0.35314000  0.63810000  0.44246000  1.0
  O  O159  1  0.40573000  0.49805000  0.41769000  1.0
  O  O160  1  0.91799000  0.64712000  0.08091000  1.0
  O  O161  1  0.45556000  0.54373000  0.69691000  1.0
  O  O162  1  0.38786000  0.67143000  0.59429000  1.0
  O  O163  1  0.14728000  0.89652000  0.84850000  1.0
  O  O164  1  0.07162000  0.80052000  0.97671000  1.0
  O  O165  1  0.53464000  0.48787000  0.51609000  1.0
