# generated using pymatgen
data_Ag3H7C13(NO3)2
_symmetry_space_group_name_H-M   'P 1'
_cell_length_a   10.11140000
_cell_length_b   10.11140000
_cell_length_c   15.40140000
_cell_angle_alpha   92.26030000
_cell_angle_beta   92.26020000
_cell_angle_gamma   109.08700000
_symmetry_Int_Tables_number   1
_chemical_formula_structural   Ag3H7C13(NO3)2
_chemical_formula_sum   'Ag12 H28 C52 N8 O24'
_cell_volume   1484.63321104
_cell_formula_units_Z   4
loop_
 _symmetry_equiv_pos_site_id
 _symmetry_equiv_pos_as_xyz
  1  'x, y, z'
loop_
 _atom_site_type_symbol
 _atom_site_label
 _atom_site_symmetry_multiplicity
 _atom_site_fract_x
 _atom_site_fract_y
 _atom_site_fract_z
 _atom_site_occupancy
  Ag  Ag0  1  0.45219000  0.94433000  0.07533000  1.0
  Ag  Ag1  1  0.05567000  0.54781000  0.42467000  1.0
  Ag  Ag2  1  0.54781000  0.05567000  0.92467000  1.0
  Ag  Ag3  1  0.94433000  0.45219000  0.57533000  1.0
  Ag  Ag4  1  0.75161000  0.08860000  0.14451000  1.0
  Ag  Ag5  1  0.91140000  0.24839000  0.35549000  1.0
  Ag  Ag6  1  0.24839000  0.91140000  0.85549000  1.0
  Ag  Ag7  1  0.08861000  0.75161000  0.64451000  1.0
  Ag  Ag8  1  0.55883000  0.19125000  0.21755000  1.0
  Ag  Ag9  1  0.80875000  0.44117000  0.28245000  1.0
  Ag  Ag10  1  0.44117000  0.80875000  0.78245000  1.0
  Ag  Ag11  1  0.19125000  0.55883000  0.71755000  1.0
  H  H12  1  0.60672000  0.57609000  0.07117000  1.0
  H  H13  1  0.42391000  0.39328000  0.42882000  1.0
  H  H14  1  0.39328000  0.42391000  0.92882000  1.0
  H  H15  1  0.57609000  0.60672000  0.57117000  1.0
  H  H16  1  0.89066000  0.41145000  0.93851000  1.0
  H  H17  1  0.58854000  0.10934000  0.56149000  1.0
  H  H18  1  0.10933000  0.58854000  0.06149000  1.0
  H  H19  1  0.41146000  0.89067000  0.43851000  1.0
  H  H20  1  0.81008000  0.77602000  0.84799000  1.0
  H  H21  1  0.22397000  0.18992000  0.65201000  1.0
  H  H22  1  0.18992000  0.22397000  0.15201000  1.0
  H  H23  1  0.77603000  0.81008000  0.34799000  1.0
  H  H24  1  0.43957000  0.67750000  0.18300000  1.0
  H  H25  1  0.32250000  0.56043000  0.31700000  1.0
  H  H26  1  0.56043000  0.32250000  0.81700000  1.0
  H  H27  1  0.67750000  0.43957000  0.68300000  1.0
  H  H28  1  0.19571000  0.93671000  0.18732000  1.0
  H  H29  1  0.06329000  0.80429000  0.31268000  1.0
  H  H30  1  0.80429000  0.06329000  0.81268000  1.0
  H  H31  1  0.93671000  0.19571000  0.68732000  1.0
  H  H32  1  0.90153000  0.18566000  0.97444000  1.0
  H  H33  1  0.81434000  0.09847000  0.52556000  1.0
  H  H34  1  0.09847000  0.81434000  0.02556000  1.0
  H  H35  1  0.18566000  0.90153000  0.47444000  1.0
  H  H36  1  0.92834000  0.86700000  0.12801000  1.0
  H  H37  1  0.13300000  0.07166000  0.37199000  1.0
  H  H38  1  0.07166000  0.13300000  0.87199000  1.0
  H  H39  1  0.86700000  0.92834000  0.62801000  1.0
  C  C40  1  0.63351000  0.79915000  0.97265000  1.0
  C  C41  1  0.20084000  0.36650000  0.52735000  1.0
  C  C42  1  0.36650000  0.20084000  0.02734000  1.0
  C  C43  1  0.79915000  0.63351000  0.47266000  1.0
  C  C44  1  0.70906000  0.36052000  0.06998000  1.0
  C  C45  1  0.63948000  0.29094000  0.43002000  1.0
  C  C46  1  0.29094000  0.63948000  0.93002000  1.0
  C  C47  1  0.36052000  0.70906000  0.56998000  1.0
  C  C48  1  0.96302000  0.60844000  0.81551000  1.0
  C  C49  1  0.39156000  0.03699000  0.68449000  1.0
  C  C50  1  0.03699000  0.39156000  0.18449000  1.0
  C  C51  1  0.60844000  0.96302000  0.31551000  1.0
  C  C52  1  0.70083000  0.68816000  0.96077000  1.0
  C  C53  1  0.31183000  0.29918000  0.53924000  1.0
  C  C54  1  0.29918000  0.31183000  0.03923000  1.0
  C  C55  1  0.68816000  0.70083000  0.46077000  1.0
  C  C56  1  0.67726000  0.58110000  0.01896000  1.0
  C  C57  1  0.41890000  0.32274000  0.48104000  1.0
  C  C58  1  0.32274000  0.41890000  0.98104000  1.0
  C  C59  1  0.58110000  0.67726000  0.51896000  1.0
  C  C60  1  0.74282000  0.47941000  0.01017000  1.0
  C  C61  1  0.52059000  0.25718000  0.48983000  1.0
  C  C62  1  0.25718000  0.52059000  0.98983000  1.0
  C  C63  1  0.47941000  0.74282000  0.51017000  1.0
  C  C64  1  0.83720000  0.48856000  0.94466000  1.0
  C  C65  1  0.51144000  0.16280000  0.55534000  1.0
  C  C66  1  0.16280000  0.51144000  0.05534000  1.0
  C  C67  1  0.48856000  0.83720000  0.44466000  1.0
  C  C68  1  0.86238000  0.59599000  0.88645000  1.0
  C  C69  1  0.40401000  0.13762000  0.61355000  1.0
  C  C70  1  0.13762000  0.40401000  0.11355000  1.0
  C  C71  1  0.59599000  0.86238000  0.38645000  1.0
  C  C72  1  0.79161000  0.69369000  0.89386000  1.0
  C  C73  1  0.30631000  0.20839000  0.60614000  1.0
  C  C74  1  0.20839000  0.30631000  0.10614000  1.0
  C  C75  1  0.69369000  0.79161000  0.39386000  1.0
  C  C76  1  0.35737000  0.70739000  0.21372000  1.0
  C  C77  1  0.29261000  0.64263000  0.28628000  1.0
  C  C78  1  0.64264000  0.29261000  0.78628000  1.0
  C  C79  1  0.70739000  0.35737000  0.71372000  1.0
  C  C80  1  0.22001000  0.84920000  0.21518000  1.0
  C  C81  1  0.15080000  0.77999000  0.28482000  1.0
  C  C82  1  0.77999000  0.15080000  0.78482000  1.0
  C  C83  1  0.84920000  0.22001000  0.71518000  1.0
  C  C84  1  0.94602000  0.10253000  0.98516000  1.0
  C  C85  1  0.89746000  0.05398000  0.51484000  1.0
  C  C86  1  0.05398000  0.89746000  0.01484000  1.0
  C  C87  1  0.10253000  0.94602000  0.48516000  1.0
  C  C88  1  0.96148000  0.92736000  0.07092000  1.0
  C  C89  1  0.07264000  0.03852000  0.42908000  1.0
  C  C90  1  0.03852000  0.07264000  0.92908000  1.0
  C  C91  1  0.92736000  0.96148000  0.57092000  1.0
  N  N92  1  0.32170000  0.81127000  0.17922000  1.0
  N  N93  1  0.18873000  0.67830000  0.32078000  1.0
  N  N94  1  0.67830000  0.18873000  0.82078000  1.0
  N  N95  1  0.81127000  0.32170000  0.67922000  1.0
  N  N96  1  0.90768000  0.02985000  0.05628000  1.0
  N  N97  1  0.97015000  0.09232000  0.44372000  1.0
  N  N98  1  0.09232000  0.97015000  0.94372000  1.0
  N  N99  1  0.02985000  0.90768000  0.55628000  1.0
  O  O100  1  0.75690000  0.26143000  0.05275000  1.0
  O  O101  1  0.73856000  0.24310000  0.44725000  1.0
  O  O102  1  0.24310000  0.73857000  0.94725000  1.0
  O  O103  1  0.26143000  0.75690000  0.55275000  1.0
  O  O104  1  0.56952000  0.79856000  0.04213000  1.0
  O  O105  1  0.20144000  0.43048000  0.45787000  1.0
  O  O106  1  0.43048000  0.20144000  0.95787000  1.0
  O  O107  1  0.79856000  0.56952000  0.54213000  1.0
  O  O108  1  0.64895000  0.88725000  0.91337000  1.0
  O  O109  1  0.11275000  0.35105000  0.58663000  1.0
  O  O110  1  0.35105000  0.11275000  0.08663000  1.0
  O  O111  1  0.88725000  0.64895000  0.41337000  1.0
  O  O112  1  0.63252000  0.36813000  0.13309000  1.0
  O  O113  1  0.63187000  0.36748000  0.36691000  1.0
  O  O114  1  0.36748000  0.63187000  0.86692000  1.0
  O  O115  1  0.36813000  0.63252000  0.63309000  1.0
  O  O116  1  0.02599000  0.51800000  0.81018000  1.0
  O  O117  1  0.48199000  0.97401000  0.68982000  1.0
  O  O118  1  0.97401000  0.48199000  0.18982000  1.0
  O  O119  1  0.51800000  0.02599000  0.31018000  1.0
  O  O120  1  0.97611000  0.70983000  0.76603000  1.0
  O  O121  1  0.29018000  0.02390000  0.73397000  1.0
  O  O122  1  0.02390000  0.29017000  0.23397000  1.0
  O  O123  1  0.70983000  0.97611000  0.26603000  1.0
