# generated using pymatgen
data_CdH16C16(NO2)2
_symmetry_space_group_name_H-M   'P 1'
_cell_length_a   5.05270000
_cell_length_b   8.04307000
_cell_length_c   9.72469000
_cell_angle_alpha   67.73130000
_cell_angle_beta   80.18740000
_cell_angle_gamma   76.22780000
_symmetry_Int_Tables_number   1
_chemical_formula_structural   CdH16C16(NO2)2
_chemical_formula_sum   'Cd1 H16 C16 N2 O4'
_cell_volume   353.79621905
_cell_formula_units_Z   1
loop_
 _symmetry_equiv_pos_site_id
 _symmetry_equiv_pos_as_xyz
  1  'x, y, z'
loop_
 _atom_site_type_symbol
 _atom_site_label
 _atom_site_symmetry_multiplicity
 _atom_site_fract_x
 _atom_site_fract_y
 _atom_site_fract_z
 _atom_site_occupancy
  Cd  Cd0  1  0.50001000  0.00000000  0.00000000  1.0
  H  H1  1  0.21061000  0.68176000  0.98641000  1.0
  H  H2  1  0.78936000  0.31823000  0.01360000  1.0
  H  H3  1  0.24405000  0.47787000  0.83885000  1.0
  H  H4  1  0.75595000  0.52214000  0.16115000  1.0
  H  H5  1  0.54911000  0.53118000  0.60268000  1.0
  H  H6  1  0.45089000  0.46882000  0.39732000  1.0
  H  H7  1  0.78935000  0.95660000  0.69447000  1.0
  H  H8  1  0.21064000  0.04339000  0.30554000  1.0
  H  H9  1  0.84757000  0.95212000  0.43369000  1.0
  H  H10  1  0.15244000  0.04787000  0.56632000  1.0
  H  H11  1  0.09153000  0.75379000  0.50568000  1.0
  H  H12  1  0.90848000  0.24619000  0.49433000  1.0
  H  H13  1  0.60545000  0.77033000  0.34429000  1.0
  H  H14  1  0.39456000  0.22968000  0.65571000  1.0
  H  H15  1  0.87294000  0.58175000  0.40364000  1.0
  H  H16  1  0.12705000  0.41826000  0.59635000  1.0
  C  C17  1  0.35081000  0.69369000  0.88628000  1.0
  C  C18  1  0.64918000  0.30635000  0.11371000  1.0
  C  C19  1  0.36401000  0.58591000  0.80126000  1.0
  C  C20  1  0.63599000  0.41408000  0.19875000  1.0
  C  C21  1  0.53643000  0.61564000  0.66950000  1.0
  C  C22  1  0.46356000  0.38436000  0.33050000  1.0
  C  C23  1  0.69243000  0.75253000  0.62491000  1.0
  C  C24  1  0.30755000  0.24746000  0.37509000  1.0
  C  C25  1  0.67205000  0.84931000  0.72067000  1.0
  C  C26  1  0.32797000  0.15068000  0.27932000  1.0
  C  C27  1  0.87549000  0.80188000  0.48127000  1.0
  C  C28  1  0.12453000  0.19812000  0.51873000  1.0
  C  C29  1  0.82284000  0.73256000  0.36462000  1.0
  C  C30  1  0.17717000  0.26745000  0.63538000  1.0
  C  C31  1  0.99062000  0.79784000  0.21442000  1.0
  C  C32  1  0.00938000  0.20216000  0.78558000  1.0
  N  N33  1  0.50583000  0.82232000  0.84760000  1.0
  N  N34  1  0.49418000  0.17767000  0.15240000  1.0
  O  O35  1  0.89098000  0.80401000  0.10033000  1.0
  O  O36  1  0.10901000  0.19599000  0.89967000  1.0
  O  O37  1  0.22311000  0.83415000  0.21204000  1.0
  O  O38  1  0.77689000  0.16586000  0.78796000  1.0
