# generated using pymatgen
data_ZnH14C11(NO2)2
_symmetry_space_group_name_H-M   'P 1'
_cell_length_a   9.96026000
_cell_length_b   12.44650000
_cell_length_c   12.44680000
_cell_angle_alpha   89.99990000
_cell_angle_beta   90.00120000
_cell_angle_gamma   89.99790000
_symmetry_Int_Tables_number   1
_chemical_formula_structural   ZnH14C11(NO2)2
_chemical_formula_sum   'Zn4 H56 C44 N8 O16'
_cell_volume   1543.03447574
_cell_formula_units_Z   4
loop_
 _symmetry_equiv_pos_site_id
 _symmetry_equiv_pos_as_xyz
  1  'x, y, z'
loop_
 _atom_site_type_symbol
 _atom_site_label
 _atom_site_symmetry_multiplicity
 _atom_site_fract_x
 _atom_site_fract_y
 _atom_site_fract_z
 _atom_site_occupancy
  Zn  Zn0  1  0.04239000  0.90273000  0.50877000  1.0
  Zn  Zn1  1  0.54238000  0.09728000  0.49124000  1.0
  Zn  Zn2  1  0.29239000  0.49123000  0.90272000  1.0
  Zn  Zn3  1  0.79238000  0.50878000  0.09726000  1.0
  H  H4  1  0.12972000  0.71667000  0.65115000  1.0
  H  H5  1  0.62972000  0.28332000  0.34886000  1.0
  H  H6  1  0.37971000  0.34885000  0.71668000  1.0
  H  H7  1  0.87972000  0.65114000  0.28332000  1.0
  H  H8  1  0.05486000  0.63327000  0.82139000  1.0
  H  H9  1  0.55487000  0.36671000  0.17861000  1.0
  H  H10  1  0.30485000  0.17861000  0.63330000  1.0
  H  H11  1  0.80486000  0.82137000  0.36672000  1.0
  H  H12  1  0.70869000  0.84375000  0.81309000  1.0
  H  H13  1  0.20869000  0.15625000  0.18691000  1.0
  H  H14  1  0.95871000  0.18691000  0.84377000  1.0
  H  H15  1  0.45868000  0.81310000  0.15626000  1.0
  H  H16  1  0.79643000  0.91771000  0.64354000  1.0
  H  H17  1  0.29641000  0.08231000  0.35648000  1.0
  H  H18  1  0.04642000  0.35647000  0.91769000  1.0
  H  H19  1  0.54640000  0.64354000  0.08231000  1.0
  H  H20  1  0.72573000  0.71547000  0.95683000  1.0
  H  H21  1  0.22575000  0.28453000  0.04315000  1.0
  H  H22  1  0.97574000  0.04315000  0.71549000  1.0
  H  H23  1  0.47573000  0.95685000  0.28454000  1.0
  H  H24  1  0.89450000  0.70811000  0.00197000  1.0
  H  H25  1  0.39451000  0.29187000  0.99803000  1.0
  H  H26  1  0.14453000  0.99802000  0.70814000  1.0
  H  H27  1  0.64450000  0.00197000  0.29188000  1.0
  H  H28  1  0.68596000  0.58298000  0.80709000  1.0
  H  H29  1  0.18596000  0.41700000  0.19288000  1.0
  H  H30  1  0.93598000  0.19290000  0.58302000  1.0
  H  H31  1  0.43596000  0.80712000  0.41701000  1.0
  H  H32  1  0.87003000  0.46024000  0.74848000  1.0
  H  H33  1  0.37002000  0.53974000  0.25151000  1.0
  H  H34  1  0.12002000  0.25152000  0.46027000  1.0
  H  H35  1  0.62003000  0.74849000  0.53975000  1.0
  H  H36  1  0.70967000  0.39759000  0.73760000  1.0
  H  H37  1  0.20966000  0.60239000  0.26238000  1.0
  H  H38  1  0.95967000  0.26239000  0.39763000  1.0
  H  H39  1  0.45967000  0.73761000  0.60240000  1.0
  H  H40  1  0.81812000  0.36427000  0.84687000  1.0
  H  H41  1  0.31812000  0.63571000  0.15312000  1.0
  H  H42  1  0.06812000  0.15313000  0.36431000  1.0
  H  H43  1  0.56812000  0.84687000  0.63572000  1.0
  H  H44  1  0.07117000  0.74517000  0.18447000  1.0
  H  H45  1  0.57114000  0.25486000  0.81556000  1.0
  H  H46  1  0.32115000  0.81554000  0.74513000  1.0
  H  H47  1  0.82118000  0.18448000  0.25483000  1.0
  H  H48  1  0.19469000  0.84433000  0.14990000  1.0
  H  H49  1  0.69469000  0.15567000  0.85011000  1.0
  H  H50  1  0.44468000  0.85012000  0.84431000  1.0
  H  H51  1  0.94472000  0.14988000  0.15566000  1.0
  H  H52  1  0.02207000  0.87539000  0.13896000  1.0
  H  H53  1  0.52205000  0.12461000  0.86106000  1.0
  H  H54  1  0.27204000  0.86106000  0.87536000  1.0
  H  H55  1  0.77207000  0.13893000  0.12461000  1.0
  H  H56  1  0.91594000  0.53703000  0.92506000  1.0
  H  H57  1  0.41594000  0.46295000  0.07492000  1.0
  H  H58  1  0.16595000  0.07492000  0.53706000  1.0
  H  H59  1  0.66594000  0.92508000  0.46297000  1.0
  C  C60  1  0.03539000  0.74071000  0.68840000  1.0
  C  C61  1  0.53538000  0.25928000  0.31161000  1.0
  C  C62  1  0.28538000  0.31159000  0.74072000  1.0
  C  C63  1  0.78538000  0.68840000  0.25928000  1.0
  C  C64  1  0.99237000  0.69440000  0.78385000  1.0
  C  C65  1  0.49237000  0.30558000  0.21614000  1.0
  C  C66  1  0.24237000  0.21615000  0.69442000  1.0
  C  C67  1  0.74236000  0.78385000  0.30560000  1.0
  C  C68  1  0.87332000  0.73019000  0.83201000  1.0
  C  C69  1  0.37331000  0.26981000  0.16797000  1.0
  C  C70  1  0.12332000  0.16800000  0.73021000  1.0
  C  C71  1  0.62331000  0.83201000  0.26981000  1.0
  C  C72  1  0.80181000  0.81152000  0.78013000  1.0
  C  C73  1  0.30182000  0.18848000  0.21986000  1.0
  C  C74  1  0.05182000  0.21987000  0.81153000  1.0
  C  C75  1  0.55180000  0.78014000  0.18849000  1.0
  C  C76  1  0.85047000  0.85367000  0.68434000  1.0
  C  C77  1  0.35046000  0.14634000  0.31568000  1.0
  C  C78  1  0.10045000  0.31567000  0.85367000  1.0
  C  C79  1  0.60045000  0.68434000  0.14634000  1.0
  C  C80  1  0.82562000  0.68354000  0.93723000  1.0
  C  C81  1  0.32563000  0.31644000  0.06275000  1.0
  C  C82  1  0.07564000  0.06276000  0.68358000  1.0
  C  C83  1  0.57563000  0.93723000  0.31644000  1.0
  C  C84  1  0.72170000  0.51927000  0.86156000  1.0
  C  C85  1  0.22171000  0.48071000  0.13841000  1.0
  C  C86  1  0.97169000  0.13844000  0.51929000  1.0
  C  C87  1  0.47170000  0.86158000  0.48073000  1.0
  C  C88  1  0.78389000  0.42946000  0.79429000  1.0
  C  C89  1  0.28389000  0.57053000  0.20570000  1.0
  C  C90  1  0.03389000  0.20572000  0.42948000  1.0
  C  C91  1  0.53390000  0.79429000  0.57054000  1.0
  C  C92  1  0.59580000  0.47838000  0.92067000  1.0
  C  C93  1  0.09581000  0.52164000  0.07930000  1.0
  C  C94  1  0.84581000  0.07934000  0.47840000  1.0
  C  C95  1  0.34581000  0.92069000  0.52163000  1.0
  C  C96  1  0.09429000  0.87536000  0.30027000  1.0
  C  C97  1  0.59423000  0.12464000  0.69973000  1.0
  C  C98  1  0.34428000  0.69974000  0.87536000  1.0
  C  C99  1  0.84428000  0.30025000  0.12459000  1.0
  C  C100  1  0.09615000  0.83072000  0.18694000  1.0
  C  C101  1  0.59612000  0.16930000  0.81309000  1.0
  C  C102  1  0.34613000  0.81307000  0.83069000  1.0
  C  C103  1  0.84615000  0.18694000  0.16926000  1.0
  N  N104  1  0.96544000  0.81930000  0.63883000  1.0
  N  N105  1  0.46545000  0.18069000  0.36119000  1.0
  N  N106  1  0.21543000  0.36116000  0.81929000  1.0
  N  N107  1  0.71543000  0.63884000  0.18070000  1.0
  N  N108  1  0.81994000  0.56508000  0.93819000  1.0
  N  N109  1  0.31996000  0.43488000  0.06179000  1.0
  N  N110  1  0.06995000  0.06180000  0.56512000  1.0
  N  N111  1  0.56994000  0.93822000  0.43490000  1.0
  O  O112  1  0.59870000  0.47155000  0.02285000  1.0
  O  O113  1  0.09870000  0.52846000  0.97713000  1.0
  O  O114  1  0.84870000  0.97716000  0.47155000  1.0
  O  O115  1  0.34870000  0.02286000  0.52846000  1.0
  O  O116  1  0.49661000  0.45353000  0.86192000  1.0
  O  O117  1  0.99659000  0.54647000  0.13806000  1.0
  O  O118  1  0.74661000  0.13809000  0.45357000  1.0
  O  O119  1  0.24661000  0.86193000  0.54648000  1.0
  O  O120  1  0.04294000  0.81485000  0.37441000  1.0
  O  O121  1  0.54290000  0.18520000  0.62561000  1.0
  O  O122  1  0.29293000  0.62560000  0.81482000  1.0
  O  O123  1  0.79295000  0.37439000  0.18511000  1.0
  O  O124  1  0.13879000  0.96814000  0.31830000  1.0
  O  O125  1  0.63874000  0.03184000  0.68171000  1.0
  O  O126  1  0.38878000  0.68173000  0.96815000  1.0
  O  O127  1  0.88877000  0.31826000  0.03179000  1.0
