# generated using pymatgen
data_ZnH9C11N7O2
_symmetry_space_group_name_H-M   'P 1'
_cell_length_a   9.23214000
_cell_length_b   9.97555000
_cell_length_c   18.56160000
_cell_angle_alpha   89.99980000
_cell_angle_beta   89.99960000
_cell_angle_gamma   89.99960000
_symmetry_Int_Tables_number   1
_chemical_formula_structural   ZnH9C11N7O2
_chemical_formula_sum   'Zn4 H36 C44 N28 O8'
_cell_volume   1709.44306571
_cell_formula_units_Z   4
loop_
 _symmetry_equiv_pos_site_id
 _symmetry_equiv_pos_as_xyz
  1  'x, y, z'
loop_
 _atom_site_type_symbol
 _atom_site_label
 _atom_site_symmetry_multiplicity
 _atom_site_fract_x
 _atom_site_fract_y
 _atom_site_fract_z
 _atom_site_occupancy
  Zn  Zn0  1  0.88386000  0.46905000  0.09514000  1.0
  Zn  Zn1  1  0.38386000  0.53096000  0.90486000  1.0
  Zn  Zn2  1  0.88386000  0.03096000  0.59514000  1.0
  Zn  Zn3  1  0.38386000  0.96904000  0.40486000  1.0
  H  H4  1  0.47973000  0.87666000  0.12507000  1.0
  H  H5  1  0.97973000  0.12332000  0.87493000  1.0
  H  H6  1  0.47973000  0.62333000  0.62508000  1.0
  H  H7  1  0.97972000  0.37667000  0.37493000  1.0
  H  H8  1  0.07805000  0.43989000  0.96593000  1.0
  H  H9  1  0.57806000  0.56011000  0.03407000  1.0
  H  H10  1  0.07805000  0.06011000  0.46593000  1.0
  H  H11  1  0.57805000  0.93990000  0.53407000  1.0
  H  H12  1  0.90331000  0.02539000  0.24148000  1.0
  H  H13  1  0.40331000  0.97461000  0.75852000  1.0
  H  H14  1  0.90332000  0.47461000  0.74148000  1.0
  H  H15  1  0.40331000  0.52538000  0.25853000  1.0
  H  H16  1  0.27463000  0.28553000  0.25441000  1.0
  H  H17  1  0.77461000  0.71447000  0.74558000  1.0
  H  H18  1  0.27463000  0.21447000  0.75441000  1.0
  H  H19  1  0.77461000  0.78553000  0.24558000  1.0
  H  H20  1  0.15061000  0.43926000  0.16842000  1.0
  H  H21  1  0.65060000  0.56074000  0.83157000  1.0
  H  H22  1  0.15061000  0.06074000  0.66842000  1.0
  H  H23  1  0.65059000  0.93926000  0.33157000  1.0
  H  H24  1  0.06026000  0.81426000  0.23934000  1.0
  H  H25  1  0.56026000  0.18574000  0.76066000  1.0
  H  H26  1  0.06026000  0.68575000  0.73934000  1.0
  H  H27  1  0.56025000  0.31426000  0.26066000  1.0
  H  H28  1  0.95523000  0.69743000  0.18999000  1.0
  H  H29  1  0.45524000  0.30257000  0.81001000  1.0
  H  H30  1  0.95524000  0.80257000  0.68999000  1.0
  H  H31  1  0.45523000  0.19743000  0.31001000  1.0
  H  H32  1  0.69926000  0.11760000  0.17811000  1.0
  H  H33  1  0.19926000  0.88240000  0.82189000  1.0
  H  H34  1  0.69927000  0.38241000  0.67811000  1.0
  H  H35  1  0.19926000  0.61759000  0.32189000  1.0
  H  H36  1  0.69761000  0.27741000  0.14531000  1.0
  H  H37  1  0.19761000  0.72260000  0.85469000  1.0
  H  H38  1  0.69761000  0.22259000  0.64531000  1.0
  H  H39  1  0.19760000  0.77740000  0.35469000  1.0
  C  C40  1  0.27992000  0.66147000  0.04254000  1.0
  C  C41  1  0.77992000  0.33852000  0.95745000  1.0
  C  C42  1  0.27991000  0.83853000  0.54255000  1.0
  C  C43  1  0.77991000  0.16148000  0.45745000  1.0
  C  C44  1  0.15821000  0.65629000  0.08813000  1.0
  C  C45  1  0.65821000  0.34371000  0.91187000  1.0
  C  C46  1  0.15821000  0.84371000  0.58813000  1.0
  C  C47  1  0.65820000  0.15629000  0.41187000  1.0
  C  C48  1  0.15920000  0.74035000  0.14960000  1.0
  C  C49  1  0.65919000  0.25964000  0.85040000  1.0
  C  C50  1  0.15919000  0.75965000  0.64960000  1.0
  C  C51  1  0.65919000  0.24036000  0.35040000  1.0
  C  C52  1  0.38697000  0.81235000  0.11285000  1.0
  C  C53  1  0.88697000  0.18764000  0.88714000  1.0
  C  C54  1  0.38696000  0.68765000  0.61286000  1.0
  C  C55  1  0.88696000  0.31236000  0.38714000  1.0
  C  C56  1  0.12606000  0.51737000  0.99964000  1.0
  C  C57  1  0.62607000  0.48263000  0.00036000  1.0
  C  C58  1  0.12606000  0.98263000  0.49964000  1.0
  C  C59  1  0.62605000  0.01737000  0.50036000  1.0
  C  C60  1  0.89330000  0.21043000  0.17988000  1.0
  C  C61  1  0.39330000  0.78958000  0.82012000  1.0
  C  C62  1  0.89331000  0.28957000  0.67988000  1.0
  C  C63  1  0.39330000  0.71042000  0.32013000  1.0
  C  C64  1  0.96101000  0.11589000  0.22556000  1.0
  C  C65  1  0.46100000  0.88412000  0.77445000  1.0
  C  C66  1  0.96102000  0.38411000  0.72556000  1.0
  C  C67  1  0.46101000  0.61588000  0.27445000  1.0
  C  C68  1  0.09707000  0.14205000  0.25313000  1.0
  C  C69  1  0.59707000  0.85796000  0.74688000  1.0
  C  C70  1  0.09708000  0.35795000  0.75313000  1.0
  C  C71  1  0.59707000  0.64204000  0.24688000  1.0
  C  C72  1  0.16817000  0.26129000  0.23333000  1.0
  C  C73  1  0.66816000  0.73870000  0.76666000  1.0
  C  C74  1  0.16818000  0.23870000  0.73333000  1.0
  C  C75  1  0.66816000  0.76129000  0.26667000  1.0
  C  C76  1  0.09902000  0.34687000  0.18648000  1.0
  C  C77  1  0.59900000  0.65313000  0.81351000  1.0
  C  C78  1  0.09902000  0.15313000  0.68648000  1.0
  C  C79  1  0.59900000  0.84686000  0.31352000  1.0
  C  C80  1  0.16523000  0.04722000  0.30615000  1.0
  C  C81  1  0.66523000  0.95278000  0.69385000  1.0
  C  C82  1  0.16523000  0.45278000  0.80615000  1.0
  C  C83  1  0.66523000  0.54722000  0.19386000  1.0
  N  N84  1  0.25661000  0.57322000  0.98646000  1.0
  N  N85  1  0.75661000  0.42678000  0.01354000  1.0
  N  N86  1  0.25661000  0.92678000  0.48645000  1.0
  N  N87  1  0.75660000  0.07323000  0.51354000  1.0
  N  N88  1  0.06142000  0.56328000  0.05974000  1.0
  N  N89  1  0.56143000  0.43672000  0.94025000  1.0
  N  N90  1  0.06142000  0.93672000  0.55975000  1.0
  N  N91  1  0.56141000  0.06328000  0.44025000  1.0
  N  N92  1  0.39840000  0.73754000  0.05322000  1.0
  N  N93  1  0.89840000  0.26245000  0.94678000  1.0
  N  N94  1  0.39840000  0.76246000  0.55322000  1.0
  N  N95  1  0.89840000  0.23755000  0.44678000  1.0
  N  N96  1  0.27703000  0.81877000  0.16018000  1.0
  N  N97  1  0.77702000  0.18122000  0.83982000  1.0
  N  N98  1  0.27701000  0.68123000  0.66018000  1.0
  N  N99  1  0.77702000  0.31878000  0.33981000  1.0
  N  N100  1  0.05177000  0.74430000  0.19919000  1.0
  N  N101  1  0.55176000  0.25570000  0.80081000  1.0
  N  N102  1  0.05176000  0.75571000  0.69919000  1.0
  N  N103  1  0.55176000  0.24430000  0.30081000  1.0
  N  N104  1  0.96497000  0.32327000  0.15980000  1.0
  N  N105  1  0.46496000  0.67674000  0.84019000  1.0
  N  N106  1  0.96497000  0.17673000  0.65980000  1.0
  N  N107  1  0.46496000  0.82326000  0.34020000  1.0
  N  N108  1  0.75694000  0.19174000  0.15418000  1.0
  N  N109  1  0.25694000  0.80827000  0.84582000  1.0
  N  N110  1  0.75695000  0.30827000  0.65419000  1.0
  N  N111  1  0.25694000  0.69172000  0.34582000  1.0
  O  O112  1  0.10494000  0.93757000  0.32017000  1.0
  O  O113  1  0.60495000  0.06244000  0.67983000  1.0
  O  O114  1  0.10495000  0.56243000  0.82017000  1.0
  O  O115  1  0.60496000  0.43757000  0.17983000  1.0
  O  O116  1  0.28387000  0.09000000  0.33542000  1.0
  O  O117  1  0.78387000  0.91000000  0.66457000  1.0
  O  O118  1  0.28388000  0.41000000  0.83542000  1.0
  O  O119  1  0.78387000  0.59000000  0.16458000  1.0
