# generated using pymatgen
data_CdH38C38S2(N3O4)2
_symmetry_space_group_name_H-M   'P 1'
_cell_length_a   9.60092000
_cell_length_b   9.62575000
_cell_length_c   10.13420000
_cell_angle_alpha   87.37350000
_cell_angle_beta   81.01570000
_cell_angle_gamma   85.26930000
_symmetry_Int_Tables_number   1
_chemical_formula_structural   CdH38C38S2(N3O4)2
_chemical_formula_sum   'Cd1 H38 C38 S2 N6 O8'
_cell_volume   921.40435240
_cell_formula_units_Z   1
loop_
 _symmetry_equiv_pos_site_id
 _symmetry_equiv_pos_as_xyz
  1  'x, y, z'
loop_
 _atom_site_type_symbol
 _atom_site_label
 _atom_site_symmetry_multiplicity
 _atom_site_fract_x
 _atom_site_fract_y
 _atom_site_fract_z
 _atom_site_occupancy
  Cd  Cd0  1  0.00000000  0.50000000  0.00000000  1.0
  H  H1  1  0.84865000  0.43707000  0.71547000  1.0
  H  H2  1  0.15135000  0.56293000  0.28453000  1.0
  H  H3  1  0.05091000  0.75431000  0.59658000  1.0
  H  H4  1  0.94909000  0.24569000  0.40342000  1.0
  H  H5  1  0.28100000  0.29772000  0.63561000  1.0
  H  H6  1  0.71901000  0.70228000  0.36439000  1.0
  H  H7  1  0.84500000  0.85429000  0.49405000  1.0
  H  H8  1  0.15501000  0.14571000  0.50595000  1.0
  H  H9  1  0.41708000  0.67700000  0.16023000  1.0
  H  H10  1  0.58293000  0.32301000  0.83977000  1.0
  H  H11  1  0.37117000  0.72404000  0.39921000  1.0
  H  H12  1  0.62883000  0.27597000  0.60079000  1.0
  H  H13  1  0.54351000  0.84815000  0.68270000  1.0
  H  H14  1  0.45648000  0.15186000  0.31730000  1.0
  H  H15  1  0.38775000  0.66686000  0.97558000  1.0
  H  H16  1  0.61224000  0.33315000  0.02442000  1.0
  H  H17  1  0.41713000  0.73481000  0.81142000  1.0
  H  H18  1  0.58287000  0.26519000  0.18857000  1.0
  H  H19  1  0.68359000  0.66459000  0.05811000  1.0
  H  H20  1  0.31640000  0.33541000  0.94189000  1.0
  H  H21  1  0.58360000  0.56330000  0.68311000  1.0
  H  H22  1  0.41639000  0.43671000  0.31689000  1.0
  H  H23  1  0.86630000  0.21689000  0.88006000  1.0
  H  H24  1  0.13369000  0.78311000  0.11994000  1.0
  H  H25  1  0.94713000  0.96572000  0.67739000  1.0
  H  H26  1  0.05287000  0.03428000  0.32261000  1.0
  H  H27  1  0.81646000  0.01892000  0.81410000  1.0
  H  H28  1  0.18353000  0.98108000  0.18591000  1.0
  H  H29  1  0.93595000  0.86819000  0.83219000  1.0
  H  H30  1  0.06405000  0.13181000  0.16782000  1.0
  H  H31  1  0.22644000  0.07237000  0.87776000  1.0
  H  H32  1  0.77356000  0.92763000  0.12224000  1.0
  H  H33  1  0.22194000  0.01479000  0.71363000  1.0
  H  H34  1  0.77806000  0.98520000  0.28637000  1.0
  H  H35  1  0.17799000  0.89928000  0.85254000  1.0
  H  H36  1  0.82201000  0.10072000  0.14747000  1.0
  H  H37  1  0.38779000  0.96117000  0.47696000  1.0
  H  H38  1  0.61221000  0.03883000  0.52303000  1.0
  C  C39  1  0.77590000  0.50399000  0.78147000  1.0
  C  C40  1  0.22410000  0.49601000  0.21853000  1.0
  C  C41  1  0.99301000  0.68849000  0.54358000  1.0
  C  C42  1  0.00699000  0.31151000  0.45643000  1.0
  C  C43  1  0.03702000  0.54415000  0.53605000  1.0
  C  C44  1  0.96299000  0.45585000  0.46395000  1.0
  C  C45  1  0.15140000  0.48145000  0.59854000  1.0
  C  C46  1  0.84861000  0.51855000  0.40146000  1.0
  C  C47  1  0.19302000  0.34119000  0.58678000  1.0
  C  C48  1  0.80698000  0.65880000  0.41322000  1.0
  C  C49  1  0.87965000  0.74376000  0.48495000  1.0
  C  C50  1  0.12036000  0.25623000  0.51505000  1.0
  C  C51  1  0.48172000  0.86570000  0.95458000  1.0
  C  C52  1  0.51828000  0.13431000  0.04542000  1.0
  C  C53  1  0.52471000  0.97265000  0.86076000  1.0
  C  C54  1  0.47529000  0.02736000  0.13923000  1.0
  C  C55  1  0.45891000  0.89026000  0.09306000  1.0
  C  C56  1  0.54109000  0.10975000  0.90694000  1.0
  C  C57  1  0.42278000  0.78264000  0.19118000  1.0
  C  C58  1  0.57722000  0.21737000  0.80881000  1.0
  C  C59  1  0.39812000  0.80727000  0.32540000  1.0
  C  C60  1  0.60188000  0.19274000  0.67460000  1.0
  C  C61  1  0.55293000  0.95075000  0.71995000  1.0
  C  C62  1  0.44706000  0.04926000  0.28004000  1.0
  C  C63  1  0.46176000  0.72472000  0.90468000  1.0
  C  C64  1  0.53823000  0.27529000  0.09532000  1.0
  C  C65  1  0.69482000  0.62119000  0.96008000  1.0
  C  C66  1  0.30517000  0.37880000  0.03992000  1.0
  C  C67  1  0.64666000  0.56715000  0.76244000  1.0
  C  C68  1  0.35334000  0.43285000  0.23756000  1.0
  C  C69  1  0.98119000  0.18987000  0.87511000  1.0
  C  C70  1  0.01881000  0.81012000  0.12489000  1.0
  C  C71  1  0.92495000  0.97349000  0.78675000  1.0
  C  C72  1  0.07504000  0.02651000  0.21325000  1.0
  C  C73  1  0.17110000  0.00920000  0.81871000  1.0
  C  C74  1  0.82890000  0.99079000  0.18129000  1.0
  C  C75  1  0.40857000  0.94290000  0.37004000  1.0
  C  C76  1  0.59144000  0.05711000  0.62995000  1.0
  S  S77  1  0.23928000  0.57903000  0.70365000  1.0
  S  S78  1  0.76072000  0.42097000  0.29635000  1.0
  N  N79  1  0.59676000  0.64005000  0.87692000  1.0
  N  N80  1  0.40324000  0.35995000  0.12308000  1.0
  N  N81  1  0.80451000  0.53840000  0.90489000  1.0
  N  N82  1  0.19549000  0.46160000  0.09512000  1.0
  N  N83  1  0.02312000  0.06139000  0.83206000  1.0
  N  N84  1  0.97687000  0.93860000  0.16794000  1.0
  O  O85  1  0.12602000  0.62683000  0.81353000  1.0
  O  O86  1  0.87398000  0.37317000  0.18647000  1.0
  O  O87  1  0.34694000  0.48043000  0.74954000  1.0
  O  O88  1  0.65306000  0.51957000  0.25047000  1.0
  O  O89  1  0.29621000  0.69865000  0.62414000  1.0
  O  O90  1  0.70380000  0.30135000  0.37586000  1.0
  O  O91  1  0.06250000  0.27304000  0.90766000  1.0
  O  O92  1  0.93750000  0.72695000  0.09234000  1.0
