# generated using pymatgen
data_Cd3H40C48(I3N8)2
_symmetry_space_group_name_H-M   'P 1'
_cell_length_a   8.49178000
_cell_length_b   13.17760000
_cell_length_c   13.90660000
_cell_angle_alpha   71.84030000
_cell_angle_beta   83.15170000
_cell_angle_gamma   80.98060000
_symmetry_Int_Tables_number   1
_chemical_formula_structural   Cd3H40C48(I3N8)2
_chemical_formula_sum   'Cd3 H40 C48 I6 N16'
_cell_volume   1456.26004598
_cell_formula_units_Z   1
loop_
 _symmetry_equiv_pos_site_id
 _symmetry_equiv_pos_as_xyz
  1  'x, y, z'
loop_
 _atom_site_type_symbol
 _atom_site_label
 _atom_site_symmetry_multiplicity
 _atom_site_fract_x
 _atom_site_fract_y
 _atom_site_fract_z
 _atom_site_occupancy
  Cd  Cd0  1  0.50000000  0.50000000  0.50000000  1.0
  Cd  Cd1  1  0.74247000  0.20892000  0.08789000  1.0
  Cd  Cd2  1  0.25753000  0.79108000  0.91211000  1.0
  H  H3  1  0.28619000  0.29598000  0.67220000  1.0
  H  H4  1  0.71381000  0.70402000  0.32780000  1.0
  H  H5  1  0.14559000  0.13159000  0.73059000  1.0
  H  H6  1  0.85441000  0.86840000  0.26941000  1.0
  H  H7  1  0.99853000  0.08158000  0.61432000  1.0
  H  H8  1  0.00146000  0.91843000  0.38568000  1.0
  H  H9  1  0.97301000  0.19617000  0.43404000  1.0
  H  H10  1  0.02699000  0.80383000  0.56596000  1.0
  H  H11  1  0.08748000  0.32337000  0.25342000  1.0
  H  H12  1  0.91252000  0.67663000  0.74658000  1.0
  H  H13  1  0.14404000  0.45551000  0.20796000  1.0
  H  H14  1  0.85597000  0.54450000  0.79204000  1.0
  H  H15  1  0.84385000  0.43891000  0.42034000  1.0
  H  H16  1  0.15615000  0.56109000  0.57966000  1.0
  H  H17  1  0.45009000  0.55991000  0.25053000  1.0
  H  H18  1  0.54991000  0.44009000  0.74947000  1.0
  H  H19  1  0.61109000  0.54513000  0.09100000  1.0
  H  H20  1  0.38891000  0.45487000  0.90900000  1.0
  H  H21  1  0.90171000  0.47248000  0.09972000  1.0
  H  H22  1  0.09829000  0.52752000  0.90028000  1.0
  H  H23  1  0.42632000  0.70252000  0.63195000  1.0
  H  H24  1  0.57368000  0.29748000  0.36805000  1.0
  H  H25  1  0.37893000  0.88305000  0.65621000  1.0
  H  H26  1  0.62107000  0.11695000  0.34378000  1.0
  H  H27  1  0.30968000  0.04695000  0.51467000  1.0
  H  H28  1  0.69031000  0.95305000  0.48532000  1.0
  H  H29  1  0.28829000  0.03804000  0.34070000  1.0
  H  H30  1  0.71170000  0.96196000  0.65930000  1.0
  H  H31  1  0.23766000  0.95903000  0.19973000  1.0
  H  H32  1  0.76235000  0.04097000  0.80027000  1.0
  H  H33  1  0.26730000  0.83478000  0.16935000  1.0
  H  H34  1  0.73270000  0.16522000  0.83065000  1.0
  H  H35  1  0.45269000  0.07278000  0.16537000  1.0
  H  H36  1  0.54731000  0.92722000  0.83463000  1.0
  H  H37  1  0.88316000  0.99524000  0.01522000  1.0
  H  H38  1  0.11684000  0.00476000  0.98478000  1.0
  H  H39  1  0.81312000  0.81520000  0.02415000  1.0
  H  H40  1  0.18689000  0.18480000  0.97585000  1.0
  H  H41  1  0.54689000  0.76256000  0.11065000  1.0
  H  H42  1  0.45312000  0.23744000  0.88935000  1.0
  C  C43  1  0.20838000  0.33769000  0.51932000  1.0
  C  C44  1  0.79162000  0.66230000  0.48068000  1.0
  C  C45  1  0.21952000  0.27429000  0.62096000  1.0
  C  C46  1  0.78048000  0.72570000  0.37905000  1.0
  C  C47  1  0.14101000  0.18347000  0.65243000  1.0
  C  C48  1  0.85899000  0.81652000  0.34757000  1.0
  C  C49  1  0.05373000  0.15566000  0.58566000  1.0
  C  C50  1  0.94626000  0.84434000  0.41434000  1.0
  C  C51  1  0.03967000  0.21805000  0.48539000  1.0
  C  C52  1  0.96033000  0.78195000  0.51461000  1.0
  C  C53  1  0.11924000  0.30980000  0.45377000  1.0
  C  C54  1  0.88077000  0.69020000  0.54623000  1.0
  C  C55  1  0.07056000  0.40258000  0.26716000  1.0
  C  C56  1  0.92945000  0.59743000  0.73284000  1.0
  C  C57  1  0.89663000  0.44883000  0.26141000  1.0
  C  C58  1  0.10337000  0.55117000  0.73859000  1.0
  C  C59  1  0.79799000  0.46083000  0.34558000  1.0
  C  C60  1  0.20201000  0.53917000  0.65442000  1.0
  C  C61  1  0.57697000  0.52919000  0.25097000  1.0
  C  C62  1  0.42304000  0.47081000  0.74903000  1.0
  C  C63  1  0.66742000  0.52050000  0.16262000  1.0
  C  C64  1  0.33258000  0.47950000  0.83738000  1.0
  C  C65  1  0.82866000  0.48005000  0.16781000  1.0
  C  C66  1  0.17134000  0.51995000  0.83219000  1.0
  C  C67  1  0.37963000  0.76814000  0.47125000  1.0
  C  C68  1  0.62036000  0.23186000  0.52875000  1.0
  C  C69  1  0.39510000  0.77381000  0.56888000  1.0
  C  C70  1  0.60490000  0.22619000  0.43112000  1.0
  C  C71  1  0.36846000  0.87541000  0.58156000  1.0
  C  C72  1  0.63154000  0.12459000  0.41844000  1.0
  C  C73  1  0.32919000  0.96920000  0.50033000  1.0
  C  C74  1  0.67081000  0.03080000  0.49967000  1.0
  C  C75  1  0.31722000  0.96535000  0.40296000  1.0
  C  C76  1  0.68278000  0.03465000  0.59704000  1.0
  C  C77  1  0.34338000  0.86246000  0.39020000  1.0
  C  C78  1  0.65662000  0.13754000  0.60980000  1.0
  C  C79  1  0.32147000  0.88569000  0.20240000  1.0
  C  C80  1  0.67853000  0.11431000  0.79760000  1.0
  C  C81  1  0.48081000  0.91242000  0.14754000  1.0
  C  C82  1  0.51919000  0.08758000  0.85246000  1.0
  C  C83  1  0.53001000  0.01162000  0.13749000  1.0
  C  C84  1  0.46999000  0.98838000  0.86251000  1.0
  C  C85  1  0.76994000  0.96895000  0.05274000  1.0
  C  C86  1  0.23006000  0.03105000  0.94726000  1.0
  C  C87  1  0.73004000  0.86874000  0.05785000  1.0
  C  C88  1  0.26996000  0.13126000  0.94215000  1.0
  C  C89  1  0.58300000  0.83996000  0.10618000  1.0
  C  C90  1  0.41700000  0.16004000  0.89382000  1.0
  I  I91  1  0.86148000  0.31154000  0.89382000  1.0
  I  I92  1  0.13852000  0.68846000  0.10618000  1.0
  I  I93  1  0.99096000  0.13660000  0.21703000  1.0
  I  I94  1  0.00905000  0.86340000  0.78297000  1.0
  I  I95  1  0.44451000  0.29761000  0.14673000  1.0
  I  I96  1  0.55549000  0.70239000  0.85327000  1.0
  N  N97  1  0.13563000  0.38908000  0.36307000  1.0
  N  N98  1  0.86437000  0.61092000  0.63693000  1.0
  N  N99  1  0.22827000  0.46023000  0.37062000  1.0
  N  N100  1  0.77173000  0.53977000  0.62938000  1.0
  N  N101  1  0.27276000  0.43031000  0.46356000  1.0
  N  N102  1  0.72724000  0.56968000  0.53644000  1.0
  N  N103  1  0.64168000  0.49985000  0.34091000  1.0
  N  N104  1  0.35832000  0.50015000  0.65909000  1.0
  N  N105  1  0.33880000  0.82516000  0.30897000  1.0
  N  N106  1  0.66120000  0.17484000  0.69103000  1.0
  N  N107  1  0.37017000  0.71722000  0.33592000  1.0
  N  N108  1  0.62983000  0.28278000  0.66408000  1.0
  N  N109  1  0.39377000  0.68214000  0.43297000  1.0
  N  N110  1  0.60623000  0.31786000  0.56703000  1.0
  N  N111  1  0.67172000  0.03945000  0.09135000  1.0
  N  N112  1  0.32828000  0.96055000  0.90865000  1.0
