# generated using pymatgen
data_CoH11C11NO9
_symmetry_space_group_name_H-M   'P 1'
_cell_length_a   11.42520000
_cell_length_b   15.17560000
_cell_length_c   17.77370000
_cell_angle_alpha   64.75500000
_cell_angle_beta   89.95170000
_cell_angle_gamma   89.97160000
_symmetry_Int_Tables_number   1
_chemical_formula_structural   CoH11C11NO9
_chemical_formula_sum   'Co8 H88 C88 N8 O72'
_cell_volume   2787.35493731
_cell_formula_units_Z   8
loop_
 _symmetry_equiv_pos_site_id
 _symmetry_equiv_pos_as_xyz
  1  'x, y, z'
loop_
 _atom_site_type_symbol
 _atom_site_label
 _atom_site_symmetry_multiplicity
 _atom_site_fract_x
 _atom_site_fract_y
 _atom_site_fract_z
 _atom_site_occupancy
  Co  Co0  1  0.21352000  0.63575000  0.99986000  1.0
  Co  Co1  1  0.78641000  0.36427000  0.00016000  1.0
  Co  Co2  1  0.49903000  0.37915000  0.24154000  1.0
  Co  Co3  1  0.50105000  0.62075000  0.75871000  1.0
  Co  Co4  1  0.71376000  0.86419000  0.00003000  1.0
  Co  Co5  1  0.28624000  0.13581000  0.99998000  1.0
  Co  Co6  1  0.00001000  0.11985000  0.76028000  1.0
  Co  Co7  1  0.00000000  0.88015000  0.23972000  1.0
  H  H8  1  0.27313000  0.59495000  0.25734000  1.0
  H  H9  1  0.52328000  0.26548000  0.15428000  1.0
  H  H10  1  0.41650000  0.34141000  0.12693000  1.0
  H  H11  1  0.35698000  0.19751000  0.28927000  1.0
  H  H12  1  0.34508000  0.03340000  0.40133000  1.0
  H  H13  1  0.65759000  0.09852000  0.50570000  1.0
  H  H14  1  0.65975000  0.26038000  0.38461000  1.0
  H  H15  1  0.42387000  0.61033000  0.94869000  1.0
  H  H16  1  0.26203000  0.83058000  0.95097000  1.0
  H  H17  1  0.01146000  0.67837000  0.05126000  1.0
  H  H18  1  0.18864000  0.49597000  0.95212000  1.0
  H  H19  1  0.72677000  0.14783000  0.25741000  1.0
  H  H20  1  0.47660000  0.58078000  0.15366000  1.0
  H  H21  1  0.58334000  0.53205000  0.12683000  1.0
  H  H22  1  0.64346000  0.51325000  0.28923000  1.0
  H  H23  1  0.65507000  0.56525000  0.40131000  1.0
  H  H24  1  0.34242000  0.39580000  0.50565000  1.0
  H  H25  1  0.34029000  0.35519000  0.38464000  1.0
  H  H26  1  0.57581000  0.44041000  0.94892000  1.0
  H  H27  1  0.73804000  0.21853000  0.95106000  1.0
  H  H28  1  0.98827000  0.27023000  0.05130000  1.0
  H  H29  1  0.81150000  0.55173000  0.95235000  1.0
  H  H30  1  0.72685000  0.40490000  0.74285000  1.0
  H  H31  1  0.47682000  0.73433000  0.84576000  1.0
  H  H32  1  0.58364000  0.65834000  0.87295000  1.0
  H  H33  1  0.64197000  0.80232000  0.71080000  1.0
  H  H34  1  0.65383000  0.96630000  0.59847000  1.0
  H  H35  1  0.34293000  0.89974000  0.49331000  1.0
  H  H36  1  0.34065000  0.73823000  0.61493000  1.0
  H  H37  1  0.57630000  0.38942000  0.05163000  1.0
  H  H38  1  0.73806000  0.16953000  0.04891000  1.0
  H  H39  1  0.98837000  0.32165000  0.94863000  1.0
  H  H40  1  0.81143000  0.50425000  0.04764000  1.0
  H  H41  1  0.27316000  0.85203000  0.74275000  1.0
  H  H42  1  0.52345000  0.41916000  0.84668000  1.0
  H  H43  1  0.41655000  0.46811000  0.87323000  1.0
  H  H44  1  0.35753000  0.48685000  0.71098000  1.0
  H  H45  1  0.34640000  0.43495000  0.59881000  1.0
  H  H46  1  0.65739000  0.60672000  0.49376000  1.0
  H  H47  1  0.65934000  0.64664000  0.61515000  1.0
  H  H48  1  0.42398000  0.55933000  0.05140000  1.0
  H  H49  1  0.26193000  0.78153000  0.04883000  1.0
  H  H50  1  0.01168000  0.72993000  0.94859000  1.0
  H  H51  1  0.18808000  0.44823000  0.04742000  1.0
  H  H52  1  0.77320000  0.90484000  0.74267000  1.0
  H  H53  1  0.02315000  0.23453000  0.84608000  1.0
  H  H54  1  0.91549000  0.15905000  0.87294000  1.0
  H  H55  1  0.85701000  0.30177000  0.71028000  1.0
  H  H56  1  0.84600000  0.46602000  0.59903000  1.0
  H  H57  1  0.15747000  0.40047000  0.49358000  1.0
  H  H58  1  0.15907000  0.23831000  0.61423000  1.0
  H  H59  1  0.92435000  0.88940000  0.05131000  1.0
  H  H60  1  0.76205000  0.66956000  0.04891000  1.0
  H  H61  1  0.51186000  0.82157000  0.94875000  1.0
  H  H62  1  0.68872000  0.00409000  0.04769000  1.0
  H  H63  1  0.22678000  0.35216000  0.74269000  1.0
  H  H64  1  0.97677000  0.91939000  0.84605000  1.0
  H  H65  1  0.08435000  0.96794000  0.87297000  1.0
  H  H66  1  0.14276000  0.98779000  0.71036000  1.0
  H  H67  1  0.15383000  0.93481000  0.59902000  1.0
  H  H68  1  0.84257000  0.10577000  0.49376000  1.0
  H  H69  1  0.84086000  0.14729000  0.61449000  1.0
  H  H70  1  0.07565000  0.05927000  0.05124000  1.0
  H  H71  1  0.23784000  0.28164000  0.04881000  1.0
  H  H72  1  0.48807000  0.22975000  0.94864000  1.0
  H  H73  1  0.31131000  0.94826000  0.04771000  1.0
  H  H74  1  0.22644000  0.09492000  0.25743000  1.0
  H  H75  1  0.97683000  0.76541000  0.15395000  1.0
  H  H76  1  0.08454000  0.84088000  0.12711000  1.0
  H  H77  1  0.14295000  0.69823000  0.28968000  1.0
  H  H78  1  0.15402000  0.53399000  0.40096000  1.0
  H  H79  1  0.84269000  0.59959000  0.50651000  1.0
  H  H80  1  0.84102000  0.76173000  0.38582000  1.0
  H  H81  1  0.07568000  0.11057000  0.94870000  1.0
  H  H82  1  0.23795000  0.33044000  0.95097000  1.0
  H  H83  1  0.48813000  0.17840000  0.05132000  1.0
  H  H84  1  0.31127000  0.99589000  0.95237000  1.0
  H  H85  1  0.77347000  0.64792000  0.25744000  1.0
  H  H86  1  0.02323000  0.08066000  0.15393000  1.0
  H  H87  1  0.91561000  0.03207000  0.12706000  1.0
  H  H88  1  0.85728000  0.01222000  0.28963000  1.0
  H  H89  1  0.84618000  0.06517000  0.40098000  1.0
  H  H90  1  0.15738000  0.89414000  0.50628000  1.0
  H  H91  1  0.15908000  0.85264000  0.38554000  1.0
  H  H92  1  0.92436000  0.94070000  0.94877000  1.0
  H  H93  1  0.76205000  0.71844000  0.95107000  1.0
  H  H94  1  0.51193000  0.77028000  0.05144000  1.0
  H  H95  1  0.68873000  0.05174000  0.95235000  1.0
  C  C96  1  0.17794000  0.53838000  0.19620000  1.0
  C  C97  1  0.24636000  0.36316000  0.18904000  1.0
  C  C98  1  0.92575000  0.58130000  0.20544000  1.0
  C  C99  1  0.08401000  0.46633000  0.20186000  1.0
  C  C100  1  0.11871000  0.37815000  0.20090000  1.0
  C  C101  1  0.96480000  0.48763000  0.20303000  1.0
  C  C102  1  0.42313000  0.17269000  0.33779000  1.0
  C  C103  1  0.41655000  0.08002000  0.40234000  1.0
  C  C104  1  0.50143000  0.04876000  0.46515000  1.0
  C  C105  1  0.58977000  0.11628000  0.45859000  1.0
  C  C106  1  0.59110000  0.20748000  0.39187000  1.0
  C  C107  1  0.82185000  0.26556000  0.19636000  1.0
  C  C108  1  0.75324000  0.44761000  0.18964000  1.0
  C  C109  1  0.07402000  0.21344000  0.20543000  1.0
  C  C110  1  0.91576000  0.33195000  0.20196000  1.0
  C  C111  1  0.88103000  0.42104000  0.20108000  1.0
  C  C112  1  0.03495000  0.30954000  0.20298000  1.0
  C  C113  1  0.57728000  0.48946000  0.33777000  1.0
  C  C114  1  0.58364000  0.51753000  0.40238000  1.0
  C  C115  1  0.49879000  0.48598000  0.46531000  1.0
  C  C116  1  0.41043000  0.42513000  0.45861000  1.0
  C  C117  1  0.40919000  0.40069000  0.39184000  1.0
  C  C118  1  0.82186000  0.46169000  0.80391000  1.0
  C  C119  1  0.75372000  0.63701000  0.81089000  1.0
  C  C120  1  0.07411000  0.41861000  0.79471000  1.0
  C  C121  1  0.91591000  0.53368000  0.79819000  1.0
  C  C122  1  0.88131000  0.62194000  0.79905000  1.0
  C  C123  1  0.03507000  0.51232000  0.79703000  1.0
  C  C124  1  0.57598000  0.82702000  0.66216000  1.0
  C  C125  1  0.58257000  0.91952000  0.59742000  1.0
  C  C126  1  0.49804000  0.95034000  0.53436000  1.0
  C  C127  1  0.41014000  0.88252000  0.54079000  1.0
  C  C128  1  0.40875000  0.79152000  0.60778000  1.0
  C  C129  1  0.17822000  0.73426000  0.80377000  1.0
  C  C130  1  0.24666000  0.55226000  0.81030000  1.0
  C  C131  1  0.92597000  0.78655000  0.79461000  1.0
  C  C132  1  0.08426000  0.66797000  0.79811000  1.0
  C  C133  1  0.11891000  0.57891000  0.79891000  1.0
  C  C134  1  0.96512000  0.69048000  0.79704000  1.0
  C  C135  1  0.42362000  0.51087000  0.66236000  1.0
  C  C136  1  0.41747000  0.48299000  0.59767000  1.0
  C  C137  1  0.50207000  0.51520000  0.53452000  1.0
  C  C138  1  0.58986000  0.57657000  0.54108000  1.0
  C  C139  1  0.59100000  0.60066000  0.60805000  1.0
  C  C140  1  0.67812000  0.96156000  0.80387000  1.0
  C  C141  1  0.74648000  0.13693000  0.81025000  1.0
  C  C142  1  0.42588000  0.91855000  0.79488000  1.0
  C  C143  1  0.58407000  0.03346000  0.79834000  1.0
  C  C144  1  0.61875000  0.12168000  0.79914000  1.0
  C  C145  1  0.46492000  0.01222000  0.79725000  1.0
  C  C146  1  0.92322000  0.32636000  0.66173000  1.0
  C  C147  1  0.91706000  0.41925000  0.59753000  1.0
  C  C148  1  0.00169000  0.45064000  0.53443000  1.0
  C  C149  1  0.08960000  0.38281000  0.54074000  1.0
  C  C150  1  0.09063000  0.29132000  0.60722000  1.0
  C  C151  1  0.32184000  0.23434000  0.80383000  1.0
  C  C152  1  0.25348000  0.05255000  0.81029000  1.0
  C  C153  1  0.57410000  0.28633000  0.79478000  1.0
  C  C154  1  0.41588000  0.16797000  0.79826000  1.0
  C  C155  1  0.38121000  0.07891000  0.79916000  1.0
  C  C156  1  0.53504000  0.19032000  0.79714000  1.0
  C  C157  1  0.07661000  0.01174000  0.66182000  1.0
  C  C158  1  0.08281000  0.98308000  0.59758000  1.0
  C  C159  1  0.99829000  0.01486000  0.53448000  1.0
  C  C160  1  0.91035000  0.07627000  0.54092000  1.0
  C  C161  1  0.90928000  0.10128000  0.60743000  1.0
  C  C162  1  0.32179000  0.03836000  0.19618000  1.0
  C  C163  1  0.25354000  0.86306000  0.18980000  1.0
  C  C164  1  0.57415000  0.08135000  0.20525000  1.0
  C  C165  1  0.41592000  0.96649000  0.20173000  1.0
  C  C166  1  0.38127000  0.87827000  0.20094000  1.0
  C  C167  1  0.53507000  0.98774000  0.20284000  1.0
  C  C168  1  0.07679000  0.67364000  0.33825000  1.0
  C  C169  1  0.08298000  0.58077000  0.40248000  1.0
  C  C170  1  0.99841000  0.54940000  0.46561000  1.0
  C  C171  1  0.91052000  0.61723000  0.45933000  1.0
  C  C172  1  0.90945000  0.70871000  0.39282000  1.0
  C  C173  1  0.67822000  0.76568000  0.19620000  1.0
  C  C174  1  0.74650000  0.94744000  0.18975000  1.0
  C  C175  1  0.42586000  0.71363000  0.20530000  1.0
  C  C176  1  0.58412000  0.83201000  0.20177000  1.0
  C  C177  1  0.61878000  0.92106000  0.20090000  1.0
  C  C178  1  0.46496000  0.80964000  0.20292000  1.0
  C  C179  1  0.92340000  0.98826000  0.33817000  1.0
  C  C180  1  0.91720000  0.01691000  0.40243000  1.0
  C  C181  1  0.00171000  0.98511000  0.46553000  1.0
  C  C182  1  0.08963000  0.92367000  0.45911000  1.0
  C  C183  1  0.09069000  0.89867000  0.39260000  1.0
  N  N184  1  0.50883000  0.23622000  0.33170000  1.0
  N  N185  1  0.49166000  0.43193000  0.33164000  1.0
  N  N186  1  0.49052000  0.76334000  0.66828000  1.0
  N  N187  1  0.50889000  0.56863000  0.66849000  1.0
  N  N188  1  0.00831000  0.26237000  0.66743000  1.0
  N  N189  1  0.99159000  0.07007000  0.66756000  1.0
  N  N190  1  0.99171000  0.73763000  0.33258000  1.0
  N  N191  1  0.00842000  0.92991000  0.33245000  1.0
  O  O192  1  0.22958000  0.58714000  0.12972000  1.0
  O  O193  1  0.20393000  0.54295000  0.26594000  1.0
  O  O194  1  0.31820000  0.37214000  0.23966000  1.0
  O  O195  1  0.27335000  0.34879000  0.12527000  1.0
  O  O196  1  0.84920000  0.57314000  0.25990000  1.0
  O  O197  1  0.97342000  0.65937000  0.15402000  1.0
  O  O198  1  0.50265000  0.33543000  0.14112000  1.0
  O  O199  1  0.77014000  0.28331000  0.12993000  1.0
  O  O200  1  0.79598000  0.19117000  0.26605000  1.0
  O  O201  1  0.68175000  0.38796000  0.24054000  1.0
  O  O202  1  0.72627000  0.52568000  0.12584000  1.0
  O  O203  1  0.15066000  0.16734000  0.25981000  1.0
  O  O204  1  0.02633000  0.18659000  0.15416000  1.0
  O  O205  1  0.49679000  0.52444000  0.13981000  1.0
  O  O206  1  0.76993000  0.41325000  0.87035000  1.0
  O  O207  1  0.79608000  0.45687000  0.73425000  1.0
  O  O208  1  0.68186000  0.62799000  0.76033000  1.0
  O  O209  1  0.72672000  0.65133000  0.87469000  1.0
  O  O210  1  0.15086000  0.42675000  0.74037000  1.0
  O  O211  1  0.02626000  0.34059000  0.84602000  1.0
  O  O212  1  0.49746000  0.66442000  0.85880000  1.0
  O  O213  1  0.23019000  0.71628000  0.87016000  1.0
  O  O214  1  0.20392000  0.80877000  0.73412000  1.0
  O  O215  1  0.31819000  0.61189000  0.75943000  1.0
  O  O216  1  0.27359000  0.47420000  0.87412000  1.0
  O  O217  1  0.84909000  0.83250000  0.74037000  1.0
  O  O218  1  0.97383000  0.81350000  0.84576000  1.0
  O  O219  1  0.50316000  0.47558000  0.86038000  1.0
  O  O220  1  0.37452000  0.58304000  0.99999000  1.0
  O  O221  1  0.27869000  0.76960000  0.99984000  1.0
  O  O222  1  0.04965000  0.68198000  0.99990000  1.0
  O  O223  1  0.15420000  0.50434000  0.99973000  1.0
  O  O224  1  0.62548000  0.41693000  0.00022000  1.0
  O  O225  1  0.72123000  0.23047000  0.00004000  1.0
  O  O226  1  0.95030000  0.31817000  1.00000000  1.0
  O  O227  1  0.84575000  0.49581000  0.00003000  1.0
  O  O228  1  0.73045000  0.91339000  0.87017000  1.0
  O  O229  1  0.70368000  0.95662000  0.73421000  1.0
  O  O230  1  0.81756000  0.12929000  0.75856000  1.0
  O  O231  1  0.77385000  0.15114000  0.87403000  1.0
  O  O232  1  0.34914000  0.92674000  0.74060000  1.0
  O  O233  1  0.47376000  0.84052000  0.84611000  1.0
  O  O234  1  0.00198000  0.16462000  0.85928000  1.0
  O  O235  1  0.26957000  0.21631000  0.87018000  1.0
  O  O236  1  0.29627000  0.30882000  0.73418000  1.0
  O  O237  1  0.18249000  0.11185000  0.75863000  1.0
  O  O238  1  0.22603000  0.97459000  0.87407000  1.0
  O  O239  1  0.65105000  0.33235000  0.74058000  1.0
  O  O240  1  0.52604000  0.31312000  0.84601000  1.0
  O  O241  1  0.99789000  0.97604000  0.85935000  1.0
  O  O242  1  0.26964000  0.08664000  0.12982000  1.0
  O  O243  1  0.29595000  0.04314000  0.26586000  1.0
  O  O244  1  0.18246000  0.87072000  0.24148000  1.0
  O  O245  1  0.22618000  0.84887000  0.12601000  1.0
  O  O246  1  0.65089000  0.07313000  0.25955000  1.0
  O  O247  1  0.52630000  0.15939000  0.15403000  1.0
  O  O248  1  0.99804000  0.83532000  0.14073000  1.0
  O  O249  1  0.73035000  0.78366000  0.12981000  1.0
  O  O250  1  0.70400000  0.69136000  0.26588000  1.0
  O  O251  1  0.81751000  0.88812000  0.24141000  1.0
  O  O252  1  0.77395000  0.02539000  0.12598000  1.0
  O  O253  1  0.34891000  0.66760000  0.25951000  1.0
  O  O254  1  0.47388000  0.68684000  0.15406000  1.0
  O  O255  1  0.00209000  0.02400000  0.14065000  1.0
  O  O256  1  0.87490000  0.91687000  0.00007000  1.0
  O  O257  1  0.77875000  0.73052000  0.99999000  1.0
  O  O258  1  0.54977000  0.81834000  0.00005000  1.0
  O  O259  1  0.65456000  0.99577000  0.00003000  1.0
  O  O260  1  0.12512000  0.08308000  0.99994000  1.0
  O  O261  1  0.22124000  0.26950000  0.99992000  1.0
  O  O262  1  0.45025000  0.18164000  0.00001000  1.0
  O  O263  1  0.34547000  0.00422000  0.00001000  1.0
