# generated using pymatgen
data_ZnH14C16(NO2)2
_symmetry_space_group_name_H-M   'P 1'
_cell_length_a   8.11876000
_cell_length_b   8.97568000
_cell_length_c   11.24850000
_cell_angle_alpha   91.28830000
_cell_angle_beta   106.65600000
_cell_angle_gamma   96.60400000
_symmetry_Int_Tables_number   1
_chemical_formula_structural   ZnH14C16(NO2)2
_chemical_formula_sum   'Zn2 H28 C32 N4 O8'
_cell_volume   778.76607274
_cell_formula_units_Z   2
loop_
 _symmetry_equiv_pos_site_id
 _symmetry_equiv_pos_as_xyz
  1  'x, y, z'
loop_
 _atom_site_type_symbol
 _atom_site_label
 _atom_site_symmetry_multiplicity
 _atom_site_fract_x
 _atom_site_fract_y
 _atom_site_fract_z
 _atom_site_occupancy
  Zn  Zn0  1  0.48088000  0.86480000  0.74199000  1.0
  Zn  Zn1  1  0.51911000  0.13520000  0.25801000  1.0
  H  H2  1  0.94982000  0.06147000  0.61210000  1.0
  H  H3  1  0.05017000  0.93853000  0.38789000  1.0
  H  H4  1  0.38263000  0.38176000  0.90128000  1.0
  H  H5  1  0.61738000  0.61824000  0.09872000  1.0
  H  H6  1  0.65470000  0.01559000  0.99684000  1.0
  H  H7  1  0.34530000  0.98441000  0.00316000  1.0
  H  H8  1  0.86563000  0.23576000  0.08999000  1.0
  H  H9  1  0.13438000  0.76423000  0.91002000  1.0
  H  H10  1  0.88797000  0.33761000  0.72052000  1.0
  H  H11  1  0.11202000  0.66239000  0.27947000  1.0
  H  H12  1  0.67261000  0.11047000  0.64037000  1.0
  H  H13  1  0.32737000  0.88953000  0.35962000  1.0
  H  H14  1  0.07630000  0.49057000  0.88966000  1.0
  H  H15  1  0.92371000  0.50942000  0.11034000  1.0
  H  H16  1  0.14715000  0.40059000  0.02934000  1.0
  H  H17  1  0.85285000  0.59940000  0.97067000  1.0
  H  H18  1  0.84080000  0.79462000  0.81300000  1.0
  H  H19  1  0.15920000  0.20537000  0.18701000  1.0
  H  H20  1  0.04664000  0.68363000  0.71622000  1.0
  H  H21  1  0.95336000  0.31637000  0.28379000  1.0
  H  H22  1  0.62758000  0.59818000  0.37746000  1.0
  H  H23  1  0.37243000  0.40183000  0.62254000  1.0
  H  H24  1  0.43715000  0.70935000  0.48858000  1.0
  H  H25  1  0.56285000  0.29066000  0.51143000  1.0
  H  H26  1  0.09598000  0.65755000  0.50021000  1.0
  H  H27  1  0.90402000  0.34245000  0.49979000  1.0
  H  H28  1  0.91689000  0.56703000  0.37608000  1.0
  H  H29  1  0.08310000  0.43298000  0.62392000  1.0
  C  C30  1  0.19325000  0.96525000  0.64013000  1.0
  C  C31  1  0.80674000  0.03476000  0.35985000  1.0
  C  C32  1  0.02808000  0.01084000  0.56207000  1.0
  C  C33  1  0.97190000  0.98915000  0.43792000  1.0
  C  C34  1  0.42807000  0.61816000  0.85705000  1.0
  C  C35  1  0.57194000  0.38185000  0.14295000  1.0
  C  C36  1  0.45143000  0.49161000  0.94050000  1.0
  C  C37  1  0.54858000  0.50839000  0.05950000  1.0
  C  C38  1  0.70752000  0.09032000  0.93807000  1.0
  C  C39  1  0.29247000  0.90968000  0.06193000  1.0
  C  C40  1  0.82798000  0.21443000  0.98960000  1.0
  C  C41  1  0.17202000  0.78557000  0.01040000  1.0
  C  C42  1  0.89772000  0.30742000  0.91298000  1.0
  C  C43  1  0.10228000  0.69257000  0.08701000  1.0
  C  C44  1  0.83837000  0.26985000  0.78491000  1.0
  C  C45  1  0.16162000  0.73014000  0.21509000  1.0
  C  C46  1  0.71773000  0.14392000  0.73953000  1.0
  C  C47  1  0.28226000  0.85608000  0.26047000  1.0
  C  C48  1  0.03261000  0.44015000  0.96525000  1.0
  C  C49  1  0.96740000  0.55984000  0.03475000  1.0
  C  C50  1  0.79858000  0.74798000  0.71710000  1.0
  C  C51  1  0.20142000  0.25202000  0.28291000  1.0
  C  C52  1  0.91142000  0.68670000  0.66367000  1.0
  C  C53  1  0.08858000  0.31331000  0.33634000  1.0
  C  C54  1  0.85324000  0.63511000  0.53829000  1.0
  C  C55  1  0.14676000  0.36490000  0.46172000  1.0
  C  C56  1  0.67901000  0.64087000  0.47414000  1.0
  C  C57  1  0.32100000  0.35914000  0.52586000  1.0
  C  C58  1  0.57340000  0.70220000  0.53494000  1.0
  C  C59  1  0.42660000  0.29781000  0.46507000  1.0
  C  C60  1  0.97653000  0.57734000  0.47708000  1.0
  C  C61  1  0.02346000  0.42266000  0.52291000  1.0
  N  N62  1  0.65297000  0.05507000  0.81472000  1.0
  N  N63  1  0.34702000  0.94494000  0.18528000  1.0
  N  N64  1  0.63223000  0.75744000  0.65365000  1.0
  N  N65  1  0.36777000  0.24256000  0.34636000  1.0
  O  O66  1  0.29638000  0.91064000  0.58601000  1.0
  O  O67  1  0.70361000  0.08935000  0.41398000  1.0
  O  O68  1  0.22816000  0.97779000  0.75714000  1.0
  O  O69  1  0.77183000  0.02220000  0.24285000  1.0
  O  O70  1  0.52804000  0.74352000  0.89407000  1.0
  O  O71  1  0.47196000  0.25649000  0.10594000  1.0
  O  O72  1  0.31267000  0.59833000  0.75342000  1.0
  O  O73  1  0.68733000  0.40168000  0.24659000  1.0
