# generated using pymatgen
data_NiH14C14S2N2O5
_symmetry_space_group_name_H-M   'P 1'
_cell_length_a   8.15112000
_cell_length_b   10.31240000
_cell_length_c   10.68290000
_cell_angle_alpha   66.64950000
_cell_angle_beta   72.11430000
_cell_angle_gamma   86.79090000
_symmetry_Int_Tables_number   1
_chemical_formula_structural   NiH14C14S2N2O5
_chemical_formula_sum   'Ni2 H28 C28 S4 N4 O10'
_cell_volume   782.36375007
_cell_formula_units_Z   2
loop_
 _symmetry_equiv_pos_site_id
 _symmetry_equiv_pos_as_xyz
  1  'x, y, z'
loop_
 _atom_site_type_symbol
 _atom_site_label
 _atom_site_symmetry_multiplicity
 _atom_site_fract_x
 _atom_site_fract_y
 _atom_site_fract_z
 _atom_site_occupancy
  Ni  Ni0  1  0.50753000  0.71121000  0.78249000  1.0
  Ni  Ni1  1  0.49247000  0.28879000  0.21751000  1.0
  H  H2  1  0.23121000  0.58456000  0.84480000  1.0
  H  H3  1  0.76879000  0.41543000  0.15520000  1.0
  H  H4  1  0.31465000  0.47887000  0.96444000  1.0
  H  H5  1  0.68535000  0.52113000  0.03556000  1.0
  H  H6  1  0.96663000  0.92216000  0.81170000  1.0
  H  H7  1  0.03337000  0.07783000  0.18831000  1.0
  H  H8  1  0.01786000  0.74537000  0.84574000  1.0
  H  H9  1  0.98215000  0.25464000  0.15426000  1.0
  H  H10  1  0.76140000  0.03938000  0.88180000  1.0
  H  H11  1  0.23860000  0.96062000  0.11820000  1.0
  H  H12  1  0.62149000  0.22678000  0.95559000  1.0
  H  H13  1  0.37852000  0.77322000  0.04441000  1.0
  H  H14  1  0.60986000  0.00134000  0.37736000  1.0
  H  H15  1  0.39013000  0.99866000  0.62265000  1.0
  H  H16  1  0.75475000  0.80507000  0.32337000  1.0
  H  H17  1  0.24525000  0.19493000  0.67664000  1.0
  H  H18  1  0.34092000  0.90273000  0.38458000  1.0
  H  H19  1  0.65907000  0.09728000  0.61541000  1.0
  H  H20  1  0.15739000  0.93376000  0.50348000  1.0
  H  H21  1  0.84261000  0.06624000  0.49651000  1.0
  H  H22  1  0.97768000  0.58129000  0.32542000  1.0
  H  H23  1  0.02232000  0.41871000  0.67458000  1.0
  H  H24  1  0.13220000  0.40407000  0.25006000  1.0
  H  H25  1  0.86780000  0.59592000  0.74994000  1.0
  H  H26  1  0.58216000  0.50696000  0.30811000  1.0
  H  H27  1  0.41784000  0.49303000  0.69189000  1.0
  H  H28  1  0.44544000  0.69173000  0.38695000  1.0
  H  H29  1  0.55456000  0.30827000  0.61304000  1.0
  C  C30  1  0.76200000  0.77931000  0.83775000  1.0
  C  C31  1  0.23800000  0.22069000  0.16225000  1.0
  C  C32  1  0.91530000  0.81148000  0.87600000  1.0
  C  C33  1  0.08470000  0.18852000  0.12401000  1.0
  C  C34  1  0.77351000  0.90390000  0.09598000  1.0
  C  C35  1  0.22649000  0.09610000  0.90402000  1.0
  C  C36  1  0.73119000  0.02463000  0.99339000  1.0
  C  C37  1  0.26881000  0.97537000  0.00661000  1.0
  C  C38  1  0.65330000  0.13137000  0.03374000  1.0
  C  C39  1  0.34670000  0.86863000  0.96626000  1.0
  C  C40  1  0.64793000  0.00668000  0.26832000  1.0
  C  C41  1  0.35207000  0.99332000  0.73168000  1.0
  C  C42  1  0.72806000  0.89618000  0.23733000  1.0
  C  C43  1  0.27194000  0.10382000  0.76267000  1.0
  C  C44  1  0.27674000  0.74701000  0.60414000  1.0
  C  C45  1  0.72326000  0.25299000  0.39585000  1.0
  C  C46  1  0.22583000  0.84948000  0.47511000  1.0
  C  C47  1  0.77417000  0.15052000  0.52489000  1.0
  C  C48  1  0.19676000  0.65517000  0.36331000  1.0
  C  C49  1  0.80325000  0.34483000  0.63668000  1.0
  C  C50  1  0.11251000  0.57122000  0.32199000  1.0
  C  C51  1  0.88749000  0.42878000  0.67801000  1.0
  C  C52  1  0.20072000  0.47001000  0.27852000  1.0
  C  C53  1  0.79928000  0.52998000  0.72149000  1.0
  C  C54  1  0.44811000  0.52697000  0.31289000  1.0
  C  C55  1  0.55189000  0.47302000  0.68711000  1.0
  C  C56  1  0.37003000  0.63112000  0.35759000  1.0
  C  C57  1  0.62997000  0.36887000  0.64241000  1.0
  S  S58  1  0.88177000  0.76472000  0.06340000  1.0
  S  S59  1  0.11823000  0.23528000  0.93660000  1.0
  S  S60  1  0.07828000  0.77897000  0.41915000  1.0
  S  S61  1  0.92173000  0.22103000  0.58085000  1.0
  N  N62  1  0.61173000  0.12455000  0.16849000  1.0
  N  N63  1  0.38827000  0.87545000  0.83151000  1.0
  N  N64  1  0.36658000  0.44610000  0.27362000  1.0
  N  N65  1  0.63342000  0.55389000  0.72638000  1.0
  O  O66  1  0.64170000  0.68517000  0.93303000  1.0
  O  O67  1  0.35831000  0.31482000  0.06697000  1.0
  O  O68  1  0.75897000  0.84149000  0.71005000  1.0
  O  O69  1  0.24103000  0.15851000  0.28995000  1.0
  O  O70  1  0.42589000  0.77981000  0.60410000  1.0
  O  O71  1  0.57412000  0.22019000  0.39590000  1.0
  O  O72  1  0.17202000  0.64499000  0.70040000  1.0
  O  O73  1  0.82800000  0.35502000  0.29959000  1.0
  O  O74  1  0.28790000  0.57883000  0.91832000  1.0
  O  O75  1  0.71209000  0.42117000  0.08168000  1.0
