# generated using pymatgen
data_ZnTeH6C2N
_symmetry_space_group_name_H-M   'P 1'
_cell_length_a   6.92308000
_cell_length_b   6.97795000
_cell_length_c   21.65350000
_cell_angle_alpha   90.00020000
_cell_angle_beta   89.99880000
_cell_angle_gamma   89.99990000
_symmetry_Int_Tables_number   1
_chemical_formula_structural   ZnTeH6C2N
_chemical_formula_sum   'Zn8 Te8 H48 C16 N8'
_cell_volume   1046.05689770
_cell_formula_units_Z   8
loop_
 _symmetry_equiv_pos_site_id
 _symmetry_equiv_pos_as_xyz
  1  'x, y, z'
loop_
 _atom_site_type_symbol
 _atom_site_label
 _atom_site_symmetry_multiplicity
 _atom_site_fract_x
 _atom_site_fract_y
 _atom_site_fract_z
 _atom_site_occupancy
  Zn  Zn0  1  0.78797000  0.09302000  0.70799000  1.0
  Zn  Zn1  1  0.21203000  0.40698000  0.20799000  1.0
  Zn  Zn2  1  0.28796000  0.90701000  0.79201000  1.0
  Zn  Zn3  1  0.71204000  0.59300000  0.29201000  1.0
  Zn  Zn4  1  0.21202000  0.90696000  0.29201000  1.0
  Zn  Zn5  1  0.78797000  0.59303000  0.79200000  1.0
  Zn  Zn6  1  0.71204000  0.09300000  0.20800000  1.0
  Zn  Zn7  1  0.28796000  0.40700000  0.70799000  1.0
  Te  Te8  1  0.16077000  0.05458000  0.68767000  1.0
  Te  Te9  1  0.83923000  0.44542000  0.18767000  1.0
  Te  Te10  1  0.66077000  0.94545000  0.81233000  1.0
  Te  Te11  1  0.33923000  0.55454000  0.31233000  1.0
  Te  Te12  1  0.83923000  0.94541000  0.31234000  1.0
  Te  Te13  1  0.16076000  0.55459000  0.81233000  1.0
  Te  Te14  1  0.33923000  0.05455000  0.18767000  1.0
  Te  Te15  1  0.66076000  0.44544000  0.68766000  1.0
  H  H16  1  0.50454000  0.94246000  0.65185000  1.0
  H  H17  1  0.49547000  0.55755000  0.15185000  1.0
  H  H18  1  0.00453000  0.05758000  0.84815000  1.0
  H  H19  1  0.99545000  0.44244000  0.34815000  1.0
  H  H20  1  0.49546000  0.05752000  0.34815000  1.0
  H  H21  1  0.50454000  0.44247000  0.84815000  1.0
  H  H22  1  0.99545000  0.94244000  0.15185000  1.0
  H  H23  1  0.00454000  0.55755000  0.65185000  1.0
  H  H24  1  0.68671000  0.79911000  0.63737000  1.0
  H  H25  1  0.31329000  0.70088000  0.13738000  1.0
  H  H26  1  0.18671000  0.20092000  0.86263000  1.0
  H  H27  1  0.81329000  0.29908000  0.36263000  1.0
  H  H28  1  0.31327000  0.20086000  0.36263000  1.0
  H  H29  1  0.68671000  0.29912000  0.86263000  1.0
  H  H30  1  0.81329000  0.79908000  0.13737000  1.0
  H  H31  1  0.18672000  0.70090000  0.63736000  1.0
  H  H32  1  0.63646000  0.18033000  0.57943000  1.0
  H  H33  1  0.36357000  0.31967000  0.07943000  1.0
  H  H34  1  0.13645000  0.81970000  0.92057000  1.0
  H  H35  1  0.86351000  0.68031000  0.42057000  1.0
  H  H36  1  0.36352000  0.81964000  0.42057000  1.0
  H  H37  1  0.63649000  0.68036000  0.92057000  1.0
  H  H38  1  0.86351000  0.18033000  0.07944000  1.0
  H  H39  1  0.13647000  0.31967000  0.57943000  1.0
  H  H40  1  0.80214000  0.00138000  0.55634000  1.0
  H  H41  1  0.19787000  0.49861000  0.05634000  1.0
  H  H42  1  0.30215000  0.99864000  0.94366000  1.0
  H  H43  1  0.69785000  0.50134000  0.44366000  1.0
  H  H44  1  0.19785000  0.99859000  0.44366000  1.0
  H  H45  1  0.80215000  0.50139000  0.94366000  1.0
  H  H46  1  0.69785000  0.00138000  0.05634000  1.0
  H  H47  1  0.30215000  0.49862000  0.55634000  1.0
  H  H48  1  0.53027000  0.79185000  0.52168000  1.0
  H  H49  1  0.46974000  0.70815000  0.02168000  1.0
  H  H50  1  0.03027000  0.20816000  0.97833000  1.0
  H  H51  1  0.96973000  0.29185000  0.47833000  1.0
  H  H52  1  0.46973000  0.20811000  0.47832000  1.0
  H  H53  1  0.53027000  0.29188000  0.97832000  1.0
  H  H54  1  0.96973000  0.79188000  0.02167000  1.0
  H  H55  1  0.03027000  0.70812000  0.52167000  1.0
  H  H56  1  0.36116000  0.95446000  0.55364000  1.0
  H  H57  1  0.63886000  0.54554000  0.05364000  1.0
  H  H58  1  0.86116000  0.04555000  0.94636000  1.0
  H  H59  1  0.13883000  0.45446000  0.44635000  1.0
  H  H60  1  0.63883000  0.04549000  0.44636000  1.0
  H  H61  1  0.36117000  0.45452000  0.94636000  1.0
  H  H62  1  0.13883000  0.95450000  0.05364000  1.0
  H  H63  1  0.86117000  0.54551000  0.55364000  1.0
  C  C64  1  0.65551000  0.02425000  0.57456000  1.0
  C  C65  1  0.34452000  0.47575000  0.07456000  1.0
  C  C66  1  0.15549000  0.97577000  0.92544000  1.0
  C  C67  1  0.84448000  0.52422000  0.42544000  1.0
  C  C68  1  0.34448000  0.97572000  0.42544000  1.0
  C  C69  1  0.65552000  0.52426000  0.92543000  1.0
  C  C70  1  0.84449000  0.02424000  0.07457000  1.0
  C  C71  1  0.15552000  0.47575000  0.57456000  1.0
  C  C72  1  0.50299000  0.94527000  0.53052000  1.0
  C  C73  1  0.49702000  0.55473000  0.03052000  1.0
  C  C74  1  0.00300000  0.05475000  0.96948000  1.0
  C  C75  1  0.99700000  0.44526000  0.46948000  1.0
  C  C76  1  0.49700000  0.05470000  0.46948000  1.0
  C  C77  1  0.50301000  0.44531000  0.96948000  1.0
  C  C78  1  0.99700000  0.94530000  0.03052000  1.0
  C  C79  1  0.00300000  0.55471000  0.53052000  1.0
  N  N80  1  0.64632000  0.94120000  0.63708000  1.0
  N  N81  1  0.35369000  0.55881000  0.13708000  1.0
  N  N82  1  0.14633000  0.05884000  0.86292000  1.0
  N  N83  1  0.85367000  0.44118000  0.36292000  1.0
  N  N84  1  0.35367000  0.05877000  0.36292000  1.0
  N  N85  1  0.64632000  0.44123000  0.86292000  1.0
  N  N86  1  0.85369000  0.94120000  0.13708000  1.0
  N  N87  1  0.14633000  0.55882000  0.63708000  1.0
