# generated using pymatgen
data_Zn2H21C23BrN2O9
_symmetry_space_group_name_H-M   'P 1'
_cell_length_a   9.77227000
_cell_length_b   11.15310000
_cell_length_c   16.08880000
_cell_angle_alpha   91.22050000
_cell_angle_beta   90.39080000
_cell_angle_gamma   92.24830000
_symmetry_Int_Tables_number   1
_chemical_formula_structural   Zn2H21C23BrN2O9
_chemical_formula_sum   'Zn2 H21 C23 Br1 N2 O9'
_cell_volume   1751.73723979
_cell_formula_units_Z   1
loop_
 _symmetry_equiv_pos_site_id
 _symmetry_equiv_pos_as_xyz
  1  'x, y, z'
loop_
 _atom_site_type_symbol
 _atom_site_label
 _atom_site_symmetry_multiplicity
 _atom_site_fract_x
 _atom_site_fract_y
 _atom_site_fract_z
 _atom_site_occupancy
  Zn  Zn0  1  0.36459000  0.49411000  0.49952000  1.0
  Zn  Zn1  1  0.64759000  0.50722000  0.50096000  1.0
  H  H2  1  0.32498000  0.61563000  0.06323000  1.0
  H  H3  1  0.86187000  0.35180000  0.43611000  1.0
  H  H4  1  0.31900000  0.58891000  0.91813000  1.0
  H  H5  1  0.91708000  0.59191000  0.50802000  1.0
  H  H6  1  0.70209000  0.58786000  0.92811000  1.0
  H  H7  1  0.55933000  0.68029000  0.92978000  1.0
  H  H8  1  0.57572000  0.68414000  0.07546000  1.0
  H  H9  1  0.70261000  0.57555000  0.07296000  1.0
  H  H10  1  0.48572000  0.29799000  0.92667000  1.0
  H  H11  1  0.46247000  0.30657000  0.07053000  1.0
  H  H12  1  0.06442000  0.47955000  0.27598000  1.0
  H  H13  1  0.29134000  0.43269000  0.92688000  1.0
  H  H14  1  0.94424000  0.36277000  0.30744000  1.0
  H  H15  1  0.10332000  0.32494000  0.25975000  1.0
  H  H16  1  0.27653000  0.46218000  0.07132000  1.0
  H  H17  1  0.63644000  0.35474000  0.07914000  1.0
  H  H18  1  0.71664000  0.11235000  0.52273000  1.0
  H  H19  1  0.41771000  0.09524000  0.46057000  1.0
  H  H20  1  0.71036000  0.89114000  0.49485000  1.0
  H  H21  1  0.40222000  0.90340000  0.53030000  1.0
  H  H22  1  0.10964000  0.49921000  0.55883000  1.0
  C  C23  1  0.50339000  0.73308000  0.51148000  1.0
  C  C24  1  0.51556000  0.13523000  0.48220000  1.0
  C  C25  1  0.61418000  0.93639000  0.50410000  1.0
  C  C26  1  0.50710000  0.48892000  0.66239000  1.0
  C  C27  1  0.50093000  0.86588000  0.51590000  1.0
  C  C28  1  0.07415000  0.43431000  0.44711000  1.0
  C  C29  1  0.92225000  0.43210000  0.45683000  1.0
  C  C30  1  0.52336000  0.26811000  0.48665000  1.0
  C  C31  1  0.50331000  0.50951000  0.33749000  1.0
  C  C32  1  0.35680000  0.50949000  0.94878000  1.0
  C  C33  1  0.59874000  0.59644000  0.95321000  1.0
  C  C34  1  0.35311000  0.52459000  0.04445000  1.0
  C  C35  1  0.60067000  0.59603000  0.04919000  1.0
  C  C36  1  0.49885000  0.50718000  0.24736000  1.0
  C  C37  1  0.50580000  0.49150000  0.91823000  1.0
  C  C38  1  0.05320000  0.38879000  0.30085000  1.0
  C  C39  1  0.49560000  0.50047000  0.08149000  1.0
  C  C40  1  0.53835000  0.37505000  0.05026000  1.0
  C  C41  1  0.54885000  0.37153000  0.95483000  1.0
  C  C42  1  0.49484000  0.50411000  0.17177000  1.0
  C  C43  1  0.50816000  0.48757000  0.82794000  1.0
  C  C44  1  0.50718000  0.48751000  0.75243000  1.0
  C  C45  1  0.61970000  0.06654000  0.50445000  1.0
  Br  Br46  1  0.73648000  0.33109000  0.91964000  1.0
  N  N47  1  0.15637000  0.47506000  0.50471000  1.0
  N  N48  1  0.85778000  0.51726000  0.49073000  1.0
  O  O49  1  0.38977000  0.67607000  0.52406000  1.0
  O  O50  1  0.61732000  0.68557000  0.49505000  1.0
  O  O51  1  0.39270000  0.46612000  0.62587000  1.0
  O  O52  1  0.62165000  0.51352000  0.62803000  1.0
  O  O53  1  0.41027000  0.31879000  0.47459000  1.0
  O  O54  1  0.63871000  0.32219000  0.50245000  1.0
  O  O55  1  0.39182000  0.53107000  0.37436000  1.0
  O  O56  1  0.61810000  0.48925000  0.37147000  1.0
  O  O57  1  0.12716000  0.38541000  0.37900000  1.0
