# generated using pymatgen
data_MnH10C16(NO)4
_symmetry_space_group_name_H-M   'P 1'
_cell_length_a   7.46341000
_cell_length_b   14.15700000
_cell_length_c   17.99120000
_cell_angle_alpha   89.98180000
_cell_angle_beta   89.99950000
_cell_angle_gamma   89.99800000
_symmetry_Int_Tables_number   1
_chemical_formula_structural   MnH10C16(NO)4
_chemical_formula_sum   'Mn4 H40 C64 N16 O16'
_cell_volume   1900.94101597
_cell_formula_units_Z   4
loop_
 _symmetry_equiv_pos_site_id
 _symmetry_equiv_pos_as_xyz
  1  'x, y, z'
loop_
 _atom_site_type_symbol
 _atom_site_label
 _atom_site_symmetry_multiplicity
 _atom_site_fract_x
 _atom_site_fract_y
 _atom_site_fract_z
 _atom_site_occupancy
  Mn  Mn0  1  0.51780000  0.25718000  0.47683000  1.0
  Mn  Mn1  1  0.98161000  0.74267000  0.97692000  1.0
  Mn  Mn2  1  0.48161000  0.75734000  0.02308000  1.0
  Mn  Mn3  1  0.01781000  0.24281000  0.52317000  1.0
  H  H4  1  0.86153000  0.74443000  0.16824000  1.0
  H  H5  1  0.63859000  0.25533000  0.66803000  1.0
  H  H6  1  0.13861000  0.24466000  0.33197000  1.0
  H  H7  1  0.36151000  0.75557000  0.83176000  1.0
  H  H8  1  0.91162000  0.48911000  0.41749000  1.0
  H  H9  1  0.58812000  0.51090000  0.91755000  1.0
  H  H10  1  0.08807000  0.98908000  0.08246000  1.0
  H  H11  1  0.41164000  0.01091000  0.58250000  1.0
  H  H12  1  0.42294000  0.74910000  0.21046000  1.0
  H  H13  1  0.07727000  0.25103000  0.71052000  1.0
  H  H14  1  0.57729000  0.24896000  0.28949000  1.0
  H  H15  1  0.92292000  0.75093000  0.78954000  1.0
  H  H16  1  0.14334000  0.95498000  0.49344000  1.0
  H  H17  1  0.35656000  0.04484000  0.99336000  1.0
  H  H18  1  0.85658000  0.45515000  0.00664000  1.0
  H  H19  1  0.64333000  0.54504000  0.50656000  1.0
  H  H20  1  0.84932000  0.64156000  0.34825000  1.0
  H  H21  1  0.65086000  0.35861000  0.84824000  1.0
  H  H22  1  0.15083000  0.14137000  0.15176000  1.0
  H  H23  1  0.34933000  0.85846000  0.65174000  1.0
  H  H24  1  0.41661000  0.68939000  0.32862000  1.0
  H  H25  1  0.08366000  0.31045000  0.82856000  1.0
  H  H26  1  0.58363000  0.18955000  0.17145000  1.0
  H  H27  1  0.91662000  0.81061000  0.67138000  1.0
  H  H28  1  0.47563000  0.53214000  0.38852000  1.0
  H  H29  1  0.02426000  0.46755000  0.88852000  1.0
  H  H30  1  0.52422000  0.03246000  0.11149000  1.0
  H  H31  1  0.97564000  0.96786000  0.61149000  1.0
  H  H32  1  0.29197000  0.06687000  0.28104000  1.0
  H  H33  1  0.20839000  0.93317000  0.78090000  1.0
  H  H34  1  0.70841000  0.56683000  0.21910000  1.0
  H  H35  1  0.79197000  0.43313000  0.71895000  1.0
  H  H36  1  0.07642000  0.79914000  0.43541000  1.0
  H  H37  1  0.42390000  0.20067000  0.93536000  1.0
  H  H38  1  0.92390000  0.29932000  0.06464000  1.0
  H  H39  1  0.57642000  0.70087000  0.56459000  1.0
  H  H40  1  0.20702000  0.91714000  0.22020000  1.0
  H  H41  1  0.29364000  0.08291000  0.72009000  1.0
  H  H42  1  0.79364000  0.41708000  0.27991000  1.0
  H  H43  1  0.70702000  0.58286000  0.77980000  1.0
  C  C44  1  0.00591000  0.74452000  0.16049000  1.0
  C  C45  1  0.49418000  0.25530000  0.66036000  1.0
  C  C46  1  0.99421000  0.24468000  0.33964000  1.0
  C  C47  1  0.50588000  0.75549000  0.83951000  1.0
  C  C48  1  0.19681000  0.50201000  0.40538000  1.0
  C  C49  1  0.30301000  0.49782000  0.90543000  1.0
  C  C50  1  0.80297000  0.00218000  0.09458000  1.0
  C  C51  1  0.69682000  0.99799000  0.59462000  1.0
  C  C52  1  0.23451000  0.40857000  0.44170000  1.0
  C  C53  1  0.26513000  0.59125000  0.94173000  1.0
  C  C54  1  0.76510000  0.90876000  0.05826000  1.0
  C  C55  1  0.73453000  0.09142000  0.55829000  1.0
  C  C56  1  0.26913000  0.11317000  0.42620000  1.0
  C  C57  1  0.23030000  0.88674000  0.92600000  1.0
  C  C58  1  0.73034000  0.61326000  0.07399000  1.0
  C  C59  1  0.76911000  0.38683000  0.57380000  1.0
  C  C60  1  0.12872000  0.67248000  0.33324000  1.0
  C  C61  1  0.37150000  0.32749000  0.83319000  1.0
  C  C62  1  0.87147000  0.17249000  0.16682000  1.0
  C  C63  1  0.62872000  0.82752000  0.66676000  1.0
  C  C64  1  0.02005000  0.53286000  0.39570000  1.0
  C  C65  1  0.47982000  0.46709000  0.89574000  1.0
  C  C66  1  0.97979000  0.03289000  0.10427000  1.0
  C  C67  1  0.52006000  0.96715000  0.60429000  1.0
  C  C68  1  0.29467000  0.74618000  0.18260000  1.0
  C  C69  1  0.20547000  0.25382000  0.68259000  1.0
  C  C70  1  0.70549000  0.24616000  0.31742000  1.0
  C  C71  1  0.79464000  0.75384000  0.81741000  1.0
  C  C72  1  0.13862000  0.84690000  0.32400000  1.0
  C  C73  1  0.36179000  0.15307000  0.82392000  1.0
  C  C74  1  0.86179000  0.34692000  0.17608000  1.0
  C  C75  1  0.63861000  0.65311000  0.67600000  1.0
  C  C76  1  0.22336000  0.02077000  0.39105000  1.0
  C  C77  1  0.27668000  0.97917000  0.89093000  1.0
  C  C78  1  0.77670000  0.52082000  0.10907000  1.0
  C  C79  1  0.72335000  0.47924000  0.60895000  1.0
  C  C80  1  0.16024000  0.94490000  0.43381000  1.0
  C  C81  1  0.33982000  0.05496000  0.93372000  1.0
  C  C82  1  0.83983000  0.44503000  0.06628000  1.0
  C  C83  1  0.66024000  0.55511000  0.56619000  1.0
  C  C84  1  0.98590000  0.61736000  0.35827000  1.0
  C  C85  1  0.51418000  0.38267000  0.85826000  1.0
  C  C86  1  0.01415000  0.11731000  0.14175000  1.0
  C  C87  1  0.48591000  0.88266000  0.64173000  1.0
  C  C88  1  0.30592000  0.64416000  0.34596000  1.0
  C  C89  1  0.19425000  0.35570000  0.84592000  1.0
  C  C90  1  0.69422000  0.14430000  0.15409000  1.0
  C  C91  1  0.80593000  0.85584000  0.65404000  1.0
  C  C92  1  0.33942000  0.55802000  0.38035000  1.0
  C  C93  1  0.16054000  0.44176000  0.88036000  1.0
  C  C94  1  0.66050000  0.05824000  0.11965000  1.0
  C  C95  1  0.83944000  0.94198000  0.61965000  1.0
  C  C96  1  0.24123000  0.00836000  0.31431000  1.0
  C  C97  1  0.25910000  0.99164000  0.81419000  1.0
  C  C98  1  0.75912000  0.50835000  0.18581000  1.0
  C  C99  1  0.74122000  0.49164000  0.68568000  1.0
  C  C100  1  0.12137000  0.85824000  0.40134000  1.0
  C  C101  1  0.37890000  0.14163000  0.90127000  1.0
  C  C102  1  0.87891000  0.35836000  0.09873000  1.0
  C  C103  1  0.62136000  0.64177000  0.59866000  1.0
  C  C104  1  0.19593000  0.92335000  0.28032000  1.0
  C  C105  1  0.30457000  0.07667000  0.78022000  1.0
  C  C106  1  0.80457000  0.42333000  0.21978000  1.0
  C  C107  1  0.69592000  0.57665000  0.71967000  1.0
  N  N108  1  0.09178000  0.75834000  0.29212000  1.0
  N  N109  1  0.40860000  0.24169000  0.79206000  1.0
  N  N110  1  0.90860000  0.25830000  0.20794000  1.0
  N  N111  1  0.59177000  0.74167000  0.70788000  1.0
  N  N112  1  0.12994000  0.74954000  0.21637000  1.0
  N  N113  1  0.37029000  0.25051000  0.71630000  1.0
  N  N114  1  0.87032000  0.24948000  0.28370000  1.0
  N  N115  1  0.62989000  0.75048000  0.78364000  1.0
  N  N116  1  0.09029000  0.73816000  0.09631000  1.0
  N  N117  1  0.40961000  0.26153000  0.59620000  1.0
  N  N118  1  0.90964000  0.23845000  0.40380000  1.0
  N  N119  1  0.59025000  0.76186000  0.90369000  1.0
  N  N120  1  0.27152000  0.73978000  0.11061000  1.0
  N  N121  1  0.22844000  0.26004000  0.61058000  1.0
  N  N122  1  0.72846000  0.23995000  0.38942000  1.0
  N  N123  1  0.77151000  0.76024000  0.88939000  1.0
  O  O124  1  0.11489000  0.37565000  0.48434000  1.0
  O  O125  1  0.38505000  0.62439000  0.98409000  1.0
  O  O126  1  0.88504000  0.87562000  0.01591000  1.0
  O  O127  1  0.61492000  0.12434000  0.51565000  1.0
  O  O128  1  0.20512000  0.13096000  0.49044000  1.0
  O  O129  1  0.29367000  0.86887000  0.99035000  1.0
  O  O130  1  0.79375000  0.63111000  0.00965000  1.0
  O  O131  1  0.70508000  0.36905000  0.50955000  1.0
  O  O132  1  0.36868000  0.17050000  0.39017000  1.0
  O  O133  1  0.13086000  0.82956000  0.88983000  1.0
  O  O134  1  0.63088000  0.67044000  0.11015000  1.0
  O  O135  1  0.86866000  0.32950000  0.60983000  1.0
  O  O136  1  0.38377000  0.37014000  0.42567000  1.0
  O  O137  1  0.11548000  0.62939000  0.92594000  1.0
  O  O138  1  0.61544000  0.87062000  0.07405000  1.0
  O  O139  1  0.88379000  0.12986000  0.57432000  1.0
