# generated using pymatgen
data_CdH16C20N2(ClO)2
_symmetry_space_group_name_H-M   'P 1'
_cell_length_a   8.42193000
_cell_length_b   12.17510000
_cell_length_c   12.80410000
_cell_angle_alpha   95.22570000
_cell_angle_beta   97.22400000
_cell_angle_gamma   103.01300000
_symmetry_Int_Tables_number   1
_chemical_formula_structural   CdH16C20N2(ClO)2
_chemical_formula_sum   'Cd2 H32 C40 N4 Cl4 O4'
_cell_volume   1259.31554625
_cell_formula_units_Z   2
loop_
 _symmetry_equiv_pos_site_id
 _symmetry_equiv_pos_as_xyz
  1  'x, y, z'
loop_
 _atom_site_type_symbol
 _atom_site_label
 _atom_site_symmetry_multiplicity
 _atom_site_fract_x
 _atom_site_fract_y
 _atom_site_fract_z
 _atom_site_occupancy
  Cd  Cd0  1  0.98389000  0.13431000  0.94261000  1.0
  Cd  Cd1  1  0.01612000  0.86569000  0.05740000  1.0
  H  H2  1  0.57738000  0.08618000  0.90934000  1.0
  H  H3  1  0.42263000  0.91382000  0.09066000  1.0
  H  H4  1  0.94542000  0.38190000  0.94687000  1.0
  H  H5  1  0.05458000  0.61809000  0.05313000  1.0
  H  H6  1  0.35691000  0.19029000  0.86803000  1.0
  H  H7  1  0.64309000  0.80971000  0.13197000  1.0
  H  H8  1  0.74419000  0.50030000  0.90909000  1.0
  H  H9  1  0.25581000  0.49970000  0.09090000  1.0
  H  H10  1  0.27773000  0.36015000  0.83453000  1.0
  H  H11  1  0.72227000  0.63984000  0.16547000  1.0
  H  H12  1  0.55853000  0.58057000  0.88105000  1.0
  H  H13  1  0.44148000  0.41942000  0.11895000  1.0
  H  H14  1  0.09144000  0.45396000  0.78587000  1.0
  H  H15  1  0.90856000  0.54603000  0.21413000  1.0
  H  H16  1  0.49938000  0.75236000  0.85898000  1.0
  H  H17  1  0.50063000  0.24764000  0.14102000  1.0
  H  H18  1  0.91147000  0.58244000  0.73086000  1.0
  H  H19  1  0.08853000  0.41755000  0.26914000  1.0
  H  H20  1  0.29991000  0.86852000  0.80015000  1.0
  H  H21  1  0.70010000  0.13147000  0.19985000  1.0
  H  H22  1  0.03087000  0.88213000  0.76817000  1.0
  H  H23  1  0.96914000  0.11786000  0.23184000  1.0
  H  H24  1  0.86854000  0.75913000  0.73141000  1.0
  H  H25  1  0.13146000  0.24087000  0.26859000  1.0
  H  H26  1  0.80875000  0.66174000  0.54562000  1.0
  H  H27  1  0.19125000  0.33826000  0.45438000  1.0
  H  H28  1  0.19843000  0.96552000  0.63558000  1.0
  H  H29  1  0.80156000  0.03448000  0.36442000  1.0
  H  H30  1  0.82679000  0.68133000  0.35505000  1.0
  H  H31  1  0.17321000  0.31867000  0.64495000  1.0
  H  H32  1  0.21354000  0.98406000  0.44393000  1.0
  H  H33  1  0.78646000  0.01594000  0.55608000  1.0
  C  C34  1  0.60809000  0.17772000  0.90652000  1.0
  C  C35  1  0.39191000  0.82228000  0.09348000  1.0
  C  C36  1  0.81325000  0.34362000  0.92775000  1.0
  C  C37  1  0.18675000  0.65638000  0.07225000  1.0
  C  C38  1  0.48616000  0.23597000  0.88333000  1.0
  C  C39  1  0.51385000  0.76403000  0.11667000  1.0
  C  C40  1  0.70015000  0.40843000  0.90606000  1.0
  C  C41  1  0.29985000  0.59157000  0.09394000  1.0
  C  C42  1  0.53101000  0.35423000  0.88210000  1.0
  C  C43  1  0.46899000  0.64576000  0.11790000  1.0
  C  C44  1  0.40265000  0.41423000  0.85593000  1.0
  C  C45  1  0.59735000  0.58577000  0.14407000  1.0
  C  C46  1  0.43315000  0.52837000  0.85643000  1.0
  C  C47  1  0.56685000  0.47163000  0.14357000  1.0
  C  C48  1  0.31370000  0.59259000  0.82539000  1.0
  C  C49  1  0.68630000  0.40741000  0.17461000  1.0
  C  C50  1  0.14416000  0.54498000  0.78939000  1.0
  C  C51  1  0.85585000  0.45502000  0.21061000  1.0
  C  C52  1  0.37024000  0.71155000  0.82955000  1.0
  C  C53  1  0.62976000  0.28845000  0.17044000  1.0
  C  C54  1  0.04280000  0.61424000  0.75819000  1.0
  C  C55  1  0.95720000  0.38575000  0.24180000  1.0
  C  C56  1  0.26330000  0.77659000  0.79692000  1.0
  C  C57  1  0.73670000  0.22341000  0.20308000  1.0
  C  C58  1  0.99329000  0.79961000  0.71845000  1.0
  C  C59  1  0.00671000  0.20038000  0.28155000  1.0
  C  C60  1  0.00442000  0.81138000  0.60332000  1.0
  C  C61  1  0.99557000  0.18863000  0.39668000  1.0
  C  C62  1  0.89980000  0.73168000  0.52382000  1.0
  C  C63  1  0.10020000  0.26832000  0.47618000  1.0
  C  C64  1  0.11907000  0.90158000  0.57425000  1.0
  C  C65  1  0.88092000  0.09843000  0.42575000  1.0
  C  C66  1  0.90928000  0.74217000  0.41727000  1.0
  C  C67  1  0.09072000  0.25783000  0.58273000  1.0
  C  C68  1  0.12806000  0.91258000  0.46761000  1.0
  C  C69  1  0.87193000  0.08743000  0.53239000  1.0
  C  C70  1  0.02303000  0.83304000  0.38824000  1.0
  C  C71  1  0.97697000  0.16696000  0.61176000  1.0
  C  C72  1  0.02610000  0.84685000  0.27302000  1.0
  C  C73  1  0.97390000  0.15316000  0.72699000  1.0
  N  N74  1  0.76902000  0.23017000  0.92772000  1.0
  N  N75  1  0.23098000  0.76983000  0.07228000  1.0
  N  N76  1  0.10240000  0.72796000  0.76039000  1.0
  N  N77  1  0.89760000  0.27203000  0.23961000  1.0
  Cl  Cl78  1  0.18037000  0.29025000  0.07377000  1.0
  Cl  Cl79  1  0.81963000  0.70975000  0.92624000  1.0
  Cl  Cl80  1  0.80473000  0.99675000  0.05229000  1.0
  Cl  Cl81  1  0.19527000  0.00325000  0.94770000  1.0
  O  O82  1  0.93910000  0.76519000  0.20464000  1.0
  O  O83  1  0.06091000  0.23481000  0.79537000  1.0
  O  O84  1  0.11083000  0.93792000  0.24742000  1.0
  O  O85  1  0.88916000  0.06209000  0.75258000  1.0
