# generated using pymatgen
data_Ag2H11C16S2N7
_symmetry_space_group_name_H-M   'P 1'
_cell_length_a   4.04573000
_cell_length_b   11.44710000
_cell_length_c   20.18920000
_cell_angle_alpha   89.99900000
_cell_angle_beta   89.01450000
_cell_angle_gamma   89.99890000
_symmetry_Int_Tables_number   1
_chemical_formula_structural   Ag2H11C16S2N7
_chemical_formula_sum   'Ag4 H22 C32 S4 N14'
_cell_volume   934.86141898
_cell_formula_units_Z   2
loop_
 _symmetry_equiv_pos_site_id
 _symmetry_equiv_pos_as_xyz
  1  'x, y, z'
loop_
 _atom_site_type_symbol
 _atom_site_label
 _atom_site_symmetry_multiplicity
 _atom_site_fract_x
 _atom_site_fract_y
 _atom_site_fract_z
 _atom_site_occupancy
  Ag  Ag0  1  0.15274000  0.52284000  0.90110000  1.0
  Ag  Ag1  1  0.84722000  0.52283000  0.59890000  1.0
  Ag  Ag2  1  0.84728000  0.47717000  0.09890000  1.0
  Ag  Ag3  1  0.15275000  0.47716000  0.40110000  1.0
  H  H4  1  0.39018000  0.39159000  0.78738000  1.0
  H  H5  1  0.60980000  0.39159000  0.71262000  1.0
  H  H6  1  0.60981000  0.60842000  0.21262000  1.0
  H  H7  1  0.39019000  0.60842000  0.28738000  1.0
  H  H8  1  0.50001000  0.88496000  0.75000000  1.0
  H  H9  1  0.50002000  0.11504000  0.25000000  1.0
  H  H10  1  0.14994000  0.96042000  0.80981000  1.0
  H  H11  1  0.85003000  0.96042000  0.69018000  1.0
  H  H12  1  0.85003000  0.03958000  0.19019000  1.0
  H  H13  1  0.14998000  0.03959000  0.30980000  1.0
  H  H14  1  0.82869000  0.04933000  0.90112000  1.0
  H  H15  1  0.17136000  0.04932000  0.59887000  1.0
  H  H16  1  0.17132000  0.95067000  0.09888000  1.0
  H  H17  1  0.82869000  0.95067000  0.40111000  1.0
  H  H18  1  0.66819000  0.92234000  0.00060000  1.0
  H  H19  1  0.33186000  0.92231000  0.49941000  1.0
  H  H20  1  0.33186000  0.07767000  0.99942000  1.0
  H  H21  1  0.66815000  0.07765000  0.50058000  1.0
  H  H22  1  0.82857000  0.71286000  0.99884000  1.0
  H  H23  1  0.17145000  0.71284000  0.50117000  1.0
  H  H24  1  0.17147000  0.28714000  0.00117000  1.0
  H  H25  1  0.82853000  0.28713000  0.49883000  1.0
  C  C26  1  0.49998000  0.55450000  0.75000000  1.0
  C  C27  1  0.50001000  0.44551000  0.25000000  1.0
  C  C28  1  0.49998000  0.79029000  0.75000000  1.0
  C  C29  1  0.50000000  0.20972000  0.25000000  1.0
  C  C30  1  0.33582000  0.72734000  0.79991000  1.0
  C  C31  1  0.66417000  0.72733000  0.70009000  1.0
  C  C32  1  0.66419000  0.27267000  0.20009000  1.0
  C  C33  1  0.33583000  0.27267000  0.29991000  1.0
  C  C34  1  0.15386000  0.78728000  0.85462000  1.0
  C  C35  1  0.84612000  0.78727000  0.64538000  1.0
  C  C36  1  0.84613000  0.21273000  0.14538000  1.0
  C  C37  1  0.15389000  0.21273000  0.35462000  1.0
  C  C38  1  0.07628000  0.90657000  0.85203000  1.0
  C  C39  1  0.92370000  0.90657000  0.64797000  1.0
  C  C40  1  0.92367000  0.09343000  0.14798000  1.0
  C  C41  1  0.07632000  0.09343000  0.35202000  1.0
  C  C42  1  0.89804000  0.95736000  0.90419000  1.0
  C  C43  1  0.10198000  0.95735000  0.59581000  1.0
  C  C44  1  0.10194000  0.04263000  0.09581000  1.0
  C  C45  1  0.89804000  0.04264000  0.40419000  1.0
  C  C46  1  0.80619000  0.88782000  0.95817000  1.0
  C  C47  1  0.19381000  0.88780000  0.54183000  1.0
  C  C48  1  0.19381000  0.11218000  0.04184000  1.0
  C  C49  1  0.80618000  0.11218000  0.45816000  1.0
  C  C50  1  0.89448000  0.77031000  0.95766000  1.0
  C  C51  1  0.10550000  0.77030000  0.54235000  1.0
  C  C52  1  0.10553000  0.22969000  0.04235000  1.0
  C  C53  1  0.89449000  0.22968000  0.45765000  1.0
  C  C54  1  0.61077000  0.29110000  0.89223000  1.0
  C  C55  1  0.38920000  0.29109000  0.60777000  1.0
  C  C56  1  0.38922000  0.70891000  0.10777000  1.0
  C  C57  1  0.61080000  0.70891000  0.39223000  1.0
  S  S58  1  0.65641000  0.41101000  0.93773000  1.0
  S  S59  1  0.34354000  0.41100000  0.56227000  1.0
  S  S60  1  0.34359000  0.58900000  0.06228000  1.0
  S  S61  1  0.65643000  0.58900000  0.43772000  1.0
  N  N62  1  0.33568000  0.60987000  0.79997000  1.0
  N  N63  1  0.66429000  0.60986000  0.70004000  1.0
  N  N64  1  0.66431000  0.39014000  0.20003000  1.0
  N  N65  1  0.33571000  0.39014000  0.29997000  1.0
  N  N66  1  0.49998000  0.43718000  0.75000000  1.0
  N  N67  1  0.50001000  0.56282000  0.25000000  1.0
  N  N68  1  0.06215000  0.72095000  0.90711000  1.0
  N  N69  1  0.93785000  0.72094000  0.59290000  1.0
  N  N70  1  0.93788000  0.27906000  0.09290000  1.0
  N  N71  1  0.06214000  0.27905000  0.40710000  1.0
  N  N72  1  0.56435000  0.20487000  0.86162000  1.0
  N  N73  1  0.43565000  0.20485000  0.63837000  1.0
  N  N74  1  0.43569000  0.79514000  0.13838000  1.0
  N  N75  1  0.56432000  0.79516000  0.36163000  1.0
