# generated using pymatgen
data_LiH2C2O3
_symmetry_space_group_name_H-M   'P 1'
_cell_length_a   7.07767000
_cell_length_b   7.27344000
_cell_length_c   7.56384000
_cell_angle_alpha   96.82170000
_cell_angle_beta   94.54430000
_cell_angle_gamma   115.02300000
_symmetry_Int_Tables_number   1
_chemical_formula_structural   LiH2C2O3
_chemical_formula_sum   'Li4 H8 C8 O12'
_cell_volume   346.68700721
_cell_formula_units_Z   4
loop_
 _symmetry_equiv_pos_site_id
 _symmetry_equiv_pos_as_xyz
  1  'x, y, z'
loop_
 _atom_site_type_symbol
 _atom_site_label
 _atom_site_symmetry_multiplicity
 _atom_site_fract_x
 _atom_site_fract_y
 _atom_site_fract_z
 _atom_site_occupancy
  Li  Li0  1  0.11261000  0.49881000  0.77230000  1.0
  Li  Li1  1  0.88739000  0.50120000  0.22771000  1.0
  Li  Li2  1  0.82341000  0.10059000  0.94223000  1.0
  Li  Li3  1  0.17659000  0.89941000  0.05777000  1.0
  H  H4  1  0.40899000  0.73909000  0.96577000  1.0
  H  H5  1  0.59102000  0.26091000  0.03423000  1.0
  H  H6  1  0.90583000  0.67858000  0.74182000  1.0
  H  H7  1  0.09418000  0.32142000  0.25818000  1.0
  H  H8  1  0.77560000  0.47184000  0.59644000  1.0
  H  H9  1  0.22440000  0.52816000  0.40356000  1.0
  H  H10  1  0.26614000  0.60522000  0.10908000  1.0
  H  H11  1  0.73387000  0.39479000  0.89093000  1.0
  C  C12  1  0.50688000  0.76170000  0.66124000  1.0
  C  C13  1  0.49312000  0.23830000  0.33876000  1.0
  C  C14  1  0.86693000  0.90340000  0.25197000  1.0
  C  C15  1  0.13307000  0.09660000  0.74803000  1.0
  C  C16  1  0.63299000  0.82265000  0.51803000  1.0
  C  C17  1  0.36700000  0.17734000  0.48198000  1.0
  C  C18  1  0.73913000  0.85943000  0.39601000  1.0
  C  C19  1  0.26087000  0.14057000  0.60398000  1.0
  O  O20  1  0.89202000  0.06197000  0.18415000  1.0
  O  O21  1  0.10798000  0.93803000  0.81586000  1.0
  O  O22  1  0.31866000  0.62304000  0.61502000  1.0
  O  O23  1  0.68133000  0.37695000  0.38498000  1.0
  O  O24  1  0.26791000  0.67986000  0.00662000  1.0
  O  O25  1  0.73210000  0.32014000  0.99339000  1.0
  O  O26  1  0.94554000  0.78027000  0.20363000  1.0
  O  O27  1  0.05446000  0.21973000  0.79637000  1.0
  O  O28  1  0.59249000  0.84611000  0.82209000  1.0
  O  O29  1  0.40752000  0.15389000  0.17791000  1.0
  O  O30  1  0.85014000  0.52719000  0.72354000  1.0
  O  O31  1  0.14986000  0.47281000  0.27646000  1.0
