# generated using pymatgen
data_Zn4H4C22N2O13F4
_symmetry_space_group_name_H-M   'P 1'
_cell_length_a   18.85530000
_cell_length_b   18.97930000
_cell_length_c   18.97950000
_cell_angle_alpha   94.29270000
_cell_angle_beta   117.47300000
_cell_angle_gamma   117.47100000
_symmetry_Int_Tables_number   1
_chemical_formula_structural   Zn4H4C22N2O13F4
_chemical_formula_sum   'Zn8 H8 C44 N4 O26 F8'
_cell_volume   4976.81315788
_cell_formula_units_Z   2
loop_
 _symmetry_equiv_pos_site_id
 _symmetry_equiv_pos_as_xyz
  1  'x, y, z'
loop_
 _atom_site_type_symbol
 _atom_site_label
 _atom_site_symmetry_multiplicity
 _atom_site_fract_x
 _atom_site_fract_y
 _atom_site_fract_z
 _atom_site_occupancy
  Zn  Zn0  1  0.92140000  0.12419000  0.70580000  1.0
  Zn  Zn1  1  0.08392000  0.70773000  0.29030000  1.0
  Zn  Zn2  1  0.08393000  0.29031000  0.70774000  1.0
  Zn  Zn3  1  0.91606000  0.70969000  0.29226000  1.0
  Zn  Zn4  1  0.91607000  0.29227000  0.70970000  1.0
  Zn  Zn5  1  0.07860000  0.87581000  0.29421000  1.0
  Zn  Zn6  1  0.07860000  0.29420000  0.87581000  1.0
  Zn  Zn7  1  0.92140000  0.70581000  0.12419000  1.0
  H  H8  1  0.06046000  0.93201000  0.66274000  1.0
  H  H9  1  0.00326000  0.97426000  0.67202000  1.0
  H  H10  1  0.93954000  0.06800000  0.33727000  1.0
  H  H11  1  0.99674000  0.02574000  0.32799000  1.0
  H  H12  1  0.94046000  0.33761000  0.06860000  1.0
  H  H13  1  0.99719000  0.32818000  0.02586000  1.0
  H  H14  1  0.05950000  0.66239000  0.93138000  1.0
  H  H15  1  0.00281000  0.67183000  0.97417000  1.0
  C  C16  1  0.99364000  0.38832000  0.88511000  1.0
  C  C17  1  0.07204000  0.08113000  0.51861000  1.0
  C  C18  1  0.07225000  0.51884000  0.08111000  1.0
  C  C19  1  0.92776000  0.48117000  0.91889000  1.0
  C  C20  1  0.92795000  0.91887000  0.48139000  1.0
  C  C21  1  0.36314000  0.43280000  0.93552000  1.0
  C  C22  1  0.63687000  0.56720000  0.06448000  1.0
  C  C23  1  0.63686000  0.06451000  0.56722000  1.0
  C  C24  1  0.00636000  0.61168000  0.11489000  1.0
  C  C25  1  0.36313000  0.93549000  0.43278000  1.0
  C  C26  1  0.45133000  0.47610000  0.97700000  1.0
  C  C27  1  0.54866000  0.52389000  0.02298000  1.0
  C  C28  1  0.54867000  0.02300000  0.52391000  1.0
  C  C29  1  0.45133000  0.97701000  0.47610000  1.0
  C  C30  1  0.00632000  0.11490000  0.61165000  1.0
  C  C31  1  0.99999000  0.43184000  0.56816000  1.0
  C  C32  1  0.00001000  0.56818000  0.43184000  1.0
  C  C33  1  0.00000000  0.47576000  0.52424000  1.0
  C  C34  1  0.00001000  0.52424000  0.47577000  1.0
  C  C35  1  0.99368000  0.88511000  0.38836000  1.0
  C  C36  1  0.74080000  0.11661000  0.61881000  1.0
  C  C37  1  0.25920000  0.88339000  0.38119000  1.0
  C  C38  1  0.25919000  0.38122000  0.88341000  1.0
  C  C39  1  0.74081000  0.61878000  0.11658000  1.0
  C  C40  1  0.99999000  0.38008000  0.61991000  1.0
  C  C41  1  0.00001000  0.61993000  0.38009000  1.0
  C  C42  1  0.00001000  0.12005000  0.87995000  1.0
  C  C43  1  0.00000000  0.87996000  0.12006000  1.0
  C  C44  1  0.00001000  0.06821000  0.93178000  1.0
  C  C45  1  0.00001000  0.93180000  0.06823000  1.0
  C  C46  1  0.00001000  0.02426000  0.97574000  1.0
  C  C47  1  0.00001000  0.97575000  0.02427000  1.0
  C  C48  1  0.02047000  0.98444000  0.57477000  1.0
  C  C49  1  0.97953000  0.01556000  0.42524000  1.0
  C  C50  1  0.97982000  0.42535000  0.01577000  1.0
  C  C51  1  0.02018000  0.57465000  0.98423000  1.0
  C  C52  1  0.08502000  0.00744000  0.53866000  1.0
  C  C53  1  0.91497000  0.99256000  0.46135000  1.0
  C  C54  1  0.91509000  0.46129000  0.99276000  1.0
  C  C55  1  0.08491000  0.53871000  0.00723000  1.0
  C  C56  1  0.99329000  0.94169000  0.44644000  1.0
  C  C57  1  0.00671000  0.05831000  0.55357000  1.0
  C  C58  1  0.00676000  0.55363000  0.05828000  1.0
  C  C59  1  0.99324000  0.44638000  0.94172000  1.0
  N  N60  1  0.05020000  0.97998000  0.65639000  1.0
  N  N61  1  0.94980000  0.02002000  0.34361000  1.0
  N  N62  1  0.95033000  0.34382000  0.02039000  1.0
  N  N63  1  0.04966000  0.65619000  0.97960000  1.0
  O  O64  1  0.00000000  0.24979000  0.75021000  1.0
  O  O65  1  0.95396000  0.63891000  0.07655000  1.0
  O  O66  1  0.95390000  0.07654000  0.63885000  1.0
  O  O67  1  0.04610000  0.92346000  0.36116000  1.0
  O  O68  1  0.77968000  0.19694000  0.64318000  1.0
  O  O69  1  0.22032000  0.80306000  0.35680000  1.0
  O  O70  1  0.22032000  0.35684000  0.80308000  1.0
  O  O71  1  0.77967000  0.64317000  0.19692000  1.0
  O  O72  1  0.00000000  0.75021000  0.24979000  1.0
  O  O73  1  0.93494000  0.35508000  0.63518000  1.0
  O  O74  1  0.06506000  0.64493000  0.36482000  1.0
  O  O75  1  0.06505000  0.36482000  0.64493000  1.0
  O  O76  1  0.93495000  0.63518000  0.35507000  1.0
  O  O77  1  0.05553000  0.20055000  0.92021000  1.0
  O  O78  1  0.94447000  0.79945000  0.07980000  1.0
  O  O79  1  0.94448000  0.07979000  0.79944000  1.0
  O  O80  1  0.05553000  0.92021000  0.20056000  1.0
  O  O81  1  0.78266000  0.07730000  0.63465000  1.0
  O  O82  1  0.21734000  0.92269000  0.36535000  1.0
  O  O83  1  0.21733000  0.36535000  0.92271000  1.0
  O  O84  1  0.78267000  0.63464000  0.07729000  1.0
  O  O85  1  0.94381000  0.37192000  0.80545000  1.0
  O  O86  1  0.05617000  0.62806000  0.19455000  1.0
  O  O87  1  0.05621000  0.19456000  0.62811000  1.0
  O  O88  1  0.94379000  0.80544000  0.37190000  1.0
  O  O89  1  0.04605000  0.36111000  0.92346000  1.0
  F  F90  1  0.16886000  0.01144000  0.57565000  1.0
  F  F91  1  0.14326000  0.16131000  0.53674000  1.0
  F  F92  1  0.14365000  0.53717000  0.16128000  1.0
  F  F93  1  0.85636000  0.46283000  0.83872000  1.0
  F  F94  1  0.85674000  0.83869000  0.46327000  1.0
  F  F95  1  0.83114000  0.98856000  0.42435000  1.0
  F  F96  1  0.83139000  0.42429000  0.98897000  1.0
  F  F97  1  0.16861000  0.57572000  0.01103000  1.0
