# generated using pymatgen
data_ZnH9C12(NO)4
_symmetry_space_group_name_H-M   'P 1'
_cell_length_a   11.22580000
_cell_length_b   11.22580000
_cell_length_c   11.61610000
_cell_angle_alpha   73.46500000
_cell_angle_beta   73.46470000
_cell_angle_gamma   61.49950000
_symmetry_Int_Tables_number   1
_chemical_formula_structural   ZnH9C12(NO)4
_chemical_formula_sum   'Zn4 H36 C48 N16 O16'
_cell_volume   1213.85639604
_cell_formula_units_Z   4
loop_
 _symmetry_equiv_pos_site_id
 _symmetry_equiv_pos_as_xyz
  1  'x, y, z'
loop_
 _atom_site_type_symbol
 _atom_site_label
 _atom_site_symmetry_multiplicity
 _atom_site_fract_x
 _atom_site_fract_y
 _atom_site_fract_z
 _atom_site_occupancy
  Zn  Zn0  1  0.92054000  0.66548000  0.66181000  1.0
  Zn  Zn1  1  0.33452000  0.07946000  0.83819000  1.0
  Zn  Zn2  1  0.07945000  0.33452000  0.33818000  1.0
  Zn  Zn3  1  0.66548000  0.92055000  0.16182000  1.0
  H  H4  1  0.08093000  0.30981000  0.67046000  1.0
  H  H5  1  0.69019000  0.91907000  0.82954000  1.0
  H  H6  1  0.91907000  0.69020000  0.32954000  1.0
  H  H7  1  0.30981000  0.08092000  0.17046000  1.0
  H  H8  1  0.87282000  0.94519000  0.47322000  1.0
  H  H9  1  0.05482000  0.12718000  0.02678000  1.0
  H  H10  1  0.12718000  0.05482000  0.52678000  1.0
  H  H11  1  0.94518000  0.87282000  0.97322000  1.0
  H  H12  1  0.09603000  0.98742000  0.32365000  1.0
  H  H13  1  0.01258000  0.90397000  0.17635000  1.0
  H  H14  1  0.90397000  0.01258000  0.67635000  1.0
  H  H15  1  0.98742000  0.09603000  0.82365000  1.0
  H  H16  1  0.23309000  0.56983000  0.49982000  1.0
  H  H17  1  0.43018000  0.76691000  0.00019000  1.0
  H  H18  1  0.76691000  0.43018000  0.50018000  1.0
  H  H19  1  0.56982000  0.23308000  0.99982000  1.0
  H  H20  1  0.39786000  0.75437000  0.39757000  1.0
  H  H21  1  0.24564000  0.60215000  0.10244000  1.0
  H  H22  1  0.60214000  0.24564000  0.60243000  1.0
  H  H23  1  0.75436000  0.39785000  0.89756000  1.0
  H  H24  1  0.33846000  0.83362000  0.25761000  1.0
  H  H25  1  0.16639000  0.66154000  0.24239000  1.0
  H  H26  1  0.66154000  0.16639000  0.74239000  1.0
  H  H27  1  0.83361000  0.33845000  0.75761000  1.0
  H  H28  1  0.58520000  0.55606000  0.39341000  1.0
  H  H29  1  0.44395000  0.41480000  0.10658000  1.0
  H  H30  1  0.41479000  0.44394000  0.60659000  1.0
  H  H31  1  0.55606000  0.58521000  0.89342000  1.0
  H  H32  1  0.73763000  0.33058000  0.32356000  1.0
  H  H33  1  0.66942000  0.26235000  0.17644000  1.0
  H  H34  1  0.26236000  0.66941000  0.67646000  1.0
  H  H35  1  0.33059000  0.73764000  0.82356000  1.0
  H  H36  1  0.21113000  0.49820000  0.98114000  1.0
  H  H37  1  0.50180000  0.78887000  0.51886000  1.0
  H  H38  1  0.78887000  0.50180000  0.01886000  1.0
  H  H39  1  0.49821000  0.21113000  0.48114000  1.0
  C  C40  1  0.10205000  0.34998000  0.73310000  1.0
  C  C41  1  0.65002000  0.89794000  0.76691000  1.0
  C  C42  1  0.89794000  0.65002000  0.26691000  1.0
  C  C43  1  0.34998000  0.10205000  0.23310000  1.0
  C  C44  1  0.09798000  0.49244000  0.83030000  1.0
  C  C45  1  0.50755000  0.90201000  0.66971000  1.0
  C  C46  1  0.90200000  0.50755000  0.16971000  1.0
  C  C47  1  0.49245000  0.09799000  0.33029000  1.0
  C  C48  1  0.05577000  0.62638000  0.86377000  1.0
  C  C49  1  0.37363000  0.94423000  0.63623000  1.0
  C  C50  1  0.94423000  0.37363000  0.13623000  1.0
  C  C51  1  0.62638000  0.05577000  0.36377000  1.0
  C  C52  1  0.30086000  0.30940000  0.94281000  1.0
  C  C53  1  0.69058000  0.69913000  0.55719000  1.0
  C  C54  1  0.69913000  0.69059000  0.05719000  1.0
  C  C55  1  0.30942000  0.30087000  0.44280000  1.0
  C  C56  1  0.19785000  0.36178000  0.86540000  1.0
  C  C57  1  0.63822000  0.80214000  0.63461000  1.0
  C  C58  1  0.80213000  0.63822000  0.13462000  1.0
  C  C59  1  0.36178000  0.19786000  0.36539000  1.0
  C  C60  1  0.98111000  0.87411000  0.45868000  1.0
  C  C61  1  0.12590000  0.01889000  0.04133000  1.0
  C  C62  1  0.01889000  0.12590000  0.54133000  1.0
  C  C63  1  0.87410000  0.98111000  0.95867000  1.0
  C  C64  1  0.09016000  0.89617000  0.38374000  1.0
  C  C65  1  0.10384000  0.90985000  0.11626000  1.0
  C  C66  1  0.90984000  0.10384000  0.61626000  1.0
  C  C67  1  0.89616000  0.09015000  0.88374000  1.0
  C  C68  1  0.16510000  0.67785000  0.47618000  1.0
  C  C69  1  0.32214000  0.83491000  0.02383000  1.0
  C  C70  1  0.83490000  0.32215000  0.52382000  1.0
  C  C71  1  0.67785000  0.16509000  0.97617000  1.0
  C  C72  1  0.34645000  0.74747000  0.33407000  1.0
  C  C73  1  0.25253000  0.65353000  0.16594000  1.0
  C  C74  1  0.65354000  0.25253000  0.66593000  1.0
  C  C75  1  0.74747000  0.34646000  0.83407000  1.0
  C  C76  1  0.42959000  0.61109000  0.29057000  1.0
  C  C77  1  0.38890000  0.57043000  0.20942000  1.0
  C  C78  1  0.57042000  0.38890000  0.70942000  1.0
  C  C79  1  0.61110000  0.42958000  0.79058000  1.0
  C  C80  1  0.55514000  0.52345000  0.33063000  1.0
  C  C81  1  0.47655000  0.44487000  0.16936000  1.0
  C  C82  1  0.44486000  0.47655000  0.66937000  1.0
  C  C83  1  0.52346000  0.55514000  0.83063000  1.0
  C  C84  1  0.64076000  0.39816000  0.29085000  1.0
  C  C85  1  0.60184000  0.35925000  0.20916000  1.0
  C  C86  1  0.35924000  0.60184000  0.70916000  1.0
  C  C87  1  0.39816000  0.64076000  0.79085000  1.0
  N  N88  1  0.03893000  0.48333000  0.74636000  1.0
  N  N89  1  0.51667000  0.96107000  0.75364000  1.0
  N  N90  1  0.96106000  0.51668000  0.25364000  1.0
  N  N91  1  0.48333000  0.03893000  0.24635000  1.0
  N  N92  1  0.19878000  0.27364000  0.80365000  1.0
  N  N93  1  0.72636000  0.80122000  0.69636000  1.0
  N  N94  1  0.80121000  0.72637000  0.19636000  1.0
  N  N95  1  0.27364000  0.19878000  0.30365000  1.0
  N  N96  1  0.02930000  0.73777000  0.51600000  1.0
  N  N97  1  0.26223000  0.97070000  0.98400000  1.0
  N  N98  1  0.97070000  0.26224000  0.48400000  1.0
  N  N99  1  0.73777000  0.02929000  0.01600000  1.0
  N  N100  1  0.20508000  0.77141000  0.39515000  1.0
  N  N101  1  0.22859000  0.79492000  0.10485000  1.0
  N  N102  1  0.79492000  0.22860000  0.60484000  1.0
  N  N103  1  0.77141000  0.20508000  0.89515000  1.0
  O  O104  1  0.39036000  0.18687000  0.94778000  1.0
  O  O105  1  0.81313000  0.60963000  0.55221000  1.0
  O  O106  1  0.60963000  0.81313000  0.05222000  1.0
  O  O107  1  0.18688000  0.39037000  0.44778000  1.0
  O  O108  1  0.97115000  0.73229000  0.80555000  1.0
  O  O109  1  0.26771000  0.02885000  0.69444000  1.0
  O  O110  1  0.02885000  0.26772000  0.19444000  1.0
  O  O111  1  0.73229000  0.97115000  0.30554000  1.0
  O  O112  1  0.10867000  0.62613000  0.94868000  1.0
  O  O113  1  0.37387000  0.89134000  0.55131000  1.0
  O  O114  1  0.89133000  0.37387000  0.05131000  1.0
  O  O115  1  0.62614000  0.10867000  0.44868000  1.0
  O  O116  1  0.29614000  0.39480000  0.00304000  1.0
  O  O117  1  0.60520000  0.70385000  0.49695000  1.0
  O  O118  1  0.70385000  0.60520000  0.99695000  1.0
  O  O119  1  0.39480000  0.29615000  0.50304000  1.0
