# generated using pymatgen
data_HoH19C30N5O7
_symmetry_space_group_name_H-M   'P 1'
_cell_length_a   10.42240000
_cell_length_b   11.20140000
_cell_length_c   13.38920000
_cell_angle_alpha   109.88300000
_cell_angle_beta   101.34500000
_cell_angle_gamma   108.19500000
_symmetry_Int_Tables_number   1
_chemical_formula_structural   HoH19C30N5O7
_chemical_formula_sum   'Ho2 H38 C60 N10 O14'
_cell_volume   1313.72706299
_cell_formula_units_Z   2
loop_
 _symmetry_equiv_pos_site_id
 _symmetry_equiv_pos_as_xyz
  1  'x, y, z'
loop_
 _atom_site_type_symbol
 _atom_site_label
 _atom_site_symmetry_multiplicity
 _atom_site_fract_x
 _atom_site_fract_y
 _atom_site_fract_z
 _atom_site_occupancy
  Ho  Ho0  1  0.50019000  0.08489000  0.37590000  1.0
  Ho  Ho1  1  0.49981000  0.91511000  0.62410000  1.0
  H  H2  1  0.41440000  0.56255000  0.98843000  1.0
  H  H3  1  0.58560000  0.43745000  0.01157000  1.0
  H  H4  1  0.27024000  0.32020000  0.95907000  1.0
  H  H5  1  0.72976000  0.67980000  0.04093000  1.0
  H  H6  1  0.96103000  0.45122000  0.38680000  1.0
  H  H7  1  0.03897000  0.54879000  0.61320000  1.0
  H  H8  1  0.03019000  0.30847000  0.47782000  1.0
  H  H9  1  0.96980000  0.69153000  0.52218000  1.0
  H  H10  1  0.23870000  0.24836000  0.44891000  1.0
  H  H11  1  0.76130000  0.75164000  0.55109000  1.0
  H  H12  1  0.92754000  0.31112000  0.70665000  1.0
  H  H13  1  0.07248000  0.68889000  0.29336000  1.0
  H  H14  1  0.19560000  0.44058000  0.78755000  1.0
  H  H15  1  0.80441000  0.55943000  0.21245000  1.0
  H  H16  1  0.34461000  0.32452000  0.70530000  1.0
  H  H17  1  0.65539000  0.67548000  0.29471000  1.0
  H  H18  1  0.14961000  0.93872000  0.22839000  1.0
  H  H19  1  0.85039000  0.06128000  0.77161000  1.0
  H  H20  1  0.96422000  0.78018000  0.03367000  1.0
  H  H21  1  0.03578000  0.21982000  0.96633000  1.0
  H  H22  1  0.04535000  0.68465000  0.87333000  1.0
  H  H23  1  0.95465000  0.31535000  0.12667000  1.0
  H  H24  1  0.25354000  0.68088000  0.80293000  1.0
  H  H25  1  0.74647000  0.31913000  0.19707000  1.0
  H  H26  1  0.51368000  0.74967000  0.84394000  1.0
  H  H27  1  0.48632000  0.25033000  0.15606000  1.0
  H  H28  1  0.76478000  0.88308000  0.98428000  1.0
  H  H29  1  0.23522000  0.11692000  0.01572000  1.0
  H  H30  1  0.92655000  0.03961000  0.18679000  1.0
  H  H31  1  0.07345000  0.96039000  0.81321000  1.0
  H  H32  1  0.81437000  0.10983000  0.33362000  1.0
  H  H33  1  0.18563000  0.89017000  0.66638000  1.0
  H  H34  1  0.49163000  0.75748000  0.18227000  1.0
  H  H35  1  0.50836000  0.24251000  0.81773000  1.0
  H  H36  1  0.74005000  0.34809000  0.47021000  1.0
  H  H37  1  0.25995000  0.65191000  0.52979000  1.0
  H  H38  1  0.63594000  0.35338000  0.37041000  1.0
  H  H39  1  0.36406000  0.64662000  0.62959000  1.0
  C  C40  1  0.42660000  0.74620000  0.35951000  1.0
  C  C41  1  0.57340000  0.25380000  0.64049000  1.0
  C  C42  1  0.37990000  0.62435000  0.24728000  1.0
  C  C43  1  0.62010000  0.37564000  0.75272000  1.0
  C  C44  1  0.38317000  0.54321000  0.05629000  1.0
  C  C45  1  0.61683000  0.45679000  0.94371000  1.0
  C  C46  1  0.30269000  0.40890000  0.04038000  1.0
  C  C47  1  0.69731000  0.59110000  0.95962000  1.0
  C  C48  1  0.29719000  0.48533000  0.22243000  1.0
  C  C49  1  0.70281000  0.51467000  0.77757000  1.0
  C  C50  1  0.23437000  0.44293000  0.30261000  1.0
  C  C51  1  0.76562000  0.55707000  0.69739000  1.0
  C  C52  1  0.05244000  0.42559000  0.37818000  1.0
  C  C53  1  0.94756000  0.57441000  0.62181000  1.0
  C  C54  1  0.09035000  0.34512000  0.42834000  1.0
  C  C55  1  0.90964000  0.65488000  0.57166000  1.0
  C  C56  1  0.20572000  0.31254000  0.41311000  1.0
  C  C57  1  0.79428000  0.68746000  0.58689000  1.0
  C  C58  1  0.28062000  0.36313000  0.34987000  1.0
  C  C59  1  0.71937000  0.63687000  0.65012000  1.0
  C  C60  1  0.40582000  0.32892000  0.33437000  1.0
  C  C61  1  0.59417000  0.67107000  0.66563000  1.0
  C  C62  1  0.77299000  0.06083000  0.54230000  1.0
  C  C63  1  0.22702000  0.93919000  0.45770000  1.0
  C  C64  1  0.93473000  0.12763000  0.58785000  1.0
  C  C65  1  0.06528000  0.87238000  0.41216000  1.0
  C  C66  1  0.99640000  0.26218000  0.67608000  1.0
  C  C67  1  0.00361000  0.73783000  0.32393000  1.0
  C  C68  1  0.14498000  0.33477000  0.72052000  1.0
  C  C69  1  0.85503000  0.66524000  0.27949000  1.0
  C  C70  1  0.22806000  0.26966000  0.67514000  1.0
  C  C71  1  0.77194000  0.73034000  0.32486000  1.0
  C  C72  1  0.02732000  0.07007000  0.54750000  1.0
  C  C73  1  0.97268000  0.92994000  0.45251000  1.0
  C  C74  1  0.18041000  0.89561000  0.15543000  1.0
  C  C75  1  0.81959000  0.10439000  0.84457000  1.0
  C  C76  1  0.07793000  0.80744000  0.04724000  1.0
  C  C77  1  0.92207000  0.19256000  0.95276000  1.0
  C  C78  1  0.12288000  0.75494000  0.95792000  1.0
  C  C79  1  0.87712000  0.24506000  0.04208000  1.0
  C  C80  1  0.27123000  0.79339000  0.97699000  1.0
  C  C81  1  0.72877000  0.20661000  0.02300000  1.0
  C  C82  1  0.36696000  0.88341000  0.08925000  1.0
  C  C83  1  0.63304000  0.11659000  0.91075000  1.0
  C  C84  1  0.32781000  0.74674000  0.88920000  1.0
  C  C85  1  0.67219000  0.25326000  0.11080000  1.0
  C  C86  1  0.47225000  0.78607000  0.91168000  1.0
  C  C87  1  0.52775000  0.21393000  0.08832000  1.0
  C  C88  1  0.57159000  0.87580000  0.02400000  1.0
  C  C89  1  0.42841000  0.12420000  0.97600000  1.0
  C  C90  1  0.51943000  0.92523000  0.11320000  1.0
  C  C91  1  0.48057000  0.07476000  0.88680000  1.0
  C  C92  1  0.72171000  0.91862000  0.05133000  1.0
  C  C93  1  0.27829000  0.08137000  0.94867000  1.0
  C  C94  1  0.81019000  0.00330000  0.16225000  1.0
  C  C95  1  0.18981000  0.99670000  0.83775000  1.0
  C  C96  1  0.74857000  0.04485000  0.24518000  1.0
  C  C97  1  0.25143000  0.95514000  0.75482000  1.0
  C  C98  1  0.42383000  0.65101000  0.16217000  1.0
  C  C99  1  0.57617000  0.34900000  0.83783000  1.0
  N  N100  1  0.26116000  0.37953000  0.12108000  1.0
  N  N101  1  0.73884000  0.62047000  0.87892000  1.0
  N  N102  1  0.12197000  0.47364000  0.31592000  1.0
  N  N103  1  0.87803000  0.52636000  0.68407000  1.0
  N  N104  1  0.17105000  0.14093000  0.59211000  1.0
  N  N105  1  0.82895000  0.85908000  0.40789000  1.0
  N  N106  1  0.32075000  0.93134000  0.17651000  1.0
  N  N107  1  0.67925000  0.06865000  0.82349000  1.0
  N  N108  1  0.60771000  0.00783000  0.22204000  1.0
  N  N109  1  0.39229000  0.99216000  0.77796000  1.0
  O  O110  1  0.45636000  0.86476000  0.35869000  1.0
  O  O111  1  0.54363000  0.13524000  0.64131000  1.0
  O  O112  1  0.43560000  0.72606000  0.44779000  1.0
  O  O113  1  0.56440000  0.27394000  0.55222000  1.0
  O  O114  1  0.51830000  0.41997000  0.33950000  1.0
  O  O115  1  0.48170000  0.58003000  0.66050000  1.0
  O  O116  1  0.38736000  0.20409000  0.31712000  1.0
  O  O117  1  0.61264000  0.79591000  0.68288000  1.0
  O  O118  1  0.71675000  0.10179000  0.47483000  1.0
  O  O119  1  0.28326000  0.89822000  0.52518000  1.0
  O  O120  1  0.70915000  0.98596000  0.58505000  1.0
  O  O121  1  0.29084000  0.01404000  0.41495000  1.0
  O  O122  1  0.68911000  0.29766000  0.38896000  1.0
  O  O123  1  0.31090000  0.70234000  0.61103000  1.0
