# generated using pymatgen
data_Zn3H18C28(SO7)2
_symmetry_space_group_name_H-M   'P 1'
_cell_length_a   5.93630000
_cell_length_b   14.40650000
_cell_length_c   19.00250000
_cell_angle_alpha   85.96930000
_cell_angle_beta   89.99990000
_cell_angle_gamma   89.99930000
_symmetry_Int_Tables_number   1
_chemical_formula_structural   Zn3H18C28(SO7)2
_chemical_formula_sum   'Zn6 H36 C56 S4 O28'
_cell_volume   1621.09893473
_cell_formula_units_Z   2
loop_
 _symmetry_equiv_pos_site_id
 _symmetry_equiv_pos_as_xyz
  1  'x, y, z'
loop_
 _atom_site_type_symbol
 _atom_site_label
 _atom_site_symmetry_multiplicity
 _atom_site_fract_x
 _atom_site_fract_y
 _atom_site_fract_z
 _atom_site_occupancy
  Zn  Zn0  1  0.50001000  0.50000000  0.50000000  1.0
  Zn  Zn1  1  0.99998000  0.00000000  0.00000000  1.0
  Zn  Zn2  1  0.98414000  0.40101000  0.52723000  1.0
  Zn  Zn3  1  0.48413000  0.09899000  0.97276000  1.0
  Zn  Zn4  1  0.01587000  0.59899000  0.47276000  1.0
  Zn  Zn5  1  0.51584000  0.90101000  0.02723000  1.0
  H  H6  1  0.81978000  0.53546000  0.58806000  1.0
  H  H7  1  0.31972000  0.96455000  0.91194000  1.0
  H  H8  1  0.18026000  0.46455000  0.41194000  1.0
  H  H9  1  0.68022000  0.03546000  0.08806000  1.0
  H  H10  1  0.31082000  0.32687000  0.35459000  1.0
  H  H11  1  0.81083000  0.17313000  0.14542000  1.0
  H  H12  1  0.68919000  0.67313000  0.64541000  1.0
  H  H13  1  0.18920000  0.82687000  0.85459000  1.0
  H  H14  1  0.17288000  0.20346000  0.27890000  1.0
  H  H15  1  0.67288000  0.29654000  0.22110000  1.0
  H  H16  1  0.82712000  0.79654000  0.72109000  1.0
  H  H17  1  0.32714000  0.70346000  0.77890000  1.0
  H  H18  1  0.78445000  0.04744000  0.32258000  1.0
  H  H19  1  0.28443000  0.45256000  0.17742000  1.0
  H  H20  1  0.21556000  0.95256000  0.67742000  1.0
  H  H21  1  0.71556000  0.54744000  0.82257000  1.0
  H  H22  1  0.90910000  0.16671000  0.40375000  1.0
  H  H23  1  0.40910000  0.33333333  0.09625000  1.0
  H  H24  1  0.09091000  0.83329000  0.59624000  1.0
  H  H25  1  0.59093000  0.66671000  0.90375000  1.0
  H  H26  1  0.76434000  0.91831000  0.22078000  1.0
  H  H27  1  0.26433000  0.58169000  0.27922000  1.0
  H  H28  1  0.23565000  0.08169000  0.77922000  1.0
  H  H29  1  0.73567000  0.41832000  0.72078000  1.0
  H  H30  1  0.87508000  0.76824000  0.28696000  1.0
  H  H31  1  0.37507000  0.73175000  0.21304000  1.0
  H  H32  1  0.12492000  0.23176000  0.71304000  1.0
  H  H33  1  0.62492000  0.26825000  0.78696000  1.0
  H  H34  1  0.25423000  0.76742000  0.40410000  1.0
  H  H35  1  0.75420000  0.73258000  0.09591000  1.0
  H  H36  1  0.74578000  0.23257000  0.59591000  1.0
  H  H37  1  0.24576000  0.26742000  0.90410000  1.0
  H  H38  1  0.14746000  0.91947000  0.34110000  1.0
  H  H39  1  0.64746000  0.58053000  0.15891000  1.0
  H  H40  1  0.85253000  0.08053000  0.65890000  1.0
  H  H41  1  0.35253000  0.41946000  0.84110000  1.0
  C  C42  1  0.69489000  0.32610000  0.43127000  1.0
  C  C43  1  0.19489000  0.17390000  0.06874000  1.0
  C  C44  1  0.30511000  0.67390000  0.56874000  1.0
  C  C45  1  0.80512000  0.82610000  0.93127000  1.0
  C  C46  1  0.61687000  0.25332000  0.38425000  1.0
  C  C47  1  0.11688000  0.24668000  0.11576000  1.0
  C  C48  1  0.38312000  0.74668000  0.61575000  1.0
  C  C49  1  0.88315000  0.75332000  0.88425000  1.0
  C  C50  1  0.41085000  0.26459000  0.34867000  1.0
  C  C51  1  0.91085000  0.23541000  0.15133000  1.0
  C  C52  1  0.58916000  0.73541000  0.65133000  1.0
  C  C53  1  0.08919000  0.76459000  0.84867000  1.0
  C  C54  1  0.33464000  0.19653000  0.30583000  1.0
  C  C55  1  0.83462000  0.30347000  0.19417000  1.0
  C  C56  1  0.66537000  0.80347000  0.69416000  1.0
  C  C57  1  0.16539000  0.69653000  0.80583000  1.0
  C  C58  1  0.47012000  0.11870000  0.29734000  1.0
  C  C59  1  0.97012000  0.38130000  0.20266000  1.0
  C  C60  1  0.52987000  0.88130000  0.70266000  1.0
  C  C61  1  0.02990000  0.61870000  0.79734000  1.0
  C  C62  1  0.67862000  0.10736000  0.33117000  1.0
  C  C63  1  0.17861000  0.39264000  0.16883000  1.0
  C  C64  1  0.32138000  0.89264000  0.66883000  1.0
  C  C65  1  0.82140000  0.60736000  0.83117000  1.0
  C  C66  1  0.74962000  0.17439000  0.37559000  1.0
  C  C67  1  0.24960000  0.32561000  0.12440000  1.0
  C  C68  1  0.25039000  0.82561000  0.62440000  1.0
  C  C69  1  0.75042000  0.67439000  0.87560000  1.0
  C  C70  1  0.45188000  0.92685000  0.27859000  1.0
  C  C71  1  0.95186000  0.57315000  0.22142000  1.0
  C  C72  1  0.54812000  0.07315000  0.72142000  1.0
  C  C73  1  0.04814000  0.42685000  0.77859000  1.0
  C  C74  1  0.65526000  0.88515000  0.26129000  1.0
  C  C75  1  0.15525000  0.61485000  0.23871000  1.0
  C  C76  1  0.34474000  0.11485000  0.73871000  1.0
  C  C77  1  0.84475000  0.38516000  0.76129000  1.0
  C  C78  1  0.71557000  0.80163000  0.29776000  1.0
  C  C79  1  0.21556000  0.69837000  0.20224000  1.0
  C  C80  1  0.28442000  0.19837000  0.70223000  1.0
  C  C81  1  0.78443000  0.30164000  0.79776000  1.0
  C  C82  1  0.57244000  0.75967000  0.34939000  1.0
  C  C83  1  0.07241000  0.74033000  0.15061000  1.0
  C  C84  1  0.42757000  0.24032000  0.65061000  1.0
  C  C85  1  0.92755000  0.25968000  0.84939000  1.0
  C  C86  1  0.36543000  0.80083000  0.36434000  1.0
  C  C87  1  0.86541000  0.69917000  0.13566000  1.0
  C  C88  1  0.63458000  0.19916000  0.63566000  1.0
  C  C89  1  0.13456000  0.30083000  0.86435000  1.0
  C  C90  1  0.30589000  0.88552000  0.32942000  1.0
  C  C91  1  0.80587000  0.61449000  0.17059000  1.0
  C  C92  1  0.69411000  0.11448000  0.67058000  1.0
  C  C93  1  0.19411000  0.38551000  0.82942000  1.0
  C  C94  1  0.64861000  0.67322000  0.39148000  1.0
  C  C95  1  0.14857000  0.82677000  0.10851000  1.0
  C  C96  1  0.35141000  0.32677000  0.60851000  1.0
  C  C97  1  0.85138000  0.17323000  0.89149000  1.0
  S  S98  1  0.37778000  0.03693000  0.23723000  1.0
  S  S99  1  0.87778000  0.46307000  0.26277000  1.0
  S  S100  1  0.62220000  0.96306000  0.76277000  1.0
  S  S101  1  0.12224000  0.53693000  0.73723000  1.0
  O  O102  1  0.86229000  0.30336000  0.47212000  1.0
  O  O103  1  0.36230000  0.19664000  0.02789000  1.0
  O  O104  1  0.13770000  0.69664000  0.52789000  1.0
  O  O105  1  0.63772000  0.80336000  0.97211000  1.0
  O  O106  1  0.59470000  0.40337000  0.42771000  1.0
  O  O107  1  0.09468000  0.09664000  0.07228000  1.0
  O  O108  1  0.40532000  0.59663000  0.57228000  1.0
  O  O109  1  0.90530000  0.90337000  0.92771000  1.0
  O  O110  1  0.50421000  0.62110000  0.42248000  1.0
  O  O111  1  0.00416000  0.87890000  0.07753000  1.0
  O  O112  1  0.49583000  0.37890000  0.57752000  1.0
  O  O113  1  0.99579000  0.12111000  0.92248000  1.0
  O  O114  1  0.86394000  0.66180000  0.39313000  1.0
  O  O115  1  0.36391000  0.83818000  0.10685000  1.0
  O  O116  1  0.13607000  0.33819000  0.60685000  1.0
  O  O117  1  0.63604000  0.16182000  0.89314000  1.0
  O  O118  1  0.13431000  0.04230000  0.23297000  1.0
  O  O119  1  0.63430000  0.45770000  0.26703000  1.0
  O  O120  1  0.86567000  0.95770000  0.76704000  1.0
  O  O121  1  0.36572000  0.54230000  0.73297000  1.0
  O  O122  1  0.51382000  0.05276000  0.17373000  1.0
  O  O123  1  0.01383000  0.44724000  0.32627000  1.0
  O  O124  1  0.48615000  0.94724000  0.82627000  1.0
  O  O125  1  0.98619000  0.55276000  0.67373000  1.0
  O  O126  1  0.81679000  0.51820000  0.53910000  1.0
  O  O127  1  0.31676000  0.98181000  0.96089000  1.0
  O  O128  1  0.18323000  0.48180000  0.46089000  1.0
  O  O129  1  0.68321000  0.01820000  0.03910000  1.0
