# generated using pymatgen
data_CaH12C10(NO2)4
_symmetry_space_group_name_H-M   'P 1'
_cell_length_a   6.18509000
_cell_length_b   6.18508000
_cell_length_c   10.53160000
_cell_angle_alpha   80.56290000
_cell_angle_beta   80.56290000
_cell_angle_gamma   62.83020000
_symmetry_Int_Tables_number   1
_chemical_formula_structural   CaH12C10(NO2)4
_chemical_formula_sum   'Ca1 H12 C10 N4 O8'
_cell_volume   351.75566347
_cell_formula_units_Z   1
loop_
 _symmetry_equiv_pos_site_id
 _symmetry_equiv_pos_as_xyz
  1  'x, y, z'
loop_
 _atom_site_type_symbol
 _atom_site_label
 _atom_site_symmetry_multiplicity
 _atom_site_fract_x
 _atom_site_fract_y
 _atom_site_fract_z
 _atom_site_occupancy
  Ca  Ca0  1  0.00174000  0.99826000  0.50000000  1.0
  H  H1  1  0.24428000  0.50597000  0.66953000  1.0
  H  H2  1  0.49403000  0.75572000  0.33047000  1.0
  H  H3  1  0.05723000  0.49142000  0.58660000  1.0
  H  H4  1  0.50858000  0.94277000  0.41341000  1.0
  H  H5  1  0.55228000  0.29507000  0.34709000  1.0
  H  H6  1  0.70493000  0.44772000  0.65291000  1.0
  H  H7  1  0.43831000  0.29965000  0.49170000  1.0
  H  H8  1  0.70037000  0.56169000  0.50830000  1.0
  H  H9  1  0.90308000  0.84564000  0.27523000  1.0
  H  H10  1  0.15435000  0.09691000  0.72478000  1.0
  H  H11  1  0.16074000  0.65355000  0.31133000  1.0
  H  H12  1  0.34645000  0.83925000  0.68867000  1.0
  C  C13  1  0.71247000  0.89501000  0.82013000  1.0
  C  C14  1  0.10499000  0.28753000  0.17987000  1.0
  C  C15  1  0.64636000  0.82418000  0.94877000  1.0
  C  C16  1  0.17582000  0.35364000  0.05123000  1.0
  C  C17  1  0.70786000  0.90393000  0.04916000  1.0
  C  C18  1  0.09607000  0.29215000  0.95084000  1.0
  C  C19  1  0.52449000  0.67676000  0.97740000  1.0
  C  C20  1  0.32324000  0.47552000  0.02259000  1.0
  C  C21  1  0.43398000  0.57262000  0.09723000  1.0
  C  C22  1  0.42739000  0.56601000  0.90276000  1.0
  N  N23  1  0.76655000  0.95234000  0.71285000  1.0
  N  N24  1  0.04766000  0.23346000  0.28715000  1.0
  N  N25  1  0.75394000  0.97141000  0.13417000  1.0
  N  N26  1  0.02857000  0.24606000  0.86582000  1.0
  O  O27  1  0.19544000  0.53465000  0.58173000  1.0
  O  O28  1  0.46536000  0.80456000  0.41827000  1.0
  O  O29  1  0.56919000  0.19150000  0.43018000  1.0
  O  O30  1  0.80851000  0.43081000  0.56982000  1.0
  O  O31  1  0.99550000  0.75556000  0.35078000  1.0
  O  O32  1  0.24445000  0.00449000  0.64922000  1.0
  O  O33  1  0.44772000  0.56821000  0.21532000  1.0
  O  O34  1  0.43180000  0.55227000  0.78468000  1.0
