# generated using pymatgen
data_CoH46C44(NO3)2
_symmetry_space_group_name_H-M   'P 1'
_cell_length_a   8.50460000
_cell_length_b   10.69840000
_cell_length_c   10.87780000
_cell_angle_alpha   80.65010000
_cell_angle_beta   77.57920000
_cell_angle_gamma   68.64690000
_symmetry_Int_Tables_number   1
_chemical_formula_structural   CoH46C44(NO3)2
_chemical_formula_sum   'Co1 H46 C44 N2 O6'
_cell_volume   896.34733298
_cell_formula_units_Z   1
loop_
 _symmetry_equiv_pos_site_id
 _symmetry_equiv_pos_as_xyz
  1  'x, y, z'
loop_
 _atom_site_type_symbol
 _atom_site_label
 _atom_site_symmetry_multiplicity
 _atom_site_fract_x
 _atom_site_fract_y
 _atom_site_fract_z
 _atom_site_occupancy
  Co  Co0  1  0.00000000  0.00000000  0.00000000  1.0
  H  H1  1  0.56261000  0.77309000  0.18790000  1.0
  H  H2  1  0.43738000  0.22691000  0.81210000  1.0
  H  H3  1  0.50867000  0.93432000  0.23664000  1.0
  H  H4  1  0.49132000  0.06568000  0.76336000  1.0
  H  H5  1  0.75263000  0.85771000  0.35125000  1.0
  H  H6  1  0.24737000  0.14229000  0.64875000  1.0
  H  H7  1  0.61215000  0.90158000  0.54746000  1.0
  H  H8  1  0.38786000  0.09841000  0.45254000  1.0
  H  H9  1  0.38546000  0.88706000  0.73219000  1.0
  H  H10  1  0.61455000  0.11294000  0.26781000  1.0
  H  H11  1  0.21441000  0.74326000  0.73215000  1.0
  H  H12  1  0.78560000  0.25674000  0.26785000  1.0
  H  H13  1  0.27315000  0.60967000  0.54929000  1.0
  H  H14  1  0.72684000  0.39034000  0.45071000  1.0
  H  H15  1  0.49704000  0.62474000  0.36576000  1.0
  H  H16  1  0.50295000  0.37526000  0.63424000  1.0
  H  H17  1  0.74191000  0.56247000  0.20622000  1.0
  H  H18  1  0.25809000  0.43753000  0.79378000  1.0
  H  H19  1  0.99048000  0.35133000  0.18479000  1.0
  H  H20  1  0.00952000  0.64867000  0.81521000  1.0
  H  H21  1  0.24947000  0.31999000  0.27452000  1.0
  H  H22  1  0.75052000  0.68001000  0.72548000  1.0
  H  H23  1  0.25834000  0.50203000  0.38526000  1.0
  H  H24  1  0.74167000  0.49797000  0.61474000  1.0
  H  H25  1  0.00840000  0.71433000  0.40799000  1.0
  H  H26  1  0.99160000  0.28567000  0.59200000  1.0
  H  H27  1  0.00361000  0.72481000  0.01657000  1.0
  H  H28  1  0.99639000  0.27520000  0.98342000  1.0
  H  H29  1  0.21657000  0.49990000  0.01356000  1.0
  H  H30  1  0.78342000  0.50010000  0.98644000  1.0
  H  H31  1  0.60072000  0.68472000  0.99288000  1.0
  H  H32  1  0.39928000  0.31528000  0.00714000  1.0
  H  H33  1  0.37254000  0.89876000  0.00591000  1.0
  H  H34  1  0.62746000  0.10125000  0.99411000  1.0
  H  H35  1  0.19012000  0.96943000  0.45110000  1.0
  H  H36  1  0.80988000  0.03057000  0.54890000  1.0
  H  H37  1  0.03925000  0.12932000  0.40674000  1.0
  H  H38  1  0.96074000  0.87069000  0.59326000  1.0
  H  H39  1  0.25236000  0.07739000  0.32269000  1.0
  H  H40  1  0.74764000  0.92261000  0.67731000  1.0
  H  H41  1  0.20061000  0.88282000  0.25120000  1.0
  H  H42  1  0.79939000  0.11718000  0.74880000  1.0
  H  H43  1  0.98237000  0.94874000  0.32241000  1.0
  H  H44  1  0.01763000  0.05126000  0.67760000  1.0
  H  H45  1  0.15213000  0.09248000  0.12147000  1.0
  H  H46  1  0.84787000  0.90753000  0.87853000  1.0
  C  C47  1  0.73279000  0.87922000  0.09776000  1.0
  C  C48  1  0.26721000  0.12078000  0.90224000  1.0
  C  C49  1  0.61732000  0.84157000  0.21359000  1.0
  C  C50  1  0.38268000  0.15844000  0.78641000  1.0
  C  C51  1  0.70365000  0.78278000  0.33057000  1.0
  C  C52  1  0.29635000  0.21722000  0.66943000  1.0
  C  C53  1  0.57076000  0.76506000  0.44395000  1.0
  C  C54  1  0.42924000  0.23494000  0.55605000  1.0
  C  C55  1  0.53831000  0.83675000  0.54876000  1.0
  C  C56  1  0.46170000  0.16325000  0.45123000  1.0
  C  C57  1  0.41179000  0.82854000  0.65226000  1.0
  C  C58  1  0.58822000  0.17146000  0.34774000  1.0
  C  C59  1  0.31567000  0.74696000  0.65259000  1.0
  C  C60  1  0.68434000  0.25305000  0.34741000  1.0
  C  C61  1  0.34763000  0.67390000  0.54900000  1.0
  C  C62  1  0.65237000  0.32610000  0.45099000  1.0
  C  C63  1  0.47397000  0.68284000  0.44554000  1.0
  C  C64  1  0.52602000  0.31716000  0.55446000  1.0
  C  C65  1  0.85671000  0.65400000  0.30960000  1.0
  C  C66  1  0.14329000  0.34600000  0.69040000  1.0
  C  C67  1  0.85450000  0.55086000  0.24583000  1.0
  C  C68  1  0.14550000  0.44914000  0.75416000  1.0
  C  C69  1  0.99484000  0.43132000  0.23327000  1.0
  C  C70  1  0.00516000  0.56869000  0.76673000  1.0
  C  C71  1  0.14022000  0.41329000  0.28356000  1.0
  C  C72  1  0.85978000  0.58671000  0.71644000  1.0
  C  C73  1  0.14502000  0.51592000  0.34569000  1.0
  C  C74  1  0.85498000  0.48408000  0.65430000  1.0
  C  C75  1  0.00450000  0.63489000  0.35838000  1.0
  C  C76  1  0.99550000  0.36511000  0.64161000  1.0
  C  C77  1  0.13699000  0.71209000  0.01266000  1.0
  C  C78  1  0.86301000  0.28791000  0.98734000  1.0
  C  C79  1  0.25970000  0.58465000  0.00949000  1.0
  C  C80  1  0.74030000  0.41535000  0.99052000  1.0
  C  C81  1  0.43321000  0.56694000  0.00222000  1.0
  C  C82  1  0.56679000  0.43306000  0.99779000  1.0
  C  C83  1  0.47110000  0.68468000  0.99993000  1.0
  C  C84  1  0.52889000  0.31532000  0.00008000  1.0
  C  C85  1  0.34143000  0.80897000  0.00532000  1.0
  C  C86  1  0.65857000  0.19103000  0.99469000  1.0
  C  C87  1  0.14674000  0.04180000  0.37080000  1.0
  C  C88  1  0.85326000  0.95820000  0.62921000  1.0
  C  C89  1  0.09593000  0.97625000  0.27925000  1.0
  C  C90  1  0.90407000  0.02375000  0.72075000  1.0
  N  N91  1  0.17479000  0.82510000  0.01015000  1.0
  N  N92  1  0.82521000  0.17491000  0.98985000  1.0
  O  O93  1  0.83751000  0.93124000  0.11954000  1.0
  O  O94  1  0.16249000  0.06876000  0.88047000  1.0
  O  O95  1  0.71577000  0.86078000  0.98973000  1.0
  O  O96  1  0.28422000  0.13922000  0.01027000  1.0
  O  O97  1  0.05084000  0.06699000  0.16973000  1.0
  O  O98  1  0.94916000  0.93301000  0.83028000  1.0
