# generated using pymatgen
data_CuH8C10SIN2
_symmetry_space_group_name_H-M   'P 1'
_cell_length_a   9.09568000
_cell_length_b   9.93549000
_cell_length_c   13.38830000
_cell_angle_alpha   90.00010000
_cell_angle_beta   90.00000000
_cell_angle_gamma   100.80900000
_symmetry_Int_Tables_number   1
_chemical_formula_structural   CuH8C10SIN2
_chemical_formula_sum   'Cu4 H32 C40 S4 I4 N8'
_cell_volume   1188.43487271
_cell_formula_units_Z   4
loop_
 _symmetry_equiv_pos_site_id
 _symmetry_equiv_pos_as_xyz
  1  'x, y, z'
loop_
 _atom_site_type_symbol
 _atom_site_label
 _atom_site_symmetry_multiplicity
 _atom_site_fract_x
 _atom_site_fract_y
 _atom_site_fract_z
 _atom_site_occupancy
  Cu  Cu0  1  0.49283000  0.59903000  0.43856000  1.0
  Cu  Cu1  1  0.50717000  0.90097000  0.93856000  1.0
  Cu  Cu2  1  0.50717000  0.40097000  0.56144000  1.0
  Cu  Cu3  1  0.49283000  0.09902000  0.06144000  1.0
  H  H4  1  0.47103000  0.89227000  0.43092000  1.0
  H  H5  1  0.52898000  0.60774000  0.93092000  1.0
  H  H6  1  0.52898000  0.10774000  0.56908000  1.0
  H  H7  1  0.47102000  0.39226000  0.06908000  1.0
  H  H8  1  0.63614000  0.11819000  0.39788000  1.0
  H  H9  1  0.36386000  0.38181000  0.89788000  1.0
  H  H10  1  0.36387000  0.88181000  0.60212000  1.0
  H  H11  1  0.63613000  0.61819000  0.10212000  1.0
  H  H12  1  0.00646000  0.90213000  0.37573000  1.0
  H  H13  1  0.99354000  0.59788000  0.87573000  1.0
  H  H14  1  0.99354000  0.09787000  0.62427000  1.0
  H  H15  1  0.00645000  0.40213000  0.12427000  1.0
  H  H16  1  0.82500000  0.68642000  0.40655000  1.0
  H  H17  1  0.17500000  0.81358000  0.90655000  1.0
  H  H18  1  0.17500000  0.31358000  0.59345000  1.0
  H  H19  1  0.82500000  0.18642000  0.09345000  1.0
  H  H20  1  0.15732000  0.99350000  0.07130000  1.0
  H  H21  1  0.84267000  0.50650000  0.57130000  1.0
  H  H22  1  0.84268000  0.00650000  0.92870000  1.0
  H  H23  1  0.15733000  0.49350000  0.42870000  1.0
  H  H24  1  0.94815000  0.02267000  0.18423000  1.0
  H  H25  1  0.05185000  0.47733000  0.68423000  1.0
  H  H26  1  0.05185000  0.97733000  0.81577000  1.0
  H  H27  1  0.94814000  0.52267000  0.31577000  1.0
  H  H28  1  0.28037000  0.26737000  0.37624000  1.0
  H  H29  1  0.71963000  0.23263000  0.87624000  1.0
  H  H30  1  0.71964000  0.73263000  0.62376000  1.0
  H  H31  1  0.28036000  0.76737000  0.12376000  1.0
  H  H32  1  0.47280000  0.22288000  0.25791000  1.0
  H  H33  1  0.52720000  0.27712000  0.75791000  1.0
  H  H34  1  0.52721000  0.77712000  0.74209000  1.0
  H  H35  1  0.47279000  0.72288000  0.24209000  1.0
  C  C36  1  0.59089000  0.89899000  0.41891000  1.0
  C  C37  1  0.40912000  0.60101000  0.91890000  1.0
  C  C38  1  0.40912000  0.10101000  0.58109000  1.0
  C  C39  1  0.59088000  0.39899000  0.08109000  1.0
  C  C40  1  0.68289000  0.02476000  0.40080000  1.0
  C  C41  1  0.31711000  0.47524000  0.90080000  1.0
  C  C42  1  0.31711000  0.97524000  0.59920000  1.0
  C  C43  1  0.68289000  0.52476000  0.09920000  1.0
  C  C44  1  0.83611000  0.02940000  0.38435000  1.0
  C  C45  1  0.16389000  0.47061000  0.88434000  1.0
  C  C46  1  0.16389000  0.97060000  0.61566000  1.0
  C  C47  1  0.83611000  0.52940000  0.11566000  1.0
  C  C48  1  0.88872000  0.90551000  0.38715000  1.0
  C  C49  1  0.11128000  0.59450000  0.88714000  1.0
  C  C50  1  0.11128000  0.09450000  0.61285000  1.0
  C  C51  1  0.88871000  0.40550000  0.11285000  1.0
  C  C52  1  0.78809000  0.78475000  0.40489000  1.0
  C  C53  1  0.21191000  0.71525000  0.90489000  1.0
  C  C54  1  0.21192000  0.21525000  0.59511000  1.0
  C  C55  1  0.78808000  0.28475000  0.09511000  1.0
  C  C56  1  0.17937000  0.05086000  0.14097000  1.0
  C  C57  1  0.82063000  0.44914000  0.64097000  1.0
  C  C58  1  0.82063000  0.94913000  0.85903000  1.0
  C  C59  1  0.17937000  0.55086000  0.35903000  1.0
  C  C60  1  0.06323000  0.06891000  0.20356000  1.0
  C  C61  1  0.93677000  0.43109000  0.70356000  1.0
  C  C62  1  0.93678000  0.93108000  0.79644000  1.0
  C  C63  1  0.06322000  0.56891000  0.29644000  1.0
  C  C64  1  0.09634000  0.14858000  0.29023000  1.0
  C  C65  1  0.90366000  0.35142000  0.79023000  1.0
  C  C66  1  0.90367000  0.85142000  0.70977000  1.0
  C  C67  1  0.09633000  0.64858000  0.20977000  1.0
  C  C68  1  0.24627000  0.20513000  0.31021000  1.0
  C  C69  1  0.75373000  0.29487000  0.81021000  1.0
  C  C70  1  0.75374000  0.79487000  0.68979000  1.0
  C  C71  1  0.24626000  0.70513000  0.18979000  1.0
  C  C72  1  0.35532000  0.18013000  0.24345000  1.0
  C  C73  1  0.64468000  0.31987000  0.74345000  1.0
  C  C74  1  0.64469000  0.81987000  0.75655000  1.0
  C  C75  1  0.35531000  0.68013000  0.25655000  1.0
  S  S76  1  0.95368000  0.18987000  0.36721000  1.0
  S  S77  1  0.04632000  0.31013000  0.86721000  1.0
  S  S78  1  0.04632000  0.81013000  0.63279000  1.0
  S  S79  1  0.95368000  0.68987000  0.13279000  1.0
  I  I80  1  0.64881000  0.41222000  0.38888000  1.0
  I  I81  1  0.35119000  0.08778000  0.88888000  1.0
  I  I82  1  0.35119000  0.58778000  0.61112000  1.0
  I  I83  1  0.64881000  0.91222000  0.11112000  1.0
  N  N84  1  0.64057000  0.77917000  0.42117000  1.0
  N  N85  1  0.35943000  0.72084000  0.92117000  1.0
  N  N86  1  0.35943000  0.22083000  0.57883000  1.0
  N  N87  1  0.64057000  0.27917000  0.07883000  1.0
  N  N88  1  0.32441000  0.10545000  0.15944000  1.0
  N  N89  1  0.67559000  0.39455000  0.65944000  1.0
  N  N90  1  0.67559000  0.89455000  0.84056000  1.0
  N  N91  1  0.32441000  0.60545000  0.34056000  1.0
