# generated using pymatgen
data_TiH6C9O4
_symmetry_space_group_name_H-M   'P 1'
_cell_length_a   11.82240000
_cell_length_b   20.07300000
_cell_length_c   20.07300000
_cell_angle_alpha   120.00000000
_cell_angle_beta   90.00000000
_cell_angle_gamma   90.00000000
_symmetry_Int_Tables_number   1
_chemical_formula_structural   TiH6C9O4
_chemical_formula_sum   'Ti12 H72 C108 O48'
_cell_volume   4125.35047074
_cell_formula_units_Z   12
loop_
 _symmetry_equiv_pos_site_id
 _symmetry_equiv_pos_as_xyz
  1  'x, y, z'
loop_
 _atom_site_type_symbol
 _atom_site_label
 _atom_site_symmetry_multiplicity
 _atom_site_fract_x
 _atom_site_fract_y
 _atom_site_fract_z
 _atom_site_occupancy
  Ti  Ti0  1  0.60486000  0.10258000  0.10258000  1.0
  Ti  Ti1  1  0.60486000  0.00000000  0.89742000  1.0
  Ti  Ti2  1  0.60486000  0.89742000  0.00000000  1.0
  Ti  Ti3  1  0.10486000  0.89742000  0.89742000  1.0
  Ti  Ti4  1  0.10486000  0.00000000  0.10258000  1.0
  Ti  Ti5  1  0.10486000  0.10258000  0.00000000  1.0
  Ti  Ti6  1  0.89514000  0.10258000  0.10258000  1.0
  Ti  Ti7  1  0.89514000  0.89742000  0.00000000  1.0
  Ti  Ti8  1  0.89514000  0.00000000  0.89742000  1.0
  Ti  Ti9  1  0.39514000  0.89742000  0.89742000  1.0
  Ti  Ti10  1  0.39514000  0.10258000  0.00000000  1.0
  Ti  Ti11  1  0.39514000  0.00000000  0.10258000  1.0
  H  H12  1  0.61753000  0.32735000  0.49071000  1.0
  H  H13  1  0.61753000  0.16337000  0.67266000  1.0
  H  H14  1  0.61753000  0.50929000  0.83663000  1.0
  H  H15  1  0.11753000  0.67266000  0.50930000  1.0
  H  H16  1  0.11753000  0.83663000  0.32734000  1.0
  H  H17  1  0.11753000  0.49071000  0.16337000  1.0
  H  H18  1  0.88247000  0.49071000  0.32734000  1.0
  H  H19  1  0.88247000  0.67266000  0.16337000  1.0
  H  H20  1  0.88247000  0.83664000  0.50930000  1.0
  H  H21  1  0.38247000  0.50929000  0.67266000  1.0
  H  H22  1  0.38247000  0.32734000  0.83663000  1.0
  H  H23  1  0.38247000  0.16337000  0.49071000  1.0
  H  H24  1  0.38247000  0.67266000  0.50930000  1.0
  H  H25  1  0.38247000  0.83663000  0.32734000  1.0
  H  H26  1  0.38247000  0.49071000  0.16337000  1.0
  H  H27  1  0.88247000  0.32734000  0.49070000  1.0
  H  H28  1  0.88247000  0.16337000  0.67266000  1.0
  H  H29  1  0.88247000  0.50929000  0.83663000  1.0
  H  H30  1  0.11753000  0.50929000  0.67266000  1.0
  H  H31  1  0.11753000  0.32734000  0.83663000  1.0
  H  H32  1  0.11753000  0.16336000  0.49070000  1.0
  H  H33  1  0.61753000  0.49071000  0.32734000  1.0
  H  H34  1  0.61753000  0.67266000  0.16337000  1.0
  H  H35  1  0.61753000  0.83664000  0.50930000  1.0
  H  H36  1  0.61748000  0.25492000  0.34691000  1.0
  H  H37  1  0.61748000  0.09199000  0.74509000  1.0
  H  H38  1  0.61748000  0.65310000  0.90802000  1.0
  H  H39  1  0.11748000  0.74508000  0.65309000  1.0
  H  H40  1  0.11748000  0.90801000  0.25491000  1.0
  H  H41  1  0.11748000  0.34690000  0.09198000  1.0
  H  H42  1  0.88252000  0.34690000  0.25491000  1.0
  H  H43  1  0.88252000  0.74508000  0.09198000  1.0
  H  H44  1  0.88252000  0.90801000  0.65309000  1.0
  H  H45  1  0.38252000  0.65310000  0.74509000  1.0
  H  H46  1  0.38252000  0.25492000  0.90802000  1.0
  H  H47  1  0.38252000  0.09199000  0.34691000  1.0
  H  H48  1  0.38252000  0.74508000  0.65309000  1.0
  H  H49  1  0.38252000  0.90801000  0.25491000  1.0
  H  H50  1  0.38252000  0.34690000  0.09198000  1.0
  H  H51  1  0.88252000  0.25492000  0.34691000  1.0
  H  H52  1  0.88252000  0.09199000  0.74509000  1.0
  H  H53  1  0.88252000  0.65310000  0.90802000  1.0
  H  H54  1  0.11748000  0.65310000  0.74509000  1.0
  H  H55  1  0.11748000  0.25492000  0.90802000  1.0
  H  H56  1  0.11748000  0.09199000  0.34691000  1.0
  H  H57  1  0.61748000  0.34690000  0.25491000  1.0
  H  H58  1  0.61748000  0.74508000  0.09198000  1.0
  H  H59  1  0.61748000  0.90801000  0.65309000  1.0
  H  H60  1  0.75000000  0.05573000  0.17323000  1.0
  H  H61  1  0.75000000  0.11750000  0.94427000  1.0
  H  H62  1  0.75000000  0.82677000  0.88250000  1.0
  H  H63  1  0.25000000  0.94427000  0.82677000  1.0
  H  H64  1  0.25000000  0.88250000  0.05573000  1.0
  H  H65  1  0.25000000  0.17323000  0.11750000  1.0
  H  H66  1  0.75000000  0.17323000  0.05573000  1.0
  H  H67  1  0.75000000  0.94427000  0.11750000  1.0
  H  H68  1  0.75000000  0.88250000  0.82677000  1.0
  H  H69  1  0.25000000  0.82677000  0.94427000  1.0
  H  H70  1  0.25000000  0.05573000  0.88250000  1.0
  H  H71  1  0.25000000  0.11750000  0.17323000  1.0
  H  H72  1  0.50000000  0.40480000  0.59521000  1.0
  H  H73  1  0.50000000  0.19041000  0.59521000  1.0
  H  H74  1  0.50000000  0.40480000  0.80960000  1.0
  H  H75  1  0.00000000  0.59520000  0.40479000  1.0
  H  H76  1  0.00000000  0.80960000  0.40480000  1.0
  H  H77  1  0.00000000  0.59520000  0.19040000  1.0
  H  H78  1  0.50000000  0.59520000  0.40479000  1.0
  H  H79  1  0.50000000  0.80960000  0.40480000  1.0
  H  H80  1  0.50000000  0.59520000  0.19040000  1.0
  H  H81  1  0.00000000  0.40480000  0.59520000  1.0
  H  H82  1  0.00000000  0.19040000  0.59520000  1.0
  H  H83  1  0.00000000  0.40480000  0.80960000  1.0
  C  C84  1  0.56512000  0.27614000  0.45930000  1.0
  C  C85  1  0.56512000  0.18316000  0.72386000  1.0
  C  C86  1  0.56512000  0.54070000  0.81684000  1.0
  C  C87  1  0.06512000  0.72386000  0.54070000  1.0
  C  C88  1  0.06512000  0.81684000  0.27614000  1.0
  C  C89  1  0.06512000  0.45930000  0.18316000  1.0
  C  C90  1  0.93488000  0.45930000  0.27614000  1.0
  C  C91  1  0.93488000  0.72386000  0.18316000  1.0
  C  C92  1  0.93488000  0.81684000  0.54070000  1.0
  C  C93  1  0.43488000  0.54070000  0.72386000  1.0
  C  C94  1  0.43488000  0.27614000  0.81684000  1.0
  C  C95  1  0.43488000  0.18316000  0.45930000  1.0
  C  C96  1  0.43488000  0.72386000  0.54070000  1.0
  C  C97  1  0.43488000  0.81684000  0.27614000  1.0
  C  C98  1  0.43488000  0.45930000  0.18316000  1.0
  C  C99  1  0.93488000  0.27614000  0.45930000  1.0
  C  C100  1  0.93488000  0.18316000  0.72386000  1.0
  C  C101  1  0.93488000  0.54070000  0.81684000  1.0
  C  C102  1  0.06512000  0.54070000  0.72386000  1.0
  C  C103  1  0.06512000  0.27614000  0.81684000  1.0
  C  C104  1  0.06512000  0.18316000  0.45930000  1.0
  C  C105  1  0.56512000  0.45930000  0.27614000  1.0
  C  C106  1  0.56512000  0.72386000  0.18316000  1.0
  C  C107  1  0.56512000  0.81684000  0.54070000  1.0
  C  C108  1  0.56583000  0.23596000  0.37932000  1.0
  C  C109  1  0.56583000  0.14336000  0.76403000  1.0
  C  C110  1  0.56583000  0.62067000  0.85663000  1.0
  C  C111  1  0.06583000  0.76404000  0.62068000  1.0
  C  C112  1  0.06583000  0.85663000  0.23596000  1.0
  C  C113  1  0.06583000  0.37933000  0.14337000  1.0
  C  C114  1  0.93417000  0.37933000  0.23597000  1.0
  C  C115  1  0.93417000  0.76404000  0.14337000  1.0
  C  C116  1  0.93417000  0.85664000  0.62068000  1.0
  C  C117  1  0.43417000  0.62067000  0.76403000  1.0
  C  C118  1  0.43417000  0.23596000  0.85663000  1.0
  C  C119  1  0.43417000  0.14337000  0.37933000  1.0
  C  C120  1  0.43417000  0.76404000  0.62068000  1.0
  C  C121  1  0.43417000  0.85664000  0.23597000  1.0
  C  C122  1  0.43417000  0.37933000  0.14337000  1.0
  C  C123  1  0.93417000  0.23596000  0.37932000  1.0
  C  C124  1  0.93417000  0.14336000  0.76403000  1.0
  C  C125  1  0.93417000  0.62067000  0.85663000  1.0
  C  C126  1  0.06583000  0.62067000  0.76403000  1.0
  C  C127  1  0.06583000  0.23596000  0.85663000  1.0
  C  C128  1  0.06583000  0.14336000  0.37932000  1.0
  C  C129  1  0.56583000  0.37933000  0.23597000  1.0
  C  C130  1  0.56583000  0.76404000  0.14337000  1.0
  C  C131  1  0.56583000  0.85664000  0.62068000  1.0
  C  C132  1  0.50000000  0.25029000  0.50058000  1.0
  C  C133  1  0.50000000  0.25029000  0.74970000  1.0
  C  C134  1  0.50000000  0.49941000  0.74970000  1.0
  C  C135  1  0.00000000  0.74971000  0.49942000  1.0
  C  C136  1  0.00000000  0.74971000  0.25030000  1.0
  C  C137  1  0.00000000  0.50059000  0.25030000  1.0
  C  C138  1  0.50000000  0.74971000  0.49942000  1.0
  C  C139  1  0.50000000  0.74971000  0.25030000  1.0
  C  C140  1  0.50000000  0.50059000  0.25030000  1.0
  C  C141  1  0.00000000  0.25029000  0.50058000  1.0
  C  C142  1  0.00000000  0.25029000  0.74970000  1.0
  C  C143  1  0.00000000  0.49941000  0.74970000  1.0
  C  C144  1  0.50000000  0.16941000  0.33881000  1.0
  C  C145  1  0.50000000  0.16940000  0.83059000  1.0
  C  C146  1  0.50000000  0.66119000  0.83059000  1.0
  C  C147  1  0.00000000  0.83060000  0.66120000  1.0
  C  C148  1  0.00000000  0.83060000  0.16941000  1.0
  C  C149  1  0.00000000  0.33881000  0.16941000  1.0
  C  C150  1  0.50000000  0.83060000  0.66120000  1.0
  C  C151  1  0.50000000  0.83060000  0.16941000  1.0
  C  C152  1  0.50000000  0.33881000  0.16941000  1.0
  C  C153  1  0.00000000  0.16940000  0.33880000  1.0
  C  C154  1  0.00000000  0.16940000  0.83059000  1.0
  C  C155  1  0.00000000  0.66119000  0.83059000  1.0
  C  C156  1  0.50000000  0.12656000  0.25312000  1.0
  C  C157  1  0.50000000  0.12656000  0.87344000  1.0
  C  C158  1  0.50000000  0.74688000  0.87344000  1.0
  C  C159  1  0.00000000  0.87344000  0.74688000  1.0
  C  C160  1  0.00000000  0.87344000  0.12656000  1.0
  C  C161  1  0.00000000  0.25312000  0.12656000  1.0
  C  C162  1  0.50000000  0.87344000  0.74688000  1.0
  C  C163  1  0.50000000  0.87344000  0.12656000  1.0
  C  C164  1  0.50000000  0.25312000  0.12656000  1.0
  C  C165  1  0.00000000  0.12656000  0.25312000  1.0
  C  C166  1  0.00000000  0.12656000  0.87344000  1.0
  C  C167  1  0.00000000  0.74688000  0.87344000  1.0
  C  C168  1  0.50000000  0.29278000  0.58556000  1.0
  C  C169  1  0.50000000  0.29277000  0.70722000  1.0
  C  C170  1  0.50000000  0.41445000  0.70723000  1.0
  C  C171  1  0.00000000  0.70722000  0.41444000  1.0
  C  C172  1  0.00000000  0.70723000  0.29278000  1.0
  C  C173  1  0.00000000  0.58555000  0.29277000  1.0
  C  C174  1  0.50000000  0.70722000  0.41444000  1.0
  C  C175  1  0.50000000  0.70723000  0.29278000  1.0
  C  C176  1  0.50000000  0.58555000  0.29277000  1.0
  C  C177  1  0.00000000  0.29278000  0.58556000  1.0
  C  C178  1  0.00000000  0.29277000  0.70722000  1.0
  C  C179  1  0.00000000  0.41445000  0.70723000  1.0
  C  C180  1  0.50000000  0.37342000  0.62658000  1.0
  C  C181  1  0.50000000  0.25316000  0.62658000  1.0
  C  C182  1  0.50000000  0.37342000  0.74684000  1.0
  C  C183  1  0.00000000  0.62658000  0.37342000  1.0
  C  C184  1  0.00000000  0.74684000  0.37342000  1.0
  C  C185  1  0.00000000  0.62658000  0.25316000  1.0
  C  C186  1  0.50000000  0.62658000  0.37342000  1.0
  C  C187  1  0.50000000  0.74684000  0.37342000  1.0
  C  C188  1  0.50000000  0.62658000  0.25316000  1.0
  C  C189  1  0.00000000  0.37342000  0.62658000  1.0
  C  C190  1  0.00000000  0.25316000  0.62658000  1.0
  C  C191  1  0.00000000  0.37342000  0.74684000  1.0
  O  O192  1  0.56889000  0.14826000  0.21916000  1.0
  O  O193  1  0.56888000  0.07089000  0.85173000  1.0
  O  O194  1  0.56888000  0.78084000  0.92910000  1.0
  O  O195  1  0.06889000  0.85174000  0.78084000  1.0
  O  O196  1  0.06888000  0.92911000  0.14827000  1.0
  O  O197  1  0.06888000  0.21916000  0.07090000  1.0
  O  O198  1  0.93112000  0.21916000  0.14827000  1.0
  O  O199  1  0.93112000  0.85174000  0.07090000  1.0
  O  O200  1  0.93111000  0.92910000  0.78084000  1.0
  O  O201  1  0.43112000  0.78084000  0.85173000  1.0
  O  O202  1  0.43112000  0.14826000  0.92910000  1.0
  O  O203  1  0.43111000  0.07090000  0.21916000  1.0
  O  O204  1  0.43111000  0.85174000  0.78084000  1.0
  O  O205  1  0.43112000  0.92911000  0.14827000  1.0
  O  O206  1  0.43112000  0.21916000  0.07090000  1.0
  O  O207  1  0.93111000  0.14826000  0.21916000  1.0
  O  O208  1  0.93112000  0.07089000  0.85173000  1.0
  O  O209  1  0.93112000  0.78084000  0.92910000  1.0
  O  O210  1  0.06888000  0.78084000  0.85173000  1.0
  O  O211  1  0.06888000  0.14826000  0.92910000  1.0
  O  O212  1  0.06889000  0.07090000  0.21916000  1.0
  O  O213  1  0.56888000  0.21916000  0.14827000  1.0
  O  O214  1  0.56888000  0.85174000  0.07090000  1.0
  O  O215  1  0.56889000  0.92910000  0.78084000  1.0
  O  O216  1  0.75000000  0.08322000  0.14508000  1.0
  O  O217  1  0.75000000  0.06186000  0.91677000  1.0
  O  O218  1  0.75000000  0.85492000  0.93815000  1.0
  O  O219  1  0.25000000  0.91678000  0.85492000  1.0
  O  O220  1  0.25000000  0.93814000  0.08323000  1.0
  O  O221  1  0.25000000  0.14508000  0.06185000  1.0
  O  O222  1  0.75000000  0.14509000  0.08323000  1.0
  O  O223  1  0.75000000  0.91677000  0.06185000  1.0
  O  O224  1  0.75000000  0.93814000  0.85492000  1.0
  O  O225  1  0.25000000  0.85491000  0.91677000  1.0
  O  O226  1  0.25000000  0.08323000  0.93815000  1.0
  O  O227  1  0.25000000  0.06186000  0.14508000  1.0
  O  O228  1  0.42640000  0.08514000  0.08514000  1.0
  O  O229  1  0.42640000  0.00000000  0.91486000  1.0
  O  O230  1  0.42640000  0.91487000  1.00000000  1.0
  O  O231  1  0.92641000  0.91486000  0.91486000  1.0
  O  O232  1  0.92640000  1.00000000  0.08514000  1.0
  O  O233  1  0.92639000  0.08513000  1.00000000  1.0
  O  O234  1  0.07360000  0.08514000  0.08514000  1.0
  O  O235  1  0.07360000  0.91487000  1.00000000  1.0
  O  O236  1  0.07360000  0.00000000  0.91486000  1.0
  O  O237  1  0.57359000  0.91486000  0.91486000  1.0
  O  O238  1  0.57361000  0.08513000  1.00000000  1.0
  O  O239  1  0.57359000  0.00000000  0.08514000  1.0
