# generated using pymatgen
data_CoH8C10(SN3)2
_symmetry_space_group_name_H-M   'P 1'
_cell_length_a   6.71764000
_cell_length_b   7.16930000
_cell_length_c   7.37871000
_cell_angle_alpha   110.24700000
_cell_angle_beta   91.07640000
_cell_angle_gamma   110.98500000
_symmetry_Int_Tables_number   1
_chemical_formula_structural   CoH8C10(SN3)2
_chemical_formula_sum   'Co1 H8 C10 S2 N6'
_cell_volume   307.13338263
_cell_formula_units_Z   1
loop_
 _symmetry_equiv_pos_site_id
 _symmetry_equiv_pos_as_xyz
  1  'x, y, z'
loop_
 _atom_site_type_symbol
 _atom_site_label
 _atom_site_symmetry_multiplicity
 _atom_site_fract_x
 _atom_site_fract_y
 _atom_site_fract_z
 _atom_site_occupancy
  Co  Co0  1  0.99999000  0.00000000  0.99970000  1.0
  H  H1  1  0.43019000  0.27346000  0.26149000  1.0
  H  H2  1  0.80172000  0.66620000  0.54400000  1.0
  H  H3  1  0.56985000  0.72672000  0.73857000  1.0
  H  H4  1  0.19855000  0.33380000  0.45623000  1.0
  H  H5  1  0.20407000  0.73304000  0.74092000  1.0
  H  H6  1  0.20091000  0.31659000  0.79048000  1.0
  H  H7  1  0.79600000  0.26714000  0.25913000  1.0
  H  H8  1  0.79921000  0.68340000  0.20973000  1.0
  C  C9  1  0.78126000  0.51351000  0.80187000  1.0
  C  C10  1  0.21869000  0.48645000  0.19753000  1.0
  C  C11  1  0.45928000  0.15024000  0.14330000  1.0
  C  C12  1  0.89039000  0.81720000  0.52556000  1.0
  C  C13  1  0.54065000  0.84972000  0.85691000  1.0
  C  C14  1  0.10959000  0.18282000  0.47468000  1.0
  C  C15  1  0.33543000  0.85241000  0.85822000  1.0
  C  C16  1  0.11102000  0.17461000  0.66042000  1.0
  C  C17  1  0.66463000  0.14756000  0.14198000  1.0
  C  C18  1  0.88893000  0.82547000  0.33980000  1.0
  S  S19  1  0.63932000  0.26497000  0.66537000  1.0
  S  S20  1  0.36036000  0.73455000  0.33464000  1.0
  N  N21  1  0.29145000  0.00275000  0.00170000  1.0
  N  N22  1  0.00066000  0.99128000  0.68664000  1.0
  N  N23  1  0.70855000  0.99730000  0.99855000  1.0
  N  N24  1  0.99918000  0.00872000  0.31355000  1.0
  N  N25  1  0.88442000  0.69818000  0.89931000  1.0
  N  N26  1  0.11569000  0.30192000  0.09973000  1.0
