# generated using pymatgen
data_ZnH11C17(N3O2)2
_symmetry_space_group_name_H-M   'P 1'
_cell_length_a   9.66926000
_cell_length_b   10.64960000
_cell_length_c   11.33627331
_cell_angle_alpha   91.06792533
_cell_angle_beta   114.82279419
_cell_angle_gamma   114.43890000
_symmetry_Int_Tables_number   1
_chemical_formula_structural   ZnH11C17(N3O2)2
_chemical_formula_sum   'Zn2 H22 C34 N12 O8'
_cell_volume   938.07031877
_cell_formula_units_Z   2
loop_
 _symmetry_equiv_pos_site_id
 _symmetry_equiv_pos_as_xyz
  1  'x, y, z'
loop_
 _atom_site_type_symbol
 _atom_site_label
 _atom_site_symmetry_multiplicity
 _atom_site_fract_x
 _atom_site_fract_y
 _atom_site_fract_z
 _atom_site_occupancy
  Zn  Zn0  1  0.37801000  0.50773000  0.74246000  1.0
  Zn  Zn1  1  0.62198000  0.49227000  0.25753000  1.0
  H  H2  1  0.83037000  0.38374000  0.75830000  1.0
  H  H3  1  0.16963000  0.61626000  0.24170000  1.0
  H  H4  1  0.71257000  0.10486000  0.67048000  1.0
  H  H5  1  0.28744000  0.89514000  0.32952000  1.0
  H  H6  1  0.54158000  0.11549000  0.68200000  1.0
  H  H7  1  0.45842000  0.88451000  0.31800000  1.0
  H  H8  1  0.51858000  0.11014000  0.87439000  1.0
  H  H9  1  0.48142000  0.88986000  0.12560000  1.0
  H  H10  1  0.94229000  0.12084000  0.85475000  1.0
  H  H11  1  0.05770000  0.87915000  0.14525000  1.0
  H  H12  1  0.42254000  0.36674000  0.54053000  1.0
  H  H13  1  0.57745000  0.63325000  0.45947000  1.0
  H  H14  1  0.12094000  0.19949000  0.09967000  1.0
  H  H15  1  0.87905000  0.80051000  0.90033000  1.0
  H  H16  1  0.00004000  0.36183000  0.55800000  1.0
  H  H17  1  0.99996000  0.63817000  0.44200000  1.0
  H  H18  1  0.67849000  0.19293000  0.12039000  1.0
  H  H19  1  0.32151000  0.80707000  0.87961000  1.0
  H  H20  1  0.81645000  0.26330000  0.31620000  1.0
  H  H21  1  0.18355000  0.73671000  0.68380000  1.0
  H  H22  1  0.25807000  0.26872000  0.29656000  1.0
  H  H23  1  0.74193000  0.73127000  0.70345000  1.0
  C  C24  1  0.52139000  0.90520000  0.66914000  1.0
  C  C25  1  0.47862000  0.09480000  0.33087000  1.0
  C  C26  1  0.90499000  0.43390000  0.86497000  1.0
  C  C27  1  0.09501000  0.56610000  0.13503000  1.0
  C  C28  1  0.82535000  0.46560000  0.93070000  1.0
  C  C29  1  0.17466000  0.53440000  0.06930000  1.0
  C  C30  1  0.07858000  0.46739000  0.93259000  1.0
  C  C31  1  0.92142000  0.53261000  0.06741000  1.0
  C  C32  1  0.64103000  0.43269000  0.84792000  1.0
  C  C33  1  0.35898000  0.56732000  0.15208000  1.0
  C  C34  1  0.62364000  0.06297000  0.71282000  1.0
  C  C35  1  0.37636000  0.93703000  0.28718000  1.0
  C  C36  1  0.64950000  0.12591000  0.93139000  1.0
  C  C37  1  0.35050000  0.87409000  0.06861000  1.0
  C  C38  1  0.88878000  0.13008000  0.91996000  1.0
  C  C39  1  0.11122000  0.86991000  0.08004000  1.0
  C  C40  1  0.01933000  0.25574000  0.28196000  1.0
  C  C41  1  0.98066000  0.74425000  0.71804000  1.0
  C  C42  1  0.91504000  0.19935000  0.13559000  1.0
  C  C43  1  0.08495000  0.80065000  0.86440000  1.0
  C  C44  1  0.28787000  0.34310000  0.48583000  1.0
  C  C45  1  0.71213000  0.65689000  0.51417000  1.0
  C  C46  1  0.98651000  0.17602000  0.05727000  1.0
  C  C47  1  0.01349000  0.82398000  0.94273000  1.0
  C  C48  1  0.05240000  0.34029000  0.49622000  1.0
  C  C49  1  0.94760000  0.65970000  0.50378000  1.0
  C  C50  1  0.74189000  0.17201000  0.06857000  1.0
  C  C51  1  0.25809000  0.82799000  0.93142000  1.0
  C  C52  1  0.94937000  0.28283000  0.35972000  1.0
  C  C53  1  0.05063000  0.71716000  0.64028000  1.0
  C  C54  1  0.19324000  0.28618000  0.34892000  1.0
  C  C55  1  0.80676000  0.71382000  0.65108000  1.0
  C  C56  1  0.15433000  0.43360000  0.85256000  1.0
  C  C57  1  0.84567000  0.56640000  0.14744000  1.0
  N  N58  1  0.54665000  0.81807000  0.75046000  1.0
  N  N59  1  0.45335000  0.18193000  0.24954000  1.0
  N  N60  1  0.42997000  0.68839000  0.67011000  1.0
  N  N61  1  0.57003000  0.31161000  0.32988000  1.0
  N  N62  1  0.33926000  0.69675000  0.54678000  1.0
  N  N63  1  0.66075000  0.30326000  0.45322000  1.0
  N  N64  1  0.39476000  0.83385000  0.54399000  1.0
  N  N65  1  0.60525000  0.16616000  0.45602000  1.0
  N  N66  1  0.72374000  0.10653000  0.85951000  1.0
  N  N67  1  0.27626000  0.89348000  0.14049000  1.0
  N  N68  1  0.21972000  0.37158000  0.55849000  1.0
  N  N69  1  0.78027000  0.62841000  0.44151000  1.0
  O  O70  1  0.61087000  0.53865000  0.86008000  1.0
  O  O71  1  0.38914000  0.46137000  0.13991000  1.0
  O  O72  1  0.53320000  0.31371000  0.76986000  1.0
  O  O73  1  0.46682000  0.68630000  0.23015000  1.0
  O  O74  1  0.28089000  0.54332000  0.85212000  1.0
  O  O75  1  0.71912000  0.45668000  0.14788000  1.0
  O  O76  1  0.08886000  0.31005000  0.78745000  1.0
  O  O77  1  0.91114000  0.68995000  0.21255000  1.0
