# generated using pymatgen
data_FeH6(C3N2)2
_symmetry_space_group_name_H-M   'P 1'
_cell_length_a   7.25371000
_cell_length_b   7.25993000
_cell_length_c   8.87697987
_cell_angle_alpha   65.87516796
_cell_angle_beta   65.88013366
_cell_angle_gamma   90.00020000
_symmetry_Int_Tables_number   1
_chemical_formula_structural   FeH6(C3N2)2
_chemical_formula_sum   'Fe2 H12 C12 N8'
_cell_volume   381.48592103
_cell_formula_units_Z   2
loop_
 _symmetry_equiv_pos_site_id
 _symmetry_equiv_pos_as_xyz
  1  'x, y, z'
loop_
 _atom_site_type_symbol
 _atom_site_label
 _atom_site_symmetry_multiplicity
 _atom_site_fract_x
 _atom_site_fract_y
 _atom_site_fract_z
 _atom_site_occupancy
  Fe  Fe0  1  0.75002000  0.49995000  0.00003000  1.0
  Fe  Fe1  1  0.24998000  0.50008000  0.99995000  1.0
  H  H2  1  0.24338000  0.27646000  0.51323000  1.0
  H  H3  1  0.25627000  0.79007000  0.48682000  1.0
  H  H4  1  0.74380000  0.20995000  0.51317000  1.0
  H  H5  1  0.75658000  0.72348000  0.48680000  1.0
  H  H6  1  0.85843000  0.34949000  0.68706000  1.0
  H  H7  1  0.45498000  0.35080000  0.68614000  1.0
  H  H8  1  0.04493000  0.03732000  0.31364000  1.0
  H  H9  1  0.35902000  0.96309000  0.68631000  1.0
  H  H10  1  0.14125000  0.64961000  0.31352000  1.0
  H  H11  1  0.54524000  0.65000000  0.31334000  1.0
  H  H12  1  0.95483000  0.96295000  0.68693000  1.0
  H  H13  1  0.64131000  0.03672000  0.31308000  1.0
  C  C14  1  0.18866000  0.32386000  0.62275000  1.0
  C  C15  1  0.31111000  0.94692000  0.37722000  1.0
  C  C16  1  0.68892000  0.05312000  0.62276000  1.0
  C  C17  1  0.81132000  0.67608000  0.37728000  1.0
  C  C18  1  0.99327000  0.36156000  0.70939000  1.0
  C  C19  1  0.29760000  0.36221000  0.70896000  1.0
  C  C20  1  0.20231000  0.07149000  0.29088000  1.0
  C  C21  1  0.49364000  0.92879000  0.70903000  1.0
  C  C22  1  0.00658000  0.63800000  0.29088000  1.0
  C  C23  1  0.70249000  0.63815000  0.29080000  1.0
  C  C24  1  0.79760000  0.92866000  0.70936000  1.0
  C  C25  1  0.50652000  0.07114000  0.29069000  1.0
  N  N26  1  0.98654000  0.42027000  0.83742000  1.0
  N  N27  1  0.17618000  0.42064000  0.83721000  1.0
  N  N28  1  0.32384000  0.25805000  0.16264000  1.0
  N  N29  1  0.48667000  0.74215000  0.83731000  1.0
  N  N30  1  0.01336000  0.57950000  0.16270000  1.0
  N  N31  1  0.82384000  0.57955000  0.16269000  1.0
  N  N32  1  0.67612000  0.74209000  0.83746000  1.0
  N  N33  1  0.51341000  0.25780000  0.16255000  1.0
