# generated using pymatgen
data_CoH30C38(NO6)2
_symmetry_space_group_name_H-M   'P 1'
_cell_length_a   7.87834000
_cell_length_b   10.02690000
_cell_length_c   10.24360000
_cell_angle_alpha   91.36460000
_cell_angle_beta   99.63580000
_cell_angle_gamma   92.27130000
_symmetry_Int_Tables_number   1
_chemical_formula_structural   CoH30C38(NO6)2
_chemical_formula_sum   'Co1 H30 C38 N2 O12'
_cell_volume   796.77248551
_cell_formula_units_Z   1
loop_
 _symmetry_equiv_pos_site_id
 _symmetry_equiv_pos_as_xyz
  1  'x, y, z'
loop_
 _atom_site_type_symbol
 _atom_site_label
 _atom_site_symmetry_multiplicity
 _atom_site_fract_x
 _atom_site_fract_y
 _atom_site_fract_z
 _atom_site_occupancy
  Co  Co0  1  0.49999000  0.50000000  0.50000000  1.0
  H  H1  1  0.34975000  0.61406000  0.68315000  1.0
  H  H2  1  0.65024000  0.38594000  0.31684000  1.0
  H  H3  1  0.52658000  0.54124000  0.73167000  1.0
  H  H4  1  0.47341000  0.45876000  0.26832000  1.0
  H  H5  1  0.37311000  0.63004000  0.05227000  1.0
  H  H6  1  0.62689000  0.36996000  0.94772000  1.0
  H  H7  1  0.97260000  0.40027000  0.54386000  1.0
  H  H8  1  0.02739000  0.59974000  0.45615000  1.0
  H  H9  1  0.83830000  0.17978000  0.56825000  1.0
  H  H10  1  0.16169000  0.82023000  0.43176000  1.0
  H  H11  1  0.23536000  0.00755000  0.37742000  1.0
  H  H12  1  0.76464000  0.99245000  0.62261000  1.0
  H  H13  1  0.34630000  0.23806000  0.35276000  1.0
  H  H14  1  0.65369000  0.76194000  0.64725000  1.0
  H  H15  1  0.62496000  0.88084000  0.37578000  1.0
  H  H16  1  0.37504000  0.11916000  0.62421000  1.0
  H  H17  1  0.65026000  0.10886000  0.28627000  1.0
  H  H18  1  0.34974000  0.89114000  0.71373000  1.0
  H  H19  1  0.43080000  0.17570000  0.09779000  1.0
  H  H20  1  0.56919000  0.82431000  0.90221000  1.0
  H  H21  1  0.18561000  0.02055000  0.00605000  1.0
  H  H22  1  0.81439000  0.97945000  0.99395000  1.0
  H  H23  1  0.89974000  0.57644000  0.82526000  1.0
  H  H24  1  0.10026000  0.42356000  0.17473000  1.0
  H  H25  1  0.66082000  0.59875000  0.95400000  1.0
  H  H26  1  0.33919000  0.40125000  0.04599000  1.0
  H  H27  1  0.70760000  0.73536000  0.16358000  1.0
  H  H28  1  0.29242000  0.26463000  0.83642000  1.0
  H  H29  1  0.98757000  0.85628000  0.23805000  1.0
  H  H30  1  0.01245000  0.14370000  0.76195000  1.0
  C  C31  1  0.02795000  0.30926000  0.51313000  1.0
  C  C32  1  0.97204000  0.69075000  0.48687000  1.0
  C  C33  1  0.95640000  0.18410000  0.52622000  1.0
  C  C34  1  0.04359000  0.81590000  0.47379000  1.0
  C  C35  1  0.03104000  0.06642000  0.48631000  1.0
  C  C36  1  0.96895000  0.93358000  0.51371000  1.0
  C  C37  1  0.17165000  0.08944000  0.41803000  1.0
  C  C38  1  0.82835000  0.91056000  0.58198000  1.0
  C  C39  1  0.23686000  0.21609000  0.40167000  1.0
  C  C40  1  0.76314000  0.78391000  0.59834000  1.0
  C  C41  1  0.40681000  0.68116000  0.28423000  1.0
  C  C42  1  0.59319000  0.31884000  0.71576000  1.0
  C  C43  1  0.39636000  0.82145000  0.23856000  1.0
  C  C44  1  0.60365000  0.17855000  0.76143000  1.0
  C  C45  1  0.53024000  0.91253000  0.29398000  1.0
  C  C46  1  0.46977000  0.08747000  0.70602000  1.0
  C  C47  1  0.54426000  0.03953000  0.24373000  1.0
  C  C48  1  0.45574000  0.96048000  0.75628000  1.0
  C  C49  1  0.42136000  0.07695000  0.13815000  1.0
  C  C50  1  0.57863000  0.92305000  0.86185000  1.0
  C  C51  1  0.28446000  0.98859000  0.08536000  1.0
  C  C52  1  0.71554000  0.01141000  0.91464000  1.0
  C  C53  1  0.26968000  0.85965000  0.13323000  1.0
  C  C54  1  0.73032000  0.14035000  0.86676000  1.0
  C  C55  1  0.10921000  0.77680000  0.08202000  1.0
  C  C56  1  0.89080000  0.22319000  0.91798000  1.0
  C  C57  1  0.08162000  0.69744000  0.96407000  1.0
  C  C58  1  0.91839000  0.30256000  0.03592000  1.0
  C  C59  1  0.21989000  0.66986000  0.88594000  1.0
  C  C60  1  0.78011000  0.33014000  0.11404000  1.0
  C  C61  1  0.91908000  0.63612000  0.91733000  1.0
  C  C62  1  0.08092000  0.36388000  0.08267000  1.0
  C  C63  1  0.78576000  0.64761000  0.98969000  1.0
  C  C64  1  0.21425000  0.35239000  0.01030000  1.0
  C  C65  1  0.81206000  0.72415000  0.10718000  1.0
  C  C66  1  0.18796000  0.27584000  0.89281000  1.0
  C  C67  1  0.97077000  0.79064000  0.15041000  1.0
  C  C68  1  0.02924000  0.20935000  0.84959000  1.0
  N  N69  1  0.17036000  0.32570000  0.45363000  1.0
  N  N70  1  0.82963000  0.67430000  0.54638000  1.0
  O  O71  1  0.46614000  0.59736000  0.65988000  1.0
  O  O72  1  0.53385000  0.40263000  0.34011000  1.0
  O  O73  1  0.23766000  0.44758000  0.44157000  1.0
  O  O74  1  0.76233000  0.55242000  0.55842000  1.0
  O  O75  1  0.44989000  0.66386000  0.40834000  1.0
  O  O76  1  0.55010000  0.33613000  0.59165000  1.0
  O  O77  1  0.38315000  0.58780000  0.19479000  1.0
  O  O78  1  0.61685000  0.41220000  0.80520000  1.0
  O  O79  1  0.37478000  0.64603000  0.95261000  1.0
  O  O80  1  0.62523000  0.35398000  0.04738000  1.0
  O  O81  1  0.19189000  0.66535000  0.76307000  1.0
  O  O82  1  0.80811000  0.33465000  0.23692000  1.0
