# generated using pymatgen
data_CdH12C14(NO)4
_symmetry_space_group_name_H-M   'P 1'
_cell_length_a   11.61940000
_cell_length_b   13.71867979
_cell_length_c   13.83420000
_cell_angle_alpha   77.03620782
_cell_angle_beta   89.99860000
_cell_angle_gamma   64.96523768
_symmetry_Int_Tables_number   1
_chemical_formula_structural   CdH12C14(NO)4
_chemical_formula_sum   'Cd4 H48 C56 N16 O16'
_cell_volume   1935.82717439
_cell_formula_units_Z   4
loop_
 _symmetry_equiv_pos_site_id
 _symmetry_equiv_pos_as_xyz
  1  'x, y, z'
loop_
 _atom_site_type_symbol
 _atom_site_label
 _atom_site_symmetry_multiplicity
 _atom_site_fract_x
 _atom_site_fract_y
 _atom_site_fract_z
 _atom_site_occupancy
  Cd  Cd0  1  0.99415000  0.56197000  0.85722000  1.0
  Cd  Cd1  1  0.55629000  0.43848000  0.64259000  1.0
  Cd  Cd2  1  0.00585000  0.43803000  0.14277000  1.0
  Cd  Cd3  1  0.44372000  0.56152000  0.35741000  1.0
  H  H4  1  0.00653000  0.81113000  0.56260000  1.0
  H  H5  1  0.81722000  0.18923000  0.93719000  1.0
  H  H6  1  0.99347000  0.18887000  0.43740000  1.0
  H  H7  1  0.18279000  0.81077000  0.06280000  1.0
  H  H8  1  0.15726000  0.77819000  0.62398000  1.0
  H  H9  1  0.93471000  0.22273000  0.87577000  1.0
  H  H10  1  0.84274000  0.22181000  0.37602000  1.0
  H  H11  1  0.06530000  0.77727000  0.12422000  1.0
  H  H12  1  0.16269000  0.71009000  0.45977000  1.0
  H  H13  1  0.87285000  0.28976000  0.04038000  1.0
  H  H14  1  0.83730000  0.28991000  0.54022000  1.0
  H  H15  1  0.12714000  0.71024000  0.95962000  1.0
  H  H16  1  0.10002000  0.62120000  0.52503000  1.0
  H  H17  1  0.72105000  0.37890000  0.97565000  1.0
  H  H18  1  0.89998000  0.37880000  0.47496000  1.0
  H  H19  1  0.27895000  0.62111000  0.02434000  1.0
  H  H20  1  0.93010000  0.81141000  0.85273000  1.0
  H  H21  1  0.74182000  0.18924000  0.64687000  1.0
  H  H22  1  0.06990000  0.18859000  0.14726000  1.0
  H  H23  1  0.25817000  0.81076000  0.35313000  1.0
  H  H24  1  0.74842000  0.99465000  0.86226000  1.0
  H  H25  1  0.74356000  0.00586000  0.63730000  1.0
  H  H26  1  0.25159000  0.00535000  0.13774000  1.0
  H  H27  1  0.25643000  0.99414000  0.36269000  1.0
  H  H28  1  0.50146000  0.82960000  0.89277000  1.0
  H  H29  1  0.33164000  0.17039000  0.60743000  1.0
  H  H30  1  0.49854000  0.17040000  0.10723000  1.0
  H  H31  1  0.66835000  0.82962000  0.39257000  1.0
  H  H32  1  0.69487000  0.65197000  0.88923000  1.0
  H  H33  1  0.34732000  0.34824000  0.61066000  1.0
  H  H34  1  0.30513000  0.34803000  0.11077000  1.0
  H  H35  1  0.65268000  0.65176000  0.38934000  1.0
  H  H36  1  0.50089000  0.30564000  0.86758000  1.0
  H  H37  1  0.80671000  0.69490000  0.63183000  1.0
  H  H38  1  0.49910000  0.69435000  0.13242000  1.0
  H  H39  1  0.19330000  0.30510000  0.36818000  1.0
  H  H40  1  0.29767000  0.47710000  0.86009000  1.0
  H  H41  1  0.77491000  0.52341000  0.63889000  1.0
  H  H42  1  0.70232000  0.52290000  0.13991000  1.0
  H  H43  1  0.22510000  0.47659000  0.36110000  1.0
  H  H44  1  0.07482000  0.31149000  0.84362000  1.0
  H  H45  1  0.38704000  0.68821000  0.65763000  1.0
  H  H46  1  0.92518000  0.68851000  0.15637000  1.0
  H  H47  1  0.61297000  0.31179000  0.34237000  1.0
  H  H48  1  0.26880000  0.13008000  0.85566000  1.0
  H  H49  1  0.39960000  0.86970000  0.64579000  1.0
  H  H50  1  0.73119000  0.86991000  0.14435000  1.0
  H  H51  1  0.60040000  0.13030000  0.35423000  1.0
  C  C52  1  0.05981000  0.68464000  0.69757000  1.0
  C  C53  1  0.74372000  0.31619000  0.80254000  1.0
  C  C54  1  0.94018000  0.31536000  0.30242000  1.0
  C  C55  1  0.25629000  0.68381000  0.19746000  1.0
  C  C56  1  0.09571000  0.74204000  0.60305000  1.0
  C  C57  1  0.83713000  0.25855000  0.89695000  1.0
  C  C58  1  0.90429000  0.25796000  0.39694000  1.0
  C  C59  1  0.16287000  0.74146000  0.10304000  1.0
  C  C60  1  0.15847000  0.66468000  0.53484000  1.0
  C  C61  1  0.82287000  0.33550000  0.96549000  1.0
  C  C62  1  0.84154000  0.33531000  0.46515000  1.0
  C  C63  1  0.17714000  0.66449000  0.03451000  1.0
  C  C64  1  0.29199000  0.57643000  0.57644000  1.0
  C  C65  1  0.86806000  0.42385000  0.92402000  1.0
  C  C66  1  0.70800000  0.42358000  0.42356000  1.0
  C  C67  1  0.13195000  0.57615000  0.07598000  1.0
  C  C68  1  0.83368000  0.81987000  0.86430000  1.0
  C  C69  1  0.65394000  0.18060000  0.63540000  1.0
  C  C70  1  0.16632000  0.18013000  0.13570000  1.0
  C  C71  1  0.34605000  0.81941000  0.36460000  1.0
  C  C72  1  0.73388000  0.92026000  0.86811000  1.0
  C  C73  1  0.65461000  0.08012000  0.63163000  1.0
  C  C74  1  0.26613000  0.07974000  0.13190000  1.0
  C  C75  1  0.34538000  0.91988000  0.36837000  1.0
  C  C76  1  0.61175000  0.92439000  0.87785000  1.0
  C  C77  1  0.53668000  0.07586000  0.62209000  1.0
  C  C78  1  0.38827000  0.07560000  0.12215000  1.0
  C  C79  1  0.46331000  0.92414000  0.37791000  1.0
  C  C80  1  0.59586000  0.82742000  0.88549000  1.0
  C  C81  1  0.42379000  0.17275000  0.61456000  1.0
  C  C82  1  0.40415000  0.17258000  0.11451000  1.0
  C  C83  1  0.57620000  0.82726000  0.38544000  1.0
  C  C84  1  0.70199000  0.72988000  0.88296000  1.0
  C  C85  1  0.43232000  0.27037000  0.61697000  1.0
  C  C86  1  0.29800000  0.27012000  0.11705000  1.0
  C  C87  1  0.56768000  0.72964000  0.38303000  1.0
  C  C88  1  0.39915000  0.20412000  0.86510000  1.0
  C  C89  1  0.60368000  0.79606000  0.63516000  1.0
  C  C90  1  0.60085000  0.79587000  0.13491000  1.0
  C  C91  1  0.39632000  0.20395000  0.36485000  1.0
  C  C92  1  0.40850000  0.30242000  0.86541000  1.0
  C  C93  1  0.71121000  0.69793000  0.63432000  1.0
  C  C94  1  0.59150000  0.69758000  0.13460000  1.0
  C  C95  1  0.28879000  0.30208000  0.36569000  1.0
  C  C96  1  0.29576000  0.39820000  0.86066000  1.0
  C  C97  1  0.69424000  0.60217000  0.63888000  1.0
  C  C98  1  0.70424000  0.60179000  0.13934000  1.0
  C  C99  1  0.30576000  0.39784000  0.36112000  1.0
  C  C100  1  0.17148000  0.30468000  0.85183000  1.0
  C  C101  1  0.47675000  0.69527000  0.64897000  1.0
  C  C102  1  0.82852000  0.69531000  0.14816000  1.0
  C  C103  1  0.52326000  0.30473000  0.35104000  1.0
  C  C104  1  0.27788000  0.20544000  0.85744000  1.0
  C  C105  1  0.48391000  0.79451000  0.64349000  1.0
  C  C106  1  0.72212000  0.79456000  0.14256000  1.0
  C  C107  1  0.51609000  0.20549000  0.35652000  1.0
  N  N108  1  0.81824000  0.72644000  0.87174000  1.0
  N  N109  1  0.54506000  0.27393000  0.62798000  1.0
  N  N110  1  0.18176000  0.27356000  0.12826000  1.0
  N  N111  1  0.45493000  0.72607000  0.37201000  1.0
  N  N112  1  0.49905000  0.02108000  0.87749000  1.0
  N  N113  1  0.52062000  0.97914000  0.62245000  1.0
  N  N114  1  0.50095000  0.97892000  0.12251000  1.0
  N  N115  1  0.47937000  0.02086000  0.37755000  1.0
  N  N116  1  0.51512000  0.10800000  0.87011000  1.0
  N  N117  1  0.62357000  0.89220000  0.63008000  1.0
  N  N118  1  0.48488000  0.89200000  0.12990000  1.0
  N  N119  1  0.37643000  0.10780000  0.36993000  1.0
  N  N120  1  0.17995000  0.39914000  0.85479000  1.0
  N  N121  1  0.57949000  0.60108000  0.64514000  1.0
  N  N122  1  0.82004000  0.60085000  0.14521000  1.0
  N  N123  1  0.42052000  0.39892000  0.35486000  1.0
  O  O124  1  0.00139000  0.62595000  0.68667000  1.0
  O  O125  1  0.62663000  0.37450000  0.81352000  1.0
  O  O126  1  0.99861000  0.37404000  0.31331000  1.0
  O  O127  1  0.37338000  0.62549000  0.18648000  1.0
  O  O128  1  0.08523000  0.69767000  0.78161000  1.0
  O  O129  1  0.78228000  0.30357000  0.71839000  1.0
  O  O130  1  0.91475000  0.30233000  0.21838000  1.0
  O  O131  1  0.21772000  0.69644000  0.28161000  1.0
  O  O132  1  0.32670000  0.54771000  0.66915000  1.0
  O  O133  1  0.87338000  0.45315000  0.83121000  1.0
  O  O134  1  0.67329000  0.45229000  0.33084000  1.0
  O  O135  1  0.12663000  0.54685000  0.16879000  1.0
  O  O136  1  0.36900000  0.53144000  0.51554000  1.0
  O  O137  1  0.90083000  0.46831000  0.98498000  1.0
  O  O138  1  0.63101000  0.46856000  0.48446000  1.0
  O  O139  1  0.09918000  0.53169000  0.01503000  1.0
