# generated using pymatgen
data_ZnH19C19SN6O7
_symmetry_space_group_name_H-M   'P 1'
_cell_length_a   10.70270000
_cell_length_b   17.00160000
_cell_length_c   17.49900000
_cell_angle_alpha   91.22360000
_cell_angle_beta   93.79880000
_cell_angle_gamma   90.21310000
_symmetry_Int_Tables_number   1
_chemical_formula_structural   ZnH19C19SN6O7
_chemical_formula_sum   'Zn2 H38 C38 S2 N12 O14'
_cell_volume   3176.40833011
_cell_formula_units_Z   2
loop_
 _symmetry_equiv_pos_site_id
 _symmetry_equiv_pos_as_xyz
  1  'x, y, z'
loop_
 _atom_site_type_symbol
 _atom_site_label
 _atom_site_symmetry_multiplicity
 _atom_site_fract_x
 _atom_site_fract_y
 _atom_site_fract_z
 _atom_site_occupancy
  Zn  Zn0  1  0.45758000  0.41016000  0.49678000  1.0
  Zn  Zn1  1  0.46307000  0.59540000  0.48626000  1.0
  H  H2  1  0.88197000  0.39400000  0.51236000  1.0
  H  H3  1  0.85857000  0.64594000  0.50572000  1.0
  H  H4  1  0.85168000  0.44556000  0.59820000  1.0
  H  H5  1  0.88225000  0.59961000  0.59437000  1.0
  H  H6  1  0.06363000  0.48096000  0.62309000  1.0
  H  H7  1  0.09663000  0.62118000  0.58224000  1.0
  H  H8  1  0.09149000  0.40146000  0.55907000  1.0
  H  H9  1  0.07502000  0.64048000  0.48380000  1.0
  H  H10  1  0.85520000  0.46151000  0.38415000  1.0
  H  H11  1  0.88372000  0.56445000  0.38547000  1.0
  H  H12  1  0.06775000  0.43268000  0.41415000  1.0
  H  H13  1  0.09570000  0.52973000  0.38484000  1.0
  H  H14  1  0.53430000  0.37602000  0.10264000  1.0
  H  H15  1  0.64797000  0.61575000  0.15593000  1.0
  H  H16  1  0.34337000  0.10638000  0.45231000  1.0
  H  H17  1  0.38840000  0.88533000  0.41319000  1.0
  H  H18  1  0.35085000  0.40503000  0.68840000  1.0
  H  H19  1  0.27472000  0.42594000  0.76872000  1.0
  H  H20  1  0.72693000  0.56151000  0.66353000  1.0
  H  H21  1  0.82822000  0.56046000  0.74109000  1.0
  H  H22  1  0.72834000  0.09265000  0.59581000  1.0
  H  H23  1  0.74999000  0.18496000  0.63310000  1.0
  H  H24  1  0.71438000  0.91658000  0.60726000  1.0
  H  H25  1  0.76731000  0.82414000  0.61987000  1.0
  H  H26  1  0.76625000  0.28462000  0.56768000  1.0
  H  H27  1  0.67530000  0.36492000  0.54684000  1.0
  H  H28  1  0.66135000  0.72940000  0.65665000  1.0
  H  H29  1  0.59938000  0.64600000  0.61189000  1.0
  H  H30  1  0.19174000  0.17961000  0.34718000  1.0
  H  H31  1  0.51841000  0.65321000  0.30691000  1.0
  H  H32  1  0.45585000  0.29953000  0.20244000  1.0
  H  H33  1  0.45884000  0.33487000  0.29780000  1.0
  H  H34  1  0.67344000  0.64991000  0.28467000  1.0
  H  H35  1  0.62810000  0.59771000  0.35835000  1.0
  H  H36  1  0.41738000  0.42700000  0.95730000  1.0
  H  H37  1  0.35511000  0.37678000  0.87849000  1.0
  H  H38  1  0.79634000  0.63077000  0.84697000  1.0
  H  H39  1  0.77276000  0.59169000  0.93272000  1.0
  C  C40  1  0.52032000  0.49147000  0.64424000  1.0
  C  C41  1  0.71022000  0.51820000  0.48780000  1.0
  C  C42  1  0.48679000  0.47205000  0.35188000  1.0
  C  C43  1  0.23846000  0.51124000  0.51110000  1.0
  C  C44  1  0.90189000  0.44890000  0.54542000  1.0
  C  C45  1  0.90557000  0.59612000  0.53406000  1.0
  C  C46  1  0.04397000  0.45819000  0.56405000  1.0
  C  C47  1  0.04925000  0.59972000  0.52813000  1.0
  C  C48  1  0.90384000  0.50995000  0.41677000  1.0
  C  C49  1  0.85258000  0.51848000  0.49738000  1.0
  C  C50  1  0.09667000  0.51716000  0.50829000  1.0
  C  C51  1  0.04619000  0.49472000  0.42556000  1.0
  C  C52  1  0.54704000  0.42462000  0.14415000  1.0
  C  C53  1  0.61184000  0.55951000  0.17385000  1.0
  C  C54  1  0.52078000  0.41256000  0.22082000  1.0
  C  C55  1  0.58229000  0.54849000  0.24877000  1.0
  C  C56  1  0.53245000  0.47754000  0.27394000  1.0
  C  C57  1  0.58877000  0.49740000  0.11958000  1.0
  C  C58  1  0.60069000  0.50709000  0.04020000  1.0
  C  C59  1  0.59796000  0.50966000  0.97021000  1.0
  C  C60  1  0.47812000  0.46270000  0.85586000  1.0
  C  C61  1  0.66677000  0.54291000  0.84306000  1.0
  C  C62  1  0.45940000  0.45613000  0.77551000  1.0
  C  C63  1  0.64875000  0.53622000  0.76306000  1.0
  C  C64  1  0.54385000  0.49413000  0.72906000  1.0
  C  C65  1  0.58147000  0.50621000  0.88960000  1.0
  C  C66  1  0.61061000  0.17357000  0.54800000  1.0
  C  C67  1  0.60128000  0.83212000  0.55687000  1.0
  C  C68  1  0.58683000  0.25602000  0.53764000  1.0
  C  C69  1  0.57236000  0.74967000  0.55302000  1.0
  C  C70  1  0.39305000  0.22744000  0.47573000  1.0
  C  C71  1  0.43146000  0.76844000  0.44745000  1.0
  C  C72  1  0.41311000  0.14766000  0.47681000  1.0
  C  C73  1  0.44382000  0.84888000  0.45270000  1.0
  C  C74  1  0.52483000  0.11903000  0.51412000  1.0
  C  C75  1  0.53137000  0.88241000  0.50849000  1.0
  C  C76  1  0.54325000  0.03697000  0.51717000  1.0
  C  C77  1  0.54442000  0.96501000  0.51458000  1.0
  S  S78  1  0.24255000  0.26103000  0.43808000  1.0
  S  S79  1  0.33316000  0.72765000  0.36856000  1.0
  N  N80  1  0.47756000  0.28242000  0.50447000  1.0
  N  N81  1  0.49212000  0.71855000  0.49716000  1.0
  N  N82  1  0.35702000  0.41027000  0.74666000  1.0
  N  N83  1  0.73921000  0.57338000  0.72075000  1.0
  N  N84  1  0.72118000  0.15132000  0.58646000  1.0
  N  N85  1  0.69058000  0.85909000  0.61252000  1.0
  N  N86  1  0.67838000  0.30707000  0.56383000  1.0
  N  N87  1  0.62997000  0.70318000  0.60638000  1.0
  N  N88  1  0.48348000  0.34033000  0.24287000  1.0
  N  N89  1  0.60339000  0.61496000  0.30258000  1.0
  N  N90  1  0.39028000  0.42881000  0.90056000  1.0
  N  N91  1  0.77406000  0.58146000  0.87529000  1.0
  O  O92  1  0.47457000  0.42765000  0.61308000  1.0
  O  O93  1  0.54641000  0.55191000  0.60635000  1.0
  O  O94  1  0.65268000  0.45484000  0.50061000  1.0
  O  O95  1  0.65623000  0.58180000  0.46536000  1.0
  O  O96  1  0.48680000  0.40447000  0.38298000  1.0
  O  O97  1  0.44904000  0.53513000  0.38258000  1.0
  O  O98  1  0.28103000  0.44499000  0.48996000  1.0
  O  O99  1  0.30412000  0.57128000  0.53263000  1.0
  O  O100  1  0.16965000  0.28150000  0.50128000  1.0
  O  O101  1  0.25680000  0.31237000  0.37487000  1.0
  O  O102  1  0.18029000  0.17995000  0.40222000  1.0
  O  O103  1  0.28269000  0.65531000  0.39770000  1.0
  O  O104  1  0.24439000  0.78862000  0.34691000  1.0
  O  O105  1  0.42374000  0.71330000  0.30794000  1.0
