# generated using pymatgen
data_HoH15C11O6
_symmetry_space_group_name_H-M   'P 1'
_cell_length_a   8.14565000
_cell_length_b   10.68740000
_cell_length_c   14.75940000
_cell_angle_alpha   89.99960000
_cell_angle_beta   90.00040000
_cell_angle_gamma   89.99980000
_symmetry_Int_Tables_number   1
_chemical_formula_structural   HoH15C11O6
_chemical_formula_sum   'Ho4 H60 C44 O24'
_cell_volume   1284.89166683
_cell_formula_units_Z   4
loop_
 _symmetry_equiv_pos_site_id
 _symmetry_equiv_pos_as_xyz
  1  'x, y, z'
loop_
 _atom_site_type_symbol
 _atom_site_label
 _atom_site_symmetry_multiplicity
 _atom_site_fract_x
 _atom_site_fract_y
 _atom_site_fract_z
 _atom_site_occupancy
  Ho  Ho0  1  0.57864000  0.19979000  0.50187000  1.0
  Ho  Ho1  1  0.92136000  0.80021000  0.00186000  1.0
  Ho  Ho2  1  0.42136000  0.69979000  0.99813000  1.0
  Ho  Ho3  1  0.07864000  0.30022000  0.49814000  1.0
  H  H4  1  0.72690000  0.82673000  0.30377000  1.0
  H  H5  1  0.77310000  0.17327000  0.80378000  1.0
  H  H6  1  0.27309000  0.32673000  0.19623000  1.0
  H  H7  1  0.22689000  0.67327000  0.69622000  1.0
  H  H8  1  0.40798000  0.70177000  0.26826000  1.0
  H  H9  1  0.09203000  0.29822000  0.76827000  1.0
  H  H10  1  0.59202000  0.20177000  0.23175000  1.0
  H  H11  1  0.90797000  0.79824000  0.73173000  1.0
  H  H12  1  0.46412000  0.80360000  0.35721000  1.0
  H  H13  1  0.03588000  0.19640000  0.85722000  1.0
  H  H14  1  0.53588000  0.30360000  0.14280000  1.0
  H  H15  1  0.96411000  0.69641000  0.64278000  1.0
  H  H16  1  0.44738000  0.61739000  0.44681000  1.0
  H  H17  1  0.05262000  0.38261000  0.94682000  1.0
  H  H18  1  0.55262000  0.11740000  0.05319000  1.0
  H  H19  1  0.94738000  0.88262000  0.55318000  1.0
  H  H20  1  0.47673000  0.52008000  0.35228000  1.0
  H  H21  1  0.02327000  0.47992000  0.85229000  1.0
  H  H22  1  0.52327000  0.02008000  0.14772000  1.0
  H  H23  1  0.97673000  0.97993000  0.64771000  1.0
  H  H24  1  0.68785000  0.67435000  0.54092000  1.0
  H  H25  1  0.81215000  0.32565000  0.04092000  1.0
  H  H26  1  0.31215000  0.17435000  0.95909000  1.0
  H  H27  1  0.18785000  0.82565000  0.45908000  1.0
  H  H28  1  0.72020000  0.79039000  0.45698000  1.0
  H  H29  1  0.77979000  0.20961000  0.95699000  1.0
  H  H30  1  0.27979000  0.29039000  0.04301000  1.0
  H  H31  1  0.22021000  0.70961000  0.54301000  1.0
  H  H32  1  0.88491000  0.69060000  0.49129000  1.0
  H  H33  1  0.61509000  0.30940000  0.99129000  1.0
  H  H34  1  0.11509000  0.19059000  0.00871000  1.0
  H  H35  1  0.38491000  0.80940000  0.50871000  1.0
  H  H36  1  0.81224000  0.53749000  0.17794000  1.0
  H  H37  1  0.68778000  0.46250000  0.67794000  1.0
  H  H38  1  0.18777000  0.03748000  0.32206000  1.0
  H  H39  1  0.31223000  0.96250000  0.82205000  1.0
  H  H40  1  0.64097000  0.48268000  0.23949000  1.0
  H  H41  1  0.85905000  0.51731000  0.73949000  1.0
  H  H42  1  0.35905000  0.98268000  0.26051000  1.0
  H  H43  1  0.14095000  0.01731000  0.76051000  1.0
  H  H44  1  0.84291000  0.43672000  0.27176000  1.0
  H  H45  1  0.65711000  0.56328000  0.77175000  1.0
  H  H46  1  0.15711000  0.93672000  0.22824000  1.0
  H  H47  1  0.34290000  0.06327000  0.72824000  1.0
  H  H48  1  0.00764000  0.69315000  0.24449000  1.0
  H  H49  1  0.49236000  0.30685000  0.74448000  1.0
  H  H50  1  0.99235000  0.19314000  0.25552000  1.0
  H  H51  1  0.50764000  0.80685000  0.75552000  1.0
  H  H52  1  0.04206000  0.59206000  0.33901000  1.0
  H  H53  1  0.45795000  0.40794000  0.83900000  1.0
  H  H54  1  0.95795000  0.09205000  0.16100000  1.0
  H  H55  1  0.54205000  0.90794000  0.66099000  1.0
  H  H56  1  0.98369000  0.75074000  0.35595000  1.0
  H  H57  1  0.51631000  0.24926000  0.85594000  1.0
  H  H58  1  0.01630000  0.25073000  0.14406000  1.0
  H  H59  1  0.48369000  0.74926000  0.64405000  1.0
  H  H60  1  0.93978000  0.01312000  0.39193000  1.0
  H  H61  1  0.56023000  0.98690000  0.89193000  1.0
  H  H62  1  0.06024000  0.51311000  0.10807000  1.0
  H  H63  1  0.43977000  0.48689000  0.60808000  1.0
  C  C64  1  0.70454000  0.59846000  0.40430000  1.0
  C  C65  1  0.79546000  0.40154000  0.90430000  1.0
  C  C66  1  0.29546000  0.09846000  0.09571000  1.0
  C  C67  1  0.20454000  0.90154000  0.59570000  1.0
  C  C68  1  0.78485000  0.62878000  0.30953000  1.0
  C  C69  1  0.71515000  0.37122000  0.80953000  1.0
  C  C70  1  0.21515000  0.12878000  0.19048000  1.0
  C  C71  1  0.28485000  0.87122000  0.69047000  1.0
  C  C72  1  0.67172000  0.74024000  0.27737000  1.0
  C  C73  1  0.82828000  0.25976000  0.77738000  1.0
  C  C74  1  0.32827000  0.24024000  0.22263000  1.0
  C  C75  1  0.17172000  0.75976000  0.72262000  1.0
  C  C76  1  0.50118000  0.71902000  0.32032000  1.0
  C  C77  1  0.99882000  0.28098000  0.82033000  1.0
  C  C78  1  0.49882000  0.21902000  0.17968000  1.0
  C  C79  1  0.00118000  0.78099000  0.67967000  1.0
  C  C80  1  0.51940000  0.60672000  0.38460000  1.0
  C  C81  1  0.98060000  0.39328000  0.88460000  1.0
  C  C82  1  0.48060000  0.10672000  0.11541000  1.0
  C  C83  1  0.01940000  0.89328000  0.61540000  1.0
  C  C84  1  0.75649000  0.47266000  0.44330000  1.0
  C  C85  1  0.74352000  0.52734000  0.94330000  1.0
  C  C86  1  0.24351000  0.97266000  0.05670000  1.0
  C  C87  1  0.25649000  0.02734000  0.55670000  1.0
  C  C88  1  0.75291000  0.69483000  0.47736000  1.0
  C  C89  1  0.74709000  0.30518000  0.97737000  1.0
  C  C90  1  0.24708000  0.19482000  0.02264000  1.0
  C  C91  1  0.25291000  0.80518000  0.52263000  1.0
  C  C92  1  0.76824000  0.51481000  0.24642000  1.0
  C  C93  1  0.73177000  0.48519000  0.74642000  1.0
  C  C94  1  0.23177000  0.01481000  0.25358000  1.0
  C  C95  1  0.26823000  0.98519000  0.75358000  1.0
  C  C96  1  0.96533000  0.66825000  0.31279000  1.0
  C  C97  1  0.53467000  0.33176000  0.81278000  1.0
  C  C98  1  0.03467000  0.16824000  0.18722000  1.0
  C  C99  1  0.46533000  0.83175000  0.68721000  1.0
  C  C100  1  0.67264000  0.75250000  0.17552000  1.0
  C  C101  1  0.82737000  0.24749000  0.67552000  1.0
  C  C102  1  0.32735000  0.25252000  0.32448000  1.0
  C  C103  1  0.17262000  0.74749000  0.82448000  1.0
  C  C104  1  0.83643000  0.06630000  0.42137000  1.0
  C  C105  1  0.66359000  0.93371000  0.92137000  1.0
  C  C106  1  0.16357000  0.56630000  0.07862000  1.0
  C  C107  1  0.33642000  0.43371000  0.57863000  1.0
  O  O108  1  0.64606000  0.40103000  0.47576000  1.0
  O  O109  1  0.85393000  0.59897000  0.97575000  1.0
  O  O110  1  0.35393000  0.90104000  0.02424000  1.0
  O  O111  1  0.14608000  0.09898000  0.52425000  1.0
  O  O112  1  0.90906000  0.44784000  0.44668000  1.0
  O  O113  1  0.59094000  0.55217000  0.94668000  1.0
  O  O114  1  0.09094000  0.94784000  0.05333000  1.0
  O  O115  1  0.40908000  0.05215000  0.55332000  1.0
  O  O116  1  0.79941000  0.80058000  0.13805000  1.0
  O  O117  1  0.70058000  0.19941000  0.63805000  1.0
  O  O118  1  0.20058000  0.30060000  0.36195000  1.0
  O  O119  1  0.29940000  0.69940000  0.86195000  1.0
  O  O120  1  0.55109000  0.71193000  0.13007000  1.0
  O  O121  1  0.94889000  0.28806000  0.63007000  1.0
  O  O122  1  0.44889000  0.21195000  0.36994000  1.0
  O  O123  1  0.05109000  0.78806000  0.86992000  1.0
  O  O124  1  0.70115000  0.01388000  0.43669000  1.0
  O  O125  1  0.79885000  0.98612000  0.93670000  1.0
  O  O126  1  0.29886000  0.51388000  0.06329000  1.0
  O  O127  1  0.20115000  0.48611000  0.56330000  1.0
  O  O128  1  0.85753000  0.18347000  0.43926000  1.0
  O  O129  1  0.64247000  0.81654000  0.93926000  1.0
  O  O130  1  0.14247000  0.68347000  0.06074000  1.0
  O  O131  1  0.35752000  0.31653000  0.56074000  1.0
