# generated using pymatgen
data_H16PbC27(NO)4
_symmetry_space_group_name_H-M   'P 1'
_cell_length_a   9.37155000
_cell_length_b   10.67700000
_cell_length_c   13.08130000
_cell_angle_alpha   92.16720000
_cell_angle_beta   107.83600000
_cell_angle_gamma   104.60700000
_symmetry_Int_Tables_number   1
_chemical_formula_structural   H16PbC27(NO)4
_chemical_formula_sum   'H32 Pb2 C54 N8 O8'
_cell_volume   1196.28970582
_cell_formula_units_Z   2
loop_
 _symmetry_equiv_pos_site_id
 _symmetry_equiv_pos_as_xyz
  1  'x, y, z'
loop_
 _atom_site_type_symbol
 _atom_site_label
 _atom_site_symmetry_multiplicity
 _atom_site_fract_x
 _atom_site_fract_y
 _atom_site_fract_z
 _atom_site_occupancy
  H  H0  1  0.49968000  0.87008000  0.15414000  1.0
  H  H1  1  0.50028000  0.12994000  0.84580000  1.0
  H  H2  1  0.33139000  0.66802000  0.19396000  1.0
  H  H3  1  0.66861000  0.33198000  0.80604000  1.0
  H  H4  1  0.11722000  0.68930000  0.26681000  1.0
  H  H5  1  0.88280000  0.31071000  0.73318000  1.0
  H  H6  1  0.42058000  0.43394000  0.21821000  1.0
  H  H7  1  0.57941000  0.56608000  0.78180000  1.0
  H  H8  1  0.21246000  0.48530000  0.28414000  1.0
  H  H9  1  0.78757000  0.51471000  0.71591000  1.0
  H  H10  1  0.02485000  0.30307000  0.32882000  1.0
  H  H11  1  0.97520000  0.69692000  0.67123000  1.0
  H  H12  1  0.71305000  0.64372000  0.33775000  1.0
  H  H13  1  0.28696000  0.35626000  0.66226000  1.0
  H  H14  1  0.51426000  0.53584000  0.41835000  1.0
  H  H15  1  0.48572000  0.46417000  0.58164000  1.0
  H  H16  1  0.40764000  0.66970000  0.52111000  1.0
  H  H17  1  0.59235000  0.33027000  0.47888000  1.0
  H  H18  1  0.50221000  0.91053000  0.54183000  1.0
  H  H19  1  0.49780000  0.08946000  0.45816000  1.0
  H  H20  1  0.70309000  0.01996000  0.46277000  1.0
  H  H21  1  0.29694000  0.98003000  0.53725000  1.0
  H  H22  1  0.80547000  0.84553000  0.06168000  1.0
  H  H23  1  0.19449000  0.15446000  0.93834000  1.0
  H  H24  1  0.00826000  0.23500000  0.00976000  1.0
  H  H25  1  0.99170000  0.76498000  0.99024000  1.0
  H  H26  1  0.91752000  0.58943000  0.32590000  1.0
  H  H27  1  0.08250000  0.41060000  0.67411000  1.0
  H  H28  1  0.87280000  0.27085000  0.51735000  1.0
  H  H29  1  0.12721000  0.72915000  0.48267000  1.0
  H  H30  1  0.84171000  0.09776000  0.34694000  1.0
  H  H31  1  0.15830000  0.90225000  0.65305000  1.0
  Pb  Pb32  1  0.52751000  0.18014000  0.11845000  1.0
  Pb  Pb33  1  0.47247000  0.81982000  0.88154000  1.0
  C  C34  1  0.40545000  0.87438000  0.18537000  1.0
  C  C35  1  0.59453000  0.12563000  0.81458000  1.0
  C  C36  1  0.31082000  0.76202000  0.20814000  1.0
  C  C37  1  0.68922000  0.23800000  0.79186000  1.0
  C  C38  1  0.19405000  0.77390000  0.24837000  1.0
  C  C39  1  0.80592000  0.22610000  0.75156000  1.0
  C  C40  1  0.17210000  0.89792000  0.26488000  1.0
  C  C41  1  0.82791000  0.10208000  0.73512000  1.0
  C  C42  1  0.27204000  0.00725000  0.23902000  1.0
  C  C43  1  0.72799000  0.99278000  0.76100000  1.0
  C  C44  1  0.25122000  0.13691000  0.25236000  1.0
  C  C45  1  0.74874000  0.86309000  0.74758000  1.0
  C  C46  1  0.33526000  0.35747000  0.23846000  1.0
  C  C47  1  0.66477000  0.64254000  0.76158000  1.0
  C  C48  1  0.21945000  0.38548000  0.27506000  1.0
  C  C49  1  0.78051000  0.61452000  0.72490000  1.0
  C  C50  1  0.11604000  0.28461000  0.30050000  1.0
  C  C51  1  0.88399000  0.71539000  0.69954000  1.0
  C  C52  1  0.12931000  0.15686000  0.28964000  1.0
  C  C53  1  0.87069000  0.84314000  0.71035000  1.0
  C  C54  1  0.02981000  0.04474000  0.31226000  1.0
  C  C55  1  0.97018000  0.95526000  0.68773000  1.0
  C  C56  1  0.05055000  0.91998000  0.30169000  1.0
  C  C57  1  0.94945000  0.08002000  0.69830000  1.0
  C  C58  1  0.85053000  0.89768000  0.35512000  1.0
  C  C59  1  0.14950000  0.10232000  0.64491000  1.0
  C  C60  1  0.72273000  0.83909000  0.39510000  1.0
  C  C61  1  0.27731000  0.16090000  0.60492000  1.0
  C  C62  1  0.66685000  0.70214000  0.38256000  1.0
  C  C63  1  0.33313000  0.29784000  0.61741000  1.0
  C  C64  1  0.55460000  0.64194000  0.42762000  1.0
  C  C65  1  0.44537000  0.35805000  0.57235000  1.0
  C  C66  1  0.49446000  0.71653000  0.48476000  1.0
  C  C67  1  0.50555000  0.28347000  0.51524000  1.0
  C  C68  1  0.54719000  0.85243000  0.49580000  1.0
  C  C69  1  0.45280000  0.14757000  0.50418000  1.0
  C  C70  1  0.66020000  0.91377000  0.45134000  1.0
  C  C71  1  0.33979000  0.08622000  0.54864000  1.0
  C  C72  1  0.78073000  0.09308000  0.07608000  1.0
  C  C73  1  0.21926000  0.90693000  0.92391000  1.0
  C  C74  1  0.89503000  0.04458000  0.03805000  1.0
  C  C75  1  0.10492000  0.95541000  0.96192000  1.0
  C  C76  1  0.89002000  0.91204000  0.03315000  1.0
  C  C77  1  0.10994000  0.08794000  0.96685000  1.0
  C  C78  1  0.00620000  0.13243000  0.00509000  1.0
  C  C79  1  0.99381000  0.86756000  0.99496000  1.0
  C  C80  1  0.75380000  0.34027000  0.31394000  1.0
  C  C81  1  0.24619000  0.65973000  0.68607000  1.0
  C  C82  1  0.88125000  0.42104000  0.41083000  1.0
  C  C83  1  0.11879000  0.57895000  0.58916000  1.0
  C  C84  1  0.95495000  0.55005000  0.40205000  1.0
  C  C85  1  0.04510000  0.44994000  0.59794000  1.0
  C  C86  1  0.92760000  0.37133000  0.50960000  1.0
  C  C87  1  0.07240000  0.62867000  0.49041000  1.0
  N  N88  1  0.35020000  0.23739000  0.22770000  1.0
  N  N89  1  0.64981000  0.76263000  0.77230000  1.0
  N  N90  1  0.38648000  0.99264000  0.20004000  1.0
  N  N91  1  0.61350000  0.00737000  0.79993000  1.0
  N  N92  1  0.93906000  0.83023000  0.32826000  1.0
  N  N93  1  0.06096000  0.16976000  0.67174000  1.0
  N  N94  1  0.90203000  0.02887000  0.34657000  1.0
  N  N95  1  0.09797000  0.97113000  0.65343000  1.0
  O  O96  1  0.66554000  0.00769000  0.08981000  1.0
  O  O97  1  0.33448000  0.99232000  0.91021000  1.0
  O  O98  1  0.79969000  0.21491000  0.09115000  1.0
  O  O99  1  0.20033000  0.78510000  0.90887000  1.0
  O  O100  1  0.68557000  0.39861000  0.23993000  1.0
  O  O101  1  0.31438000  0.60140000  0.76010000  1.0
  O  O102  1  0.71871000  0.21452000  0.30880000  1.0
  O  O103  1  0.28128000  0.78549000  0.69122000  1.0
