# generated using pymatgen
data_MnH3C7NO4
_symmetry_space_group_name_H-M   'P 1'
_cell_length_a   6.00358000
_cell_length_b   7.35254000
_cell_length_c   14.65920000
_cell_angle_alpha   90.00000000
_cell_angle_beta   89.99980000
_cell_angle_gamma   90.00000000
_symmetry_Int_Tables_number   1
_chemical_formula_structural   MnH3C7NO4
_chemical_formula_sum   'Mn4 H12 C28 N4 O16'
_cell_volume   647.07998703
_cell_formula_units_Z   4
loop_
 _symmetry_equiv_pos_site_id
 _symmetry_equiv_pos_as_xyz
  1  'x, y, z'
loop_
 _atom_site_type_symbol
 _atom_site_label
 _atom_site_symmetry_multiplicity
 _atom_site_fract_x
 _atom_site_fract_y
 _atom_site_fract_z
 _atom_site_occupancy
  Mn  Mn0  1  0.09023000  0.13108000  0.54020000  1.0
  Mn  Mn1  1  0.90977000  0.63109000  0.45980000  1.0
  Mn  Mn2  1  0.90976000  0.13107000  0.04020000  1.0
  Mn  Mn3  1  0.09023000  0.63109000  0.95980000  1.0
  H  H4  1  0.95731000  0.15701000  0.25210000  1.0
  H  H5  1  0.04269000  0.65702000  0.74790000  1.0
  H  H6  1  0.04269000  0.15701000  0.75209000  1.0
  H  H7  1  0.95731000  0.65701000  0.24791000  1.0
  H  H8  1  0.22976000  0.44091000  0.19944000  1.0
  H  H9  1  0.77024000  0.94092000  0.80056000  1.0
  H  H10  1  0.77024000  0.44092000  0.69943000  1.0
  H  H11  1  0.22976000  0.94092000  0.30056000  1.0
  H  H12  1  0.47838000  0.34804000  0.07239000  1.0
  H  H13  1  0.52161000  0.84806000  0.92760000  1.0
  H  H14  1  0.52161000  0.34805000  0.57239000  1.0
  H  H15  1  0.47839000  0.84806000  0.42761000  1.0
  C  C16  1  0.79513000  0.22113000  0.24314000  1.0
  C  C17  1  0.20487000  0.72114000  0.75686000  1.0
  C  C18  1  0.20487000  0.22113000  0.74314000  1.0
  C  C19  1  0.79513000  0.72113000  0.25686000  1.0
  C  C20  1  0.66844000  0.27167000  0.31888000  1.0
  C  C21  1  0.33156000  0.77167000  0.68112000  1.0
  C  C22  1  0.33156000  0.27167000  0.81888000  1.0
  C  C23  1  0.66843000  0.77166000  0.18112000  1.0
  C  C24  1  0.45710000  0.35003000  0.30459000  1.0
  C  C25  1  0.54290000  0.85002000  0.69541000  1.0
  C  C26  1  0.54290000  0.35002000  0.80459000  1.0
  C  C27  1  0.45709000  0.85002000  0.19541000  1.0
  C  C28  1  0.39103000  0.38004000  0.21456000  1.0
  C  C29  1  0.60897000  0.88005000  0.78544000  1.0
  C  C30  1  0.60896000  0.38005000  0.71456000  1.0
  C  C31  1  0.39103000  0.88004000  0.28544000  1.0
  C  C32  1  0.52880000  0.32732000  0.14292000  1.0
  C  C33  1  0.47119000  0.82734000  0.85708000  1.0
  C  C34  1  0.47119000  0.32733000  0.64292000  1.0
  C  C35  1  0.52881000  0.82733000  0.35708000  1.0
  C  C36  1  0.77419000  0.24663000  0.41016000  1.0
  C  C37  1  0.22581000  0.74663000  0.58983000  1.0
  C  C38  1  0.22581000  0.24663000  0.91017000  1.0
  C  C39  1  0.77419000  0.74661000  0.08984000  1.0
  C  C40  1  0.29581000  0.38590000  0.38167000  1.0
  C  C41  1  0.70419000  0.88590000  0.61833000  1.0
  C  C42  1  0.70419000  0.38589000  0.88166000  1.0
  C  C43  1  0.29581000  0.88588000  0.11834000  1.0
  N  N44  1  0.72742000  0.24631000  0.15662000  1.0
  N  N45  1  0.27257000  0.74632000  0.84338000  1.0
  N  N46  1  0.27258000  0.24632000  0.65662000  1.0
  N  N47  1  0.72742000  0.74632000  0.34338000  1.0
  O  O48  1  0.88229000  0.10117000  0.42365000  1.0
  O  O49  1  0.11771000  0.60118000  0.57635000  1.0
  O  O50  1  0.11771000  0.10117000  0.92366000  1.0
  O  O51  1  0.88230000  0.60116000  0.07635000  1.0
  O  O52  1  0.76620000  0.37590000  0.46880000  1.0
  O  O53  1  0.23381000  0.87590000  0.53120000  1.0
  O  O54  1  0.23381000  0.37590000  0.96880000  1.0
  O  O55  1  0.76620000  0.87588000  0.03120000  1.0
  O  O56  1  0.30040000  0.27372000  0.44736000  1.0
  O  O57  1  0.69960000  0.77372000  0.55263000  1.0
  O  O58  1  0.69961000  0.27371000  0.94736000  1.0
  O  O59  1  0.30040000  0.77371000  0.05264000  1.0
  O  O60  1  0.16434000  0.52041000  0.37211000  1.0
  O  O61  1  0.83567000  0.02041000  0.62789000  1.0
  O  O62  1  0.83566000  0.52041000  0.87211000  1.0
  O  O63  1  0.16433000  0.02040000  0.12790000  1.0
