# generated using pymatgen
data_ZnH12C21NO6
_symmetry_space_group_name_H-M   'P 1'
_cell_length_a   11.94650000
_cell_length_b   18.27390000
_cell_length_c   19.66880000
_cell_angle_alpha   89.98550000
_cell_angle_beta   90.46560000
_cell_angle_gamma   89.95840000
_symmetry_Int_Tables_number   1
_chemical_formula_structural   ZnH12C21NO6
_chemical_formula_sum   'Zn2 H24 C42 N2 O12'
_cell_volume   4293.73588751
_cell_formula_units_Z   2
loop_
 _symmetry_equiv_pos_site_id
 _symmetry_equiv_pos_as_xyz
  1  'x, y, z'
loop_
 _atom_site_type_symbol
 _atom_site_label
 _atom_site_symmetry_multiplicity
 _atom_site_fract_x
 _atom_site_fract_y
 _atom_site_fract_z
 _atom_site_occupancy
  Zn  Zn0  1  0.49995000  0.42327000  0.49999000  1.0
  Zn  Zn1  1  0.50006000  0.57673000  0.50001000  1.0
  H  H2  1  0.50064000  0.61739000  0.71593000  1.0
  H  H3  1  0.49935000  0.38261000  0.28407000  1.0
  H  H4  1  0.49899000  0.61746000  0.28403000  1.0
  H  H5  1  0.50101000  0.38254000  0.71597000  1.0
  H  H6  1  0.33825000  0.44870000  0.93583000  1.0
  H  H7  1  0.66174000  0.55130000  0.06417000  1.0
  H  H8  1  0.33769000  0.44880000  0.06210000  1.0
  H  H9  1  0.66230000  0.55121000  0.93789000  1.0
  H  H10  1  0.61367000  0.30723000  0.57971000  1.0
  H  H11  1  0.38634000  0.69277000  0.42029000  1.0
  H  H12  1  0.38615000  0.30733000  0.42030000  1.0
  H  H13  1  0.61385000  0.69267000  0.57970000  1.0
  H  H14  1  0.61791000  0.17027000  0.58410000  1.0
  H  H15  1  0.38209000  0.82973000  0.41590000  1.0
  H  H16  1  0.38218000  0.17035000  0.41591000  1.0
  H  H17  1  0.61782000  0.82965000  0.58410000  1.0
  H  H18  1  0.32356000  0.06745000  0.47580000  1.0
  H  H19  1  0.67643000  0.93255000  0.52420000  1.0
  H  H20  1  0.67627000  0.06745000  0.52421000  1.0
  H  H21  1  0.32373000  0.93255000  0.47579000  1.0
  H  H22  1  0.49792000  0.67039000  0.81980000  1.0
  H  H23  1  0.50206000  0.32961000  0.18020000  1.0
  H  H24  1  0.49813000  0.67053000  0.18005000  1.0
  H  H25  1  0.50186000  0.32947000  0.81995000  1.0
  C  C26  1  0.49813000  0.49999000  0.36714000  1.0
  C  C27  1  0.50188000  0.50000000  0.63286000  1.0
  C  C28  1  0.49971000  0.50003000  0.07176000  1.0
  C  C29  1  0.50028000  0.49997000  0.92824000  1.0
  C  C30  1  0.56395000  0.27408000  0.54462000  1.0
  C  C31  1  0.43605000  0.72592000  0.45538000  1.0
  C  C32  1  0.43588000  0.27414000  0.45541000  1.0
  C  C33  1  0.56412000  0.72586000  0.54459000  1.0
  C  C34  1  0.56623000  0.19810000  0.54619000  1.0
  C  C35  1  0.43377000  0.80190000  0.45381000  1.0
  C  C36  1  0.43368000  0.19817000  0.45386000  1.0
  C  C37  1  0.56632000  0.80183000  0.54615000  1.0
  C  C38  1  0.49994000  0.15814000  0.50004000  1.0
  C  C39  1  0.50006000  0.84186000  0.49996000  1.0
  C  C40  1  0.40162000  0.03806000  0.48540000  1.0
  C  C41  1  0.59837000  0.96194000  0.51460000  1.0
  C  C42  1  0.59830000  0.03803000  0.51463000  1.0
  C  C43  1  0.40170000  0.96197000  0.48538000  1.0
  C  C44  1  0.50007000  0.92254000  0.49998000  1.0
  C  C45  1  0.49993000  0.07745000  0.50003000  1.0
  C  C46  1  0.28001000  0.49996000  0.49882000  1.0
  C  C47  1  0.72001000  0.50003000  0.50119000  1.0
  C  C48  1  0.15894000  0.50005000  0.49883000  1.0
  C  C49  1  0.84108000  0.49996000  0.50118000  1.0
  C  C50  1  0.05650000  0.50001000  0.49958000  1.0
  C  C51  1  0.94351000  0.49999000  0.50042000  1.0
  C  C52  1  0.50161000  0.56615000  0.74445000  1.0
  C  C53  1  0.49839000  0.43385000  0.25555000  1.0
  C  C54  1  0.49898000  0.56623000  0.25552000  1.0
  C  C55  1  0.50102000  0.43377000  0.74448000  1.0
  C  C56  1  0.50140000  0.56575000  0.81544000  1.0
  C  C57  1  0.49858000  0.43425000  0.18455000  1.0
  C  C58  1  0.49984000  0.56585000  0.18453000  1.0
  C  C59  1  0.50015000  0.43415000  0.81547000  1.0
  C  C60  1  0.50065000  0.49995000  0.85283000  1.0
  C  C61  1  0.49934000  0.50006000  0.14717000  1.0
  C  C62  1  0.50169000  0.49997000  0.70893000  1.0
  C  C63  1  0.49831000  0.50003000  0.29107000  1.0
  C  C64  1  0.40940000  0.47103000  0.96402000  1.0
  C  C65  1  0.59059000  0.52898000  0.03597000  1.0
  C  C66  1  0.40914000  0.47106000  0.03483000  1.0
  C  C67  1  0.59085000  0.52894000  0.96517000  1.0
  N  N68  1  0.49988000  0.31138000  0.50002000  1.0
  N  N69  1  0.50012000  0.68862000  0.49998000  1.0
  O  O70  1  0.49805000  0.43793000  0.39681000  1.0
  O  O71  1  0.50195000  0.56208000  0.60318000  1.0
  O  O72  1  0.50173000  0.43798000  0.60317000  1.0
  O  O73  1  0.49827000  0.56202000  0.39683000  1.0
  O  O74  1  0.32704000  0.43745000  0.49894000  1.0
  O  O75  1  0.67297000  0.56255000  0.50106000  1.0
  O  O76  1  0.67286000  0.43761000  0.50111000  1.0
  O  O77  1  0.32716000  0.56240000  0.49890000  1.0
  O  O78  1  0.50020000  0.62992000  0.85198000  1.0
  O  O79  1  0.49978000  0.37008000  0.14801000  1.0
  O  O80  1  0.49967000  0.63002000  0.14794000  1.0
  O  O81  1  0.50032000  0.36998000  0.85206000  1.0
