# generated using pymatgen
data_H12RhC16NO4
_symmetry_space_group_name_H-M   'P 1'
_cell_length_a   9.55492000
_cell_length_b   10.17119521
_cell_length_c   10.71304261
_cell_angle_alpha   72.83856812
_cell_angle_beta   63.54719690
_cell_angle_gamma   62.01342142
_symmetry_Int_Tables_number   1
_chemical_formula_structural   H12RhC16NO4
_chemical_formula_sum   'H24 Rh2 C32 N2 O8'
_cell_volume   818.24607573
_cell_formula_units_Z   2
loop_
 _symmetry_equiv_pos_site_id
 _symmetry_equiv_pos_as_xyz
  1  'x, y, z'
loop_
 _atom_site_type_symbol
 _atom_site_label
 _atom_site_symmetry_multiplicity
 _atom_site_fract_x
 _atom_site_fract_y
 _atom_site_fract_z
 _atom_site_occupancy
  H  H0  1  0.55670000  0.55660000  0.88066000  1.0
  H  H1  1  0.99462000  0.44285000  0.11935000  1.0
  H  H2  1  0.44330000  0.44339000  0.11936000  1.0
  H  H3  1  0.00538000  0.55716000  0.88065000  1.0
  H  H4  1  0.72696000  0.30626000  0.78878000  1.0
  H  H5  1  0.82231000  0.69314000  0.21140000  1.0
  H  H6  1  0.27304000  0.69373000  0.21124000  1.0
  H  H7  1  0.17770000  0.30687000  0.78859000  1.0
  H  H8  1  0.03912000  0.18774000  0.73393000  1.0
  H  H9  1  0.96089000  0.81226000  0.26608000  1.0
  H  H10  1  0.38527000  0.20285000  0.57623000  1.0
  H  H11  1  0.16489000  0.79705000  0.42338000  1.0
  H  H12  1  0.61471000  0.79718000  0.42377000  1.0
  H  H13  1  0.83510000  0.20294000  0.57663000  1.0
  H  H14  1  0.42753000  0.35130000  0.34192000  1.0
  H  H15  1  0.12107000  0.64857000  0.65768000  1.0
  H  H16  1  0.57247000  0.64871000  0.65808000  1.0
  H  H17  1  0.87897000  0.35139000  0.34232000  1.0
  H  H18  1  0.67409000  0.42746000  0.22448000  1.0
  H  H19  1  0.32595000  0.57252000  0.77551000  1.0
  H  H20  1  0.28083000  0.86502000  0.83704000  1.0
  H  H21  1  0.98341000  0.13516000  0.16270000  1.0
  H  H22  1  0.71913000  0.13499000  0.16295000  1.0
  H  H23  1  0.01656000  0.86485000  0.83729000  1.0
  Rh  Rh24  1  0.37322000  0.00001000  0.99998000  1.0
  Rh  Rh25  1  0.62677000  0.99999000  0.00002000  1.0
  C  C26  1  0.67318000  0.72674000  0.92637000  1.0
  C  C27  1  0.32681000  0.27327000  0.07363000  1.0
  C  C28  1  0.77251000  0.57380000  0.88079000  1.0
  C  C29  1  0.22750000  0.42619000  0.11922000  1.0
  C  C30  1  0.69332000  0.50185000  0.85736000  1.0
  C  C31  1  0.05298000  0.49782000  0.14269000  1.0
  C  C32  1  0.30668000  0.49815000  0.14265000  1.0
  C  C33  1  0.94703000  0.50219000  0.85731000  1.0
  C  C34  1  0.78884000  0.36300000  0.80529000  1.0
  C  C35  1  0.95735000  0.63664000  0.19485000  1.0
  C  C36  1  0.21116000  0.63699000  0.19473000  1.0
  C  C37  1  0.04266000  0.36336000  0.80516000  1.0
  C  C38  1  0.96401000  0.29552000  0.77642000  1.0
  C  C39  1  0.03601000  0.70447000  0.22359000  1.0
  C  C40  1  0.57402000  0.11571000  0.73590000  1.0
  C  C41  1  0.42596000  0.88430000  0.26410000  1.0
  C  C42  1  0.60659000  0.19506000  0.59146000  1.0
  C  C43  1  0.39340000  0.80495000  0.40854000  1.0
  C  C44  1  0.49307000  0.23573000  0.52407000  1.0
  C  C45  1  0.25323000  0.76421000  0.47574000  1.0
  C  C46  1  0.50693000  0.76429000  0.47593000  1.0
  C  C47  1  0.74678000  0.23578000  0.52426000  1.0
  C  C48  1  0.51755000  0.31874000  0.39262000  1.0
  C  C49  1  0.22916000  0.68120000  0.60715000  1.0
  C  C50  1  0.48247000  0.68127000  0.60737000  1.0
  C  C51  1  0.77085000  0.31878000  0.39285000  1.0
  C  C52  1  0.65574000  0.36140000  0.32710000  1.0
  C  C53  1  0.34429000  0.63859000  0.67289000  1.0
  C  C54  1  0.15479000  0.92550000  0.90980000  1.0
  C  C55  1  0.99039000  0.07458000  0.09006000  1.0
  C  C56  1  0.84520000  0.07450000  0.09019000  1.0
  C  C57  1  0.00957000  0.92543000  0.90993000  1.0
  N  N58  1  0.14624000  0.00005000  0.99989000  1.0
  N  N59  1  0.85374000  0.99995000  0.00010000  1.0
  O  O60  1  0.51485000  0.78745000  0.94328000  1.0
  O  O61  1  0.24611000  0.21247000  0.05670000  1.0
  O  O62  1  0.48515000  0.21256000  0.05670000  1.0
  O  O63  1  0.75388000  0.78753000  0.94332000  1.0
  O  O64  1  0.44051000  0.08611000  0.79377000  1.0
  O  O65  1  0.32070000  0.91392000  0.20620000  1.0
  O  O66  1  0.55948000  0.91391000  0.20623000  1.0
  O  O67  1  0.67930000  0.08606000  0.79380000  1.0
