# generated using pymatgen
data_YbH14(C3O2)5
_symmetry_space_group_name_H-M   'P 1'
_cell_length_a   6.04644000
_cell_length_b   10.58400000
_cell_length_c   13.41510000
_cell_angle_alpha   112.54300000
_cell_angle_beta   96.88680000
_cell_angle_gamma   97.72800000
_symmetry_Int_Tables_number   1
_chemical_formula_structural   YbH14(C3O2)5
_chemical_formula_sum   'Yb2 H28 C30 O20'
_cell_volume   771.79614725
_cell_formula_units_Z   2
loop_
 _symmetry_equiv_pos_site_id
 _symmetry_equiv_pos_as_xyz
  1  'x, y, z'
loop_
 _atom_site_type_symbol
 _atom_site_label
 _atom_site_symmetry_multiplicity
 _atom_site_fract_x
 _atom_site_fract_y
 _atom_site_fract_z
 _atom_site_occupancy
  Yb  Yb0  1  0.08364000  0.13193000  0.21084000  1.0
  Yb  Yb1  1  0.91636000  0.86807000  0.78916000  1.0
  H  H2  1  0.53207000  0.96196000  0.37439000  1.0
  H  H3  1  0.46793000  0.03804000  0.62561000  1.0
  H  H4  1  0.54101000  0.14142000  0.45771000  1.0
  H  H5  1  0.45899000  0.85858000  0.54229000  1.0
  H  H6  1  0.22814000  0.23250000  0.53785000  1.0
  H  H7  1  0.77186000  0.76750000  0.46215000  1.0
  H  H8  1  0.98265000  0.79974000  0.32243000  1.0
  H  H9  1  0.01735000  0.20026000  0.67757000  1.0
  H  H10  1  0.63896000  0.62093000  0.93473000  1.0
  H  H11  1  0.36104000  0.37907000  0.06527000  1.0
  H  H12  1  0.92634000  0.61778000  0.92322000  1.0
  H  H13  1  0.07366000  0.38223000  0.07678000  1.0
  H  H14  1  0.86663000  0.49713000  0.19978000  1.0
  H  H15  1  0.13337000  0.50287000  0.80022000  1.0
  H  H16  1  0.61151000  0.50272000  0.32958000  1.0
  H  H17  1  0.38848000  0.49728000  0.67042000  1.0
  H  H18  1  0.22881000  0.74853000  0.20908000  1.0
  H  H19  1  0.77119000  0.25147000  0.79092000  1.0
  H  H20  1  0.48347000  0.74301000  0.07923000  1.0
  H  H21  1  0.51653000  0.25699000  0.92076000  1.0
  H  H22  1  0.13944000  0.59459000  0.47032000  1.0
  H  H23  1  0.86056000  0.40541000  0.52968000  1.0
  H  H24  1  0.43092000  0.58582000  0.46915000  1.0
  H  H25  1  0.56908000  0.41418000  0.53085000  1.0
  H  H26  1  0.62470000  0.12089000  0.12309000  1.0
  H  H27  1  0.37530000  0.87911000  0.87691000  1.0
  H  H28  1  0.74289000  0.02997000  0.02523000  1.0
  H  H29  1  0.25711000  0.97003000  0.97477000  1.0
  C  C30  1  0.58812000  0.09848000  0.29290000  1.0
  C  C31  1  0.41189000  0.90152000  0.70710000  1.0
  C  C32  1  0.47991000  0.05797000  0.37483000  1.0
  C  C33  1  0.52010000  0.94203000  0.62517000  1.0
  C  C34  1  0.13099000  0.13053000  0.52250000  1.0
  C  C35  1  0.86901000  0.86947000  0.47750000  1.0
  C  C36  1  0.11993000  0.01719000  0.42370000  1.0
  C  C37  1  0.88007000  0.98281000  0.57630000  1.0
  C  C38  1  0.98966000  0.88702000  0.39993000  1.0
  C  C39  1  0.01034000  0.11298000  0.60007000  1.0
  C  C40  1  0.86760000  0.81864000  0.01751000  1.0
  C  C41  1  0.13240000  0.18136000  0.98250000  1.0
  C  C42  1  0.81466000  0.66142000  0.98108000  1.0
  C  C43  1  0.18534000  0.33857000  0.01892000  1.0
  C  C44  1  0.69767000  0.62160000  0.13221000  1.0
  C  C45  1  0.30232000  0.37840000  0.86779000  1.0
  C  C46  1  0.72755000  0.55309000  0.20222000  1.0
  C  C47  1  0.27245000  0.44691000  0.79778000  1.0
  C  C48  1  0.58273000  0.55730000  0.27635000  1.0
  C  C49  1  0.41727000  0.44269000  0.72365000  1.0
  C  C50  1  0.40552000  0.63076000  0.28084000  1.0
  C  C51  1  0.59449000  0.36924000  0.71916000  1.0
  C  C52  1  0.37173000  0.69600000  0.20883000  1.0
  C  C53  1  0.62827000  0.30399000  0.79117000  1.0
  C  C54  1  0.51651000  0.69189000  0.13464000  1.0
  C  C55  1  0.48349000  0.30810000  0.86535000  1.0
  C  C56  1  0.26370000  0.56345000  0.41620000  1.0
  C  C57  1  0.73630000  0.43656000  0.58380000  1.0
  C  C58  1  0.19393000  0.40720000  0.34630000  1.0
  C  C59  1  0.80607000  0.59280000  0.65370000  1.0
  O  O60  1  0.80162000  0.11627000  0.30370000  1.0
  O  O61  1  0.19838000  0.88373000  0.69630000  1.0
  O  O62  1  0.45688000  0.11195000  0.21703000  1.0
  O  O63  1  0.54312000  0.88805000  0.78297000  1.0
  O  O64  1  0.23662000  0.03438000  0.34364000  1.0
  O  O65  1  0.76338000  0.96562000  0.65636000  1.0
  O  O66  1  0.96896000  0.89746000  0.11427000  1.0
  O  O67  1  0.03103000  0.10254000  0.88573000  1.0
  O  O68  1  0.80195000  0.86308000  0.94424000  1.0
  O  O69  1  0.19805000  0.13692000  0.05576000  1.0
  O  O70  1  0.85574000  0.61411000  0.06568000  1.0
  O  O71  1  0.14426000  0.38589000  0.93432000  1.0
  O  O72  1  0.25780000  0.64590000  0.35403000  1.0
  O  O73  1  0.74220000  0.35410000  0.64597000  1.0
  O  O74  1  0.07272000  0.36231000  0.25043000  1.0
  O  O75  1  0.92728000  0.63769000  0.74957000  1.0
  O  O76  1  0.25711000  0.32253000  0.38531000  1.0
  O  O77  1  0.74289000  0.67747000  0.61470000  1.0
  O  O78  1  0.76096000  0.12125000  0.08827000  1.0
  O  O79  1  0.23904000  0.87875000  0.91173000  1.0
