# generated using pymatgen
data_CuH14C17NO4
_symmetry_space_group_name_H-M   'P 1'
_cell_length_a   9.69621000
_cell_length_b   11.08940000
_cell_length_c   18.31840000
_cell_angle_alpha   97.16530000
_cell_angle_beta   90.00000000
_cell_angle_gamma   89.99980000
_symmetry_Int_Tables_number   1
_chemical_formula_structural   CuH14C17NO4
_chemical_formula_sum   'Cu4 H56 C68 N4 O16'
_cell_volume   1954.30629707
_cell_formula_units_Z   4
loop_
 _symmetry_equiv_pos_site_id
 _symmetry_equiv_pos_as_xyz
  1  'x, y, z'
loop_
 _atom_site_type_symbol
 _atom_site_label
 _atom_site_symmetry_multiplicity
 _atom_site_fract_x
 _atom_site_fract_y
 _atom_site_fract_z
 _atom_site_occupancy
  Cu  Cu0  1  0.13133000  0.51679000  0.00065000  1.0
  Cu  Cu1  1  0.63133000  0.48321000  0.49935000  1.0
  Cu  Cu2  1  0.86867000  0.48322000  0.99935000  1.0
  Cu  Cu3  1  0.36867000  0.51679000  0.50065000  1.0
  H  H4  1  0.34348000  0.36493000  0.05309000  1.0
  H  H5  1  0.84348000  0.63507000  0.44690000  1.0
  H  H6  1  0.65652000  0.63507000  0.94690000  1.0
  H  H7  1  0.15652000  0.36493000  0.55310000  1.0
  H  H8  1  0.33438000  0.67810000  0.88921000  1.0
  H  H9  1  0.83438000  0.32191000  0.61079000  1.0
  H  H10  1  0.66562000  0.32191000  0.11079000  1.0
  H  H11  1  0.16562000  0.67809000  0.38921000  1.0
  H  H12  1  0.46473000  0.77231000  0.93543000  1.0
  H  H13  1  0.96472000  0.22769000  0.56457000  1.0
  H  H14  1  0.53527000  0.22769000  0.06457000  1.0
  H  H15  1  0.03527000  0.77231000  0.43543000  1.0
  H  H16  1  0.30314000  0.74794000  0.97931000  1.0
  H  H17  1  0.80314000  0.25207000  0.52069000  1.0
  H  H18  1  0.69686000  0.25207000  0.02069000  1.0
  H  H19  1  0.19686000  0.74793000  0.47932000  1.0
  H  H20  1  0.23953000  0.39508000  0.20695000  1.0
  H  H21  1  0.73953000  0.60491000  0.29304000  1.0
  H  H22  1  0.76047000  0.60492000  0.79305000  1.0
  H  H23  1  0.26047000  0.39509000  0.70695000  1.0
  H  H24  1  0.25078000  0.31985000  0.33033000  1.0
  H  H25  1  0.75077000  0.68014000  0.16967000  1.0
  H  H26  1  0.74921000  0.68015000  0.66967000  1.0
  H  H27  1  0.24920000  0.31986000  0.83032000  1.0
  H  H28  1  0.03474000  0.28349000  0.39630000  1.0
  H  H29  1  0.53472000  0.71651000  0.10370000  1.0
  H  H30  1  0.96525000  0.71651000  0.60370000  1.0
  H  H31  1  0.46525000  0.28349000  0.89630000  1.0
  H  H32  1  0.80672000  0.32959000  0.34314000  1.0
  H  H33  1  0.30671000  0.67040000  0.15686000  1.0
  H  H34  1  0.19328000  0.67041000  0.65686000  1.0
  H  H35  1  0.69327000  0.32959000  0.84314000  1.0
  H  H36  1  0.79711000  0.40387000  0.22020000  1.0
  H  H37  1  0.29710000  0.59612000  0.27980000  1.0
  H  H38  1  0.20289000  0.59613000  0.77980000  1.0
  H  H39  1  0.70290000  0.40386000  0.72020000  1.0
  H  H40  1  0.16410000  0.90236000  0.08200000  1.0
  H  H41  1  0.66411000  0.09765000  0.41800000  1.0
  H  H42  1  0.83590000  0.09765000  0.91800000  1.0
  H  H43  1  0.33591000  0.90235000  0.58200000  1.0
  H  H44  1  0.12294000  0.12396000  0.12043000  1.0
  H  H45  1  0.62295000  0.87605000  0.37957000  1.0
  H  H46  1  0.87706000  0.87605000  0.87957000  1.0
  H  H47  1  0.37706000  0.12394000  0.62043000  1.0
  H  H48  1  0.88360000  0.20333000  0.13101000  1.0
  H  H49  1  0.38362000  0.79667000  0.36899000  1.0
  H  H50  1  0.11639000  0.79667000  0.86900000  1.0
  H  H51  1  0.61639000  0.20333000  0.63101000  1.0
  H  H52  1  0.68467000  0.06206000  0.10636000  1.0
  H  H53  1  0.18467000  0.93794000  0.39363000  1.0
  H  H54  1  0.31533000  0.93794000  0.89364000  1.0
  H  H55  1  0.81533000  0.06206000  0.60636000  1.0
  H  H56  1  0.72703000  0.84116000  0.06861000  1.0
  H  H57  1  0.22703000  0.15884000  0.43139000  1.0
  H  H58  1  0.27297000  0.15884000  0.93139000  1.0
  H  H59  1  0.77298000  0.84116000  0.56860000  1.0
  C  C60  1  0.41488000  0.42550000  0.02947000  1.0
  C  C61  1  0.91488000  0.57450000  0.47053000  1.0
  C  C62  1  0.58512000  0.57451000  0.97053000  1.0
  C  C63  1  0.08512000  0.42550000  0.52947000  1.0
  C  C64  1  0.44330000  0.59752000  0.97240000  1.0
  C  C65  1  0.94330000  0.40248000  0.52760000  1.0
  C  C66  1  0.55670000  0.40249000  0.02760000  1.0
  C  C67  1  0.05670000  0.59752000  0.47240000  1.0
  C  C68  1  0.38384000  0.70568000  0.94266000  1.0
  C  C69  1  0.88384000  0.29432000  0.55734000  1.0
  C  C70  1  0.61616000  0.29433000  0.05733000  1.0
  C  C71  1  0.11616000  0.70568000  0.44267000  1.0
  C  C72  1  0.01107000  0.44332000  0.13151000  1.0
  C  C73  1  0.51107000  0.55668000  0.36849000  1.0
  C  C74  1  0.98893000  0.55669000  0.86849000  1.0
  C  C75  1  0.48893000  0.44332000  0.63151000  1.0
  C  C76  1  0.01771000  0.40270000  0.20623000  1.0
  C  C77  1  0.51771000  0.59729000  0.29377000  1.0
  C  C78  1  0.98229000  0.59730000  0.79377000  1.0
  C  C79  1  0.48229000  0.40270000  0.70623000  1.0
  C  C80  1  0.14578000  0.37941000  0.23717000  1.0
  C  C81  1  0.64577000  0.62058000  0.26282000  1.0
  C  C82  1  0.85422000  0.62059000  0.76283000  1.0
  C  C83  1  0.35421000  0.37941000  0.73717000  1.0
  C  C84  1  0.15165000  0.33678000  0.30555000  1.0
  C  C85  1  0.65164000  0.66321000  0.19445000  1.0
  C  C86  1  0.84835000  0.66322000  0.69445000  1.0
  C  C87  1  0.34835000  0.33678000  0.80555000  1.0
  C  C88  1  0.02965000  0.31723000  0.34298000  1.0
  C  C89  1  0.52964000  0.68277000  0.15702000  1.0
  C  C90  1  0.97034000  0.68277000  0.65702000  1.0
  C  C91  1  0.47035000  0.31724000  0.84298000  1.0
  C  C92  1  0.90166000  0.34200000  0.31304000  1.0
  C  C93  1  0.40165000  0.65800000  0.18696000  1.0
  C  C94  1  0.09834000  0.65800000  0.68696000  1.0
  C  C95  1  0.59834000  0.34200000  0.81304000  1.0
  C  C96  1  0.89579000  0.38435000  0.24461000  1.0
  C  C97  1  0.39579000  0.61564000  0.25539000  1.0
  C  C98  1  0.10421000  0.61566000  0.75539000  1.0
  C  C99  1  0.60421000  0.38434000  0.74461000  1.0
  C  C100  1  0.97132000  0.72712000  0.04816000  1.0
  C  C101  1  0.47131000  0.27288000  0.45184000  1.0
  C  C102  1  0.02869000  0.27289000  0.95184000  1.0
  C  C103  1  0.52870000  0.72711000  0.54816000  1.0
  C  C104  1  0.94790000  0.85898000  0.07316000  1.0
  C  C105  1  0.44790000  0.14103000  0.42684000  1.0
  C  C106  1  0.05210000  0.14103000  0.92685000  1.0
  C  C107  1  0.55210000  0.85897000  0.57316000  1.0
  C  C108  1  0.05968000  0.93848000  0.08792000  1.0
  C  C109  1  0.55969000  0.06153000  0.41209000  1.0
  C  C110  1  0.94032000  0.06153000  0.91209000  1.0
  C  C111  1  0.44032000  0.93847000  0.58791000  1.0
  C  C112  1  0.03618000  0.06187000  0.10908000  1.0
  C  C113  1  0.53620000  0.93813000  0.39092000  1.0
  C  C114  1  0.96381000  0.93813000  0.89093000  1.0
  C  C115  1  0.46382000  0.06187000  0.60908000  1.0
  C  C116  1  0.90144000  0.10664000  0.11537000  1.0
  C  C117  1  0.40145000  0.89336000  0.38463000  1.0
  C  C118  1  0.09856000  0.89336000  0.88464000  1.0
  C  C119  1  0.59857000  0.10664000  0.61537000  1.0
  C  C120  1  0.78988000  0.02743000  0.10118000  1.0
  C  C121  1  0.28989000  0.97257000  0.39882000  1.0
  C  C122  1  0.21012000  0.97257000  0.89882000  1.0
  C  C123  1  0.71012000  0.02743000  0.60118000  1.0
  C  C124  1  0.81279000  0.90405000  0.08023000  1.0
  C  C125  1  0.31278000  0.09595000  0.41977000  1.0
  C  C126  1  0.18722000  0.09595000  0.91977000  1.0
  C  C127  1  0.68722000  0.90405000  0.58023000  1.0
  N  N128  1  0.35880000  0.52069000  0.00232000  1.0
  N  N129  1  0.85880000  0.47931000  0.49768000  1.0
  N  N130  1  0.64120000  0.47932000  0.99768000  1.0
  N  N131  1  0.14120000  0.52069000  0.50232000  1.0
  O  O132  1  0.12449000  0.47269000  0.10311000  1.0
  O  O133  1  0.62449000  0.52731000  0.39689000  1.0
  O  O134  1  0.87551000  0.52732000  0.89689000  1.0
  O  O135  1  0.37552000  0.47268000  0.60311000  1.0
  O  O136  1  0.89221000  0.44336000  0.10149000  1.0
  O  O137  1  0.39220000  0.55664000  0.39850000  1.0
  O  O138  1  0.10780000  0.55665000  0.89851000  1.0
  O  O139  1  0.60780000  0.44336000  0.60149000  1.0
  O  O140  1  0.09580000  0.69052000  0.03958000  1.0
  O  O141  1  0.59580000  0.30948000  0.46042000  1.0
  O  O142  1  0.90421000  0.30948000  0.96042000  1.0
  O  O143  1  0.40422000  0.69052000  0.53958000  1.0
  O  O144  1  0.86379000  0.66081000  0.03674000  1.0
  O  O145  1  0.36379000  0.33919000  0.46326000  1.0
  O  O146  1  0.13622000  0.33920000  0.96326000  1.0
  O  O147  1  0.63622000  0.66080000  0.53674000  1.0
