# generated using pymatgen
data_AgH8C10BrN2O3
_symmetry_space_group_name_H-M   'P 1'
_cell_length_a   7.13246000
_cell_length_b   12.75530000
_cell_length_c   14.15210000
_cell_angle_alpha   66.39700000
_cell_angle_beta   89.99520000
_cell_angle_gamma   89.99790000
_symmetry_Int_Tables_number   1
_chemical_formula_structural   AgH8C10BrN2O3
_chemical_formula_sum   'Ag4 H32 C40 Br4 N8 O12'
_cell_volume   1179.79999827
_cell_formula_units_Z   4
loop_
 _symmetry_equiv_pos_site_id
 _symmetry_equiv_pos_as_xyz
  1  'x, y, z'
loop_
 _atom_site_type_symbol
 _atom_site_label
 _atom_site_symmetry_multiplicity
 _atom_site_fract_x
 _atom_site_fract_y
 _atom_site_fract_z
 _atom_site_occupancy
  Ag  Ag0  1  0.21062000  0.98658000  0.46634000  1.0
  Ag  Ag1  1  0.28929000  0.48654000  0.96636000  1.0
  Ag  Ag2  1  0.78934000  0.01345000  0.53363000  1.0
  Ag  Ag3  1  0.71059000  0.51344000  0.03364000  1.0
  H  H4  1  0.24749000  0.73793000  0.49081000  1.0
  H  H5  1  0.25249000  0.23791000  0.99080000  1.0
  H  H6  1  0.75250000  0.26207000  0.50920000  1.0
  H  H7  1  0.74750000  0.76208000  0.00921000  1.0
  H  H8  1  0.24505000  0.62688000  0.37950000  1.0
  H  H9  1  0.25495000  0.12686000  0.87949000  1.0
  H  H10  1  0.75498000  0.37313000  0.62050000  1.0
  H  H11  1  0.74506000  0.87313000  0.12051000  1.0
  H  H12  1  0.09328000  0.93989000  0.12362000  1.0
  H  H13  1  0.40677000  0.43988000  0.62362000  1.0
  H  H14  1  0.90672000  0.06012000  0.87638000  1.0
  H  H15  1  0.59324000  0.56012000  0.37639000  1.0
  H  H16  1  0.08661000  0.03535000  0.24655000  1.0
  H  H17  1  0.41338000  0.53534000  0.74656000  1.0
  H  H18  1  0.91338000  0.96465000  0.75345000  1.0
  H  H19  1  0.58661000  0.46466000  0.25346000  1.0
  H  H20  1  0.09303000  0.45580000  0.16211000  1.0
  H  H21  1  0.40698000  0.95582000  0.66207000  1.0
  H  H22  1  0.90695000  0.54419000  0.83789000  1.0
  H  H23  1  0.59302000  0.04420000  0.33790000  1.0
  H  H24  1  0.06315000  0.55199000  0.28103000  1.0
  H  H25  1  0.43687000  0.05200000  0.78099000  1.0
  H  H26  1  0.93687000  0.44801000  0.71898000  1.0
  H  H27  1  0.56315000  0.94798000  0.21900000  1.0
  H  H28  1  0.29435000  0.85615000  0.04004000  1.0
  H  H29  1  0.20567000  0.35616000  0.54004000  1.0
  H  H30  1  0.70568000  0.14385000  0.95996000  1.0
  H  H31  1  0.79433000  0.64384000  0.45997000  1.0
  H  H32  1  0.32084000  0.74531000  0.93149000  1.0
  H  H33  1  0.17918000  0.24534000  0.43147000  1.0
  H  H34  1  0.67917000  0.25468000  0.06852000  1.0
  H  H35  1  0.82083000  0.75468000  0.56852000  1.0
  C  C36  1  0.21186000  0.77832000  0.40906000  1.0
  C  C37  1  0.28815000  0.27829000  0.90906000  1.0
  C  C38  1  0.78816000  0.22169000  0.59094000  1.0
  C  C39  1  0.71186000  0.72169000  0.09094000  1.0
  C  C40  1  0.21001000  0.71761000  0.34664000  1.0
  C  C41  1  0.28999000  0.21759000  0.84663000  1.0
  C  C42  1  0.79002000  0.28240000  0.65336000  1.0
  C  C43  1  0.71003000  0.78240000  0.15337000  1.0
  C  C44  1  0.17178000  0.77442000  0.24095000  1.0
  C  C45  1  0.32820000  0.27442000  0.74093000  1.0
  C  C46  1  0.82822000  0.22558000  0.75906000  1.0
  C  C47  1  0.67180000  0.72557000  0.25907000  1.0
  C  C48  1  0.12810000  0.89113000  0.20445000  1.0
  C  C49  1  0.37193000  0.39112000  0.70445000  1.0
  C  C50  1  0.87191000  0.10887000  0.79555000  1.0
  C  C51  1  0.62809000  0.60887000  0.29556000  1.0
  C  C52  1  0.12570000  0.94567000  0.27199000  1.0
  C  C53  1  0.37430000  0.44565000  0.77200000  1.0
  C  C54  1  0.87430000  0.05433000  0.72801000  1.0
  C  C55  1  0.62569000  0.55434000  0.22802000  1.0
  C  C56  1  0.13737000  0.54434000  0.13809000  1.0
  C  C57  1  0.36264000  0.04436000  0.63807000  1.0
  C  C58  1  0.86260000  0.45566000  0.86190000  1.0
  C  C59  1  0.63738000  0.95565000  0.36191000  1.0
  C  C60  1  0.12243000  0.59940000  0.20479000  1.0
  C  C61  1  0.37761000  0.09941000  0.70475000  1.0
  C  C62  1  0.87758000  0.40060000  0.79521000  1.0
  C  C63  1  0.62243000  0.90059000  0.29523000  1.0
  C  C64  1  0.17906000  0.71380000  0.17156000  1.0
  C  C65  1  0.32097000  0.21381000  0.67155000  1.0
  C  C66  1  0.82097000  0.28620000  0.82844000  1.0
  C  C67  1  0.67906000  0.78619000  0.32845000  1.0
  C  C68  1  0.24507000  0.76792000  0.07002000  1.0
  C  C69  1  0.25494000  0.26793000  0.57000000  1.0
  C  C70  1  0.75494000  0.23208000  0.92998000  1.0
  C  C71  1  0.74507000  0.73208000  0.42999000  1.0
  C  C72  1  0.25908000  0.70660000  0.00826000  1.0
  C  C73  1  0.24093000  0.20663000  0.50824000  1.0
  C  C74  1  0.74092000  0.29339000  0.99174000  1.0
  C  C75  1  0.75909000  0.79339000  0.49175000  1.0
  Br  Br76  1  0.82488000  0.25327000  0.29778000  1.0
  Br  Br77  1  0.67509000  0.75322000  0.79781000  1.0
  Br  Br78  1  0.17509000  0.74676000  0.70221000  1.0
  Br  Br79  1  0.32488000  0.24675000  0.20220000  1.0
  N  N80  1  0.17114000  0.89095000  0.37241000  1.0
  N  N81  1  0.32882000  0.39093000  0.87241000  1.0
  N  N82  1  0.82885000  0.10906000  0.62759000  1.0
  N  N83  1  0.67115000  0.60907000  0.12760000  1.0
  N  N84  1  0.20813000  0.59598000  0.04211000  1.0
  N  N85  1  0.29187000  0.09601000  0.54208000  1.0
  N  N86  1  0.79185000  0.40402000  0.95789000  1.0
  N  N87  1  0.70813000  0.90402000  0.45789000  1.0
  O  O88  1  0.96424000  0.13534000  0.34665000  1.0
  O  O89  1  0.53570000  0.63531000  0.84671000  1.0
  O  O90  1  0.03574000  0.86469000  0.65330000  1.0
  O  O91  1  0.46426000  0.36466000  0.15335000  1.0
  O  O92  1  0.63154000  0.21480000  0.37292000  1.0
  O  O93  1  0.86846000  0.71475000  0.87292000  1.0
  O  O94  1  0.36850000  0.78520000  0.62711000  1.0
  O  O95  1  0.13154000  0.28524000  0.12707000  1.0
  O  O96  1  0.93154000  0.35337000  0.32812000  1.0
  O  O97  1  0.56848000  0.85335000  0.82815000  1.0
  O  O98  1  0.06847000  0.64664000  0.67186000  1.0
  O  O99  1  0.43153000  0.14665000  0.17185000  1.0
