# generated using pymatgen
data_GaH8C4Cl3O2
_symmetry_space_group_name_H-M   'P 1'
_cell_length_a   6.33917000
_cell_length_b   6.46321095
_cell_length_c   12.48930000
_cell_angle_alpha   76.84356249
_cell_angle_beta   89.99890000
_cell_angle_gamma   60.63450572
_symmetry_Int_Tables_number   1
_chemical_formula_structural   GaH8C4Cl3O2
_chemical_formula_sum   'Ga2 H16 C8 Cl6 O4'
_cell_volume   430.47848500
_cell_formula_units_Z   2
loop_
 _symmetry_equiv_pos_site_id
 _symmetry_equiv_pos_as_xyz
  1  'x, y, z'
loop_
 _atom_site_type_symbol
 _atom_site_label
 _atom_site_symmetry_multiplicity
 _atom_site_fract_x
 _atom_site_fract_y
 _atom_site_fract_z
 _atom_site_occupancy
  Ga  Ga0  1  0.21532000  0.00000000  0.75000000  1.0
  Ga  Ga1  1  0.78467000  0.00000000  0.25000000  1.0
  H  H2  1  0.85563000  0.21246000  0.53261000  1.0
  H  H3  1  0.93190000  0.21245000  0.03259000  1.0
  H  H4  1  0.14437000  0.78756000  0.46739000  1.0
  H  H5  1  0.06811000  0.78755000  0.96741000  1.0
  H  H6  1  0.11481000  0.18581000  0.46461000  1.0
  H  H7  1  0.69936000  0.18584000  0.96461000  1.0
  H  H8  1  0.88521000  0.81418000  0.53539000  1.0
  H  H9  1  0.30066000  0.81415000  0.03540000  1.0
  H  H10  1  0.35662000  0.33196000  0.53484000  1.0
  H  H11  1  0.31141000  0.33196000  0.03486000  1.0
  H  H12  1  0.64340000  0.66803000  0.46515000  1.0
  H  H13  1  0.68859000  0.66805000  0.96514000  1.0
  H  H14  1  0.26432000  0.46671000  0.64974000  1.0
  H  H15  1  0.26900000  0.46670000  0.14976000  1.0
  H  H16  1  0.73571000  0.53328000  0.35026000  1.0
  H  H17  1  0.73099000  0.53329000  0.85024000  1.0
  C  C18  1  0.96213000  0.30180000  0.50491000  1.0
  C  C19  1  0.73606000  0.30177000  0.00492000  1.0
  C  C20  1  0.03786000  0.69820000  0.49507000  1.0
  C  C21  1  0.26393000  0.69823000  0.99509000  1.0
  C  C22  1  0.19965000  0.44790000  0.57316000  1.0
  C  C23  1  0.35247000  0.44785000  0.07318000  1.0
  C  C24  1  0.80031000  0.55218000  0.42682000  1.0
  C  C25  1  0.64756000  0.55209000  0.92684000  1.0
  Cl  Cl26  1  0.48540000  0.78407000  0.65280000  1.0
  Cl  Cl27  1  0.73051000  0.78405000  0.15281000  1.0
  Cl  Cl28  1  0.51457000  0.21594000  0.34719000  1.0
  Cl  Cl29  1  0.26947000  0.21595000  0.84719000  1.0
  Cl  Cl30  1  0.87211000  0.99999000  0.75000000  1.0
  Cl  Cl31  1  0.12788000  0.00001000  0.24999000  1.0
  O  O32  1  0.05974000  0.32499000  0.60418000  1.0
  O  O33  1  0.61532000  0.32497000  0.10414000  1.0
  O  O34  1  0.94026000  0.67500000  0.39585000  1.0
  O  O35  1  0.38468000  0.67503000  0.89584000  1.0
