# generated using pymatgen
data_Zr3H15C32Cl5O18
_symmetry_space_group_name_H-M   'P 1'
_cell_length_a   14.78405094
_cell_length_b   14.79611503
_cell_length_c   14.86540000
_cell_angle_alpha   60.32601710
_cell_angle_beta   89.39373192
_cell_angle_gamma   119.37570265
_symmetry_Int_Tables_number   1
_chemical_formula_structural   Zr3H15C32Cl5O18
_chemical_formula_sum   'Zr6 H30 C64 Cl10 O36'
_cell_volume   2320.02244937
_cell_formula_units_Z   2
loop_
 _symmetry_equiv_pos_site_id
 _symmetry_equiv_pos_as_xyz
  1  'x, y, z'
loop_
 _atom_site_type_symbol
 _atom_site_label
 _atom_site_symmetry_multiplicity
 _atom_site_fract_x
 _atom_site_fract_y
 _atom_site_fract_z
 _atom_site_occupancy
  Zr  Zr0  1  0.61460000  0.99736000  0.11832000  1.0
  Zr  Zr1  1  0.37826000  0.99906000  0.87952000  1.0
  Zr  Zr2  1  0.61380000  0.99477000  0.87906000  1.0
  Zr  Zr3  1  0.37538000  0.99672000  0.11724000  1.0
  Zr  Zr4  1  0.61772000  0.23507000  0.88090000  1.0
  Zr  Zr5  1  0.37938000  0.76011000  0.11709000  1.0
  H  H6  1  0.77694000  0.18316000  0.90786000  1.0
  H  H7  1  0.40468000  0.18819000  0.90211000  1.0
  H  H8  1  0.40316000  0.81193000  0.90272000  1.0
  H  H9  1  0.40341000  0.81127000  0.27870000  1.0
  H  H10  1  0.80717000  0.56957000  0.94895000  1.0
  H  H11  1  0.87816000  0.61685000  0.81975000  1.0
  H  H12  1  0.05078000  0.78962000  0.81312000  1.0
  H  H13  1  0.97528000  0.74115000  0.94094000  1.0
  H  H14  1  0.27467000  0.37420000  0.42713000  1.0
  H  H15  1  0.25034000  0.42614000  0.50402000  1.0
  H  H16  1  0.25053000  0.25683000  0.67246000  1.0
  H  H17  1  0.27552000  0.20440000  0.59587000  1.0
  H  H18  1  0.51184000  0.30515000  0.23455000  1.0
  H  H19  1  0.36746000  0.22375000  0.25737000  1.0
  H  H20  1  0.36936000  0.39589000  0.25530000  1.0
  H  H21  1  0.51493000  0.47939000  0.22895000  1.0
  H  H22  1  0.06726000  0.78468000  0.41421000  1.0
  H  H23  1  0.15338000  0.75865000  0.49140000  1.0
  H  H24  1  0.99054000  0.58842000  0.66433000  1.0
  H  H25  1  0.90259000  0.61299000  0.58968000  1.0
  H  H26  1  0.93709000  0.21966000  0.89220000  1.0
  H  H27  1  0.12076000  0.42141000  0.79130000  1.0
  H  H28  1  0.27412000  0.22086000  0.88059000  1.0
  H  H29  1  0.29018000  0.42149000  0.78572000  1.0
  H  H30  1  0.75108000  0.13178000  0.33794000  1.0
  H  H31  1  0.68506000  0.96486000  0.42454000  1.0
  H  H32  1  0.69555000  0.97476000  0.58978000  1.0
  H  H33  1  0.75551000  0.14022000  0.50285000  1.0
  H  H34  1  0.09117000  0.81130000  0.16729000  1.0
  H  H35  1  0.71940000  0.72626000  0.20170000  1.0
  C  C36  1  0.79620000  0.29627000  0.00619000  1.0
  C  C37  1  0.50808000  0.30177000  0.68955000  1.0
  C  C38  1  0.19261000  0.69711000  0.00103000  1.0
  C  C39  1  0.50798000  0.69903000  0.29417000  1.0
  C  C40  1  0.79224000  0.98485000  0.99899000  1.0
  C  C41  1  0.49385000  0.00769000  0.29509000  1.0
  C  C42  1  0.18624000  0.98770000  0.00130000  1.0
  C  C43  1  0.49880000  0.00564000  0.69235000  1.0
  C  C44  1  0.80196000  0.29168000  0.70114000  1.0
  C  C45  1  0.49494000  0.69609000  0.99459000  1.0
  C  C46  1  0.19131000  0.69059000  0.29947000  1.0
  C  C47  1  0.49328000  0.29823000  0.99762000  1.0
  C  C48  1  0.89889000  0.39420000  0.00612000  1.0
  C  C49  1  0.09590000  0.59376000  0.00048000  1.0
  C  C50  1  0.92495000  0.51608000  0.95779000  1.0
  C  C51  1  0.07388000  0.47182000  0.04623000  1.0
  C  C52  1  0.01900000  0.61148000  0.95549000  1.0
  C  C53  1  0.97701000  0.37393000  0.05119000  1.0
  C  C54  1  0.88442000  0.59926000  0.89958000  1.0
  C  C55  1  0.99147000  0.70759000  0.89566000  1.0
  C  C56  1  0.51576000  0.60058000  0.38882000  1.0
  C  C57  1  0.51600000  0.40331000  0.58303000  1.0
  C  C58  1  0.42137000  0.47867000  0.46239000  1.0
  C  C59  1  0.61486000  0.52410000  0.50537000  1.0
  C  C60  1  0.42133000  0.38469000  0.55590000  1.0
  C  C61  1  0.61394000  0.62059000  0.41302000  1.0
  C  C62  1  0.29826000  0.39467000  0.48792000  1.0
  C  C63  1  0.29830000  0.28830000  0.59371000  1.0
  C  C64  1  0.48747000  0.39834000  0.99269000  1.0
  C  C65  1  0.48694000  0.59421000  0.99033000  1.0
  C  C66  1  0.46780000  0.39293000  0.08738000  1.0
  C  C67  1  0.50033000  0.59828000  0.89364000  1.0
  C  C68  1  0.46774000  0.48763000  0.08606000  1.0
  C  C69  1  0.50157000  0.50304000  0.89468000  1.0
  C  C70  1  0.44644000  0.31675000  0.20998000  1.0
  C  C71  1  0.44748000  0.42504000  0.20811000  1.0
  C  C72  1  0.09275000  0.58434000  0.40118000  1.0
  C  C73  1  0.90580000  0.38543000  0.60514000  1.0
  C  C74  1  0.05374000  0.60812000  0.46706000  1.0
  C  C75  1  0.95048000  0.35697000  0.54553000  1.0
  C  C76  1  0.96316000  0.51340000  0.56335000  1.0
  C  C77  1  0.03662000  0.45403000  0.44241000  1.0
  C  C78  1  0.07487000  0.71163000  0.47942000  1.0
  C  C79  1  0.97214000  0.60455000  0.58837000  1.0
  C  C80  1  0.89323000  0.98337000  0.99698000  1.0
  C  C81  1  0.99813000  0.10127000  0.94482000  1.0
  C  C82  1  0.88401000  0.87063000  0.04257000  1.0
  C  C83  1  0.01041000  0.21898000  0.88969000  1.0
  C  C84  1  0.11318000  0.33195000  0.83314000  1.0
  C  C85  1  0.08219000  0.98262000  0.00246000  1.0
  C  C86  1  0.97884000  0.86845000  0.05501000  1.0
  C  C87  1  0.09487000  0.10122000  0.94247000  1.0
  C  C88  1  0.19960000  0.21923000  0.88358000  1.0
  C  C89  1  0.20885000  0.33219000  0.82989000  1.0
  C  C90  1  0.49055000  0.01080000  0.39380000  1.0
  C  C91  1  0.49194000  0.00472000  0.59270000  1.0
  C  C92  1  0.57629000  0.02354000  0.43619000  1.0
  C  C93  1  0.40154000  0.98807000  0.55312000  1.0
  C  C94  1  0.57822000  0.02344000  0.52997000  1.0
  C  C95  1  0.40326000  0.99660000  0.45373000  1.0
  C  C96  1  0.68747000  0.04410000  0.41618000  1.0
  C  C97  1  0.69135000  0.04805000  0.52037000  1.0
  C  C98  1  0.95853000  0.74031000  0.12842000  1.0
  C  C99  1  0.77601000  0.75609000  0.06536000  1.0
  Cl  Cl100  1  0.16934000  0.44160000  0.09079000  1.0
  Cl  Cl101  1  0.95893000  0.22987000  0.10987000  1.0
  Cl  Cl102  1  0.73992000  0.55313000  0.51825000  1.0
  Cl  Cl103  1  0.73956000  0.76503000  0.32567000  1.0
  Cl  Cl104  1  0.50767000  0.71707000  0.77390000  1.0
  Cl  Cl105  1  0.51453000  0.51097000  0.77471000  1.0
  Cl  Cl106  1  0.90642000  0.20384000  0.59819000  1.0
  Cl  Cl107  1  0.06710000  0.40709000  0.36813000  1.0
  Cl  Cl108  1  0.28319000  0.95175000  0.62553000  1.0
  Cl  Cl109  1  0.29442000  0.98868000  0.40925000  1.0
  O  O110  1  0.75186000  0.17970000  0.08255000  1.0
  O  O111  1  0.42468000  0.18901000  0.73141000  1.0
  O  O112  1  0.22853000  0.81140000  0.92421000  1.0
  O  O113  1  0.57746000  0.81468000  0.25873000  1.0
  O  O114  1  0.75260000  0.98459000  0.92371000  1.0
  O  O115  1  0.41879000  0.00573000  0.25285000  1.0
  O  O116  1  0.22141000  0.98339000  0.08077000  1.0
  O  O117  1  0.57606000  0.00293000  0.72802000  1.0
  O  O118  1  0.76787000  0.33551000  0.73785000  1.0
  O  O119  1  0.42359000  0.65912000  0.07631000  1.0
  O  O120  1  0.23994000  0.66126000  0.25913000  1.0
  O  O121  1  0.57418000  0.33406000  0.92652000  1.0
  O  O122  1  0.57210000  0.81028000  0.91967000  1.0
  O  O123  1  0.22327000  0.80404000  0.26206000  1.0
  O  O124  1  0.41663000  0.18395000  0.07476000  1.0
  O  O125  1  0.75295000  0.17511000  0.73899000  1.0
  O  O126  1  0.75769000  0.98911000  0.07468000  1.0
  O  O127  1  0.42687000  0.00971000  0.73512000  1.0
  O  O128  1  0.23044000  0.99759000  0.92071000  1.0
  O  O129  1  0.57100000  0.00434000  0.26106000  1.0
  O  O130  1  0.42942000  0.65856000  0.25904000  1.0
  O  O131  1  0.75961000  0.33693000  0.92841000  1.0
  O  O132  1  0.58079000  0.33489000  0.73313000  1.0
  O  O133  1  0.23173000  0.66440000  0.07807000  1.0
  O  O134  1  0.42982000  0.86481000  0.19906000  1.0
  O  O135  1  0.42914000  0.86415000  0.93042000  1.0
  O  O136  1  0.42790000  0.13131000  0.93187000  1.0
  O  O137  1  0.69716000  0.12873000  0.93449000  1.0
  O  O138  1  0.54652000  0.09628000  0.85176000  1.0
  O  O139  1  0.54391000  0.09539000  0.04823000  1.0
  O  O140  1  0.34822000  0.89955000  0.04765000  1.0
  O  O141  1  0.54645000  0.89906000  0.04756000  1.0
  O  O142  1  0.03311000  0.73164000  0.17778000  1.0
  O  O143  1  0.87561000  0.64411000  0.14746000  1.0
  O  O144  1  0.69231000  0.69264000  0.15740000  1.0
  O  O145  1  0.76190000  0.73032000  0.99864000  1.0
