# generated using pymatgen
data_Zn2H29C33N3O10
_symmetry_space_group_name_H-M   'P 1'
_cell_length_a   9.71057000
_cell_length_b   11.03600000
_cell_length_c   16.09580000
_cell_angle_alpha   89.84720000
_cell_angle_beta   89.83640000
_cell_angle_gamma   89.74680000
_symmetry_Int_Tables_number   1
_chemical_formula_structural   Zn2H29C33N3O10
_chemical_formula_sum   'Zn2 H29 C33 N3 O10'
_cell_volume   1724.89014601
_cell_formula_units_Z   1
loop_
 _symmetry_equiv_pos_site_id
 _symmetry_equiv_pos_as_xyz
  1  'x, y, z'
loop_
 _atom_site_type_symbol
 _atom_site_label
 _atom_site_symmetry_multiplicity
 _atom_site_fract_x
 _atom_site_fract_y
 _atom_site_fract_z
 _atom_site_occupancy
  Zn  Zn0  1  0.63619000  0.50849000  0.49851000  1.0
  Zn  Zn1  1  0.35281000  0.50902000  0.50565000  1.0
  H  H2  1  0.66435000  0.63059000  0.93036000  1.0
  H  H3  1  0.28415000  0.51598000  0.06874000  1.0
  H  H4  1  0.38143000  0.64853000  0.07825000  1.0
  H  H5  1  0.40636000  0.66407000  0.93382000  1.0
  H  H6  1  0.29336000  0.54012000  0.92389000  1.0
  H  H7  1  0.56904000  0.30095000  0.92600000  1.0
  H  H8  1  0.72632000  0.48982000  0.07758000  1.0
  H  H9  1  0.73125000  0.48115000  0.93489000  1.0
  H  H10  1  0.38876000  0.32650000  0.93015000  1.0
  H  H11  1  0.28112000  0.89932000  0.55251000  1.0
  H  H12  1  0.28647000  0.12466000  0.55423000  1.0
  H  H13  1  0.75990000  0.11363000  0.38818000  1.0
  H  H14  1  0.75958000  0.88898000  0.39036000  1.0
  H  H15  1  0.82488000  0.88822000  0.49419000  1.0
  H  H16  1  0.11901000  0.43690000  0.62294000  1.0
  H  H17  1  0.85852000  0.43907000  0.61904000  1.0
  H  H18  1  0.87323000  0.54378000  0.30351000  1.0
  H  H19  1  0.87195000  0.69224000  0.34688000  1.0
  H  H20  1  0.13609000  0.54219000  0.30831000  1.0
  H  H21  1  0.13340000  0.69095000  0.35158000  1.0
  H  H22  1  0.96829000  0.11780000  0.47996000  1.0
  H  H23  1  0.84674000  0.23129000  0.51050000  1.0
  H  H24  1  0.86196000  0.09501000  0.56905000  1.0
  H  H25  1  0.76216000  0.70744000  0.06583000  1.0
  H  H26  1  0.58332000  0.73670000  0.05898000  1.0
  H  H27  1  0.65390000  0.67730000  0.15282000  1.0
  H  H28  1  0.37238000  0.18907000  0.05975000  1.0
  H  H29  1  0.37203000  0.28042000  0.15116000  1.0
  H  H30  1  0.27387000  0.32441000  0.06224000  1.0
  C  C31  1  0.48678000  0.74351000  0.50468000  1.0
  C  C32  1  0.49439000  0.50441000  0.33877000  1.0
  C  C33  1  0.49216000  0.27413000  0.50521000  1.0
  C  C34  1  0.50426000  0.50286000  0.66524000  1.0
  C  C35  1  0.64134000  0.54470000  0.05239000  1.0
  C  C36  1  0.38029000  0.55908000  0.04870000  1.0
  C  C37  1  0.38936000  0.56979000  0.95335000  1.0
  C  C38  1  0.50903000  0.49666000  0.75497000  1.0
  C  C39  1  0.50435000  0.48544000  0.08373000  1.0
  C  C40  1  0.64651000  0.53959000  0.95609000  1.0
  C  C41  1  0.50983000  0.49081000  0.92059000  1.0
  C  C42  1  0.48872000  0.35970000  0.95211000  1.0
  C  C43  1  0.49223000  0.35279000  0.04771000  1.0
  C  C44  1  0.51153000  0.49270000  0.83040000  1.0
  C  C45  1  0.49776000  0.48663000  0.17384000  1.0
  C  C46  1  0.49269000  0.49541000  0.24902000  1.0
  C  C47  1  0.60583000  0.94380000  0.48523000  1.0
  C  C48  1  0.48942000  0.87827000  0.50793000  1.0
  C  C49  1  0.37402000  0.94710000  0.53328000  1.0
  C  C50  1  0.37688000  0.07350000  0.53414000  1.0
  C  C51  1  0.49419000  0.13922000  0.50861000  1.0
  C  C52  1  0.60847000  0.07024000  0.48504000  1.0
  C  C53  1  0.75547000  0.07553000  0.45144000  1.0
  C  C54  1  0.75106000  0.93181000  0.45180000  1.0
  C  C55  1  0.06943000  0.54813000  0.43912000  1.0
  C  C56  1  0.06335000  0.46914000  0.56847000  1.0
  C  C57  1  0.91984000  0.46996000  0.56634000  1.0
  C  C58  1  0.92588000  0.54869000  0.43676000  1.0
  C  C59  1  0.92041000  0.60236000  0.35031000  1.0
  C  C60  1  0.08420000  0.60163000  0.35316000  1.0
  C  C61  1  0.86476000  0.13335000  0.50588000  1.0
  C  C62  1  0.66038000  0.67379000  0.08473000  1.0
  C  C63  1  0.37040000  0.28248000  0.08317000  1.0
  N  N64  1  0.14143000  0.50883000  0.50382000  1.0
  N  N65  1  0.84787000  0.51020000  0.49925000  1.0
  N  N66  1  0.62501000  0.28356000  0.07651000  1.0
  O  O67  1  0.60259000  0.68962000  0.51209000  1.0
  O  O68  1  0.37065000  0.69232000  0.49418000  1.0
  O  O69  1  0.61074000  0.52827000  0.37104000  1.0
  O  O70  1  0.38090000  0.48805000  0.37688000  1.0
  O  O71  1  0.60449000  0.32662000  0.48540000  1.0
  O  O72  1  0.37848000  0.32745000  0.52144000  1.0
  O  O73  1  0.61730000  0.48467000  0.62667000  1.0
  O  O74  1  0.38741000  0.52610000  0.63302000  1.0
  O  O75  1  0.72320000  0.27451000  0.02757000  1.0
  O  O76  1  0.62513000  0.24480000  0.14849000  1.0
