# generated using pymatgen
data_CuH10C5IN2
_symmetry_space_group_name_H-M   'P 1'
_cell_length_a   7.23805000
_cell_length_b   8.69756000
_cell_length_c   12.70520000
_cell_angle_alpha   90.00030000
_cell_angle_beta   90.00060000
_cell_angle_gamma   89.99920000
_symmetry_Int_Tables_number   1
_chemical_formula_structural   CuH10C5IN2
_chemical_formula_sum   'Cu4 H40 C20 I4 N8'
_cell_volume   799.83520922
_cell_formula_units_Z   4
loop_
 _symmetry_equiv_pos_site_id
 _symmetry_equiv_pos_as_xyz
  1  'x, y, z'
loop_
 _atom_site_type_symbol
 _atom_site_label
 _atom_site_symmetry_multiplicity
 _atom_site_fract_x
 _atom_site_fract_y
 _atom_site_fract_z
 _atom_site_occupancy
  Cu  Cu0  1  0.41977000  0.65639000  0.60787000  1.0
  Cu  Cu1  1  0.08022000  0.34360000  0.10786000  1.0
  Cu  Cu2  1  0.58022000  0.15639000  0.89215000  1.0
  Cu  Cu3  1  0.91977000  0.84361000  0.39214000  1.0
  H  H4  1  0.53841000  0.34930000  0.52500000  1.0
  H  H5  1  0.96159000  0.65069000  0.02500000  1.0
  H  H6  1  0.46160000  0.84929000  0.97499000  1.0
  H  H7  1  0.03840000  0.15070000  0.47501000  1.0
  H  H8  1  0.38563000  0.21086000  0.58792000  1.0
  H  H9  1  0.11437000  0.78913000  0.08792000  1.0
  H  H10  1  0.61438000  0.71086000  0.91207000  1.0
  H  H11  1  0.88563000  0.28914000  0.41209000  1.0
  H  H12  1  0.69608000  0.23858000  0.67937000  1.0
  H  H13  1  0.80392000  0.76141000  0.17937000  1.0
  H  H14  1  0.30392000  0.73859000  0.82061000  1.0
  H  H15  1  0.19608000  0.26140000  0.32063000  1.0
  H  H16  1  0.64736000  0.44115000  0.69533000  1.0
  H  H17  1  0.85264000  0.55884000  0.19533000  1.0
  H  H18  1  0.35265000  0.94115000  0.80467000  1.0
  H  H19  1  0.14735000  0.05885000  0.30468000  1.0
  H  H20  1  0.39207000  0.51421000  0.80811000  1.0
  H  H21  1  0.10794000  0.48579000  0.30810000  1.0
  H  H22  1  0.60793000  0.01422000  0.69190000  1.0
  H  H23  1  0.89206000  0.98580000  0.19190000  1.0
  H  H24  1  0.25358000  0.36331000  0.86924000  1.0
  H  H25  1  0.24642000  0.63670000  0.36924000  1.0
  H  H26  1  0.74640000  0.86333000  0.63075000  1.0
  H  H27  1  0.75358000  0.13670000  0.13076000  1.0
  H  H28  1  0.14703000  0.29067000  0.68753000  1.0
  H  H29  1  0.35298000  0.70933000  0.18751000  1.0
  H  H30  1  0.85298000  0.79067000  0.81246000  1.0
  H  H31  1  0.64702000  0.20933000  0.31249000  1.0
  H  H32  1  0.11091000  0.64200000  0.71959000  1.0
  H  H33  1  0.38909000  0.35801000  0.21959000  1.0
  H  H34  1  0.88909000  0.14199000  0.78042000  1.0
  H  H35  1  0.61091000  0.85800000  0.28041000  1.0
  H  H36  1  0.98280000  0.49942000  0.79130000  1.0
  H  H37  1  0.51720000  0.50059000  0.29130000  1.0
  H  H38  1  0.01721000  0.99943000  0.70870000  1.0
  H  H39  1  0.48279000  0.00059000  0.20871000  1.0
  H  H40  1  0.95078000  0.52454000  0.65280000  1.0
  H  H41  1  0.54922000  0.47546000  0.15280000  1.0
  H  H42  1  0.04921000  0.02452000  0.84720000  1.0
  H  H43  1  0.45078000  0.97546000  0.34721000  1.0
  C  C44  1  0.44901000  0.32580000  0.59291000  1.0
  C  C45  1  0.05100000  0.67418000  0.09290000  1.0
  C  C46  1  0.55100000  0.82580000  0.90709000  1.0
  C  C47  1  0.94900000  0.17420000  0.40711000  1.0
  C  C48  1  0.58844000  0.32418000  0.69509000  1.0
  C  C49  1  0.91156000  0.67581000  0.19507000  1.0
  C  C50  1  0.41156000  0.82419000  0.80491000  1.0
  C  C51  1  0.08844000  0.17582000  0.30493000  1.0
  C  C52  1  0.34223000  0.39488000  0.80266000  1.0
  C  C53  1  0.15777000  0.60513000  0.30265000  1.0
  C  C54  1  0.65778000  0.89489000  0.69734000  1.0
  C  C55  1  0.84223000  0.10513000  0.19735000  1.0
  C  C56  1  0.20233000  0.40836000  0.69397000  1.0
  C  C57  1  0.29766000  0.59165000  0.19397000  1.0
  C  C58  1  0.79766000  0.90835000  0.80602000  1.0
  C  C59  1  0.70232000  0.09165000  0.30603000  1.0
  C  C60  1  0.05317000  0.52528000  0.71677000  1.0
  C  C61  1  0.44683000  0.47472000  0.21676000  1.0
  C  C62  1  0.94683000  0.02528000  0.78323000  1.0
  C  C63  1  0.55317000  0.97473000  0.28324000  1.0
  I  I64  1  0.71690000  0.62067000  0.47088000  1.0
  I  I65  1  0.78311000  0.37933000  0.97089000  1.0
  I  I66  1  0.28309000  0.12065000  0.02911000  1.0
  I  I67  1  0.21691000  0.87933000  0.52911000  1.0
  N  N68  1  0.32603000  0.44644000  0.61378000  1.0
  N  N69  1  0.17397000  0.55355000  0.11378000  1.0
  N  N70  1  0.67398000  0.94643000  0.88621000  1.0
  N  N71  1  0.82604000  0.05355000  0.38623000  1.0
  N  N72  1  0.47885000  0.28682000  0.78262000  1.0
  N  N73  1  0.02114000  0.71318000  0.28261000  1.0
  N  N74  1  0.52114000  0.78683000  0.71737000  1.0
  N  N75  1  0.97886000  0.21318000  0.21739000  1.0
