# generated using pymatgen
data_CdH15C19Br(NO2)2
_symmetry_space_group_name_H-M   'P 1'
_cell_length_a   8.39835000
_cell_length_b   11.49970000
_cell_length_c   11.52930000
_cell_angle_alpha   100.33400000
_cell_angle_beta   104.48400000
_cell_angle_gamma   99.86970000
_symmetry_Int_Tables_number   1
_chemical_formula_structural   CdH15C19Br(NO2)2
_chemical_formula_sum   'Cd2 H30 C38 Br2 N4 O8'
_cell_volume   1032.90391663
_cell_formula_units_Z   2
loop_
 _symmetry_equiv_pos_site_id
 _symmetry_equiv_pos_as_xyz
  1  'x, y, z'
loop_
 _atom_site_type_symbol
 _atom_site_label
 _atom_site_symmetry_multiplicity
 _atom_site_fract_x
 _atom_site_fract_y
 _atom_site_fract_z
 _atom_site_occupancy
  Cd  Cd0  1  0.38426000  0.18940000  0.20983000  1.0
  Cd  Cd1  1  0.61575000  0.81060000  0.79017000  1.0
  H  H2  1  0.14193000  0.02114000  0.96062000  1.0
  H  H3  1  0.85808000  0.97887000  0.03939000  1.0
  H  H4  1  0.04010000  0.80534000  0.84789000  1.0
  H  H5  1  0.95988000  0.19466000  0.15213000  1.0
  H  H6  1  0.82846000  0.39794000  0.74461000  1.0
  H  H7  1  0.17153000  0.60206000  0.25538000  1.0
  H  H8  1  0.43580000  0.59000000  0.91034000  1.0
  H  H9  1  0.56418000  0.41002000  0.08966000  1.0
  H  H10  1  0.02557000  0.19684000  0.75753000  1.0
  H  H11  1  0.97445000  0.80317000  0.24249000  1.0
  H  H12  1  0.10041000  0.23509000  0.63347000  1.0
  H  H13  1  0.89962000  0.76492000  0.36654000  1.0
  H  H14  1  0.88890000  0.23902000  0.63247000  1.0
  H  H15  1  0.11112000  0.76097000  0.36754000  1.0
  H  H16  1  0.91503000  0.61163000  0.87107000  1.0
  H  H17  1  0.08495000  0.38836000  0.12892000  1.0
  H  H18  1  0.53487000  0.94838000  0.21412000  1.0
  H  H19  1  0.46514000  0.05162000  0.78588000  1.0
  H  H20  1  0.45804000  0.72830000  0.10714000  1.0
  H  H21  1  0.54195000  0.27169000  0.89286000  1.0
  H  H22  1  0.32634000  0.37810000  0.78068000  1.0
  H  H23  1  0.67366000  0.62193000  0.21931000  1.0
  H  H24  1  0.72750000  0.55608000  0.50409000  1.0
  H  H25  1  0.27252000  0.44392000  0.49592000  1.0
  H  H26  1  0.99918000  0.30134000  0.37120000  1.0
  H  H27  1  0.00084000  0.69866000  0.62881000  1.0
  H  H28  1  0.12191000  0.90662000  0.67064000  1.0
  H  H29  1  0.87808000  0.09338000  0.32934000  1.0
  H  H30  1  0.30385000  0.99231000  0.55006000  1.0
  H  H31  1  0.69614000  0.00769000  0.44992000  1.0
  C  C32  1  0.20547000  0.95223000  0.99153000  1.0
  C  C33  1  0.79453000  0.04778000  0.00848000  1.0
  C  C34  1  0.14904000  0.83109000  0.92937000  1.0
  C  C35  1  0.85094000  0.16892000  0.07064000  1.0
  C  C36  1  0.96040000  0.44524000  0.78430000  1.0
  C  C37  1  0.03958000  0.55474000  0.21568000  1.0
  C  C38  1  0.30005000  0.55055000  0.87784000  1.0
  C  C39  1  0.69994000  0.44947000  0.12217000  1.0
  C  C40  1  0.18381000  0.61881000  0.90173000  1.0
  C  C41  1  0.81616000  0.38119000  0.09827000  1.0
  C  C42  1  0.01840000  0.25478000  0.69120000  1.0
  C  C43  1  0.98162000  0.74523000  0.30881000  1.0
  C  C44  1  0.01087000  0.56324000  0.85340000  1.0
  C  C45  1  0.98911000  0.43677000  0.14660000  1.0
  C  C46  1  0.23894000  0.74700000  0.97012000  1.0
  C  C47  1  0.76104000  0.25300000  0.02989000  1.0
  C  C48  1  0.42690000  0.91206000  0.13214000  1.0
  C  C49  1  0.57310000  0.08794000  0.86786000  1.0
  C  C50  1  0.38176000  0.78939000  0.07315000  1.0
  C  C51  1  0.61822000  0.21060000  0.92685000  1.0
  C  C52  1  0.24234000  0.43344000  0.80605000  1.0
  C  C53  1  0.75766000  0.56656000  0.19394000  1.0
  C  C54  1  0.84642000  0.42034000  0.42996000  1.0
  C  C55  1  0.15359000  0.57966000  0.57005000  1.0
  C  C56  1  0.84756000  0.53264000  0.50251000  1.0
  C  C57  1  0.15246000  0.46736000  0.49750000  1.0
  C  C58  1  0.99983000  0.38811000  0.42805000  1.0
  C  C59  1  0.00019000  0.61189000  0.57196000  1.0
  C  C60  1  0.68188000  0.33769000  0.35149000  1.0
  C  C61  1  0.31814000  0.66230000  0.64852000  1.0
  C  C62  1  0.06919000  0.94848000  0.59661000  1.0
  C  C63  1  0.93080000  0.05152000  0.40337000  1.0
  C  C64  1  0.10244000  0.04794000  0.43283000  1.0
  C  C65  1  0.89756000  0.95206000  0.56715000  1.0
  C  C66  1  0.17091000  0.99607000  0.52984000  1.0
  C  C67  1  0.82907000  0.00393000  0.47014000  1.0
  C  C68  1  0.21310000  0.09720000  0.36053000  1.0
  C  C69  1  0.78690000  0.90280000  0.63945000  1.0
  Br  Br70  1  0.25768000  0.27692000  0.01385000  1.0
  Br  Br71  1  0.74232000  0.72308000  0.98615000  1.0
  N  N72  1  0.34065000  0.99221000  0.09170000  1.0
  N  N73  1  0.65935000  0.00779000  0.90830000  1.0
  N  N74  1  0.07511000  0.38222000  0.76017000  1.0
  N  N75  1  0.92489000  0.61779000  0.23984000  1.0
  O  O76  1  0.68383000  0.23501000  0.28756000  1.0
  O  O77  1  0.31618000  0.76499000  0.71244000  1.0
  O  O78  1  0.54604000  0.37423000  0.34857000  1.0
  O  O79  1  0.45398000  0.62576000  0.65144000  1.0
  O  O80  1  0.35802000  0.07483000  0.37435000  1.0
  O  O81  1  0.64198000  0.92517000  0.62565000  1.0
  O  O82  1  0.15306000  0.16034000  0.28540000  1.0
  O  O83  1  0.84693000  0.83965000  0.71458000  1.0
