# generated using pymatgen
data_SmH12C18(NO2)3
_symmetry_space_group_name_H-M   'P 1'
_cell_length_a   7.66731000
_cell_length_b   10.90840000
_cell_length_c   11.26460000
_cell_angle_alpha   117.98100000
_cell_angle_beta   90.00000000
_cell_angle_gamma   90.00000000
_symmetry_Int_Tables_number   1
_chemical_formula_structural   SmH12C18(NO2)3
_chemical_formula_sum   'Sm2 H24 C36 N6 O12'
_cell_volume   832.01532165
_cell_formula_units_Z   2
loop_
 _symmetry_equiv_pos_site_id
 _symmetry_equiv_pos_as_xyz
  1  'x, y, z'
loop_
 _atom_site_type_symbol
 _atom_site_label
 _atom_site_symmetry_multiplicity
 _atom_site_fract_x
 _atom_site_fract_y
 _atom_site_fract_z
 _atom_site_occupancy
  Sm  Sm0  1  0.80681000  0.98451000  0.53245000  1.0
  Sm  Sm1  1  0.30681000  0.01549000  0.46755000  1.0
  H  H2  1  0.05699000  0.44306000  0.34973000  1.0
  H  H3  1  0.55699000  0.55694000  0.65027000  1.0
  H  H4  1  0.77194000  0.31609000  0.32074000  1.0
  H  H5  1  0.27194000  0.68391000  0.67927000  1.0
  H  H6  1  0.49187000  0.45440000  0.35636000  1.0
  H  H7  1  0.99187000  0.54560000  0.64365000  1.0
  H  H8  1  0.51049000  0.70378000  0.42693000  1.0
  H  H9  1  0.01049000  0.29621000  0.57307000  1.0
  H  H10  1  0.50340000  0.84500000  0.89991000  1.0
  H  H11  1  0.00340000  0.15500000  0.10009000  1.0
  H  H12  1  0.77695000  0.80830000  0.00513000  1.0
  H  H13  1  0.27695000  0.19170000  0.99487000  1.0
  H  H14  1  0.06732000  0.83472000  0.91378000  1.0
  H  H15  1  0.56733000  0.16529000  0.08622000  1.0
  H  H16  1  0.07292000  0.89784000  0.72830000  1.0
  H  H17  1  0.57292000  0.10216000  0.27170000  1.0
  H  H18  1  0.06238000  0.39927000  0.02554000  1.0
  H  H19  1  0.56238000  0.60073000  0.97446000  1.0
  H  H20  1  0.77701000  0.49998000  0.14301000  1.0
  H  H21  1  0.27702000  0.50002000  0.85699000  1.0
  H  H22  1  0.49819000  0.38725000  0.02129000  1.0
  H  H23  1  0.99820000  0.61275000  0.97871000  1.0
  H  H24  1  0.51463000  0.19549000  0.78977000  1.0
  H  H25  1  0.01463000  0.80451000  0.21023000  1.0
  C  C26  1  0.93108000  0.63762000  0.40536000  1.0
  C  C27  1  0.43108000  0.36238000  0.59464000  1.0
  C  C28  1  0.93190000  0.49585000  0.36650000  1.0
  C  C29  1  0.43190000  0.50415000  0.63350000  1.0
  C  C30  1  0.77370000  0.42661000  0.35003000  1.0
  C  C31  1  0.27370000  0.57339000  0.64997000  1.0
  C  C32  1  0.62008000  0.50221000  0.37030000  1.0
  C  C33  1  0.12008000  0.49779000  0.62971000  1.0
  C  C34  1  0.63000000  0.64399000  0.41009000  1.0
  C  C35  1  0.13000000  0.35601000  0.58991000  1.0
  C  C36  1  0.09977000  0.71464000  0.42141000  1.0
  C  C37  1  0.59977000  0.28536000  0.57859000  1.0
  C  C38  1  0.64702000  0.89004000  0.76183000  1.0
  C  C39  1  0.14702000  0.10996000  0.23817000  1.0
  C  C40  1  0.63295000  0.85454000  0.86548000  1.0
  C  C41  1  0.13296000  0.14546000  0.13452000  1.0
  C  C42  1  0.78443000  0.83413000  0.92263000  1.0
  C  C43  1  0.28443000  0.16587000  0.07737000  1.0
  C  C44  1  0.94500000  0.84907000  0.87264000  1.0
  C  C45  1  0.44500000  0.15093000  0.12736000  1.0
  C  C46  1  0.94900000  0.88428000  0.76844000  1.0
  C  C47  1  0.44900000  0.11572000  0.23156000  1.0
  C  C48  1  0.48501000  0.91568000  0.70012000  1.0
  C  C49  1  0.98501000  0.08431000  0.29988000  1.0
  C  C50  1  0.93493000  0.24958000  0.84654000  1.0
  C  C51  1  0.43493000  0.75042000  0.15346000  1.0
  C  C52  1  0.93726000  0.35772000  0.97804000  1.0
  C  C53  1  0.43726000  0.64229000  0.02196000  1.0
  C  C54  1  0.77950000  0.41143000  0.04301000  1.0
  C  C55  1  0.27950000  0.58857000  0.95699000  1.0
  C  C56  1  0.62544000  0.35071000  0.97537000  1.0
  C  C57  1  0.12544000  0.64929000  0.02463000  1.0
  C  C58  1  0.63428000  0.24195000  0.84440000  1.0
  C  C59  1  0.13428000  0.75805000  0.15560000  1.0
  C  C60  1  0.10252000  0.19479000  0.77074000  1.0
  C  C61  1  0.60252000  0.80521000  0.22926000  1.0
  N  N62  1  0.78228000  0.71163000  0.42883000  1.0
  N  N63  1  0.28227000  0.28837000  0.57117000  1.0
  N  N64  1  0.80289000  0.90476000  0.71430000  1.0
  N  N65  1  0.30289000  0.09524000  0.28570000  1.0
  N  N66  1  0.78586000  0.19267000  0.77985000  1.0
  N  N67  1  0.28586000  0.80733000  0.22015000  1.0
  O  O68  1  0.08255000  0.84749000  0.46346000  1.0
  O  O69  1  0.58255000  0.15251000  0.53654000  1.0
  O  O70  1  0.24021000  0.65064000  0.39359000  1.0
  O  O71  1  0.74021000  0.34935000  0.60641000  1.0
  O  O72  1  0.51209000  0.95245000  0.60690000  1.0
  O  O73  1  0.01209000  0.04755000  0.39310000  1.0
  O  O74  1  0.34001000  0.90142000  0.74083000  1.0
  O  O75  1  0.84001000  0.09857000  0.25916000  1.0
  O  O76  1  0.24452000  0.24253000  0.82684000  1.0
  O  O77  1  0.74452000  0.75748000  0.17316000  1.0
  O  O78  1  0.08377000  0.09987000  0.64689000  1.0
  O  O79  1  0.58378000  0.90013000  0.35311000  1.0
