# generated using pymatgen
data_FeH12Au2C14I2N8O
_symmetry_space_group_name_H-M   'P 1'
_cell_length_a   9.37594000
_cell_length_b   10.03380000
_cell_length_c   12.72420000
_cell_angle_alpha   92.12970000
_cell_angle_beta   99.62720000
_cell_angle_gamma   114.30700000
_symmetry_Int_Tables_number   1
_chemical_formula_structural   FeH12Au2C14I2N8O
_chemical_formula_sum   'Fe2 H24 Au4 C28 I4 N16 O2'
_cell_volume   1068.05650015
_cell_formula_units_Z   2
loop_
 _symmetry_equiv_pos_site_id
 _symmetry_equiv_pos_as_xyz
  1  'x, y, z'
loop_
 _atom_site_type_symbol
 _atom_site_label
 _atom_site_symmetry_multiplicity
 _atom_site_fract_x
 _atom_site_fract_y
 _atom_site_fract_z
 _atom_site_occupancy
  Fe  Fe0  1  0.60372000  0.35319000  0.68865000  1.0
  Fe  Fe1  1  0.39627000  0.64680000  0.31134000  1.0
  H  H2  1  0.36102000  0.28982000  0.80500000  1.0
  H  H3  1  0.63898000  0.71018000  0.19500000  1.0
  H  H4  1  0.67931000  0.17860000  0.52572000  1.0
  H  H5  1  0.32070000  0.82140000  0.47428000  1.0
  H  H6  1  0.77374000  0.62326000  0.85991000  1.0
  H  H7  1  0.22626000  0.37674000  0.14009000  1.0
  H  H8  1  0.76105000  0.61888000  0.58347000  1.0
  H  H9  1  0.23895000  0.38111000  0.41652000  1.0
  H  H10  1  0.87946000  0.67346000  0.42014000  1.0
  H  H11  1  0.12053000  0.32654000  0.57986000  1.0
  H  H12  1  0.90771000  0.30854000  0.74141000  1.0
  H  H13  1  0.09228000  0.69146000  0.25860000  1.0
  H  H14  1  0.17908000  0.43892000  0.85779000  1.0
  H  H15  1  0.82092000  0.56108000  0.14221000  1.0
  H  H16  1  0.62172000  0.25473000  0.93368000  1.0
  H  H17  1  0.37827000  0.74527000  0.06632000  1.0
  H  H18  1  0.42679000  0.11490000  0.87932000  1.0
  H  H19  1  0.57321000  0.88509000  0.12068000  1.0
  H  H20  1  0.31068000  0.23661000  0.99522000  1.0
  H  H21  1  0.68931000  0.76339000  0.00478000  1.0
  H  H22  1  0.50548000  0.37871000  0.04719000  1.0
  H  H23  1  0.49451000  0.62128000  0.95281000  1.0
  H  H24  1  0.45835000  0.19480000  0.07569000  1.0
  H  H25  1  0.54165000  0.80520000  0.92431000  1.0
  Au  Au26  1  0.59659000  0.85160000  0.70925000  1.0
  Au  Au27  1  0.40343000  0.14841000  0.29075000  1.0
  Au  Au28  1  0.12380000  0.02626000  0.41513000  1.0
  Au  Au29  1  0.87620000  0.97374000  0.58487000  1.0
  C  C30  1  0.95147000  0.88290000  0.30223000  1.0
  C  C31  1  0.04853000  0.11710000  0.69777000  1.0
  C  C32  1  0.29979000  0.16698000  0.52724000  1.0
  C  C33  1  0.70021000  0.83301000  0.47277000  1.0
  C  C34  1  0.79930000  0.32590000  0.41437000  1.0
  C  C35  1  0.20070000  0.67410000  0.58563000  1.0
  C  C36  1  0.72574000  0.28956000  0.50297000  1.0
  C  C37  1  0.27427000  0.71044000  0.49702000  1.0
  C  C38  1  0.86551000  0.58408000  0.85814000  1.0
  C  C39  1  0.13449000  0.41592000  0.14186000  1.0
  C  C40  1  0.61172000  0.05375000  0.71145000  1.0
  C  C41  1  0.38828000  0.94625000  0.28856000  1.0
  C  C42  1  0.77078000  0.53326000  0.53491000  1.0
  C  C43  1  0.22922000  0.46674000  0.46508000  1.0
  C  C44  1  0.57688000  0.64772000  0.70023000  1.0
  C  C45  1  0.42313000  0.35229000  0.29978000  1.0
  C  C46  1  0.02113000  0.65893000  0.91758000  1.0
  C  C47  1  0.97887000  0.34107000  0.08241000  1.0
  C  C48  1  0.83802000  0.56302000  0.44446000  1.0
  C  C49  1  0.16197000  0.43698000  0.55553000  1.0
  C  C50  1  0.93895000  0.40880000  0.79335000  1.0
  C  C51  1  0.06105000  0.59120000  0.20666000  1.0
  C  C52  1  0.09043000  0.48298000  0.85772000  1.0
  C  C53  1  0.90957000  0.51703000  0.14228000  1.0
  C  C54  1  0.49462000  0.23090000  0.91431000  1.0
  C  C55  1  0.50537000  0.76909000  0.08569000  1.0
  C  C56  1  0.43880000  0.26248000  0.01366000  1.0
  C  C57  1  0.56120000  0.73752000  0.98634000  1.0
  I  I58  1  0.83025000  0.16249000  0.32454000  1.0
  I  I59  1  0.16974000  0.83751000  0.67546000  1.0
  I  I60  1  0.08478000  0.86576000  0.00330000  1.0
  I  I61  1  0.91523000  0.13425000  0.99670000  1.0
  N  N62  1  0.82605000  0.45926000  0.79381000  1.0
  N  N63  1  0.17397000  0.54075000  0.20620000  1.0
  N  N64  1  0.84467000  0.79802000  0.23761000  1.0
  N  N65  1  0.15533000  0.20199000  0.76239000  1.0
  N  N66  1  0.40964000  0.24699000  0.59209000  1.0
  N  N67  1  0.59036000  0.75301000  0.40791000  1.0
  N  N68  1  0.71285000  0.39561000  0.56457000  1.0
  N  N69  1  0.28715000  0.60439000  0.43543000  1.0
  N  N70  1  0.85462000  0.46003000  0.38415000  1.0
  N  N71  1  0.14538000  0.53997000  0.61584000  1.0
  N  N72  1  0.13268000  0.60954000  0.91950000  1.0
  N  N73  1  0.86732000  0.39046000  0.08050000  1.0
  N  N74  1  0.57950000  0.53197000  0.69035000  1.0
  N  N75  1  0.42051000  0.46803000  0.30965000  1.0
  N  N76  1  0.61797000  0.17207000  0.70336000  1.0
  N  N77  1  0.38203000  0.82793000  0.29665000  1.0
  O  O78  1  0.47831000  0.32673000  0.83535000  1.0
  O  O79  1  0.52168000  0.67326000  0.16466000  1.0
