# generated using pymatgen
data_CdH7C12(NO2)3
_symmetry_space_group_name_H-M   'P 1'
_cell_length_a   7.46960000
_cell_length_b   14.37520000
_cell_length_c   21.14000000
_cell_angle_alpha   90.00000000
_cell_angle_beta   90.00000000
_cell_angle_gamma   92.82880000
_symmetry_Int_Tables_number   1
_chemical_formula_structural   CdH7C12(NO2)3
_chemical_formula_sum   'Cd4 H28 C48 N12 O24'
_cell_volume   2267.18361928
_cell_formula_units_Z   4
loop_
 _symmetry_equiv_pos_site_id
 _symmetry_equiv_pos_as_xyz
  1  'x, y, z'
loop_
 _atom_site_type_symbol
 _atom_site_label
 _atom_site_symmetry_multiplicity
 _atom_site_fract_x
 _atom_site_fract_y
 _atom_site_fract_z
 _atom_site_occupancy
  Cd  Cd0  1  0.48771000  0.39495000  0.56411000  1.0
  Cd  Cd1  1  0.51230000  0.10505000  0.06411000  1.0
  Cd  Cd2  1  0.51230000  0.60505000  0.43589000  1.0
  Cd  Cd3  1  0.48771000  0.89495000  0.93589000  1.0
  H  H4  1  0.50806000  0.33098000  0.90331000  1.0
  H  H5  1  0.49194000  0.16902000  0.40331000  1.0
  H  H6  1  0.49194000  0.66902000  0.09669000  1.0
  H  H7  1  0.50806000  0.83098000  0.59669000  1.0
  H  H8  1  0.49389000  0.05953000  0.81579000  1.0
  H  H9  1  0.50611000  0.44047000  0.31579000  1.0
  H  H10  1  0.50610000  0.94047000  0.18421000  1.0
  H  H11  1  0.49389000  0.55953000  0.68421000  1.0
  H  H12  1  0.48327000  0.13457000  0.70990000  1.0
  H  H13  1  0.51673000  0.36543000  0.20990000  1.0
  H  H14  1  0.51673000  0.86543000  0.29010000  1.0
  H  H15  1  0.48327000  0.63457000  0.79010000  1.0
  H  H16  1  0.82687000  0.52203000  0.61584000  1.0
  H  H17  1  0.17313000  0.97797000  0.11584000  1.0
  H  H18  1  0.17313000  0.47797000  0.38416000  1.0
  H  H19  1  0.82687000  0.02203000  0.88416000  1.0
  H  H20  1  0.16973000  0.52362000  0.61585000  1.0
  H  H21  1  0.83028000  0.97638000  0.11585000  1.0
  H  H22  1  0.83028000  0.47638000  0.38415000  1.0
  H  H23  1  0.16972000  0.02362000  0.88415000  1.0
  H  H24  1  0.15145000  0.28419000  0.50590000  1.0
  H  H25  1  0.84855000  0.21581000  0.00590000  1.0
  H  H26  1  0.84855000  0.71581000  0.49410000  1.0
  H  H27  1  0.15145000  0.78419000  0.99410000  1.0
  H  H28  1  0.80786000  0.28340000  0.50517000  1.0
  H  H29  1  0.19214000  0.21659000  0.00517000  1.0
  H  H30  1  0.19214000  0.71659000  0.49483000  1.0
  H  H31  1  0.80786000  0.78341000  0.99483000  1.0
  C  C32  1  0.48782000  0.27392000  0.74583000  1.0
  C  C33  1  0.51218000  0.22608000  0.24583000  1.0
  C  C34  1  0.51218000  0.72608000  0.25417000  1.0
  C  C35  1  0.48782000  0.77392000  0.75417000  1.0
  C  C36  1  0.49428000  0.32749000  0.80127000  1.0
  C  C37  1  0.50572000  0.17251000  0.30127000  1.0
  C  C38  1  0.50572000  0.67251000  0.19873000  1.0
  C  C39  1  0.49428000  0.82749000  0.69873000  1.0
  C  C40  1  0.50206000  0.28785000  0.86093000  1.0
  C  C41  1  0.49794000  0.21215000  0.36093000  1.0
  C  C42  1  0.49794000  0.71215000  0.13906000  1.0
  C  C43  1  0.50206000  0.78785000  0.63906000  1.0
  C  C44  1  0.50162000  0.19067000  0.86652000  1.0
  C  C45  1  0.49838000  0.30933000  0.36652000  1.0
  C  C46  1  0.49838000  0.80933000  0.13348000  1.0
  C  C47  1  0.50161000  0.69068000  0.63348000  1.0
  C  C48  1  0.49399000  0.13517000  0.81195000  1.0
  C  C49  1  0.50601000  0.36483000  0.31195000  1.0
  C  C50  1  0.50601000  0.86483000  0.18805000  1.0
  C  C51  1  0.49399000  0.63517000  0.68805000  1.0
  C  C52  1  0.48773000  0.17693000  0.75257000  1.0
  C  C53  1  0.51227000  0.32307000  0.25257000  1.0
  C  C54  1  0.51227000  0.82307000  0.24743000  1.0
  C  C55  1  0.48773000  0.67693000  0.74743000  1.0
  C  C56  1  0.48553000  0.31588000  0.68086000  1.0
  C  C57  1  0.51447000  0.18412000  0.18086000  1.0
  C  C58  1  0.51447000  0.68412000  0.31914000  1.0
  C  C59  1  0.48552000  0.81588000  0.81914000  1.0
  C  C60  1  0.50889000  0.14932000  0.93144000  1.0
  C  C61  1  0.49111000  0.35068000  0.43144000  1.0
  C  C62  1  0.49111000  0.85068000  0.06856000  1.0
  C  C63  1  0.50889000  0.64932000  0.56856000  1.0
  C  C64  1  0.90086000  0.46982000  0.59079000  1.0
  C  C65  1  0.09914000  0.03018000  0.09079000  1.0
  C  C66  1  0.09914000  0.53018000  0.40921000  1.0
  C  C67  1  0.90086000  0.96982000  0.90921000  1.0
  C  C68  1  0.08765000  0.47053000  0.59091000  1.0
  C  C69  1  0.91236000  0.02947000  0.09091000  1.0
  C  C70  1  0.91236000  0.52947000  0.40909000  1.0
  C  C71  1  0.08765000  0.97053000  0.90909000  1.0
  C  C72  1  0.07711000  0.33746000  0.52977000  1.0
  C  C73  1  0.92289000  0.16254000  0.02977000  1.0
  C  C74  1  0.92289000  0.66254000  0.47023000  1.0
  C  C75  1  0.07711000  0.83746000  0.97023000  1.0
  C  C76  1  0.89053000  0.33699000  0.52944000  1.0
  C  C77  1  0.10947000  0.16300000  0.02944000  1.0
  C  C78  1  0.10947000  0.66300000  0.47056000  1.0
  C  C79  1  0.89053000  0.83700000  0.97056000  1.0
  N  N80  1  0.49010000  0.43021000  0.79988000  1.0
  N  N81  1  0.50990000  0.06979000  0.29988000  1.0
  N  N82  1  0.50990000  0.56979000  0.20012000  1.0
  N  N83  1  0.49010000  0.93021000  0.70012000  1.0
  N  N84  1  0.80418000  0.40360000  0.55955000  1.0
  N  N85  1  0.19582000  0.09640000  0.05955000  1.0
  N  N86  1  0.19582000  0.59640000  0.44045000  1.0
  N  N87  1  0.80418000  0.90360000  0.94045000  1.0
  N  N88  1  0.17398000  0.40474000  0.56003000  1.0
  N  N89  1  0.82603000  0.09526000  0.06003000  1.0
  N  N90  1  0.82602000  0.59526000  0.43997000  1.0
  N  N91  1  0.17398000  0.90474000  0.93997000  1.0
  O  O92  1  0.50546000  0.40465000  0.67566000  1.0
  O  O93  1  0.49455000  0.09535000  0.17566000  1.0
  O  O94  1  0.49455000  0.59535000  0.32434000  1.0
  O  O95  1  0.50545000  0.90465000  0.82434000  1.0
  O  O96  1  0.46605000  0.26210000  0.63349000  1.0
  O  O97  1  0.53395000  0.23790000  0.13349000  1.0
  O  O98  1  0.53395000  0.73790000  0.36651000  1.0
  O  O99  1  0.46604000  0.76210000  0.86651000  1.0
  O  O100  1  0.50353000  0.06116000  0.93884000  1.0
  O  O101  1  0.49647000  0.43884000  0.43884000  1.0
  O  O102  1  0.49647000  0.93884000  0.06116000  1.0
  O  O103  1  0.50353000  0.56116000  0.56116000  1.0
  O  O104  1  0.51953000  0.20549000  0.97833000  1.0
  O  O105  1  0.48047000  0.29451000  0.47833000  1.0
  O  O106  1  0.48047000  0.79451000  0.02167000  1.0
  O  O107  1  0.51953000  0.70549000  0.52167000  1.0
  O  O108  1  0.63493000  0.47479000  0.80597000  1.0
  O  O109  1  0.36508000  0.02521000  0.30597000  1.0
  O  O110  1  0.36507000  0.52521000  0.19403000  1.0
  O  O111  1  0.63492000  0.97479000  0.69403000  1.0
  O  O112  1  0.34088000  0.46357000  0.79667000  1.0
  O  O113  1  0.65913000  0.03643000  0.29668000  1.0
  O  O114  1  0.65912000  0.53643000  0.20332000  1.0
  O  O115  1  0.34087000  0.96357000  0.70332000  1.0
