# generated using pymatgen
data_CoH6C10NO4
_symmetry_space_group_name_H-M   'P 1'
_cell_length_a   9.56308000
_cell_length_b   10.77360000
_cell_length_c   11.31530000
_cell_angle_alpha   64.32030000
_cell_angle_beta   85.57740000
_cell_angle_gamma   66.46460000
_symmetry_Int_Tables_number   1
_chemical_formula_structural   CoH6C10NO4
_chemical_formula_sum   'Co4 H24 C40 N4 O16'
_cell_volume   956.74211344
_cell_formula_units_Z   4
loop_
 _symmetry_equiv_pos_site_id
 _symmetry_equiv_pos_as_xyz
  1  'x, y, z'
loop_
 _atom_site_type_symbol
 _atom_site_label
 _atom_site_symmetry_multiplicity
 _atom_site_fract_x
 _atom_site_fract_y
 _atom_site_fract_z
 _atom_site_occupancy
  Co  Co0  1  0.50421000  0.33472000  0.04914000  1.0
  Co  Co1  1  0.49842000  0.66546000  0.95155000  1.0
  Co  Co2  1  0.17695000  0.70298000  0.82535000  1.0
  Co  Co3  1  0.82066000  0.29696000  0.17426000  1.0
  H  H4  1  0.32136000  0.09596000  0.95275000  1.0
  H  H5  1  0.67933000  0.90304000  0.04862000  1.0
  H  H6  1  0.90776000  0.11708000  0.80162000  1.0
  H  H7  1  0.09272000  0.88277000  0.19937000  1.0
  H  H8  1  0.90817000  0.50587000  0.82471000  1.0
  H  H9  1  0.09310000  0.49405000  0.17543000  1.0
  H  H10  1  0.89871000  0.37338000  0.56436000  1.0
  H  H11  1  0.10221000  0.62627000  0.43589000  1.0
  H  H12  1  0.79765000  0.52807000  0.32839000  1.0
  H  H13  1  0.20346000  0.47083000  0.67178000  1.0
  H  H14  1  0.53333000  0.73404000  0.25965000  1.0
  H  H15  1  0.46774000  0.26473000  0.74011000  1.0
  H  H16  1  0.37680000  0.78913000  0.43228000  1.0
  H  H17  1  0.62362000  0.20974000  0.56714000  1.0
  H  H18  1  0.08296000  0.79792000  0.53518000  1.0
  H  H19  1  0.91555000  0.20299000  0.46459000  1.0
  H  H20  1  0.83252000  0.89367000  0.39891000  1.0
  H  H21  1  0.16633000  0.10394000  0.60176000  1.0
  H  H22  1  0.59849000  0.93925000  0.72910000  1.0
  H  H23  1  0.39965000  0.06209000  0.27013000  1.0
  H  H24  1  0.85543000  0.84884000  0.84852000  1.0
  H  H25  1  0.14237000  0.15619000  0.14972000  1.0
  H  H26  1  0.69252000  0.43247000  0.93075000  1.0
  H  H27  1  0.30580000  0.57129000  0.06460000  1.0
  C  C28  1  0.20242000  0.38589000  0.92722000  1.0
  C  C29  1  0.79866000  0.61400000  0.07308000  1.0
  C  C30  1  0.12276000  0.30773000  0.89488000  1.0
  C  C31  1  0.87831000  0.69185000  0.10585000  1.0
  C  C32  1  0.20062000  0.15865000  0.91300000  1.0
  C  C33  1  0.80017000  0.84078000  0.08807000  1.0
  C  C34  1  0.12379000  0.09059000  0.87812000  1.0
  C  C35  1  0.87674000  0.90894000  0.12304000  1.0
  C  C36  1  0.20739000  0.93385000  0.89098000  1.0
  C  C37  1  0.79290000  0.06501000  0.11121000  1.0
  C  C38  1  0.96829000  0.17077000  0.82671000  1.0
  C  C39  1  0.03241000  0.82903000  0.17407000  1.0
  C  C40  1  0.89387000  0.31921000  0.80801000  1.0
  C  C41  1  0.10706000  0.68087000  0.19225000  1.0
  C  C42  1  0.96869000  0.38924000  0.84054000  1.0
  C  C43  1  0.03245000  0.61063000  0.15975000  1.0
  C  C44  1  0.69432000  0.49431000  0.63002000  1.0
  C  C45  1  0.30627000  0.50537000  0.36988000  1.0
  C  C46  1  0.78482000  0.46530000  0.53475000  1.0
  C  C47  1  0.21595000  0.53416000  0.46535000  1.0
  C  C48  1  0.72684000  0.55317000  0.40173000  1.0
  C  C49  1  0.27406000  0.44583000  0.59831000  1.0
  C  C50  1  0.57918000  0.66813000  0.36366000  1.0
  C  C51  1  0.42170000  0.33086000  0.63617000  1.0
  C  C52  1  0.49126000  0.69812000  0.45991000  1.0
  C  C53  1  0.50928000  0.30087000  0.53977000  1.0
  C  C54  1  0.54918000  0.61529000  0.59369000  1.0
  C  C55  1  0.45102000  0.38389000  0.40604000  1.0
  C  C56  1  0.46380000  0.65984000  0.69512000  1.0
  C  C57  1  0.53583000  0.33915000  0.30472000  1.0
  C  C58  1  0.97256000  0.83161000  0.57306000  1.0
  C  C59  1  0.02587000  0.16931000  0.42659000  1.0
  C  C60  1  0.83471000  0.88346000  0.49891000  1.0
  C  C61  1  0.16390000  0.11549000  0.50133000  1.0
  C  C62  1  0.69619000  0.92434000  0.55355000  1.0
  C  C63  1  0.30238000  0.07505000  0.44644000  1.0
  C  C64  1  0.70318000  0.91068000  0.68286000  1.0
  C  C65  1  0.29506000  0.09053000  0.31654000  1.0
  C  C66  1  0.84529000  0.85957000  0.74891000  1.0
  C  C67  1  0.15276000  0.14382000  0.24986000  1.0
  N  N68  1  0.97920000  0.81924000  0.69666000  1.0
  N  N69  1  0.01891000  0.18432000  0.30214000  1.0
  N  N70  1  0.56041000  0.97717000  0.47379000  1.0
  N  N71  1  0.43822000  0.02169000  0.52620000  1.0
  O  O72  1  0.12426000  0.52615000  0.89301000  1.0
  O  O73  1  0.87637000  0.47398000  0.10619000  1.0
  O  O74  1  0.34003000  0.30717000  0.98248000  1.0
  O  O75  1  0.66093000  0.69356000  0.01813000  1.0
  O  O76  1  0.12568000  0.87759000  0.86416000  1.0
  O  O77  1  0.87397000  0.12016000  0.14061000  1.0
  O  O78  1  0.35152000  0.87101000  0.92388000  1.0
  O  O79  1  0.64887000  0.12902000  0.07717000  1.0
  O  O80  1  0.73732000  0.39910000  0.76389000  1.0
  O  O81  1  0.26360000  0.60108000  0.23620000  1.0
  O  O82  1  0.53970000  0.67391000  0.77222000  1.0
  O  O83  1  0.45958000  0.32654000  0.22655000  1.0
  O  O84  1  0.32118000  0.68429000  0.69414000  1.0
  O  O85  1  0.67912000  0.31237000  0.30623000  1.0
  O  O86  1  0.64827000  0.43114000  0.01199000  1.0
  O  O87  1  0.35315000  0.57162000  0.98476000  1.0
