# generated using pymatgen
data_CdH8C10(NCl)2
_symmetry_space_group_name_H-M   'P 1'
_cell_length_a   7.14876000
_cell_length_b   9.30118000
_cell_length_c   9.65164000
_cell_angle_alpha   118.69600000
_cell_angle_beta   106.74600000
_cell_angle_gamma   90.10390000
_symmetry_Int_Tables_number   1
_chemical_formula_structural   CdH8C10(NCl)2
_chemical_formula_sum   'Cd2 H16 C20 N4 Cl4'
_cell_volume   531.50432331
_cell_formula_units_Z   2
loop_
 _symmetry_equiv_pos_site_id
 _symmetry_equiv_pos_as_xyz
  1  'x, y, z'
loop_
 _atom_site_type_symbol
 _atom_site_label
 _atom_site_symmetry_multiplicity
 _atom_site_fract_x
 _atom_site_fract_y
 _atom_site_fract_z
 _atom_site_occupancy
  Cd  Cd0  1  0.24982000  0.91394000  0.00007000  1.0
  Cd  Cd1  1  0.75018000  0.08606000  0.99993000  1.0
  H  H2  1  0.91760000  0.64545000  0.65072000  1.0
  H  H3  1  0.58179000  0.99472000  0.34945000  1.0
  H  H4  1  0.08240000  0.35455000  0.34929000  1.0
  H  H5  1  0.41822000  0.00528000  0.65055000  1.0
  H  H6  1  0.79271000  0.33522000  0.47160000  1.0
  H  H7  1  0.70723000  0.86338000  0.52853000  1.0
  H  H8  1  0.20728000  0.66478000  0.52841000  1.0
  H  H9  1  0.29277000  0.13662000  0.47147000  1.0
  H  H10  1  0.16339000  0.28401000  0.87852000  1.0
  H  H11  1  0.33720000  0.40534000  0.12161000  1.0
  H  H12  1  0.83663000  0.71598000  0.12148000  1.0
  H  H13  1  0.66281000  0.59465000  0.87839000  1.0
  H  H14  1  0.92371000  0.15517000  0.59454000  1.0
  H  H15  1  0.57693000  0.56030000  0.40552000  1.0
  H  H16  1  0.07629000  0.84484000  0.40546000  1.0
  H  H17  1  0.42307000  0.43970000  0.59447000  1.0
  C  C18  1  0.17490000  0.53429000  0.91500000  1.0
  C  C19  1  0.32498000  0.61932000  0.08519000  1.0
  C  C20  1  0.82509000  0.46569000  0.08500000  1.0
  C  C21  1  0.67503000  0.38068000  0.91482000  1.0
  C  C22  1  0.96982000  0.55932000  0.69433000  1.0
  C  C23  1  0.52979000  0.86493000  0.30584000  1.0
  C  C24  1  0.03017000  0.44066000  0.30567000  1.0
  C  C25  1  0.47022000  0.13505000  0.69416000  1.0
  C  C26  1  0.90148000  0.38862000  0.59666000  1.0
  C  C27  1  0.59848000  0.79178000  0.40346000  1.0
  C  C28  1  0.09852000  0.61140000  0.40335000  1.0
  C  C29  1  0.40152000  0.20823000  0.59653000  1.0
  C  C30  1  0.10936000  0.36238000  0.82580000  1.0
  C  C31  1  0.39085000  0.53646000  0.17435000  1.0
  C  C32  1  0.89065000  0.63763000  0.17420000  1.0
  C  C33  1  0.60914000  0.46354000  0.82564000  1.0
  C  C34  1  0.97304000  0.28929000  0.66496000  1.0
  C  C35  1  0.52722000  0.62412000  0.33516000  1.0
  C  C36  1  0.02696000  0.71070000  0.33503000  1.0
  C  C37  1  0.47279000  0.37588000  0.66485000  1.0
  N  N38  1  0.10352000  0.62959000  0.84828000  1.0
  N  N39  1  0.39605000  0.78136000  0.15195000  1.0
  N  N40  1  0.89647000  0.37042000  0.15172000  1.0
  N  N41  1  0.60395000  0.21865000  0.84805000  1.0
  Cl  Cl42  1  0.50630000  0.18288000  0.19523000  1.0
  Cl  Cl43  1  0.99386000  0.98760000  0.80454000  1.0
  Cl  Cl44  1  0.49371000  0.81712000  0.80477000  1.0
  Cl  Cl45  1  0.00614000  0.01240000  0.19546000  1.0
