# generated using pymatgen
data_ZnH16C25N4ClO4
_symmetry_space_group_name_H-M   'P 1'
_cell_length_a   8.63941000
_cell_length_b   12.11710000
_cell_length_c   12.58420000
_cell_angle_alpha   61.32880000
_cell_angle_beta   74.18550000
_cell_angle_gamma   75.38010000
_symmetry_Int_Tables_number   1
_chemical_formula_structural   ZnH16C25N4ClO4
_chemical_formula_sum   'Zn2 H32 C50 N8 Cl2 O8'
_cell_volume   1100.48749079
_cell_formula_units_Z   2
loop_
 _symmetry_equiv_pos_site_id
 _symmetry_equiv_pos_as_xyz
  1  'x, y, z'
loop_
 _atom_site_type_symbol
 _atom_site_label
 _atom_site_symmetry_multiplicity
 _atom_site_fract_x
 _atom_site_fract_y
 _atom_site_fract_z
 _atom_site_occupancy
  Zn  Zn0  1  0.60157000  0.60506000  0.71467000  1.0
  Zn  Zn1  1  0.39843000  0.39493000  0.28533000  1.0
  H  H2  1  0.19091000  0.31060000  0.10812000  1.0
  H  H3  1  0.80909000  0.68940000  0.89188000  1.0
  H  H4  1  0.76268000  0.82544000  0.52617000  1.0
  H  H5  1  0.23732000  0.17456000  0.47383000  1.0
  H  H6  1  0.73110000  0.05895000  0.46874000  1.0
  H  H7  1  0.26890000  0.94105000  0.53125000  1.0
  H  H8  1  0.54239000  0.13967000  0.61373000  1.0
  H  H9  1  0.45761000  0.86033000  0.38627000  1.0
  H  H10  1  0.45314000  0.75379000  0.85994000  1.0
  H  H11  1  0.54686000  0.24621000  0.14006000  1.0
  H  H12  1  0.27343000  0.16955000  0.70008000  1.0
  H  H13  1  0.72657000  0.83045000  0.29992000  1.0
  H  H14  1  0.44637000  0.83336000  0.00464000  1.0
  H  H15  1  0.55363000  0.16664000  0.99536000  1.0
  H  H16  1  0.14842000  0.35189000  0.64970000  1.0
  H  H17  1  0.85158000  0.64811000  0.35030000  1.0
  H  H18  1  0.92215000  0.52985000  0.59546000  1.0
  H  H19  1  0.07785000  0.47015000  0.40454000  1.0
  H  H20  1  0.68326000  0.40386000  0.95777000  1.0
  H  H21  1  0.31674000  0.59614000  0.04223000  1.0
  H  H22  1  0.90084000  0.21704000  0.02871000  1.0
  H  H23  1  0.09916000  0.78296000  0.97129000  1.0
  H  H24  1  0.04442000  0.03845000  0.21857000  1.0
  H  H25  1  0.95558000  0.96155000  0.78143000  1.0
  H  H26  1  0.01162000  0.91336000  0.44649000  1.0
  H  H27  1  0.98838000  0.08664000  0.55351000  1.0
  H  H28  1  0.35687000  0.61664000  0.41924000  1.0
  H  H29  1  0.64313000  0.38336000  0.58076000  1.0
  H  H30  1  0.41174000  0.72904000  0.19178000  1.0
  H  H31  1  0.58826000  0.27096000  0.80822000  1.0
  H  H32  1  0.83334000  0.31179000  0.42060000  1.0
  H  H33  1  0.16666000  0.68821000  0.57940000  1.0
  C  C34  1  0.33986000  0.46877000  0.88996000  1.0
  C  C35  1  0.66014000  0.53123000  0.11004000  1.0
  C  C36  1  0.16175000  0.48328000  0.94241000  1.0
  C  C37  1  0.83824000  0.51672000  0.05759000  1.0
  C  C38  1  0.10620000  0.39317000  0.06070000  1.0
  C  C39  1  0.89380000  0.60684000  0.93930000  1.0
  C  C40  1  0.94604000  0.40925000  0.11977000  1.0
  C  C41  1  0.05396000  0.59075000  0.88023000  1.0
  C  C42  1  0.90092000  0.31655000  0.25238000  1.0
  C  C43  1  0.09907000  0.68345000  0.74762000  1.0
  C  C44  1  0.68727000  0.86542000  0.58783000  1.0
  C  C45  1  0.31273000  0.13458000  0.41217000  1.0
  C  C46  1  0.66735000  0.99411000  0.55639000  1.0
  C  C47  1  0.33265000  0.00590000  0.44360000  1.0
  C  C48  1  0.56345000  0.03846000  0.63828000  1.0
  C  C49  1  0.43655000  0.96154000  0.36172000  1.0
  C  C50  1  0.48654000  0.95279000  0.75180000  1.0
  C  C51  1  0.51346000  0.04721000  0.24820000  1.0
  C  C52  1  0.51381000  0.82471000  0.77577000  1.0
  C  C53  1  0.48620000  0.17529000  0.22423000  1.0
  C  C54  1  0.37449000  0.99595000  0.84112000  1.0
  C  C55  1  0.62551000  0.00405000  0.15888000  1.0
  C  C56  1  0.27057000  0.11148000  0.79856000  1.0
  C  C57  1  0.72943000  0.88852000  0.20144000  1.0
  C  C58  1  0.16000000  0.14868000  0.88406000  1.0
  C  C59  1  0.84001000  0.85132000  0.11594000  1.0
  C  C60  1  0.25105000  0.96743000  0.04804000  1.0
  C  C61  1  0.74895000  0.03257000  0.95196000  1.0
  C  C62  1  0.36549000  0.92292000  0.96852000  1.0
  C  C63  1  0.63451000  0.07708000  0.03148000  1.0
  C  C64  1  0.03942000  0.26525000  0.84486000  1.0
  C  C65  1  0.96058000  0.73475000  0.15514000  1.0
  C  C66  1  0.04709000  0.35687000  0.72191000  1.0
  C  C67  1  0.95291000  0.64313000  0.27809000  1.0
  C  C68  1  0.92266000  0.45816000  0.69042000  1.0
  C  C69  1  0.07734000  0.54183000  0.30958000  1.0
  C  C70  1  0.78867000  0.38799000  0.89321000  1.0
  C  C71  1  0.21133000  0.61201000  0.10679000  1.0
  C  C72  1  0.90842000  0.28443000  0.93192000  1.0
  C  C73  1  0.09158000  0.71557000  0.06808000  1.0
  C  C74  1  0.22984000  0.89428000  0.18424000  1.0
  C  C75  1  0.77016000  0.10572000  0.81576000  1.0
  C  C76  1  0.11471000  0.94463000  0.25887000  1.0
  C  C77  1  0.88529000  0.05537000  0.74113000  1.0
  C  C78  1  0.09520000  0.87488000  0.38590000  1.0
  C  C79  1  0.90480000  0.12512000  0.61410000  1.0
  C  C80  1  0.29010000  0.71034000  0.37090000  1.0
  C  C81  1  0.70990000  0.28966000  0.62910000  1.0
  C  C82  1  0.31983000  0.77456000  0.24293000  1.0
  C  C83  1  0.68017000  0.22544000  0.75707000  1.0
  N  N84  1  0.60982000  0.78270000  0.69484000  1.0
  N  N85  1  0.39018000  0.21730000  0.30516000  1.0
  N  N86  1  0.15075000  0.07748000  0.00582000  1.0
  N  N87  1  0.84925000  0.92252000  0.99418000  1.0
  N  N88  1  0.79376000  0.47284000  0.77378000  1.0
  N  N89  1  0.20624000  0.52716000  0.22622000  1.0
  N  N90  1  0.18012000  0.75938000  0.44160000  1.0
  N  N91  1  0.81988000  0.24062000  0.55840000  1.0
  Cl  Cl92  1  0.61190000  0.63604000  0.52246000  1.0
  Cl  Cl93  1  0.38810000  0.36396000  0.47754000  1.0
  O  O94  1  0.41955000  0.36175000  0.90958000  1.0
  O  O95  1  0.58045000  0.63826000  0.09042000  1.0
  O  O96  1  0.39763000  0.57646000  0.83097000  1.0
  O  O97  1  0.60237000  0.42354000  0.16903000  1.0
  O  O98  1  0.84630000  0.37518000  0.32375000  1.0
  O  O99  1  0.15370000  0.62482000  0.67625000  1.0
  O  O100  1  0.92460000  0.20002000  0.28854000  1.0
  O  O101  1  0.07540000  0.79999000  0.71146000  1.0
