# generated using pymatgen
data_AgH14C15S2N
_symmetry_space_group_name_H-M   'P 1'
_cell_length_a   4.83912000
_cell_length_b   15.54330000
_cell_length_c   15.54730000
_cell_angle_alpha   119.98300000
_cell_angle_beta   89.99680000
_cell_angle_gamma   89.99940000
_symmetry_Int_Tables_number   1
_chemical_formula_structural   AgH14C15S2N
_chemical_formula_sum   'Ag3 H42 C45 S6 N3'
_cell_volume   1012.90706689
_cell_formula_units_Z   3
loop_
 _symmetry_equiv_pos_site_id
 _symmetry_equiv_pos_as_xyz
  1  'x, y, z'
loop_
 _atom_site_type_symbol
 _atom_site_label
 _atom_site_symmetry_multiplicity
 _atom_site_fract_x
 _atom_site_fract_y
 _atom_site_fract_z
 _atom_site_occupancy
  Ag  Ag0  1  0.08744000  0.89493000  0.96189000  1.0
  Ag  Ag1  1  0.42101000  0.03815000  0.93308000  1.0
  Ag  Ag2  1  0.75425000  0.06692000  0.10507000  1.0
  H  H3  1  0.05314000  0.67238000  0.64998000  1.0
  H  H4  1  0.38693000  0.35010000  0.02237000  1.0
  H  H5  1  0.71989000  0.97754000  0.32764000  1.0
  H  H6  1  0.96658000  0.67679000  0.76345000  1.0
  H  H7  1  0.30048000  0.23664000  0.91333000  1.0
  H  H8  1  0.63337000  0.08661000  0.32317000  1.0
  H  H9  1  0.10719000  0.51086000  0.51836000  1.0
  H  H10  1  0.44108000  0.48182000  0.99247000  1.0
  H  H11  1  0.77434000  0.00752000  0.48920000  1.0
  H  H12  1  0.97152000  0.33308000  0.42590000  1.0
  H  H13  1  0.30516000  0.57436000  0.90721000  1.0
  H  H14  1  0.63891000  0.09290000  0.66697000  1.0
  H  H15  1  0.58485000  0.27296000  0.48808000  1.0
  H  H16  1  0.91836000  0.51221000  0.78504000  1.0
  H  H17  1  0.25215000  0.21515000  0.72705000  1.0
  H  H18  1  0.33087000  0.39157000  0.64072000  1.0
  H  H19  1  0.66460000  0.35948000  0.75098000  1.0
  H  H20  1  0.99796000  0.24911000  0.60840000  1.0
  H  H21  1  0.46558000  0.56984000  0.73286000  1.0
  H  H22  1  0.79954000  0.26727000  0.83705000  1.0
  H  H23  1  0.13243000  0.16295000  0.43016000  1.0
  H  H24  1  0.38125000  0.77056000  0.63238000  1.0
  H  H25  1  0.71485000  0.36773000  0.13798000  1.0
  H  H26  1  0.04784000  0.86188000  0.22974000  1.0
  H  H27  1  0.54796000  0.65440000  0.55834000  1.0
  H  H28  1  0.88210000  0.44181000  0.09600000  1.0
  H  H29  1  0.21503000  0.90391000  0.34578000  1.0
  H  H30  1  0.90980000  0.64566000  0.45214000  1.0
  H  H31  1  0.24397000  0.54785000  0.19357000  1.0
  H  H32  1  0.57682000  0.80626000  0.35429000  1.0
  H  H33  1  0.24721000  0.72821000  0.39736000  1.0
  H  H34  1  0.58088000  0.60244000  0.33098000  1.0
  H  H35  1  0.91404000  0.66891000  0.27155000  1.0
  H  H36  1  0.32815000  0.91106000  0.50086000  1.0
  H  H37  1  0.66081000  0.49877000  0.41024000  1.0
  H  H38  1  0.99446000  0.58976000  0.08872000  1.0
  H  H39  1  0.06678000  0.00946000  0.65707000  1.0
  H  H40  1  0.39906000  0.34256000  0.35223000  1.0
  H  H41  1  0.73265000  0.64776000  0.99053000  1.0
  H  H42  1  0.71925000  0.92757000  0.71002000  1.0
  H  H43  1  0.05199000  0.28981000  0.21733000  1.0
  H  H44  1  0.38528000  0.78261000  0.07259000  1.0
  C  C45  1  0.54823000  0.78646000  0.79703000  1.0
  C  C46  1  0.88195000  0.20302000  0.98936000  1.0
  C  C47  1  0.21498000  0.01051000  0.21356000  1.0
  C  C48  1  0.88759000  0.65882000  0.69008000  1.0
  C  C49  1  0.22144000  0.31001000  0.96872000  1.0
  C  C50  1  0.55438000  0.03122000  0.34120000  1.0
  C  C51  1  0.79562000  0.55195000  0.63176000  1.0
  C  C52  1  0.12951000  0.36841000  0.92022000  1.0
  C  C53  1  0.46259000  0.07976000  0.44808000  1.0
  C  C54  1  0.93613000  0.48482000  0.54520000  1.0
  C  C55  1  0.27001000  0.45498000  0.93963000  1.0
  C  C56  1  0.60325000  0.06038000  0.51523000  1.0
  C  C57  1  0.86138000  0.38463000  0.49350000  1.0
  C  C58  1  0.19507000  0.50673000  0.89118000  1.0
  C  C59  1  0.52859000  0.10890000  0.61541000  1.0
  C  C60  1  0.64466000  0.35095000  0.52808000  1.0
  C  C61  1  0.97827000  0.47216000  0.82299000  1.0
  C  C62  1  0.31181000  0.17713000  0.64906000  1.0
  C  C63  1  0.50129000  0.41764000  0.61391000  1.0
  C  C64  1  0.83508000  0.38626000  0.80382000  1.0
  C  C65  1  0.16837000  0.19624000  0.58234000  1.0
  C  C66  1  0.57547000  0.51768000  0.66530000  1.0
  C  C67  1  0.90939000  0.33485000  0.85244000  1.0
  C  C68  1  0.24243000  0.14757000  0.48232000  1.0
  C  C69  1  0.58005000  0.73190000  0.61718000  1.0
  C  C70  1  0.91383000  0.38290000  0.11462000  1.0
  C  C71  1  0.24678000  0.88527000  0.26827000  1.0
  C  C72  1  0.78857000  0.78138000  0.58396000  1.0
  C  C73  1  0.12204000  0.41598000  0.19735000  1.0
  C  C74  1  0.45513000  0.80255000  0.21869000  1.0
  C  C75  1  0.93901000  0.72591000  0.49621000  1.0
  C  C76  1  0.27282000  0.50370000  0.22971000  1.0
  C  C77  1  0.60583000  0.77016000  0.27404000  1.0
  C  C78  1  0.13017000  0.77232000  0.46541000  1.0
  C  C79  1  0.46365000  0.53440000  0.30696000  1.0
  C  C80  1  0.79684000  0.69294000  0.22753000  1.0
  C  C81  1  0.17532000  0.87433000  0.52295000  1.0
  C  C82  1  0.50824000  0.47676000  0.35137000  1.0
  C  C83  1  0.84172000  0.64859000  0.12554000  1.0
  C  C84  1  0.02794000  0.93001000  0.61115000  1.0
  C  C85  1  0.36061000  0.38856000  0.31875000  1.0
  C  C86  1  0.69409000  0.68121000  0.06997000  1.0
  C  C87  1  0.83423000  0.88396000  0.64113000  1.0
  C  C88  1  0.16719000  0.35870000  0.24269000  1.0
  C  C89  1  0.50046000  0.75724000  0.11612000  1.0
  S  S90  1  0.29214000  0.87031000  0.80600000  1.0
  S  S91  1  0.62580000  0.19404000  0.06421000  1.0
  S  S92  1  0.95893000  0.93564000  0.12976000  1.0
  S  S93  1  0.63421000  0.77534000  0.89735000  1.0
  S  S94  1  0.96793000  0.10269000  0.87795000  1.0
  S  S95  1  0.30104000  0.12193000  0.22457000  1.0
  N  N96  1  0.66522000  0.72981000  0.70707000  1.0
  N  N97  1  0.99898000  0.29300000  0.02266000  1.0
  N  N98  1  0.33191000  0.97725000  0.27029000  1.0
