# generated using pymatgen
data_AlH12C27(O2F)3
_symmetry_space_group_name_H-M   'P 1'
_cell_length_a   4.01618000
_cell_length_b   27.77740000
_cell_length_c   27.81339706
_cell_angle_alpha   60.13377612
_cell_angle_beta   89.33859371
_cell_angle_gamma   89.65770000
_symmetry_Int_Tables_number   1
_chemical_formula_structural   AlH12C27(O2F)3
_chemical_formula_sum   'Al3 H36 C81 O18 F9'
_cell_volume   2690.57025627
_cell_formula_units_Z   3
loop_
 _symmetry_equiv_pos_site_id
 _symmetry_equiv_pos_as_xyz
  1  'x, y, z'
loop_
 _atom_site_type_symbol
 _atom_site_label
 _atom_site_symmetry_multiplicity
 _atom_site_fract_x
 _atom_site_fract_y
 _atom_site_fract_z
 _atom_site_occupancy
  Al  Al0  1  0.99829000  0.00041000  0.49994000  1.0
  Al  Al1  1  0.05154000  0.33464000  0.83260000  1.0
  Al  Al2  1  0.94898000  0.66693000  0.16699000  1.0
  H  H3  1  0.48657000  0.00079000  0.92260000  1.0
  H  H4  1  0.48878000  0.91059000  0.83413000  1.0
  H  H5  1  0.49721000  0.08901000  0.74440000  1.0
  H  H6  1  0.24877000  0.16517000  0.90778000  1.0
  H  H7  1  0.22147000  0.07598000  0.90843000  1.0
  H  H8  1  0.80901000  0.14734000  0.75721000  1.0
  H  H9  1  0.74408000  0.92657000  0.98414000  1.0
  H  H10  1  0.17082000  0.76360000  0.99453000  1.0
  H  H11  1  0.17701000  0.85270000  0.90610000  1.0
  H  H12  1  0.20027000  0.92355000  0.76202000  1.0
  H  H13  1  0.78575000  0.07114000  0.59686000  1.0
  H  H14  1  0.78750000  0.07400000  0.68457000  1.0
  H  H15  1  0.49683000  0.42252000  0.07793000  1.0
  H  H16  1  0.48484000  0.24413000  0.16641000  1.0
  H  H17  1  0.48569000  0.33306000  0.25618000  1.0
  H  H18  1  0.75064000  0.57123000  0.09181000  1.0
  H  H19  1  0.77035000  0.48220000  0.09197000  1.0
  H  H20  1  0.18253000  0.40590000  0.24322000  1.0
  H  H21  1  0.22686000  0.40941000  0.01669000  1.0
  H  H22  1  0.82026000  0.25777000  0.00559000  1.0
  H  H23  1  0.80634000  0.25807000  0.09433000  1.0
  H  H24  1  0.78158000  0.18524000  0.23863000  1.0
  H  H25  1  0.18901000  0.16822000  0.40362000  1.0
  H  H26  1  0.18274000  0.25850000  0.31578000  1.0
  H  H27  1  0.50419000  0.57729000  0.50023000  1.0
  H  H28  1  0.52011000  0.75563000  0.41031000  1.0
  H  H29  1  0.52296000  0.66768000  0.58851000  1.0
  H  H30  1  0.26132000  0.42885000  0.66370000  1.0
  H  H31  1  0.24313000  0.51724000  0.57477000  1.0
  H  H32  1  0.81841000  0.59562000  0.64746000  1.0
  H  H33  1  0.76261000  0.58941000  0.42486000  1.0
  H  H34  1  0.17361000  0.74220000  0.26507000  1.0
  H  H35  1  0.19393000  0.74190000  0.35407000  1.0
  H  H36  1  0.22762000  0.81467000  0.42378000  1.0
  H  H37  1  0.80433000  0.83341000  0.57014000  1.0
  H  H38  1  0.81486000  0.74268000  0.57308000  1.0
  C  C39  1  0.50373000  0.92757000  0.49798000  1.0
  C  C40  1  0.49352000  0.99847000  0.57489000  1.0
  C  C41  1  0.49699000  0.07399000  0.42598000  1.0
  C  C42  1  0.55239000  0.26102000  0.83139000  1.0
  C  C43  1  0.54391000  0.33307000  0.90727000  1.0
  C  C44  1  0.55292000  0.40885000  0.75988000  1.0
  C  C45  1  0.45067000  0.74076000  0.09291000  1.0
  C  C46  1  0.45130000  0.59293000  0.16714000  1.0
  C  C47  1  0.44609000  0.66670000  0.24065000  1.0
  C  C48  1  0.47643000  0.94954000  0.88450000  1.0
  C  C49  1  0.48787000  0.00043000  0.88357000  1.0
  C  C50  1  0.50214000  0.05095000  0.83353000  1.0
  C  C51  1  0.50140000  0.04997000  0.78361000  1.0
  C  C52  1  0.49210000  0.99978000  0.78313000  1.0
  C  C53  1  0.48183000  0.94992000  0.83392000  1.0
  C  C54  1  0.37425000  0.16068000  0.87527000  1.0
  C  C55  1  0.36190000  0.11039000  0.87573000  1.0
  C  C56  1  0.51404000  0.10423000  0.83333000  1.0
  C  C57  1  0.67781000  0.15024000  0.79017000  1.0
  C  C58  1  0.68492000  0.20004000  0.79030000  1.0
  C  C59  1  0.53846000  0.20658000  0.83235000  1.0
  C  C60  1  0.61002000  0.89205000  0.98529000  1.0
  C  C61  1  0.59755000  0.84196000  0.03462000  1.0
  C  C62  1  0.44885000  0.79468000  0.03909000  1.0
  C  C63  1  0.29905000  0.79942000  0.99170000  1.0
  C  C64  1  0.30576000  0.84953000  0.94184000  1.0
  C  C65  1  0.46410000  0.89652000  0.93761000  1.0
  C  C66  1  0.33500000  0.95625000  0.72677000  1.0
  C  C67  1  0.33507000  0.95583000  0.67712000  1.0
  C  C68  1  0.49296000  0.99714000  0.62909000  1.0
  C  C69  1  0.65471000  0.03954000  0.63344000  1.0
  C  C70  1  0.65241000  0.04118000  0.68251000  1.0
  C  C71  1  0.49269000  0.99928000  0.73028000  1.0
  C  C72  1  0.50096000  0.33328000  0.11606000  1.0
  C  C73  1  0.49331000  0.38328000  0.11698000  1.0
  C  C74  1  0.48188000  0.38394000  0.16703000  1.0
  C  C75  1  0.47957000  0.33317000  0.21695000  1.0
  C  C76  1  0.48440000  0.28249000  0.21741000  1.0
  C  C77  1  0.49357000  0.28325000  0.16662000  1.0
  C  C78  1  0.62334000  0.53489000  0.12447000  1.0
  C  C79  1  0.63146000  0.48481000  0.12447000  1.0
  C  C80  1  0.47644000  0.43711000  0.16710000  1.0
  C  C81  1  0.31543000  0.44104000  0.21008000  1.0
  C  C82  1  0.31221000  0.49122000  0.20952000  1.0
  C  C83  1  0.46085000  0.53899000  0.16711000  1.0
  C  C84  1  0.36540000  0.37629000  0.01532000  1.0
  C  C85  1  0.38151000  0.37570000  0.96581000  1.0
  C  C86  1  0.53742000  0.33322000  0.96114000  1.0
  C  C87  1  0.68774000  0.29056000  0.00858000  1.0
  C  C88  1  0.67673000  0.29062000  0.05859000  1.0
  C  C89  1  0.51380000  0.33326000  0.06293000  1.0
  C  C90  1  0.64551000  0.18280000  0.27387000  1.0
  C  C91  1  0.64902000  0.13296000  0.32359000  1.0
  C  C92  1  0.48991000  0.12646000  0.37164000  1.0
  C  C93  1  0.32181000  0.17308000  0.36709000  1.0
  C  C94  1  0.32109000  0.22361000  0.31795000  1.0
  C  C95  1  0.48342000  0.22930000  0.27028000  1.0
  C  C96  1  0.50107000  0.66647000  0.44922000  1.0
  C  C97  1  0.50992000  0.61664000  0.49999000  1.0
  C  C98  1  0.52448000  0.61633000  0.55047000  1.0
  C  C99  1  0.52783000  0.66728000  0.54952000  1.0
  C  C100  1  0.52187000  0.71780000  0.49942000  1.0
  C  C101  1  0.51129000  0.71666000  0.44962000  1.0
  C  C102  1  0.38545000  0.46553000  0.65957000  1.0
  C  C103  1  0.37867000  0.51528000  0.60940000  1.0
  C  C104  1  0.53032000  0.56338000  0.60366000  1.0
  C  C105  1  0.68737000  0.56021000  0.65000000  1.0
  C  C106  1  0.68863000  0.51044000  0.69971000  1.0
  C  C107  1  0.54292000  0.46229000  0.70576000  1.0
  C  C108  1  0.62471000  0.62275000  0.39110000  1.0
  C  C109  1  0.60438000  0.62327000  0.34114000  1.0
  C  C110  1  0.44972000  0.66609000  0.29482000  1.0
  C  C111  1  0.30419000  0.70909000  0.30025000  1.0
  C  C112  1  0.31926000  0.70904000  0.35026000  1.0
  C  C113  1  0.48218000  0.66620000  0.39632000  1.0
  C  C114  1  0.36097000  0.81753000  0.45614000  1.0
  C  C115  1  0.35534000  0.86767000  0.45566000  1.0
  C  C116  1  0.51040000  0.87466000  0.49671000  1.0
  C  C117  1  0.67548000  0.82821000  0.53877000  1.0
  C  C118  1  0.67838000  0.77740000  0.54046000  1.0
  C  C119  1  0.52108000  0.77123000  0.49889000  1.0
  O  O120  1  0.26309000  0.06652000  0.46060000  1.0
  O  O121  1  0.26715000  0.96147000  0.47339000  1.0
  O  O122  1  0.25778000  0.97389000  0.56560000  1.0
  O  O123  1  0.73758000  0.04069000  0.43483000  1.0
  O  O124  1  0.72914000  0.02543000  0.54093000  1.0
  O  O125  1  0.73501000  0.93488000  0.52489000  1.0
  O  O126  1  0.31812000  0.39970000  0.79434000  1.0
  O  O127  1  0.32144000  0.29563000  0.80594000  1.0
  O  O128  1  0.31055000  0.30716000  0.89908000  1.0
  O  O129  1  0.79395000  0.37605000  0.76700000  1.0
  O  O130  1  0.78345000  0.35808000  0.87413000  1.0
  O  O131  1  0.79150000  0.26813000  0.85683000  1.0
  O  O132  1  0.20916000  0.64193000  0.23220000  1.0
  O  O133  1  0.21293000  0.73228000  0.12666000  1.0
  O  O134  1  0.21395000  0.62617000  0.14127000  1.0
  O  O135  1  0.68181000  0.69292000  0.20660000  1.0
  O  O136  1  0.68396000  0.60193000  0.19211000  1.0
  O  O137  1  0.68903000  0.70739000  0.10043000  1.0
  F  F138  1  0.84486000  0.24411000  0.74791000  1.0
  F  F139  1  0.74108000  0.83868000  0.08029000  1.0
  F  F140  1  0.17755000  0.91283000  0.67697000  1.0
  F  F141  1  0.15434000  0.49400000  0.25160000  1.0
  F  F142  1  0.23531000  0.41786000  0.92033000  1.0
  F  F143  1  0.81196000  0.08997000  0.32385000  1.0
  F  F144  1  0.84213000  0.50840000  0.74406000  1.0
  F  F145  1  0.74573000  0.58083000  0.33702000  1.0
  F  F146  1  0.19487000  0.91044000  0.41308000  1.0
