# generated using pymatgen
data_Zr6H24C50Cl5O32F
_symmetry_space_group_name_H-M   'P 1'
_cell_length_a   14.78790000
_cell_length_b   14.78802524
_cell_length_c   14.79010000
_cell_angle_alpha   90.01041372
_cell_angle_beta   119.88670000
_cell_angle_gamma   119.86736178
_symmetry_Int_Tables_number   1
_chemical_formula_structural   Zr6H24C50Cl5O32F
_chemical_formula_sum   'Zr6 H24 C50 Cl5 O32 F1'
_cell_volume   2295.30471863
_cell_formula_units_Z   1
loop_
 _symmetry_equiv_pos_site_id
 _symmetry_equiv_pos_as_xyz
  1  'x, y, z'
loop_
 _atom_site_type_symbol
 _atom_site_label
 _atom_site_symmetry_multiplicity
 _atom_site_fract_x
 _atom_site_fract_y
 _atom_site_fract_z
 _atom_site_occupancy
  Zr  Zr0  1  0.49620000  0.61771000  0.11737000  1.0
  Zr  Zr1  1  0.50269000  0.38182000  0.88214000  1.0
  Zr  Zr2  1  0.73693000  0.62016000  0.11988000  1.0
  Zr  Zr3  1  0.26009000  0.37907000  0.87919000  1.0
  Zr  Zr4  1  0.49765000  0.37891000  0.11821000  1.0
  Zr  Zr5  1  0.49732000  0.61772000  0.87842000  1.0
  H  H6  1  0.68435000  0.59326000  0.28097000  1.0
  H  H7  1  0.31365000  0.21766000  0.90624000  1.0
  H  H8  1  0.68841000  0.59498000  0.90719000  1.0
  H  H9  1  0.30858000  0.59213000  0.90337000  1.0
  H  H10  1  0.48730000  0.63908000  0.41310000  1.0
  H  H11  1  0.49720000  0.35377000  0.40776000  1.0
  H  H12  1  0.49083000  0.63298000  0.58465000  1.0
  H  H13  1  0.51020000  0.92391000  0.15021000  1.0
  H  H14  1  0.51259000  0.91576000  0.86110000  1.0
  H  H15  1  0.51394000  0.09565000  0.14476000  1.0
  H  H16  1  0.22233000  0.08319000  0.14805000  1.0
  H  H17  1  0.94398000  0.09430000  0.85803000  1.0
  H  H18  1  0.04496000  0.91422000  0.14043000  1.0
  H  H19  1  0.22225000  0.63566000  0.57111000  1.0
  H  H20  1  0.94375000  0.34990000  0.58609000  1.0
  H  H21  1  0.04503000  0.62865000  0.40248000  1.0
  H  H22  1  0.05562000  0.91763000  0.40705000  1.0
  H  H23  1  0.70530000  0.96583000  0.37596000  1.0
  H  H24  1  0.70715000  0.88007000  0.46067000  1.0
  H  H25  1  0.88222000  0.04948000  0.63091000  1.0
  H  H26  1  0.88037000  0.13520000  0.54623000  1.0
  H  H27  1  0.93251000  0.34860000  0.86061000  1.0
  H  H28  1  0.23502000  0.63974000  0.14761000  1.0
  H  H29  1  0.77330000  0.35891000  0.87097000  1.0
  C  C30  1  0.48971000  0.49643000  0.29830000  1.0
  C  C31  1  0.51032000  0.20110000  0.00237000  1.0
  C  C32  1  0.49585000  0.49449000  0.69394000  1.0
  C  C33  1  0.50438000  0.80559000  0.00308000  1.0
  C  C34  1  0.79905000  0.80591000  0.29809000  1.0
  C  C35  1  0.19234000  0.49292000  0.00054000  1.0
  C  C36  1  0.19958000  0.20066000  0.69433000  1.0
  C  C37  1  0.80938000  0.50270000  0.01016000  1.0
  C  C38  1  0.79795000  0.49234000  0.30005000  1.0
  C  C39  1  0.79776000  0.80729000  0.99926000  1.0
  C  C40  1  0.19538000  0.49492000  0.69033000  1.0
  C  C41  1  0.19566000  0.19838000  0.00327000  1.0
  C  C42  1  0.49503000  0.49071000  0.59236000  1.0
  C  C43  1  0.49106000  0.49587000  0.40003000  1.0
  C  C44  1  0.49751000  0.41139000  0.54184000  1.0
  C  C45  1  0.48986000  0.57571000  0.44960000  1.0
  C  C46  1  0.49524000  0.41475000  0.44646000  1.0
  C  C47  1  0.49174000  0.57217000  0.54421000  1.0
  C  C48  1  0.51346000  0.10148000  0.00016000  1.0
  C  C49  1  0.51030000  0.90952000  0.00513000  1.0
  C  C50  1  0.51382000  0.05016000  0.91961000  1.0
  C  C51  1  0.51157000  0.96005000  0.08636000  1.0
  C  C52  1  0.51252000  0.95525000  0.92314000  1.0
  C  C53  1  0.51336000  0.05465000  0.08308000  1.0
  C  C54  1  0.89555000  0.90888000  0.99622000  1.0
  C  C55  1  0.09327000  0.09866000  0.00310000  1.0
  C  C56  1  0.86751000  0.96070000  0.91565000  1.0
  C  C57  1  0.12289000  0.04844000  0.08355000  1.0
  C  C58  1  0.96605000  0.05462000  0.92004000  1.0
  C  C59  1  0.02474000  0.95519000  0.07922000  1.0
  C  C60  1  0.89556000  0.48689000  0.39940000  1.0
  C  C61  1  0.09308000  0.49276000  0.58846000  1.0
  C  C62  1  0.86740000  0.40717000  0.45202000  1.0
  C  C63  1  0.12279000  0.57203000  0.53708000  1.0
  C  C64  1  0.96584000  0.41089000  0.54543000  1.0
  C  C65  1  0.02472000  0.56811000  0.44408000  1.0
  C  C66  1  0.89934000  0.90678000  0.39746000  1.0
  C  C67  1  0.09951000  0.10149000  0.59323000  1.0
  C  C68  1  0.87274000  0.95820000  0.45017000  1.0
  C  C69  1  0.12415000  0.04764000  0.53836000  1.0
  C  C70  1  0.96974000  0.05192000  0.54438000  1.0
  C  C71  1  0.02889000  0.95433000  0.44434000  1.0
  C  C72  1  0.76742000  0.95393000  0.44864000  1.0
  C  C73  1  0.87718000  0.06012000  0.55536000  1.0
  C  C74  1  0.91309000  0.50414000  0.01366000  1.0
  C  C75  1  0.09347000  0.49399000  0.00391000  1.0
  C  C76  1  0.04510000  0.58403000  0.09255000  1.0
  C  C77  1  0.96311000  0.41396000  0.92523000  1.0
  C  C78  1  0.13351000  0.57811000  0.08702000  1.0
  C  C79  1  0.87527000  0.41983000  0.93101000  1.0
  Cl  Cl80  1  0.50335000  0.30646000  0.58954000  1.0
  Cl  Cl81  1  0.51410000  0.09553000  0.81194000  1.0
  Cl  Cl82  1  0.71516000  0.91591000  0.80702000  1.0
  Cl  Cl83  1  0.71503000  0.30121000  0.40973000  1.0
  Cl  Cl84  1  0.10932000  0.69360000  0.19958000  1.0
  O  O85  1  0.49129000  0.57446000  0.26045000  1.0
  O  O86  1  0.51092000  0.24396000  0.92776000  1.0
  O  O87  1  0.49998000  0.42158000  0.73830000  1.0
  O  O88  1  0.50028000  0.76483000  0.07823000  1.0
  O  O89  1  0.83662000  0.76540000  0.25958000  1.0
  O  O90  1  0.15412000  0.41733000  0.92218000  1.0
  O  O91  1  0.15928000  0.23715000  0.73350000  1.0
  O  O92  1  0.84170000  0.57862000  0.08413000  1.0
  O  O93  1  0.68088000  0.41770000  0.25823000  1.0
  O  O94  1  0.68083000  0.76358000  0.92259000  1.0
  O  O95  1  0.31080000  0.57313000  0.72986000  1.0
  O  O96  1  0.31101000  0.23534000  0.07901000  1.0
  O  O97  1  0.83817000  0.77038000  0.07754000  1.0
  O  O98  1  0.15909000  0.41909000  0.73104000  1.0
  O  O99  1  0.15941000  0.23793000  0.92624000  1.0
  O  O100  1  0.83850000  0.57215000  0.26486000  1.0
  O  O101  1  0.68332000  0.76645000  0.25986000  1.0
  O  O102  1  0.69492000  0.42596000  0.93189000  1.0
  O  O103  1  0.31597000  0.24122000  0.73547000  1.0
  O  O104  1  0.30842000  0.56975000  0.07622000  1.0
  O  O105  1  0.50160000  0.76445000  0.92511000  1.0
  O  O106  1  0.48912000  0.41961000  0.25803000  1.0
  O  O107  1  0.50501000  0.23557000  0.07769000  1.0
  O  O108  1  0.49360000  0.57132000  0.73024000  1.0
  O  O109  1  0.36205000  0.56530000  0.93019000  1.0
  O  O110  1  0.63458000  0.56821000  0.93363000  1.0
  O  O111  1  0.36595000  0.29774000  0.93311000  1.0
  O  O112  1  0.63112000  0.56650000  0.20088000  1.0
  O  O113  1  0.59887000  0.45118000  0.05058000  1.0
  O  O114  1  0.39820000  0.44887000  0.04811000  1.0
  O  O115  1  0.40049000  0.44979000  0.85094000  1.0
  O  O116  1  0.59582000  0.64794000  0.04800000  1.0
  F  F117  1  0.24581000  0.08611000  0.57727000  1.0
