# generated using pymatgen
data_LaH20C20N2(Cl2O3)3
_symmetry_space_group_name_H-M   'P 1'
_cell_length_a   10.08140000
_cell_length_b   13.05170000
_cell_length_c   13.66960000
_cell_angle_alpha   97.09450000
_cell_angle_beta   109.89600000
_cell_angle_gamma   95.58030000
_symmetry_Int_Tables_number   1
_chemical_formula_structural   LaH20C20N2(Cl2O3)3
_chemical_formula_sum   'La2 H40 C40 N4 Cl12 O18'
_cell_volume   1659.53240074
_cell_formula_units_Z   2
loop_
 _symmetry_equiv_pos_site_id
 _symmetry_equiv_pos_as_xyz
  1  'x, y, z'
loop_
 _atom_site_type_symbol
 _atom_site_label
 _atom_site_symmetry_multiplicity
 _atom_site_fract_x
 _atom_site_fract_y
 _atom_site_fract_z
 _atom_site_occupancy
  La  La0  1  0.03295000  0.11534000  0.13894000  1.0
  La  La1  1  0.96705000  0.88466000  0.86106000  1.0
  H  H2  1  0.40872000  0.40968000  0.28529000  1.0
  H  H3  1  0.59128000  0.59032000  0.71471000  1.0
  H  H4  1  0.35553000  0.28118000  0.30489000  1.0
  H  H5  1  0.64447000  0.71882000  0.69511000  1.0
  H  H6  1  0.39662000  0.38961000  0.40871000  1.0
  H  H7  1  0.60338000  0.61040000  0.59129000  1.0
  H  H8  1  0.25630000  0.57408000  0.44346000  1.0
  H  H9  1  0.74369000  0.42591000  0.55655000  1.0
  H  H10  1  0.22737000  0.63265000  0.32840000  1.0
  H  H11  1  0.77263000  0.36735000  0.67160000  1.0
  H  H12  1  0.36501000  0.55522000  0.36521000  1.0
  H  H13  1  0.63499000  0.44478000  0.63479000  1.0
  H  H14  1  0.94919000  0.42463000  0.18806000  1.0
  H  H15  1  0.05081000  0.57537000  0.81194000  1.0
  H  H16  1  0.99682000  0.56274000  0.23487000  1.0
  H  H17  1  0.00318000  0.43725000  0.76512000  1.0
  H  H18  1  0.95731000  0.47695000  0.31718000  1.0
  H  H19  1  0.04269000  0.52305000  0.68282000  1.0
  H  H20  1  0.69000000  0.28217000  0.09637000  1.0
  H  H21  1  0.31000000  0.71783000  0.90363000  1.0
  H  H22  1  0.70062000  0.34912000  0.22110000  1.0
  H  H23  1  0.29938000  0.65088000  0.77890000  1.0
  H  H24  1  0.54797000  0.25621000  0.14464000  1.0
  H  H25  1  0.45203000  0.74380000  0.85535000  1.0
  H  H26  1  0.59184000  0.27365000  0.32003000  1.0
  H  H27  1  0.40816000  0.72635000  0.67997000  1.0
  H  H28  1  0.66128000  0.20943000  0.43014000  1.0
  H  H29  1  0.33872000  0.79057000  0.56986000  1.0
  H  H30  1  0.51292000  0.14488000  0.31712000  1.0
  H  H31  1  0.48708000  0.85512000  0.68288000  1.0
  H  H32  1  0.73478000  0.99617000  0.29201000  1.0
  H  H33  1  0.26522000  0.00383000  0.70799000  1.0
  H  H34  1  0.77078000  0.06717000  0.42089000  1.0
  H  H35  1  0.22922000  0.93284000  0.57911000  1.0
  H  H36  1  0.89752000  0.08292000  0.35808000  1.0
  H  H37  1  0.10248000  0.91708000  0.64192000  1.0
  H  H38  1  0.00601000  0.96239000  0.27709000  1.0
  H  H39  1  0.99399000  0.03761000  0.72290000  1.0
  H  H40  1  0.97759000  0.87396000  0.17695000  1.0
  H  H41  1  0.02241000  0.12604000  0.82305000  1.0
  C  C42  1  0.99725000  0.27690000  0.93537000  1.0
  C  C43  1  0.00276000  0.72310000  0.06463000  1.0
  C  C44  1  0.99805000  0.39217000  0.97036000  1.0
  C  C45  1  0.00195000  0.60783000  0.02965000  1.0
  C  C46  1  0.12782000  0.45903000  0.02001000  1.0
  C  C47  1  0.87218000  0.54097000  0.98000000  1.0
  C  C48  1  0.87032000  0.43374000  0.95068000  1.0
  C  C49  1  0.12968000  0.56626000  0.04932000  1.0
  C  C50  1  0.22099000  0.05667000  0.38581000  1.0
  C  C51  1  0.77901000  0.94333000  0.61419000  1.0
  C  C52  1  0.36556000  0.02834000  0.44672000  1.0
  C  C53  1  0.63444000  0.97166000  0.55328000  1.0
  C  C54  1  0.47243000  0.10096000  0.52369000  1.0
  C  C55  1  0.52757000  0.89904000  0.47632000  1.0
  C  C56  1  0.60653000  0.07334000  0.57572000  1.0
  C  C57  1  0.39347000  0.92666000  0.42429000  1.0
  C  C58  1  0.73064000  0.92681000  0.94113000  1.0
  C  C59  1  0.26936000  0.07319000  0.05887000  1.0
  C  C60  1  0.60944000  0.96219000  0.97114000  1.0
  C  C61  1  0.39055000  0.03781000  0.02886000  1.0
  C  C62  1  0.56728000  0.91979000  0.04701000  1.0
  C  C63  1  0.43271000  0.08021000  0.95299000  1.0
  C  C64  1  0.54083000  0.04107000  0.92338000  1.0
  C  C65  1  0.45916000  0.95893000  0.07661000  1.0
  C  C66  1  0.19323000  0.37660000  0.28119000  1.0
  C  C67  1  0.80677000  0.62340000  0.71881000  1.0
  C  C68  1  0.34849000  0.36388000  0.32295000  1.0
  C  C69  1  0.65151000  0.63612000  0.67705000  1.0
  C  C70  1  0.25681000  0.56279000  0.36227000  1.0
  C  C71  1  0.74319000  0.43721000  0.63773000  1.0
  C  C72  1  0.00592000  0.48500000  0.25693000  1.0
  C  C73  1  0.99408000  0.51500000  0.74307000  1.0
  C  C74  1  0.73910000  0.18890000  0.21713000  1.0
  C  C75  1  0.26090000  0.81111000  0.78286000  1.0
  C  C76  1  0.66421000  0.27402000  0.16685000  1.0
  C  C77  1  0.33579000  0.72599000  0.83315000  1.0
  C  C78  1  0.61433000  0.19842000  0.34372000  1.0
  C  C79  1  0.38567000  0.80158000  0.65628000  1.0
  C  C80  1  0.78335000  0.07093000  0.34496000  1.0
  C  C81  1  0.21665000  0.92907000  0.65504000  1.0
  N  N82  1  0.15612000  0.47211000  0.29710000  1.0
  N  N83  1  0.84388000  0.52789000  0.70290000  1.0
  N  N84  1  0.71476000  0.15688000  0.29974000  1.0
  N  N85  1  0.28524000  0.84312000  0.70026000  1.0
  Cl  Cl86  1  0.28526000  0.40818000  0.04393000  1.0
  Cl  Cl87  1  0.71474000  0.59182000  0.95607000  1.0
  Cl  Cl88  1  0.71038000  0.35166000  0.88984000  1.0
  Cl  Cl89  1  0.28962000  0.64834000  0.11016000  1.0
  Cl  Cl90  1  0.43691000  0.22507000  0.55545000  1.0
  Cl  Cl91  1  0.56309000  0.77493000  0.44456000  1.0
  Cl  Cl92  1  0.73978000  0.16363000  0.66825000  1.0
  Cl  Cl93  1  0.26022000  0.83637000  0.33176000  1.0
  Cl  Cl94  1  0.64646000  0.81978000  0.10215000  1.0
  Cl  Cl95  1  0.35352000  0.18021000  0.89784000  1.0
  Cl  Cl96  1  0.59024000  0.08852000  0.82719000  1.0
  Cl  Cl97  1  0.40975000  0.91147000  0.17281000  1.0
  O  O98  1  0.98155000  0.21529000  0.99701000  1.0
  O  O99  1  0.01844000  0.78471000  0.00299000  1.0
  O  O100  1  0.01259000  0.25262000  0.84850000  1.0
  O  O101  1  0.98742000  0.74738000  0.15150000  1.0
  O  O102  1  0.21903000  0.10942000  0.31258000  1.0
  O  O103  1  0.78098000  0.89058000  0.68741000  1.0
  O  O104  1  0.11685000  0.02239000  0.40873000  1.0
  O  O105  1  0.88315000  0.97760000  0.59127000  1.0
  O  O106  1  0.85123000  0.98738000  0.98000000  1.0
  O  O107  1  0.14877000  0.01262000  0.02001000  1.0
  O  O108  1  0.71010000  0.84350000  0.87768000  1.0
  O  O109  1  0.28989000  0.15651000  0.12231000  1.0
  O  O110  1  0.09875000  0.29970000  0.23122000  1.0
  O  O111  1  0.90125000  0.70031000  0.76878000  1.0
  O  O112  1  0.82487000  0.14765000  0.18069000  1.0
  O  O113  1  0.17513000  0.85235000  0.81930000  1.0
  O  O114  1  0.97294000  0.94966000  0.19900000  1.0
  O  O115  1  0.02706000  0.05034000  0.80099000  1.0
