# generated using pymatgen
data_FePH5(CO3)2
_symmetry_space_group_name_H-M   'P 1'
_cell_length_a   4.85436000
_cell_length_b   7.97165902
_cell_length_c   16.90750000
_cell_angle_alpha   90.00006090
_cell_angle_beta   90.00010000
_cell_angle_gamma   72.85205807
_symmetry_Int_Tables_number   1
_chemical_formula_structural   FePH5(CO3)2
_chemical_formula_sum   'Fe4 P4 H20 C8 O24'
_cell_volume   625.18994106
_cell_formula_units_Z   4
loop_
 _symmetry_equiv_pos_site_id
 _symmetry_equiv_pos_as_xyz
  1  'x, y, z'
loop_
 _atom_site_type_symbol
 _atom_site_label
 _atom_site_symmetry_multiplicity
 _atom_site_fract_x
 _atom_site_fract_y
 _atom_site_fract_z
 _atom_site_occupancy
  Fe  Fe0  1  0.86957000  0.07273000  0.83918000  1.0
  Fe  Fe1  1  0.13042000  0.42728000  0.33918000  1.0
  Fe  Fe2  1  0.13042000  0.92727000  0.16082000  1.0
  Fe  Fe3  1  0.86957000  0.57273000  0.66082000  1.0
  P  P4  1  0.23302000  0.36103000  0.82208000  1.0
  P  P5  1  0.76698000  0.13897000  0.32208000  1.0
  P  P6  1  0.76698000  0.63897000  0.17792000  1.0
  P  P7  1  0.23301000  0.86103000  0.67792000  1.0
  H  H8  1  0.10973000  0.59527000  0.91504000  1.0
  H  H9  1  0.89027000  0.90473000  0.41504000  1.0
  H  H10  1  0.89027000  0.40473000  0.08496000  1.0
  H  H11  1  0.10973000  0.09527000  0.58496000  1.0
  H  H12  1  0.45438000  0.57050000  0.87108000  1.0
  H  H13  1  0.54562000  0.92950000  0.37109000  1.0
  H  H14  1  0.54562000  0.42950000  0.12892000  1.0
  H  H15  1  0.45438000  0.07050000  0.62892000  1.0
  H  H16  1  0.41858000  0.41891000  0.94597000  1.0
  H  H17  1  0.58141000  0.08109000  0.44597000  1.0
  H  H18  1  0.58141000  0.58109000  0.05403000  1.0
  H  H19  1  0.41858000  0.91891000  0.55403000  1.0
  H  H20  1  0.53192000  0.87674000  0.87653000  1.0
  H  H21  1  0.46807000  0.62326000  0.37653000  1.0
  H  H22  1  0.46807000  0.12326000  0.12347000  1.0
  H  H23  1  0.53192000  0.37674000  0.62347000  1.0
  H  H24  1  0.65819000  0.81223000  0.79193000  1.0
  H  H25  1  0.34180000  0.68778000  0.29193000  1.0
  H  H26  1  0.34180000  0.18777000  0.20807000  1.0
  H  H27  1  0.65819000  0.31223000  0.70807000  1.0
  C  C28  1  0.31183000  0.50017000  0.89613000  1.0
  C  C29  1  0.68817000  0.99983000  0.39613000  1.0
  C  C30  1  0.68817000  0.49983000  0.10387000  1.0
  C  C31  1  0.31182000  0.00017000  0.60387000  1.0
  C  C32  1  0.15329000  0.94361000  0.98957000  1.0
  C  C33  1  0.84673000  0.55639000  0.48957000  1.0
  C  C34  1  0.84672000  0.05639000  0.01043000  1.0
  C  C35  1  0.15329000  0.44361000  0.51043000  1.0
  O  O36  1  0.03743000  0.26300000  0.85976000  1.0
  O  O37  1  0.96257000  0.23700000  0.35976000  1.0
  O  O38  1  0.96257000  0.73700000  0.14024000  1.0
  O  O39  1  0.03743000  0.76300000  0.64024000  1.0
  O  O40  1  0.08043000  0.47976000  0.75315000  1.0
  O  O41  1  0.91959000  0.02022000  0.25315000  1.0
  O  O42  1  0.91958000  0.52023000  0.24685000  1.0
  O  O43  1  0.08042000  0.97977000  0.74685000  1.0
  O  O44  1  0.51965000  0.23252000  0.79004000  1.0
  O  O45  1  0.48035000  0.26748000  0.29004000  1.0
  O  O46  1  0.48035000  0.76748000  0.20996000  1.0
  O  O47  1  0.51965000  0.73252000  0.70996000  1.0
  O  O48  1  0.20757000  0.92009000  0.91638000  1.0
  O  O49  1  0.79245000  0.57990000  0.41637000  1.0
  O  O50  1  0.79245000  0.07990000  0.08363000  1.0
  O  O51  1  0.20757000  0.42009000  0.58362000  1.0
  O  O52  1  0.32392000  0.88345000  0.04583000  1.0
  O  O53  1  0.67611000  0.61654000  0.54583000  1.0
  O  O54  1  0.67611000  0.11654000  0.95417000  1.0
  O  O55  1  0.32392000  0.38346000  0.45417000  1.0
  O  O56  1  0.70975000  0.85542000  0.84354000  1.0
  O  O57  1  0.29023000  0.64459000  0.34354000  1.0
  O  O58  1  0.29023000  0.14459000  0.15646000  1.0
  O  O59  1  0.70975000  0.35542000  0.65646000  1.0
