# generated using pymatgen
data_Zn3H16C28(NO7)2
_symmetry_space_group_name_H-M   'P 1'
_cell_length_a   8.92816000
_cell_length_b   9.59528864
_cell_length_c   9.96840000
_cell_angle_alpha   63.11792979
_cell_angle_beta   74.01400000
_cell_angle_gamma   64.10763328
_symmetry_Int_Tables_number   1
_chemical_formula_structural   Zn3H16C28(NO7)2
_chemical_formula_sum   'Zn3 H16 C28 N2 O14'
_cell_volume   681.99087587
_cell_formula_units_Z   1
loop_
 _symmetry_equiv_pos_site_id
 _symmetry_equiv_pos_as_xyz
  1  'x, y, z'
loop_
 _atom_site_type_symbol
 _atom_site_label
 _atom_site_symmetry_multiplicity
 _atom_site_fract_x
 _atom_site_fract_y
 _atom_site_fract_z
 _atom_site_occupancy
  Zn  Zn0  1  0.50001000  0.50000000  0.49999000  1.0
  Zn  Zn1  1  0.39963000  0.39964000  0.16282000  1.0
  Zn  Zn2  1  0.60038000  0.60036000  0.83718000  1.0
  H  H3  1  0.14980000  0.31535000  0.81793000  1.0
  H  H4  1  0.85020000  0.68466000  0.18207000  1.0
  H  H5  1  0.92290000  0.16798000  0.27798000  1.0
  H  H6  1  0.07710000  0.83203000  0.72201000  1.0
  H  H7  1  0.93058000  0.21118000  0.00846000  1.0
  H  H8  1  0.06941000  0.78883000  0.99154000  1.0
  H  H9  1  0.35732000  0.02918000  0.43424000  1.0
  H  H10  1  0.64267000  0.97082000  0.56575000  1.0
  H  H11  1  0.05383000  0.13305000  0.81885000  1.0
  H  H12  1  0.94617000  0.86695000  0.18115000  1.0
  H  H13  1  0.87155000  0.42190000  0.38006000  1.0
  H  H14  1  0.12844000  0.57810000  0.61994000  1.0
  H  H15  1  0.58765000  0.22844000  0.45830000  1.0
  H  H16  1  0.41235000  0.77155000  0.54170000  1.0
  H  H17  1  0.55010000  0.19728000  0.63331000  1.0
  H  H18  1  0.44989000  0.80272000  0.36669000  1.0
  C  C19  1  0.24773000  0.32939000  0.98302000  1.0
  C  C20  1  0.75227000  0.67061000  0.01699000  1.0
  C  C21  1  0.12752000  0.24987000  0.23081000  1.0
  C  C22  1  0.87248000  0.75013000  0.76919000  1.0
  C  C23  1  0.14000000  0.29411000  0.93621000  1.0
  C  C24  1  0.86000000  0.70590000  0.06378000  1.0
  C  C25  1  0.01373000  0.21382000  0.19078000  1.0
  C  C26  1  0.98627000  0.78618000  0.80922000  1.0
  C  C27  1  0.02014000  0.23535000  0.04225000  1.0
  C  C28  1  0.97986000  0.76466000  0.95774000  1.0
  C  C29  1  0.36813000  0.40892000  0.86995000  1.0
  C  C30  1  0.63188000  0.59107000  0.13006000  1.0
  C  C31  1  0.11652000  0.22678000  0.38986000  1.0
  C  C32  1  0.88349000  0.77321000  0.61014000  1.0
  C  C33  1  0.21763000  0.06340000  0.63817000  1.0
  C  C34  1  0.78238000  0.93659000  0.36183000  1.0
  C  C35  1  0.24195000  0.10094000  0.48268000  1.0
  C  C36  1  0.75804000  0.89906000  0.51732000  1.0
  C  C37  1  0.07212000  0.16300000  0.69795000  1.0
  C  C38  1  0.92788000  0.83700000  0.30205000  1.0
  C  C39  1  0.95034000  0.29582000  0.60393000  1.0
  C  C40  1  0.04965000  0.70418000  0.39607000  1.0
  C  C41  1  0.97042000  0.32298000  0.45109000  1.0
  C  C42  1  0.02958000  0.67702000  0.54891000  1.0
  C  C43  1  0.79989000  0.41503000  0.65886000  1.0
  C  C44  1  0.20010000  0.58497000  0.34114000  1.0
  C  C45  1  0.34142000  0.91320000  0.74229000  1.0
  C  C46  1  0.65859000  0.08679000  0.25772000  1.0
  N  N47  1  0.24288000  0.30620000  0.12806000  1.0
  N  N48  1  0.75711000  0.69381000  0.87195000  1.0
  O  O49  1  0.43470000  0.46743000  0.92115000  1.0
  O  O50  1  0.56531000  0.53257000  0.07885000  1.0
  O  O51  1  0.38783000  0.41615000  0.73742000  1.0
  O  O52  1  0.61217000  0.58385000  0.26259000  1.0
  O  O53  1  0.44297000  0.79841000  0.68708000  1.0
  O  O54  1  0.55703000  0.20158000  0.31292000  1.0
  O  O55  1  0.34328000  0.90040000  0.87154000  1.0
  O  O56  1  0.65672000  0.09960000  0.12846000  1.0
  O  O57  1  0.79977000  0.41632000  0.78661000  1.0
  O  O58  1  0.20023000  0.58369000  0.21339000  1.0
  O  O59  1  0.68272000  0.51733000  0.57410000  1.0
  O  O60  1  0.31728000  0.48267000  0.42590000  1.0
  O  O61  1  0.61450000  0.24552000  0.54061000  1.0
  O  O62  1  0.38549000  0.75448000  0.45939000  1.0
