# generated using pymatgen
data_CdH14C26(NO)4
_symmetry_space_group_name_H-M   'P 1'
_cell_length_a   7.17628000
_cell_length_b   12.52110000
_cell_length_c   12.52110000
_cell_angle_alpha   66.95700000
_cell_angle_beta   80.21580000
_cell_angle_gamma   80.21570000
_symmetry_Int_Tables_number   1
_chemical_formula_structural   CdH14C26(NO)4
_chemical_formula_sum   'Cd2 H28 C52 N8 O8'
_cell_volume   1013.59782036
_cell_formula_units_Z   2
loop_
 _symmetry_equiv_pos_site_id
 _symmetry_equiv_pos_as_xyz
  1  'x, y, z'
loop_
 _atom_site_type_symbol
 _atom_site_label
 _atom_site_symmetry_multiplicity
 _atom_site_fract_x
 _atom_site_fract_y
 _atom_site_fract_z
 _atom_site_occupancy
  Cd  Cd0  1  0.75000000  0.40909000  0.59091000  1.0
  Cd  Cd1  1  0.25000000  0.59091000  0.40909000  1.0
  H  H2  1  0.79428000  0.31344000  0.28176000  1.0
  H  H3  1  0.70573000  0.71824000  0.68657000  1.0
  H  H4  1  0.20572000  0.68657000  0.71824000  1.0
  H  H5  1  0.29428000  0.28176000  0.31343000  1.0
  H  H6  1  0.63358000  0.81719000  0.28783000  1.0
  H  H7  1  0.86643000  0.71217000  0.18281000  1.0
  H  H8  1  0.36643000  0.18281000  0.71217000  1.0
  H  H9  1  0.13357000  0.28783000  0.81719000  1.0
  H  H10  1  0.46569000  0.17716000  0.12604000  1.0
  H  H11  1  0.03432000  0.87396000  0.82283000  1.0
  H  H12  1  0.53431000  0.82284000  0.87396000  1.0
  H  H13  1  0.96569000  0.12604000  0.17716000  1.0
  H  H14  1  0.10423000  0.61261000  0.12971000  1.0
  H  H15  1  0.39576000  0.87029000  0.38740000  1.0
  H  H16  1  0.89577000  0.38740000  0.87029000  1.0
  H  H17  1  0.60423000  0.12971000  0.61260000  1.0
  H  H18  1  0.80119000  0.30524000  0.08470000  1.0
  H  H19  1  0.69881000  0.91529000  0.69476000  1.0
  H  H20  1  0.19881000  0.69476000  0.91529000  1.0
  H  H21  1  0.30119000  0.08470000  0.30524000  1.0
  H  H22  1  0.36211000  0.39063000  0.01477000  1.0
  H  H23  1  0.13789000  0.98523000  0.60937000  1.0
  H  H24  1  0.63789000  0.60937000  0.98523000  1.0
  H  H25  1  0.86211000  0.01478000  0.39063000  1.0
  H  H26  1  0.47793000  0.47775000  0.80014000  1.0
  H  H27  1  0.02208000  0.19986000  0.52224000  1.0
  H  H28  1  0.52207000  0.52225000  0.19986000  1.0
  H  H29  1  0.97792000  0.80014000  0.47775000  1.0
  C  C30  1  0.68924000  0.03021000  0.03249000  1.0
  C  C31  1  0.81075000  0.96751000  0.96979000  1.0
  C  C32  1  0.31075000  0.96979000  0.96751000  1.0
  C  C33  1  0.18924000  0.03249000  0.03021000  1.0
  C  C34  1  0.68767000  0.21091000  0.85381000  1.0
  C  C35  1  0.81233000  0.14618000  0.78909000  1.0
  C  C36  1  0.31233000  0.78909000  0.14619000  1.0
  C  C37  1  0.18767000  0.85382000  0.21091000  1.0
  C  C38  1  0.86411000  0.37623000  0.20385000  1.0
  C  C39  1  0.63589000  0.79615000  0.62377000  1.0
  C  C40  1  0.13589000  0.62377000  0.79615000  1.0
  C  C41  1  0.36411000  0.20385000  0.37623000  1.0
  C  C42  1  0.93293000  0.47379000  0.33459000  1.0
  C  C43  1  0.56708000  0.66541000  0.52621000  1.0
  C  C44  1  0.06707000  0.52621000  0.66541000  1.0
  C  C45  1  0.43293000  0.33459000  0.47379000  1.0
  C  C46  1  0.62903000  0.15386000  0.97417000  1.0
  C  C47  1  0.87097000  0.02582000  0.84614000  1.0
  C  C48  1  0.37097000  0.84614000  0.02582000  1.0
  C  C49  1  0.12903000  0.97418000  0.15386000  1.0
  C  C50  1  0.68603000  0.86399000  0.19678000  1.0
  C  C51  1  0.81397000  0.80322000  0.13601000  1.0
  C  C52  1  0.31397000  0.13601000  0.80322000  1.0
  C  C53  1  0.18603000  0.19678000  0.86399000  1.0
  C  C54  1  0.94850000  0.46481000  0.21665000  1.0
  C  C55  1  0.55150000  0.78335000  0.53520000  1.0
  C  C56  1  0.05150000  0.53520000  0.78335000  1.0
  C  C57  1  0.44850000  0.21665000  0.46480000  1.0
  C  C58  1  0.51074000  0.22005000  0.03323000  1.0
  C  C59  1  0.98926000  0.96677000  0.77994000  1.0
  C  C60  1  0.48926000  0.77994000  0.96677000  1.0
  C  C61  1  0.01073000  0.03323000  0.22006000  1.0
  C  C62  1  0.04405000  0.54424000  0.00632000  1.0
  C  C63  1  0.45595000  0.99368000  0.45577000  1.0
  C  C64  1  0.95595000  0.45576000  0.99368000  1.0
  C  C65  1  0.54405000  0.00632000  0.54424000  1.0
  C  C66  1  0.03839000  0.54569000  0.11924000  1.0
  C  C67  1  0.46161000  0.88076000  0.45431000  1.0
  C  C68  1  0.96161000  0.45431000  0.88076000  1.0
  C  C69  1  0.53839000  0.11924000  0.54570000  1.0
  C  C70  1  0.86752000  0.37220000  0.09516000  1.0
  C  C71  1  0.63248000  0.90484000  0.62780000  1.0
  C  C72  1  0.13248000  0.62780000  0.90484000  1.0
  C  C73  1  0.36752000  0.09515000  0.37220000  1.0
  C  C74  1  0.45458000  0.33695000  0.97218000  1.0
  C  C75  1  0.04542000  0.02781000  0.66304000  1.0
  C  C76  1  0.54542000  0.66305000  0.02782000  1.0
  C  C77  1  0.95458000  0.97219000  0.33695000  1.0
  C  C78  1  0.51751000  0.38618000  0.85253000  1.0
  C  C79  1  0.98249000  0.14747000  0.61381000  1.0
  C  C80  1  0.48249000  0.61382000  0.14747000  1.0
  C  C81  1  0.01751000  0.85254000  0.38618000  1.0
  N  N82  1  0.62494000  0.97668000  0.14638000  1.0
  N  N83  1  0.87506000  0.85362000  0.02332000  1.0
  N  N84  1  0.37506000  0.02332000  0.85362000  1.0
  N  N85  1  0.12493000  0.14638000  0.97668000  1.0
  N  N86  1  0.63088000  0.32486000  0.79567000  1.0
  N  N87  1  0.86912000  0.20432000  0.67513000  1.0
  N  N88  1  0.36912000  0.67514000  0.20433000  1.0
  N  N89  1  0.13087000  0.79568000  0.32486000  1.0
  O  O90  1  0.86904000  0.38778000  0.42155000  1.0
  O  O91  1  0.63096000  0.57844000  0.61222000  1.0
  O  O92  1  0.13096000  0.61222000  0.57845000  1.0
  O  O93  1  0.36904000  0.42155000  0.38778000  1.0
  O  O94  1  0.97720000  0.56536000  0.33943000  1.0
  O  O95  1  0.52280000  0.66057000  0.43464000  1.0
  O  O96  1  0.02280000  0.43464000  0.66057000  1.0
  O  O97  1  0.47720000  0.33943000  0.56536000  1.0
