# generated using pymatgen
data_ZnH8C14(ClO2)2
_symmetry_space_group_name_H-M   'P 1'
_cell_length_a   7.14055000
_cell_length_b   10.34710000
_cell_length_c   19.09100000
_cell_angle_alpha   90.00000000
_cell_angle_beta   95.70270000
_cell_angle_gamma   90.00000000
_symmetry_Int_Tables_number   1
_chemical_formula_structural   ZnH8C14(ClO2)2
_chemical_formula_sum   'Zn4 H32 C56 Cl8 O16'
_cell_volume   1403.53833928
_cell_formula_units_Z   4
loop_
 _symmetry_equiv_pos_site_id
 _symmetry_equiv_pos_as_xyz
  1  'x, y, z'
loop_
 _atom_site_type_symbol
 _atom_site_label
 _atom_site_symmetry_multiplicity
 _atom_site_fract_x
 _atom_site_fract_y
 _atom_site_fract_z
 _atom_site_occupancy
  Zn  Zn0  1  0.75007000  0.96162000  0.51278000  1.0
  Zn  Zn1  1  0.24992000  0.46163000  0.98723000  1.0
  Zn  Zn2  1  0.24993000  0.03839000  0.48723000  1.0
  Zn  Zn3  1  0.75007000  0.53839000  0.01277000  1.0
  H  H4  1  0.91506000  0.21330000  0.21185000  1.0
  H  H5  1  0.08495000  0.71330000  0.28815000  1.0
  H  H6  1  0.08493000  0.78667000  0.78815000  1.0
  H  H7  1  0.91506000  0.28667000  0.71185000  1.0
  H  H8  1  0.64569000  0.58902000  0.59872000  1.0
  H  H9  1  0.35431000  0.08902000  0.90128000  1.0
  H  H10  1  0.35435000  0.41099000  0.40129000  1.0
  H  H11  1  0.64565000  0.91099000  0.09871000  1.0
  H  H12  1  0.65914000  0.34831000  0.15409000  1.0
  H  H13  1  0.34088000  0.84830000  0.34592000  1.0
  H  H14  1  0.34085000  0.65167000  0.84590000  1.0
  H  H15  1  0.65913000  0.15167000  0.65409000  1.0
  H  H16  1  0.94734000  0.68954000  0.64618000  1.0
  H  H17  1  0.05267000  0.18954000  0.85382000  1.0
  H  H18  1  0.05270000  0.31047000  0.35382000  1.0
  H  H19  1  0.94731000  0.81047000  0.14617000  1.0
  H  H20  1  0.34444000  0.35338000  0.20226000  1.0
  H  H21  1  0.65559000  0.85336000  0.29775000  1.0
  H  H22  1  0.65556000  0.64660000  0.79773000  1.0
  H  H23  1  0.34442000  0.14662000  0.70226000  1.0
  H  H24  1  0.24955000  0.56882000  0.64324000  1.0
  H  H25  1  0.75045000  0.06882000  0.85676000  1.0
  H  H26  1  0.75049000  0.43119000  0.35676000  1.0
  H  H27  1  0.24952000  0.93118000  0.14323000  1.0
  H  H28  1  0.29937000  0.22584000  0.31003000  1.0
  H  H29  1  0.70064000  0.72582000  0.18998000  1.0
  H  H30  1  0.70062000  0.77416000  0.68997000  1.0
  H  H31  1  0.29936000  0.27418000  0.81002000  1.0
  H  H32  1  0.24480000  0.34906000  0.59037000  1.0
  H  H33  1  0.75520000  0.84907000  0.90963000  1.0
  H  H34  1  0.75523000  0.65094000  0.40964000  1.0
  H  H35  1  0.24478000  0.15093000  0.09036000  1.0
  C  C36  1  0.75179000  0.14398000  0.29272000  1.0
  C  C37  1  0.24822000  0.64397000  0.20728000  1.0
  C  C38  1  0.24820000  0.85602000  0.70728000  1.0
  C  C39  1  0.75179000  0.35602000  0.79272000  1.0
  C  C40  1  0.77598000  0.41180000  0.56967000  1.0
  C  C41  1  0.22401000  0.91180000  0.93032000  1.0
  C  C42  1  0.22404000  0.58821000  0.43034000  1.0
  C  C43  1  0.77597000  0.08821000  0.06967000  1.0
  C  C44  1  0.77933000  0.21758000  0.23322000  1.0
  C  C45  1  0.22069000  0.71758000  0.26679000  1.0
  C  C46  1  0.22066000  0.78240000  0.76678000  1.0
  C  C47  1  0.77932000  0.28241000  0.73322000  1.0
  C  C48  1  0.77716000  0.53587000  0.59837000  1.0
  C  C49  1  0.22284000  0.03587000  0.90163000  1.0
  C  C50  1  0.22287000  0.46413000  0.40164000  1.0
  C  C51  1  0.77713000  0.96413000  0.09836000  1.0
  C  C52  1  0.63456000  0.29378000  0.20108000  1.0
  C  C53  1  0.36546000  0.79377000  0.29893000  1.0
  C  C54  1  0.36543000  0.70620000  0.79892000  1.0
  C  C55  1  0.63455000  0.20621000  0.70108000  1.0
  C  C56  1  0.94720000  0.59187000  0.62495000  1.0
  C  C57  1  0.05280000  0.09189000  0.87505000  1.0
  C  C58  1  0.05283000  0.40814000  0.37505000  1.0
  C  C59  1  0.94717000  0.90812000  0.12495000  1.0
  C  C60  1  0.45966000  0.29624000  0.22799000  1.0
  C  C61  1  0.54036000  0.79622000  0.27202000  1.0
  C  C62  1  0.54033000  0.70374000  0.77200000  1.0
  C  C63  1  0.45965000  0.20376000  0.72799000  1.0
  C  C64  1  0.11640000  0.52512000  0.62269000  1.0
  C  C65  1  0.88359000  0.02513000  0.87731000  1.0
  C  C66  1  0.88363000  0.47489000  0.37731000  1.0
  C  C67  1  0.11638000  0.97488000  0.12269000  1.0
  C  C68  1  0.43402000  0.22511000  0.28795000  1.0
  C  C69  1  0.56599000  0.72510000  0.21206000  1.0
  C  C70  1  0.56596000  0.77488000  0.71205000  1.0
  C  C71  1  0.43402000  0.27489000  0.78795000  1.0
  C  C72  1  0.11426000  0.40214000  0.59320000  1.0
  C  C73  1  0.88573000  0.90214000  0.90680000  1.0
  C  C74  1  0.88576000  0.59788000  0.40680000  1.0
  C  C75  1  0.11425000  0.09787000  0.09319000  1.0
  C  C76  1  0.57845000  0.14883000  0.32251000  1.0
  C  C77  1  0.42156000  0.64882000  0.17749000  1.0
  C  C78  1  0.42154000  0.85116000  0.67749000  1.0
  C  C79  1  0.57845000  0.35117000  0.82251000  1.0
  C  C80  1  0.94480000  0.34303000  0.56688000  1.0
  C  C81  1  0.05520000  0.84304000  0.93312000  1.0
  C  C82  1  0.05522000  0.65697000  0.43312000  1.0
  C  C83  1  0.94478000  0.15697000  0.06688000  1.0
  C  C84  1  0.53740000  0.08317000  0.38904000  1.0
  C  C85  1  0.46261000  0.58317000  0.11097000  1.0
  C  C86  1  0.46258000  0.91683000  0.61097000  1.0
  C  C87  1  0.53741000  0.41684000  0.88903000  1.0
  C  C88  1  0.95487000  0.20923000  0.53838000  1.0
  C  C89  1  0.04513000  0.70923000  0.96162000  1.0
  C  C90  1  0.04514000  0.79078000  0.46163000  1.0
  C  C91  1  0.95485000  0.29078000  0.03838000  1.0
  Cl  Cl92  1  0.94142000  0.05026000  0.32608000  1.0
  Cl  Cl93  1  0.05859000  0.55027000  0.17392000  1.0
  Cl  Cl94  1  0.05858000  0.94973000  0.67393000  1.0
  Cl  Cl95  1  0.94142000  0.44973000  0.82608000  1.0
  Cl  Cl96  1  0.56404000  0.34758000  0.53398000  1.0
  Cl  Cl97  1  0.43596000  0.84758000  0.96601000  1.0
  Cl  Cl98  1  0.43597000  0.65243000  0.46603000  1.0
  Cl  Cl99  1  0.56403000  0.15243000  0.03397000  1.0
  O  O100  1  0.64877000  0.99548000  0.41519000  1.0
  O  O101  1  0.35123000  0.49548000  0.08481000  1.0
  O  O102  1  0.35121000  0.00453000  0.58482000  1.0
  O  O103  1  0.64877000  0.50453000  0.91518000  1.0
  O  O104  1  0.83152000  0.12766000  0.55416000  1.0
  O  O105  1  0.16848000  0.62766000  0.94584000  1.0
  O  O106  1  0.16849000  0.87235000  0.44585000  1.0
  O  O107  1  0.83151000  0.37235000  0.05416000  1.0
  O  O108  1  0.38925000  0.12036000  0.41561000  1.0
  O  O109  1  0.61075000  0.62036000  0.08439000  1.0
  O  O110  1  0.61074000  0.87965000  0.58439000  1.0
  O  O111  1  0.38924000  0.37965000  0.91561000  1.0
  O  O112  1  0.08997000  0.18657000  0.50161000  1.0
  O  O113  1  0.91002000  0.68657000  0.99838000  1.0
  O  O114  1  0.91003000  0.81344000  0.49839000  1.0
  O  O115  1  0.08997000  0.31345000  0.00161000  1.0
