# generated using pymatgen
data_GdH9C9N4O7
_symmetry_space_group_name_H-M   'P 1'
_cell_length_a   7.59522000
_cell_length_b   7.84334000
_cell_length_c   11.34410000
_cell_angle_alpha   94.49980000
_cell_angle_beta   106.16200000
_cell_angle_gamma   90.35070000
_symmetry_Int_Tables_number   1
_chemical_formula_structural   GdH9C9N4O7
_chemical_formula_sum   'Gd2 H18 C18 N8 O14'
_cell_volume   646.80465943
_cell_formula_units_Z   2
loop_
 _symmetry_equiv_pos_site_id
 _symmetry_equiv_pos_as_xyz
  1  'x, y, z'
loop_
 _atom_site_type_symbol
 _atom_site_label
 _atom_site_symmetry_multiplicity
 _atom_site_fract_x
 _atom_site_fract_y
 _atom_site_fract_z
 _atom_site_occupancy
  Gd  Gd0  1  0.75172000  0.29047000  0.31977000  1.0
  Gd  Gd1  1  0.23973000  0.69029000  0.68041000  1.0
  H  H2  1  0.54923000  0.59264000  0.36796000  1.0
  H  H3  1  0.47101000  0.50915000  0.52842000  1.0
  H  H4  1  0.40124000  0.43320000  0.33232000  1.0
  H  H5  1  0.59154000  0.57703000  0.66283000  1.0
  H  H6  1  0.95416000  0.00571000  0.46413000  1.0
  H  H7  1  0.20626000  0.01333000  0.61473000  1.0
  H  H8  1  0.99219000  0.98975000  0.33440000  1.0
  H  H9  1  0.04385000  0.03668000  0.67916000  1.0
  H  H10  1  0.29748000  0.92337000  0.03069000  1.0
  H  H11  1  0.69957000  0.06655000  0.97614000  1.0
  H  H12  1  0.31816000  0.86850000  0.40882000  1.0
  H  H13  1  0.66219000  0.13352000  0.59658000  1.0
  H  H14  1  0.55318000  0.53210000  0.11939000  1.0
  H  H15  1  0.45604000  0.44272000  0.84781000  1.0
  H  H16  1  0.41929000  0.37298000  0.10601000  1.0
  H  H17  1  0.57684000  0.61211000  0.88769000  1.0
  H  H18  1  0.87679000  0.62457000  0.11695000  1.0
  H  H19  1  0.11737000  0.36347000  0.88482000  1.0
  C  C20  1  0.01041000  0.65311000  0.36258000  1.0
  C  C21  1  0.97400000  0.33863000  0.63921000  1.0
  C  C22  1  0.00200000  0.70361000  0.14610000  1.0
  C  C23  1  0.99098000  0.28587000  0.85698000  1.0
  C  C24  1  0.09020000  0.73407000  0.27181000  1.0
  C  C25  1  0.89816000  0.25785000  0.73162000  1.0
  C  C26  1  0.07546000  0.76989000  0.05847000  1.0
  C  C27  1  0.92019000  0.21964000  0.94602000  1.0
  C  C28  1  0.23766000  0.87045000  0.09735000  1.0
  C  C29  1  0.75701000  0.12011000  0.90855000  1.0
  C  C30  1  0.25008000  0.83895000  0.31093000  1.0
  C  C31  1  0.73547000  0.15794000  0.69399000  1.0
  C  C32  1  0.32199000  0.90835000  0.22322000  1.0
  C  C33  1  0.66754000  0.08725000  0.78277000  1.0
  C  C34  1  0.48192000  0.03342000  0.26092000  1.0
  C  C35  1  0.50189000  0.97072000  0.74230000  1.0
  C  C36  1  0.98331000  0.73382000  0.92776000  1.0
  C  C37  1  0.01562000  0.25818000  0.07620000  1.0
  N  N38  1  0.80934000  0.67224000  0.87998000  1.0
  N  N39  1  0.18805000  0.32488000  0.12036000  1.0
  N  N40  1  0.78283000  0.65629000  0.75790000  1.0
  N  N41  1  0.21797000  0.34615000  0.24271000  1.0
  N  N42  1  0.93145000  0.70671000  0.73154000  1.0
  N  N43  1  0.07330000  0.29360000  0.27301000  1.0
  N  N44  1  0.06069000  0.75615000  0.83623000  1.0
  N  N45  1  0.94315000  0.23762000  0.17041000  1.0
  O  O46  1  0.85444000  0.57643000  0.32143000  1.0
  O  O47  1  0.13111000  0.41359000  0.67974000  1.0
  O  O48  1  0.52816000  0.47703000  0.38810000  1.0
  O  O49  1  0.46288000  0.53817000  0.61331000  1.0
  O  O50  1  0.10490000  0.66523000  0.47424000  1.0
  O  O51  1  0.87903000  0.32616000  0.52799000  1.0
  O  O52  1  0.90152000  0.02726000  0.37645000  1.0
  O  O53  1  0.08384000  0.96835000  0.61585000  1.0
  O  O54  1  0.53056000  0.10585000  0.37046000  1.0
  O  O55  1  0.42616000  0.93498000  0.62649000  1.0
  O  O56  1  0.56067000  0.07128000  0.18008000  1.0
  O  O57  1  0.43929000  0.90547000  0.82241000  1.0
  O  O58  1  0.55135000  0.41074000  0.13156000  1.0
  O  O59  1  0.44757000  0.56579000  0.86393000  1.0
