# generated using pymatgen
data_AgH8C5BrN2
_symmetry_space_group_name_H-M   'P 1'
_cell_length_a   7.43201000
_cell_length_b   10.39550000
_cell_length_c   10.39550000
_cell_angle_alpha   87.85850000
_cell_angle_beta   76.33200000
_cell_angle_gamma   76.33400000
_symmetry_Int_Tables_number   1
_chemical_formula_structural   AgH8C5BrN2
_chemical_formula_sum   'Ag4 H32 C20 Br4 N8'
_cell_volume   758.16783107
_cell_formula_units_Z   4
loop_
 _symmetry_equiv_pos_site_id
 _symmetry_equiv_pos_as_xyz
  1  'x, y, z'
loop_
 _atom_site_type_symbol
 _atom_site_label
 _atom_site_symmetry_multiplicity
 _atom_site_fract_x
 _atom_site_fract_y
 _atom_site_fract_z
 _atom_site_occupancy
  Ag  Ag0  1  0.89004000  0.62835000  0.47089000  1.0
  Ag  Ag1  1  0.60995000  0.52910000  0.37164000  1.0
  Ag  Ag2  1  0.10997000  0.37165000  0.52911000  1.0
  Ag  Ag3  1  0.39006000  0.47090000  0.62836000  1.0
  H  H4  1  0.26051000  0.77763000  0.40383000  1.0
  H  H5  1  0.23947000  0.59618000  0.22237000  1.0
  H  H6  1  0.73949000  0.22237000  0.59617000  1.0
  H  H7  1  0.76054000  0.40382000  0.77763000  1.0
  H  H8  1  0.91433000  0.12892000  0.29454000  1.0
  H  H9  1  0.58565000  0.70545000  0.87106000  1.0
  H  H10  1  0.08566000  0.87107000  0.70546000  1.0
  H  H11  1  0.41436000  0.29455000  0.12894000  1.0
  H  H12  1  0.70598000  0.93421000  0.35041000  1.0
  H  H13  1  0.79401000  0.64958000  0.06576000  1.0
  H  H14  1  0.29402000  0.06577000  0.64959000  1.0
  H  H15  1  0.20600000  0.35042000  0.93424000  1.0
  H  H16  1  0.37785000  0.99171000  0.39055000  1.0
  H  H17  1  0.12212000  0.60946000  0.00830000  1.0
  H  H18  1  0.62213000  0.00830000  0.60946000  1.0
  H  H19  1  0.87789000  0.39054000  0.99169000  1.0
  H  H20  1  0.24089000  0.13741000  0.33712000  1.0
  H  H21  1  0.25909000  0.66288000  0.86259000  1.0
  H  H22  1  0.75910000  0.86260000  0.66287000  1.0
  H  H23  1  0.74092000  0.33713000  0.13740000  1.0
  H  H24  1  0.48007000  0.89758000  0.15618000  1.0
  H  H25  1  0.01991000  0.84382000  0.10242000  1.0
  H  H26  1  0.51992000  0.10242000  0.84382000  1.0
  H  H27  1  0.98009000  0.15618000  0.89758000  1.0
  H  H28  1  0.54191000  0.05168000  0.16466000  1.0
  H  H29  1  0.95808000  0.83534000  0.94832000  1.0
  H  H30  1  0.45808000  0.94832000  0.83534000  1.0
  H  H31  1  0.04192000  0.16466000  0.05168000  1.0
  H  H32  1  0.34206000  0.04459000  0.10206000  1.0
  H  H33  1  0.15793000  0.89794000  0.95541000  1.0
  H  H34  1  0.65793000  0.95541000  0.89794000  1.0
  H  H35  1  0.84207000  0.10207000  0.04460000  1.0
  C  C36  1  0.13738000  0.84303000  0.37824000  1.0
  C  C37  1  0.36259000  0.62177000  0.15697000  1.0
  C  C38  1  0.86261000  0.15697000  0.62176000  1.0
  C  C39  1  0.63742000  0.37823000  0.84303000  1.0
  C  C40  1  0.95443000  0.02604000  0.32112000  1.0
  C  C41  1  0.54556000  0.67888000  0.97395000  1.0
  C  C42  1  0.04556000  0.97396000  0.67889000  1.0
  C  C43  1  0.45445000  0.32112000  0.02605000  1.0
  C  C44  1  0.85320000  0.92936000  0.35038000  1.0
  C  C45  1  0.64679000  0.64961000  0.07062000  1.0
  C  C46  1  0.14679000  0.07063000  0.64962000  1.0
  C  C47  1  0.35322000  0.35039000  0.92938000  1.0
  C  C48  1  0.29688000  0.03086000  0.31615000  1.0
  C  C49  1  0.20310000  0.68385000  0.96914000  1.0
  C  C50  1  0.70311000  0.96914000  0.68385000  1.0
  C  C51  1  0.79691000  0.31616000  0.03086000  1.0
  C  C52  1  0.42198000  0.00407000  0.17651000  1.0
  C  C53  1  0.07801000  0.82349000  0.99593000  1.0
  C  C54  1  0.57801000  0.99593000  0.82349000  1.0
  C  C55  1  0.92200000  0.17651000  0.00407000  1.0
  Br  Br56  1  0.49790000  0.70863000  0.57991000  1.0
  Br  Br57  1  0.00211000  0.42008000  0.29138000  1.0
  Br  Br58  1  0.50210000  0.29137000  0.42009000  1.0
  Br  Br59  1  0.99790000  0.57992000  0.70862000  1.0
  N  N60  1  0.96896000  0.81566000  0.38607000  1.0
  N  N61  1  0.53103000  0.61394000  0.18433000  1.0
  N  N62  1  0.03104000  0.18433000  0.61394000  1.0
  N  N63  1  0.46898000  0.38607000  0.81567000  1.0
  N  N64  1  0.13452000  0.96936000  0.33894000  1.0
  N  N65  1  0.36546000  0.66107000  0.03064000  1.0
  N  N66  1  0.86547000  0.03064000  0.66107000  1.0
  N  N67  1  0.63455000  0.33894000  0.96936000  1.0
