# generated using pymatgen
data_SmH10C11NO7
_symmetry_space_group_name_H-M   'P 1'
_cell_length_a   8.39873000
_cell_length_b   9.07293000
_cell_length_c   10.50590000
_cell_angle_alpha   104.82400000
_cell_angle_beta   101.32100000
_cell_angle_gamma   95.65910000
_symmetry_Int_Tables_number   1
_chemical_formula_structural   SmH10C11NO7
_chemical_formula_sum   'Sm2 H20 C22 N2 O14'
_cell_volume   749.44460714
_cell_formula_units_Z   2
loop_
 _symmetry_equiv_pos_site_id
 _symmetry_equiv_pos_as_xyz
  1  'x, y, z'
loop_
 _atom_site_type_symbol
 _atom_site_label
 _atom_site_symmetry_multiplicity
 _atom_site_fract_x
 _atom_site_fract_y
 _atom_site_fract_z
 _atom_site_occupancy
  Sm  Sm0  1  0.41703000  0.29263000  0.03077000  1.0
  Sm  Sm1  1  0.58298000  0.70737000  0.96923000  1.0
  H  H2  1  0.74958000  0.18881000  0.37904000  1.0
  H  H3  1  0.25042000  0.81120000  0.62096000  1.0
  H  H4  1  0.65366000  0.29150000  0.58449000  1.0
  H  H5  1  0.34634000  0.70851000  0.41551000  1.0
  H  H6  1  0.76123000  0.75329000  0.55635000  1.0
  H  H7  1  0.23876000  0.24671000  0.44364000  1.0
  H  H8  1  0.86024000  0.65564000  0.35102000  1.0
  H  H9  1  0.13975000  0.34436000  0.64897000  1.0
  H  H10  1  0.94557000  0.15512000  0.28196000  1.0
  H  H11  1  0.05444000  0.84488000  0.71805000  1.0
  H  H12  1  0.99748000  0.18726000  0.13705000  1.0
  H  H13  1  0.00252000  0.81274000  0.86296000  1.0
  H  H14  1  0.99543000  0.39838000  0.08865000  1.0
  H  H15  1  0.00457000  0.60162000  0.91135000  1.0
  H  H16  1  0.03610000  0.55584000  0.23476000  1.0
  H  H17  1  0.96390000  0.44417000  0.76525000  1.0
  H  H18  1  0.55421000  0.15320000  0.78784000  1.0
  H  H19  1  0.44578000  0.84679000  0.21215000  1.0
  H  H20  1  0.53406000  0.32386000  0.77936000  1.0
  H  H21  1  0.46594000  0.67613000  0.22063000  1.0
  C  C22  1  0.81967000  0.41393000  0.34999000  1.0
  C  C23  1  0.18033000  0.58607000  0.65001000  1.0
  C  C24  1  0.75651000  0.31315000  0.41784000  1.0
  C  C25  1  0.24349000  0.68686000  0.58215000  1.0
  C  C26  1  0.70158000  0.37103000  0.53391000  1.0
  C  C27  1  0.29841000  0.62897000  0.46609000  1.0
  C  C28  1  0.70513000  0.53027000  0.58748000  1.0
  C  C29  1  0.29487000  0.46973000  0.41251000  1.0
  C  C30  1  0.76114000  0.62983000  0.51724000  1.0
  C  C31  1  0.23884000  0.37017000  0.48275000  1.0
  C  C32  1  0.81674000  0.57407000  0.40133000  1.0
  C  C33  1  0.18325000  0.42593000  0.59867000  1.0
  C  C34  1  0.65596000  0.59156000  0.71467000  1.0
  C  C35  1  0.34403000  0.40844000  0.28533000  1.0
  C  C36  1  0.90133000  0.19845000  0.19490000  1.0
  C  C37  1  0.09868000  0.80156000  0.80511000  1.0
  C  C38  1  0.74590000  0.08974000  0.10587000  1.0
  C  C39  1  0.25410000  0.91025000  0.89414000  1.0
  C  C40  1  0.93901000  0.46225000  0.16756000  1.0
  C  C41  1  0.06099000  0.53775000  0.83244000  1.0
  C  C42  1  0.81001000  0.53827000  0.09568000  1.0
  C  C43  1  0.18999000  0.46173000  0.90432000  1.0
  N  N44  1  0.88262000  0.35888000  0.23883000  1.0
  N  N45  1  0.11739000  0.64112000  0.76117000  1.0
  O  O46  1  0.62121000  0.14820000  0.06612000  1.0
  O  O47  1  0.37879000  0.85180000  0.93388000  1.0
  O  O48  1  0.75495000  0.94719000  0.07680000  1.0
  O  O49  1  0.24505000  0.05281000  0.92322000  1.0
  O  O50  1  0.65531000  0.48854000  0.07179000  1.0
  O  O51  1  0.34469000  0.51146000  0.92821000  1.0
  O  O52  1  0.86057000  0.65351000  0.05908000  1.0
  O  O53  1  0.13943000  0.34649000  0.94092000  1.0
  O  O54  1  0.60686000  0.49849000  0.77984000  1.0
  O  O55  1  0.39314000  0.50151000  0.22015000  1.0
  O  O56  1  0.66565000  0.73730000  0.76715000  1.0
  O  O57  1  0.33435000  0.26270000  0.23285000  1.0
  O  O58  1  0.48413000  0.23196000  0.80322000  1.0
  O  O59  1  0.51586000  0.76803000  0.19678000  1.0
