# generated using pymatgen
data_CoH8C4(ClO)2
_symmetry_space_group_name_H-M   'P 1'
_cell_length_a   6.43166000
_cell_length_b   8.02114000
_cell_length_c   8.04060000
_cell_angle_alpha   118.29400000
_cell_angle_beta   96.60790000
_cell_angle_gamma   96.37330000
_symmetry_Int_Tables_number   1
_chemical_formula_structural   CoH8C4(ClO)2
_chemical_formula_sum   'Co2 H16 C8 Cl4 O4'
_cell_volume   356.26565018
_cell_formula_units_Z   2
loop_
 _symmetry_equiv_pos_site_id
 _symmetry_equiv_pos_as_xyz
  1  'x, y, z'
loop_
 _atom_site_type_symbol
 _atom_site_label
 _atom_site_symmetry_multiplicity
 _atom_site_fract_x
 _atom_site_fract_y
 _atom_site_fract_z
 _atom_site_occupancy
  Co  Co0  1  0.24331000  0.04679000  0.94511000  1.0
  Co  Co1  1  0.74467000  0.94503000  0.04659000  1.0
  H  H2  1  0.04124000  0.29738000  0.79884000  1.0
  H  H3  1  0.46242000  0.20256000  0.70519000  1.0
  H  H4  1  0.96239000  0.70381000  0.20429000  1.0
  H  H5  1  0.54084000  0.80032000  0.29575000  1.0
  H  H6  1  0.80933000  0.10851000  0.67833000  1.0
  H  H7  1  0.69043000  0.32315000  0.89714000  1.0
  H  H8  1  0.19168000  0.89438000  0.32660000  1.0
  H  H9  1  0.31051000  0.68127000  0.10546000  1.0
  H  H10  1  0.85852000  0.78158000  0.52181000  1.0
  H  H11  1  0.63742000  0.47970000  0.21831000  1.0
  H  H12  1  0.14201000  0.21719000  0.48003000  1.0
  H  H13  1  0.36328000  0.52195000  0.78000000  1.0
  H  H14  1  0.12574000  0.73801000  0.52489000  1.0
  H  H15  1  0.37043000  0.48027000  0.26019000  1.0
  H  H16  1  0.87570000  0.26233000  0.47826000  1.0
  H  H17  1  0.63154000  0.52257000  0.74015000  1.0
  C  C18  1  0.02128000  0.83266000  0.51357000  1.0
  C  C19  1  0.47578000  0.48979000  0.16593000  1.0
  C  C20  1  0.97923000  0.16671000  0.48891000  1.0
  C  C21  1  0.52481000  0.51240000  0.83309000  1.0
  C  C22  1  0.97319000  0.15738000  0.67152000  1.0
  C  C23  1  0.52769000  0.33075000  0.84535000  1.0
  C  C24  1  0.02783000  0.84410000  0.33221000  1.0
  C  C25  1  0.47322000  0.67272000  0.15587000  1.0
  Cl  Cl26  1  0.48305000  0.11195000  0.22318000  1.0
  Cl  Cl27  1  0.01688000  0.76463000  0.88321000  1.0
  Cl  Cl28  1  0.51613000  0.88244000  0.76538000  1.0
  Cl  Cl29  1  0.98234000  0.22419000  0.11143000  1.0
  O  O30  1  0.10051000  0.02208000  0.67947000  1.0
  O  O31  1  0.39528000  0.32525000  0.97692000  1.0
  O  O32  1  0.89804000  0.97733000  0.32473000  1.0
  O  O33  1  0.60329000  0.67886000  0.02231000  1.0
