# generated using pymatgen
data_SrH14C4N8O5
_symmetry_space_group_name_H-M   'P 1'
_cell_length_a   7.18611000
_cell_length_b   11.31980000
_cell_length_c   13.82900000
_cell_angle_alpha   90.00000000
_cell_angle_beta   90.00010000
_cell_angle_gamma   90.00000000
_symmetry_Int_Tables_number   1
_chemical_formula_structural   SrH14C4N8O5
_chemical_formula_sum   'Sr4 H56 C16 N32 O20'
_cell_volume   1124.92454061
_cell_formula_units_Z   4
loop_
 _symmetry_equiv_pos_site_id
 _symmetry_equiv_pos_as_xyz
  1  'x, y, z'
loop_
 _atom_site_type_symbol
 _atom_site_label
 _atom_site_symmetry_multiplicity
 _atom_site_fract_x
 _atom_site_fract_y
 _atom_site_fract_z
 _atom_site_occupancy
  Sr  Sr0  1  0.50000000  0.58108000  0.63930000  1.0
  Sr  Sr1  1  0.50000000  0.41893000  0.36070000  1.0
  Sr  Sr2  1  0.00000000  0.91893000  0.13930000  1.0
  Sr  Sr3  1  0.00000000  0.08107000  0.86070000  1.0
  H  H4  1  0.62019000  0.47024000  0.90984000  1.0
  H  H5  1  0.62018000  0.52975000  0.09017000  1.0
  H  H6  1  0.87981000  0.02976000  0.40983000  1.0
  H  H7  1  0.87981000  0.97024000  0.59016000  1.0
  H  H8  1  0.37982000  0.52975000  0.09017000  1.0
  H  H9  1  0.37981000  0.47024000  0.90984000  1.0
  H  H10  1  0.12019000  0.97024000  0.59016000  1.0
  H  H11  1  0.12019000  0.02976000  0.40983000  1.0
  H  H12  1  0.62006000  0.92336000  0.56893000  1.0
  H  H13  1  0.62007000  0.07664000  0.43107000  1.0
  H  H14  1  0.87993000  0.57664000  0.06893000  1.0
  H  H15  1  0.87993000  0.42336000  0.93107000  1.0
  H  H16  1  0.37993000  0.07664000  0.43107000  1.0
  H  H17  1  0.37994000  0.92336000  0.56893000  1.0
  H  H18  1  0.12006000  0.42336000  0.93107000  1.0
  H  H19  1  0.12007000  0.57664000  0.06893000  1.0
  H  H20  1  0.84754000  0.53955000  0.77950000  1.0
  H  H21  1  0.84754000  0.46046000  0.22050000  1.0
  H  H22  1  0.65246000  0.96046000  0.27950000  1.0
  H  H23  1  0.65246000  0.03955000  0.72050000  1.0
  H  H24  1  0.15246000  0.46046000  0.22050000  1.0
  H  H25  1  0.15246000  0.53955000  0.77950000  1.0
  H  H26  1  0.34754000  0.03955000  0.72050000  1.0
  H  H27  1  0.34754000  0.96046000  0.27950000  1.0
  H  H28  1  0.83574000  0.41653000  0.72795000  1.0
  H  H29  1  0.83574000  0.58347000  0.27205000  1.0
  H  H30  1  0.66426000  0.08347000  0.22795000  1.0
  H  H31  1  0.66426000  0.91653000  0.77205000  1.0
  H  H32  1  0.16426000  0.58347000  0.27205000  1.0
  H  H33  1  0.16426000  0.41653000  0.72795000  1.0
  H  H34  1  0.33574000  0.91653000  0.77205000  1.0
  H  H35  1  0.33574000  0.08347000  0.22795000  1.0
  H  H36  1  0.15711000  0.75111000  0.58899000  1.0
  H  H37  1  0.15711000  0.24889000  0.41101000  1.0
  H  H38  1  0.34289000  0.74889000  0.08899000  1.0
  H  H39  1  0.34289000  0.25111000  0.91101000  1.0
  H  H40  1  0.84289000  0.24889000  0.41101000  1.0
  H  H41  1  0.84289000  0.75111000  0.58899000  1.0
  H  H42  1  0.65711000  0.25111000  0.91101000  1.0
  H  H43  1  0.65711000  0.74889000  0.08899000  1.0
  H  H44  1  0.15912000  0.75204000  0.70193000  1.0
  H  H45  1  0.15912000  0.24796000  0.29807000  1.0
  H  H46  1  0.34088000  0.74796000  0.20193000  1.0
  H  H47  1  0.34088000  0.25204000  0.79807000  1.0
  H  H48  1  0.84088000  0.24796000  0.29807000  1.0
  H  H49  1  0.84088000  0.75204000  0.70193000  1.0
  H  H50  1  0.65912000  0.25204000  0.79807000  1.0
  H  H51  1  0.65912000  0.74796000  0.20193000  1.0
  H  H52  1  0.17855000  0.55981000  0.47251000  1.0
  H  H53  1  0.17855000  0.44019000  0.52749000  1.0
  H  H54  1  0.32145000  0.94019000  0.97251000  1.0
  H  H55  1  0.32145000  0.05981000  0.02749000  1.0
  H  H56  1  0.82145000  0.44019000  0.52749000  1.0
  H  H57  1  0.82145000  0.55981000  0.47251000  1.0
  H  H58  1  0.67855000  0.05981000  0.02749000  1.0
  H  H59  1  0.67855000  0.94019000  0.97251000  1.0
  C  C60  1  0.50000000  0.63916000  0.91938000  1.0
  C  C61  1  0.50000000  0.36083000  0.08062000  1.0
  C  C62  1  0.00000000  0.86083000  0.41938000  1.0
  C  C63  1  0.00000000  0.13917000  0.58062000  1.0
  C  C64  1  0.50000000  0.51153000  0.94551000  1.0
  C  C65  1  0.50000000  0.48846000  0.05449000  1.0
  C  C66  1  0.00000000  0.98847000  0.44551000  1.0
  C  C67  1  0.00000000  0.01153000  0.55449000  1.0
  C  C68  1  0.50000000  0.84216000  0.44702000  1.0
  C  C69  1  0.50000000  0.15784000  0.55298000  1.0
  C  C70  1  0.00000000  0.65784000  0.94702000  1.0
  C  C71  1  0.00000000  0.34216000  0.05298000  1.0
  C  C72  1  0.50000000  0.93766000  0.52115000  1.0
  C  C73  1  0.50000000  0.06234000  0.47885000  1.0
  C  C74  1  0.00000000  0.56234000  0.02114000  1.0
  C  C75  1  0.00000000  0.43766000  0.97885000  1.0
  N  N76  1  0.50000000  0.72545000  0.46750000  1.0
  N  N77  1  0.50000000  0.27455000  0.53250000  1.0
  N  N78  1  0.00000000  0.77455000  0.96750000  1.0
  N  N79  1  0.00000000  0.22545000  0.03250000  1.0
  N  N80  1  0.50000000  0.67031000  0.38146000  1.0
  N  N81  1  0.50000000  0.32969000  0.61855000  1.0
  N  N82  1  0.00000000  0.82969000  0.88145000  1.0
  N  N83  1  0.00000000  0.17031000  0.11854000  1.0
  N  N84  1  0.50000000  0.74941000  0.31150000  1.0
  N  N85  1  0.50000000  0.25059000  0.68850000  1.0
  N  N86  1  0.00000000  0.75059000  0.81150000  1.0
  N  N87  1  0.00000000  0.24941000  0.18850000  1.0
  N  N88  1  0.50000000  0.85887000  0.35070000  1.0
  N  N89  1  0.50000000  0.14113000  0.64930000  1.0
  N  N90  1  0.00000000  0.64113000  0.85070000  1.0
  N  N91  1  0.00000000  0.35887000  0.14930000  1.0
  N  N92  1  0.50000000  0.72892000  0.98327000  1.0
  N  N93  1  0.50000000  0.27108000  0.01673000  1.0
  N  N94  1  0.00000000  0.77108000  0.48327000  1.0
  N  N95  1  0.00000000  0.22892000  0.51673000  1.0
  N  N96  1  0.50000000  0.82847000  0.92981000  1.0
  N  N97  1  0.50000000  0.17153000  0.07019000  1.0
  N  N98  1  0.00000000  0.67153000  0.42981000  1.0
  N  N99  1  0.00000000  0.32847000  0.57019000  1.0
  N  N100  1  0.50000000  0.79972000  0.83712000  1.0
  N  N101  1  0.50000000  0.20027000  0.16288000  1.0
  N  N102  1  0.00000000  0.70028000  0.33712000  1.0
  N  N103  1  0.00000000  0.29972000  0.66288000  1.0
  N  N104  1  0.50000000  0.68172000  0.82801000  1.0
  N  N105  1  0.50000000  0.31828000  0.17199000  1.0
  N  N106  1  0.00000000  0.81828000  0.32801000  1.0
  N  N107  1  0.00000000  0.18172000  0.67199000  1.0
  O  O108  1  0.76134000  0.48660000  0.74437000  1.0
  O  O109  1  0.76134000  0.51340000  0.25563000  1.0
  O  O110  1  0.73866000  0.01340000  0.24437000  1.0
  O  O111  1  0.73866000  0.98660000  0.75562000  1.0
  O  O112  1  0.23866000  0.51340000  0.25563000  1.0
  O  O113  1  0.23866000  0.48660000  0.74437000  1.0
  O  O114  1  0.26134000  0.98660000  0.75563000  1.0
  O  O115  1  0.26134000  0.01340000  0.24437000  1.0
  O  O116  1  0.24009000  0.73950000  0.64518000  1.0
  O  O117  1  0.24008000  0.26050000  0.35482000  1.0
  O  O118  1  0.25991000  0.76050000  0.14518000  1.0
  O  O119  1  0.25991000  0.23950000  0.85482000  1.0
  O  O120  1  0.75991000  0.26050000  0.35482000  1.0
  O  O121  1  0.75991000  0.73950000  0.64518000  1.0
  O  O122  1  0.74009000  0.23950000  0.85482000  1.0
  O  O123  1  0.74009000  0.76050000  0.14518000  1.0
  O  O124  1  0.26405000  0.50000000  0.50000000  1.0
  O  O125  1  0.23595000  0.00000000  0.00000000  1.0
  O  O126  1  0.73595000  0.50000000  0.50000000  1.0
  O  O127  1  0.76405000  0.00000000  0.00000000  1.0
