# generated using pymatgen
data_Cu2P2H42PtC38S2(IN)2
_symmetry_space_group_name_H-M   'P 1'
_cell_length_a   9.82478000
_cell_length_b   10.05950000
_cell_length_c   11.95580000
_cell_angle_alpha   85.46380000
_cell_angle_beta   72.63130000
_cell_angle_gamma   63.73040000
_symmetry_Int_Tables_number   1
_chemical_formula_structural   Cu2P2H42PtC38S2(IN)2
_chemical_formula_sum   'Cu2 P2 H42 Pt1 C38 S2 I2 N2'
_cell_volume   1009.32721684
_cell_formula_units_Z   1
loop_
 _symmetry_equiv_pos_site_id
 _symmetry_equiv_pos_as_xyz
  1  'x, y, z'
loop_
 _atom_site_type_symbol
 _atom_site_label
 _atom_site_symmetry_multiplicity
 _atom_site_fract_x
 _atom_site_fract_y
 _atom_site_fract_z
 _atom_site_occupancy
  Cu  Cu0  1  0.16162000  0.81739000  0.50933000  1.0
  Cu  Cu1  1  0.83838000  0.18261000  0.49067000  1.0
  P  P2  1  0.65003000  0.61109000  0.38200000  1.0
  P  P3  1  0.34997000  0.38891000  0.61801000  1.0
  H  H4  1  0.31048000  0.44800000  0.22127000  1.0
  H  H5  1  0.68952000  0.55200000  0.77873000  1.0
  H  H6  1  0.21046000  0.45853000  0.05232000  1.0
  H  H7  1  0.78954000  0.54147000  0.94768000  1.0
  H  H8  1  0.88107000  0.91822000  0.15182000  1.0
  H  H9  1  0.11893000  0.08178000  0.84818000  1.0
  H  H10  1  0.98502000  0.90791000  0.31869000  1.0
  H  H11  1  0.01499000  0.09209000  0.68131000  1.0
  H  H12  1  0.77854000  0.94479000  0.99693000  1.0
  H  H13  1  0.22147000  0.05522000  0.00307000  1.0
  H  H14  1  0.88153000  0.88452000  0.84543000  1.0
  H  H15  1  0.11847000  0.11549000  0.15457000  1.0
  H  H16  1  0.97532000  0.92938000  0.93326000  1.0
  H  H17  1  0.02468000  0.07062000  0.06674000  1.0
  H  H18  1  0.49055000  0.94415000  0.70120000  1.0
  H  H19  1  0.50944000  0.05585000  0.29880000  1.0
  H  H20  1  0.62018000  0.93268000  0.85120000  1.0
  H  H21  1  0.37982000  0.06732000  0.14880000  1.0
  H  H22  1  0.57275000  0.79947000  0.03346000  1.0
  H  H23  1  0.42726000  0.20053000  0.96654000  1.0
  H  H24  1  0.39812000  0.67179000  0.06141000  1.0
  H  H25  1  0.60188000  0.32821000  0.93859000  1.0
  H  H26  1  0.27015000  0.68015000  0.90862000  1.0
  H  H27  1  0.72985000  0.31984000  0.09139000  1.0
  H  H28  1  0.69316000  0.71034000  0.19003000  1.0
  H  H29  1  0.30684000  0.28966000  0.80997000  1.0
  H  H30  1  0.48816000  0.74552000  0.25643000  1.0
  H  H31  1  0.51184000  0.25448000  0.74357000  1.0
  H  H32  1  0.63386000  0.56545000  0.19193000  1.0
  H  H33  1  0.36614000  0.43455000  0.80807000  1.0
  H  H34  1  0.92383000  0.56412000  0.29227000  1.0
  H  H35  1  0.07617000  0.43588000  0.70773000  1.0
  H  H36  1  0.89862000  0.39781000  0.29668000  1.0
  H  H37  1  0.10139000  0.60219000  0.70332000  1.0
  H  H38  1  0.89743000  0.47250000  0.42675000  1.0
  H  H39  1  0.10257000  0.52750000  0.57325000  1.0
  H  H40  1  0.64523000  0.76103000  0.53224000  1.0
  H  H41  1  0.35476000  0.23896000  0.46776000  1.0
  H  H42  1  0.48894000  0.86288000  0.46654000  1.0
  H  H43  1  0.51106000  0.13711000  0.53346000  1.0
  H  H44  1  0.69088000  0.83018000  0.39169000  1.0
  H  H45  1  0.30912000  0.16982000  0.60831000  1.0
  Pt  Pt46  1  0.50000000  0.50000000  0.50000000  1.0
  C  C47  1  0.32773000  0.60844000  0.42684000  1.0
  C  C48  1  0.67227000  0.39155000  0.57316000  1.0
  C  C49  1  0.22390000  0.66991000  0.37378000  1.0
  C  C50  1  0.77610000  0.33009000  0.62622000  1.0
  C  C51  1  0.15600000  0.67841000  0.28148000  1.0
  C  C52  1  0.84400000  0.32159000  0.71852000  1.0
  C  C53  1  0.21682000  0.55126000  0.20550000  1.0
  C  C54  1  0.78317000  0.44874000  0.79450000  1.0
  C  C55  1  0.16060000  0.55708000  0.11083000  1.0
  C  C56  1  0.83940000  0.44292000  0.88917000  1.0
  C  C57  1  0.03967000  0.68952000  0.08922000  1.0
  C  C58  1  0.96032000  0.31048000  0.91079000  1.0
  C  C59  1  0.97580000  0.81496000  0.16602000  1.0
  C  C60  1  0.02420000  0.18504000  0.83398000  1.0
  C  C61  1  0.03348000  0.80958000  0.26039000  1.0
  C  C62  1  0.96652000  0.19042000  0.73961000  1.0
  C  C63  1  0.89490000  0.88069000  0.93388000  1.0
  C  C64  1  0.10510000  0.11931000  0.06612000  1.0
  C  C65  1  0.29311000  0.82221000  0.71133000  1.0
  C  C66  1  0.70689000  0.17779000  0.28868000  1.0
  C  C67  1  0.37061000  0.81383000  0.79638000  1.0
  C  C68  1  0.62939000  0.18617000  0.20363000  1.0
  C  C69  1  0.46940000  0.88553000  0.78019000  1.0
  C  C70  1  0.53060000  0.11446000  0.21981000  1.0
  C  C71  1  0.54196000  0.87895000  0.86559000  1.0
  C  C72  1  0.45804000  0.12105000  0.13441000  1.0
  C  C73  1  0.51621000  0.80299000  0.96679000  1.0
  C  C74  1  0.48379000  0.19701000  0.03321000  1.0
  C  C75  1  0.41896000  0.73101000  0.98257000  1.0
  C  C76  1  0.58104000  0.26900000  0.01744000  1.0
  C  C77  1  0.34668000  0.73518000  0.89753000  1.0
  C  C78  1  0.65332000  0.26482000  0.10248000  1.0
  C  C79  1  0.61272000  0.66384000  0.24094000  1.0
  C  C80  1  0.38728000  0.33615000  0.75907000  1.0
  C  C81  1  0.86330000  0.50134000  0.34560000  1.0
  C  C82  1  0.13670000  0.49866000  0.65440000  1.0
  C  C83  1  0.61465000  0.78362000  0.44948000  1.0
  C  C84  1  0.38535000  0.21637000  0.55052000  1.0
  S  S85  1  0.98027000  0.68730000  0.96451000  1.0
  S  S86  1  0.01973000  0.31271000  0.03550000  1.0
  I  I87  1  0.84039000  0.92738000  0.60043000  1.0
  I  I88  1  0.15961000  0.07261000  0.39957000  1.0
  N  N89  1  0.22921000  0.83040000  0.64104000  1.0
  N  N90  1  0.77079000  0.16960000  0.35896000  1.0
