# generated using pymatgen
data_CdH10C16S2(N5Cl)2
_symmetry_space_group_name_H-M   'P 1'
_cell_length_a   5.64896000
_cell_length_b   8.11755000
_cell_length_c   12.04510000
_cell_angle_alpha   73.72100000
_cell_angle_beta   87.77630000
_cell_angle_gamma   89.88930000
_symmetry_Int_Tables_number   1
_chemical_formula_structural   CdH10C16S2(N5Cl)2
_chemical_formula_sum   'Cd1 H10 C16 S2 N10 Cl2'
_cell_volume   529.77015206
_cell_formula_units_Z   1
loop_
 _symmetry_equiv_pos_site_id
 _symmetry_equiv_pos_as_xyz
  1  'x, y, z'
loop_
 _atom_site_type_symbol
 _atom_site_label
 _atom_site_symmetry_multiplicity
 _atom_site_fract_x
 _atom_site_fract_y
 _atom_site_fract_z
 _atom_site_occupancy
  Cd  Cd0  1  0.00000000  0.00000000  0.00000000  1.0
  H  H1  1  0.17138000  0.19819000  0.70910000  1.0
  H  H2  1  0.82861000  0.80181000  0.29090000  1.0
  H  H3  1  0.73672000  0.27718000  0.23208000  1.0
  H  H4  1  0.26329000  0.72282000  0.76792000  1.0
  H  H5  1  0.56717000  0.88556000  0.82360000  1.0
  H  H6  1  0.43284000  0.11444000  0.17640000  1.0
  H  H7  1  0.63568000  0.10333000  0.43708000  1.0
  H  H8  1  0.36432000  0.89668000  0.56292000  1.0
  H  H9  1  0.08579000  0.47814000  0.19310000  1.0
  H  H10  1  0.91422000  0.52186000  0.80690000  1.0
  C  C11  1  0.00789000  0.12699000  0.71312000  1.0
  C  C12  1  0.99210000  0.87301000  0.28688000  1.0
  C  C13  1  0.84386000  0.28722000  0.30329000  1.0
  C  C14  1  0.15614000  0.71277000  0.69672000  1.0
  C  C15  1  0.69985000  0.96874000  0.76770000  1.0
  C  C16  1  0.30015000  0.03125000  0.23230000  1.0
  C  C17  1  0.49958000  0.77277000  0.04440000  1.0
  C  C18  1  0.50043000  0.22724000  0.95561000  1.0
  C  C19  1  0.78710000  0.19047000  0.41645000  1.0
  C  C20  1  0.21289000  0.80953000  0.58356000  1.0
  C  C21  1  0.93303000  0.21265000  0.50174000  1.0
  C  C22  1  0.06698000  0.78735000  0.49826000  1.0
  C  C23  1  0.16960000  0.40736000  0.37426000  1.0
  C  C24  1  0.83040000  0.59265000  0.62574000  1.0
  C  C25  1  0.03784000  0.39875000  0.28015000  1.0
  C  C26  1  0.96216000  0.60125000  0.71984000  1.0
  S  S27  1  0.25661000  0.70495000  0.00219000  1.0
  S  S28  1  0.74340000  0.29505000  0.99781000  1.0
  N  N29  1  0.89469000  0.03006000  0.80795000  1.0
  N  N30  1  0.10531000  0.96994000  0.19205000  1.0
  N  N31  1  0.88442000  0.12268000  0.61993000  1.0
  N  N32  1  0.11558000  0.87733000  0.38007000  1.0
  N  N33  1  0.68673000  0.02190000  0.65365000  1.0
  N  N34  1  0.31328000  0.97810000  0.34635000  1.0
  N  N35  1  0.12131000  0.31729000  0.48298000  1.0
  N  N36  1  0.87869000  0.68272000  0.51701000  1.0
  N  N37  1  0.67596000  0.82309000  0.07462000  1.0
  N  N38  1  0.32402000  0.17689000  0.92540000  1.0
  Cl  Cl39  1  0.41161000  0.54545000  0.34980000  1.0
  Cl  Cl40  1  0.58840000  0.45456000  0.65020000  1.0
