# generated using pymatgen
data_RbH19C24(NO3)4
_symmetry_space_group_name_H-M   'P 1'
_cell_length_a   11.30080000
_cell_length_b   11.47770000
_cell_length_c   12.14300000
_cell_angle_alpha   96.74310000
_cell_angle_beta   110.65200000
_cell_angle_gamma   114.22600000
_symmetry_Int_Tables_number   1
_chemical_formula_structural   RbH19C24(NO3)4
_chemical_formula_sum   'Rb2 H38 C48 N8 O24'
_cell_volume   1279.04026689
_cell_formula_units_Z   2
loop_
 _symmetry_equiv_pos_site_id
 _symmetry_equiv_pos_as_xyz
  1  'x, y, z'
loop_
 _atom_site_type_symbol
 _atom_site_label
 _atom_site_symmetry_multiplicity
 _atom_site_fract_x
 _atom_site_fract_y
 _atom_site_fract_z
 _atom_site_occupancy
  Rb  Rb0  1  0.99922000  0.07166000  0.16455000  1.0
  Rb  Rb1  1  0.00078000  0.92834000  0.83546000  1.0
  H  H2  1  0.66685000  0.30866000  0.51467000  1.0
  H  H3  1  0.33315000  0.69133000  0.48533000  1.0
  H  H4  1  0.41423000  0.19037000  0.34362000  1.0
  H  H5  1  0.58577000  0.80962000  0.65638000  1.0
  H  H6  1  0.57073000  0.08853000  0.09021000  1.0
  H  H7  1  0.42927000  0.91147000  0.90979000  1.0
  H  H8  1  0.82059000  0.20540000  0.25979000  1.0
  H  H9  1  0.17941000  0.79459000  0.74021000  1.0
  H  H10  1  0.66796000  0.57965000  0.75903000  1.0
  H  H11  1  0.33204000  0.42035000  0.24097000  1.0
  H  H12  1  0.48855000  0.41271000  0.55498000  1.0
  H  H13  1  0.51144000  0.58728000  0.44502000  1.0
  H  H14  1  0.14095000  0.39025000  0.64088000  1.0
  H  H15  1  0.85905000  0.60975000  0.35912000  1.0
  H  H16  1  0.31893000  0.55418000  0.84561000  1.0
  H  H17  1  0.68107000  0.44582000  0.15439000  1.0
  H  H18  1  0.24324000  0.19444000  0.81038000  1.0
  H  H19  1  0.75676000  0.80556000  0.18962000  1.0
  H  H20  1  0.11173000  0.06304000  0.58742000  1.0
  H  H21  1  0.88827000  0.93696000  0.41258000  1.0
  H  H22  1  0.50381000  0.07792000  0.59793000  1.0
  H  H23  1  0.49619000  0.92208000  0.40207000  1.0
  H  H24  1  0.63475000  0.20648000  0.82334000  1.0
  H  H25  1  0.36525000  0.79352000  0.17666000  1.0
  H  H26  1  0.70955000  0.50590000  0.95093000  1.0
  H  H27  1  0.29045000  0.49410000  0.04907000  1.0
  H  H28  1  0.79876000  0.35841000  0.04058000  1.0
  H  H29  1  0.20124000  0.64159000  0.95942000  1.0
  H  H30  1  0.21583000  0.70263000  0.27610000  1.0
  H  H31  1  0.78417000  0.29737000  0.72390000  1.0
  H  H32  1  0.13021000  0.85142000  0.18284000  1.0
  H  H33  1  0.86979000  0.14858000  0.81716000  1.0
  H  H34  1  0.96023000  0.30799000  0.46886000  1.0
  H  H35  1  0.03977000  0.69201000  0.53114000  1.0
  H  H36  1  0.46427000  0.29430000  0.99294000  1.0
  H  H37  1  0.53573000  0.70570000  0.00705000  1.0
  H  H38  1  0.75787000  0.72632000  0.97071000  1.0
  H  H39  1  0.24213000  0.27368000  0.02929000  1.0
  C  C40  1  0.75753000  0.26049000  0.39818000  1.0
  C  C41  1  0.24247000  0.73951000  0.60182000  1.0
  C  C42  1  0.64309000  0.25826000  0.42169000  1.0
  C  C43  1  0.35691000  0.74174000  0.57831000  1.0
  C  C44  1  0.50385000  0.19351000  0.32718000  1.0
  C  C45  1  0.49615000  0.80649000  0.67282000  1.0
  C  C46  1  0.47836000  0.13073000  0.20836000  1.0
  C  C47  1  0.52164000  0.86927000  0.79164000  1.0
  C  C48  1  0.59187000  0.13502000  0.18322000  1.0
  C  C49  1  0.40813000  0.86498000  0.81678000  1.0
  C  C50  1  0.73083000  0.19964000  0.27784000  1.0
  C  C51  1  0.26917000  0.80036000  0.72216000  1.0
  C  C52  1  0.50696000  0.57985000  0.81880000  1.0
  C  C53  1  0.49304000  0.42015000  0.18120000  1.0
  C  C54  1  0.55297000  0.53771000  0.73403000  1.0
  C  C55  1  0.44703000  0.46229000  0.26597000  1.0
  C  C56  1  0.45339000  0.44533000  0.61940000  1.0
  C  C57  1  0.54661000  0.55467000  0.38060000  1.0
  C  C58  1  0.30427000  0.39314000  0.58425000  1.0
  C  C59  1  0.69573000  0.60686000  0.41576000  1.0
  C  C60  1  0.25590000  0.43263000  0.66651000  1.0
  C  C61  1  0.74410000  0.56737000  0.33349000  1.0
  C  C62  1  0.35543000  0.52359000  0.78149000  1.0
  C  C63  1  0.64457000  0.47641000  0.21851000  1.0
  C  C64  1  0.44706000  0.20628000  0.83159000  1.0
  C  C65  1  0.55294000  0.79372000  0.16841000  1.0
  C  C66  1  0.29876000  0.16589000  0.76422000  1.0
  C  C67  1  0.70124000  0.83411000  0.23578000  1.0
  C  C68  1  0.22579000  0.09407000  0.63962000  1.0
  C  C69  1  0.77421000  0.90593000  0.36038000  1.0
  C  C70  1  0.30074000  0.06304000  0.58082000  1.0
  C  C71  1  0.69926000  0.93696000  0.41918000  1.0
  C  C72  1  0.44842000  0.10352000  0.64586000  1.0
  C  C73  1  0.55158000  0.89648000  0.35414000  1.0
  C  C74  1  0.52039000  0.17418000  0.77025000  1.0
  C  C75  1  0.47962000  0.82582000  0.22975000  1.0
  C  C76  1  0.91491000  0.68894000  0.06049000  1.0
  C  C77  1  0.08509000  0.31106000  0.93951000  1.0
  C  C78  1  0.82111000  0.54904000  0.02003000  1.0
  C  C79  1  0.17889000  0.45096000  0.97997000  1.0
  C  C80  1  0.87023000  0.46610000  0.07007000  1.0
  C  C81  1  0.12977000  0.53390000  0.92993000  1.0
  C  C82  1  0.01251000  0.52246000  0.16187000  1.0
  C  C83  1  0.98749000  0.47754000  0.83813000  1.0
  C  C84  1  0.10679000  0.66118000  0.20299000  1.0
  C  C85  1  0.89320000  0.33882000  0.79701000  1.0
  C  C86  1  0.05888000  0.74348000  0.15085000  1.0
  C  C87  1  0.94112000  0.25652000  0.84915000  1.0
  N  N88  1  0.33444000  0.06175000  0.11056000  1.0
  N  N89  1  0.66556000  0.93825000  0.88944000  1.0
  N  N90  1  0.20393000  0.29806000  0.46624000  1.0
  N  N91  1  0.79607000  0.70194000  0.53376000  1.0
  N  N92  1  0.22694000  0.99118000  0.45080000  1.0
  N  N93  1  0.77306000  0.00882000  0.54920000  1.0
  N  N94  1  0.06293000  0.43635000  0.21389000  1.0
  N  N95  1  0.93707000  0.56365000  0.78611000  1.0
  O  O96  1  0.89088000  0.32247000  0.49350000  1.0
  O  O97  1  0.10912000  0.67753000  0.50650000  1.0
  O  O98  1  0.23296000  0.05911000  0.13265000  1.0
  O  O99  1  0.76704000  0.94089000  0.86735000  1.0
  O  O100  1  0.31211000  0.00516000  0.00495000  1.0
  O  O101  1  0.68789000  0.99484000  0.99505000  1.0
  O  O102  1  0.60048000  0.66794000  0.92821000  1.0
  O  O103  1  0.39952000  0.33206000  0.07179000  1.0
  O  O104  1  0.24937000  0.25736000  0.39817000  1.0
  O  O105  1  0.75063000  0.74264000  0.60183000  1.0
  O  O106  1  0.06902000  0.25307000  0.43041000  1.0
  O  O107  1  0.93098000  0.74693000  0.56959000  1.0
  O  O108  1  0.52324000  0.27489000  0.95158000  1.0
  O  O109  1  0.47676000  0.72511000  0.04842000  1.0
  O  O110  1  0.09632000  0.95890000  0.39147000  1.0
  O  O111  1  0.90368000  0.04110000  0.60853000  1.0
  O  O112  1  0.29672000  0.96490000  0.40129000  1.0
  O  O113  1  0.70328000  0.03510000  0.59871000  1.0
  O  O114  1  0.87119000  0.77403000  0.01682000  1.0
  O  O115  1  0.12881000  0.22597000  0.98318000  1.0
  O  O116  1  0.97978000  0.31189000  0.16924000  1.0
  O  O117  1  0.02022000  0.68811000  0.83076000  1.0
  O  O118  1  0.18740000  0.48728000  0.30020000  1.0
  O  O119  1  0.81260000  0.51272000  0.69979000  1.0
