# generated using pymatgen
data_CuH20C26IN6
_symmetry_space_group_name_H-M   'P 1'
_cell_length_a   8.46158000
_cell_length_b   10.48400000
_cell_length_c   15.89100000
_cell_angle_alpha   91.72400000
_cell_angle_beta   97.30000000
_cell_angle_gamma   104.33700000
_symmetry_Int_Tables_number   1
_chemical_formula_structural   CuH20C26IN6
_chemical_formula_sum   'Cu2 H40 C52 I2 N12'
_cell_volume   1351.95374836
_cell_formula_units_Z   2
loop_
 _symmetry_equiv_pos_site_id
 _symmetry_equiv_pos_as_xyz
  1  'x, y, z'
loop_
 _atom_site_type_symbol
 _atom_site_label
 _atom_site_symmetry_multiplicity
 _atom_site_fract_x
 _atom_site_fract_y
 _atom_site_fract_z
 _atom_site_occupancy
  Cu  Cu0  1  0.92406000  0.99790000  0.06350000  1.0
  Cu  Cu1  1  0.07594000  0.00210000  0.93650000  1.0
  H  H2  1  0.01945000  0.76281000  0.14482000  1.0
  H  H3  1  0.98055000  0.23719000  0.85518000  1.0
  H  H4  1  0.90870000  0.60619000  0.25145000  1.0
  H  H5  1  0.09131000  0.39381000  0.74855000  1.0
  H  H6  1  0.64040000  0.61439000  0.30153000  1.0
  H  H7  1  0.35960000  0.38561000  0.69847000  1.0
  H  H8  1  0.61237000  0.91863000  0.12790000  1.0
  H  H9  1  0.38763000  0.08137000  0.87210000  1.0
  H  H10  1  0.40506000  0.86548000  0.21118000  1.0
  H  H11  1  0.59494000  0.13452000  0.78882000  1.0
  H  H12  1  0.95082000  0.64013000  0.48372000  1.0
  H  H13  1  0.04918000  0.35987000  0.51628000  1.0
  H  H14  1  0.71267000  0.72333000  0.51083000  1.0
  H  H15  1  0.28733000  0.27667000  0.48917000  1.0
  H  H16  1  0.66881000  0.92660000  0.44698000  1.0
  H  H17  1  0.33119000  0.07340000  0.55302000  1.0
  H  H18  1  0.86949000  0.05225000  0.35820000  1.0
  H  H19  1  0.13051000  0.94775000  0.64180000  1.0
  H  H20  1  0.10922000  0.96686000  0.32918000  1.0
  H  H21  1  0.89078000  0.03314000  0.67082000  1.0
  H  H22  1  0.36086000  0.89753000  0.50194000  1.0
  H  H23  1  0.63913000  0.10247000  0.49807000  1.0
  H  H24  1  0.55202000  0.98025000  0.63593000  1.0
  H  H25  1  0.44797000  0.01975000  0.36407000  1.0
  H  H26  1  0.64820000  0.82274000  0.72973000  1.0
  H  H27  1  0.35180000  0.17726000  0.27027000  1.0
  H  H28  1  0.56280000  0.58073000  0.68644000  1.0
  H  H29  1  0.43720000  0.41926000  0.31355000  1.0
  H  H30  1  0.37233000  0.49891000  0.55302000  1.0
  H  H31  1  0.62767000  0.50109000  0.44697000  1.0
  H  H32  1  0.16318000  0.32469000  0.33724000  1.0
  H  H33  1  0.83683000  0.67531000  0.66276000  1.0
  H  H34  1  0.74896000  0.40199000  0.27227000  1.0
  H  H35  1  0.25104000  0.59801000  0.72773000  1.0
  H  H36  1  0.55829000  0.29154000  0.14060000  1.0
  H  H37  1  0.44171000  0.70847000  0.85940000  1.0
  H  H38  1  0.65276000  0.13863000  0.04656000  1.0
  H  H39  1  0.34724000  0.86137000  0.95344000  1.0
  H  H40  1  0.09559000  0.18950000  0.20389000  1.0
  H  H41  1  0.90441000  0.81049000  0.79611000  1.0
  C  C42  1  0.89985000  0.75893000  0.16489000  1.0
  C  C43  1  0.10016000  0.24108000  0.83511000  1.0
  C  C44  1  0.83706000  0.67209000  0.22449000  1.0
  C  C45  1  0.16295000  0.32792000  0.77551000  1.0
  C  C46  1  0.68921000  0.67642000  0.25231000  1.0
  C  C47  1  0.31079000  0.32359000  0.74769000  1.0
  C  C48  1  0.60553000  0.76751000  0.21810000  1.0
  C  C49  1  0.39447000  0.23249000  0.78190000  1.0
  C  C50  1  0.67533000  0.84787000  0.15650000  1.0
  C  C51  1  0.32468000  0.15213000  0.84350000  1.0
  C  C52  1  0.45745000  0.79177000  0.24489000  1.0
  C  C53  1  0.54255000  0.20823000  0.75511000  1.0
  C  C54  1  0.18336000  0.74494000  0.38528000  1.0
  C  C55  1  0.81664000  0.25505000  0.61472000  1.0
  C  C56  1  0.04676000  0.79869000  0.40477000  1.0
  C  C57  1  0.95324000  0.20130000  0.59522000  1.0
  C  C58  1  0.93554000  0.73142000  0.45685000  1.0
  C  C59  1  0.06446000  0.26858000  0.54315000  1.0
  C  C60  1  0.80013000  0.77760000  0.47162000  1.0
  C  C61  1  0.19987000  0.22240000  0.52837000  1.0
  C  C62  1  0.77604000  0.89233000  0.43581000  1.0
  C  C63  1  0.22396000  0.10767000  0.56419000  1.0
  C  C64  1  0.88800000  0.96185000  0.38537000  1.0
  C  C65  1  0.11199000  0.03815000  0.61463000  1.0
  C  C66  1  0.02235000  0.91534000  0.36950000  1.0
  C  C67  1  0.97765000  0.08466000  0.63050000  1.0
  C  C68  1  0.23417000  0.64531000  0.44192000  1.0
  C  C69  1  0.76583000  0.35469000  0.55808000  1.0
  C  C70  1  0.35201000  0.69273000  0.51924000  1.0
  C  C71  1  0.64799000  0.30727000  0.48076000  1.0
  C  C72  1  0.40526000  0.82844000  0.54278000  1.0
  C  C73  1  0.59474000  0.17156000  0.45722000  1.0
  C  C74  1  0.51161000  0.87479000  0.61784000  1.0
  C  C75  1  0.48839000  0.12521000  0.38216000  1.0
  C  C76  1  0.56745000  0.78597000  0.67022000  1.0
  C  C77  1  0.43255000  0.21403000  0.32978000  1.0
  C  C78  1  0.51770000  0.65067000  0.64651000  1.0
  C  C79  1  0.48230000  0.34933000  0.35349000  1.0
  C  C80  1  0.41114000  0.60395000  0.57183000  1.0
  C  C81  1  0.58885000  0.39605000  0.42817000  1.0
  C  C82  1  0.06150000  0.37039000  0.31845000  1.0
  C  C83  1  0.93851000  0.62960000  0.68155000  1.0
  C  C84  1  0.93984000  0.30829000  0.24663000  1.0
  C  C85  1  0.06016000  0.69171000  0.75337000  1.0
  C  C86  1  0.78509000  0.33588000  0.22873000  1.0
  C  C87  1  0.21491000  0.66413000  0.77127000  1.0
  C  C88  1  0.68023000  0.27467000  0.15667000  1.0
  C  C89  1  0.31977000  0.72533000  0.84333000  1.0
  C  C90  1  0.73077000  0.18744000  0.10439000  1.0
  C  C91  1  0.26923000  0.81257000  0.89561000  1.0
  C  C92  1  0.97817000  0.21637000  0.19210000  1.0
  C  C93  1  0.02183000  0.78363000  0.80790000  1.0
  I  I94  1  0.24704000  0.03062000  0.08985000  1.0
  I  I95  1  0.75296000  0.96937000  0.91016000  1.0
  N  N96  1  0.82048000  0.84628000  0.13112000  1.0
  N  N97  1  0.17952000  0.15373000  0.86888000  1.0
  N  N98  1  0.38841000  0.73585000  0.30745000  1.0
  N  N99  1  0.61159000  0.26415000  0.69255000  1.0
  N  N100  1  0.25608000  0.78721000  0.32047000  1.0
  N  N101  1  0.74392000  0.21279000  0.67953000  1.0
  N  N102  1  0.17487000  0.51913000  0.42662000  1.0
  N  N103  1  0.82512000  0.48087000  0.57339000  1.0
  N  N104  1  0.05490000  0.47833000  0.35796000  1.0
  N  N105  1  0.94510000  0.52167000  0.64204000  1.0
  N  N106  1  0.87700000  0.15686000  0.12220000  1.0
  N  N107  1  0.12300000  0.84314000  0.87780000  1.0
