# generated using pymatgen
data_CdH12C18(SN3)2
_symmetry_space_group_name_H-M   'P 1'
_cell_length_a   5.82610000
_cell_length_b   7.52436000
_cell_length_c   20.13770000
_cell_angle_alpha   89.99860000
_cell_angle_beta   89.99950000
_cell_angle_gamma   93.95080000
_symmetry_Int_Tables_number   1
_chemical_formula_structural   CdH12C18(SN3)2
_chemical_formula_sum   'Cd2 H24 C36 S4 N12'
_cell_volume   880.69204586
_cell_formula_units_Z   2
loop_
 _symmetry_equiv_pos_site_id
 _symmetry_equiv_pos_as_xyz
  1  'x, y, z'
loop_
 _atom_site_type_symbol
 _atom_site_label
 _atom_site_symmetry_multiplicity
 _atom_site_fract_x
 _atom_site_fract_y
 _atom_site_fract_z
 _atom_site_occupancy
  Cd  Cd0  1  0.00000000  0.49999000  0.50000000  1.0
  Cd  Cd1  1  0.00000000  0.00001000  0.00000000  1.0
  H  H2  1  0.28813000  0.67301000  0.77544000  1.0
  H  H3  1  0.71188000  0.82699000  0.27544000  1.0
  H  H4  1  0.71187000  0.32699000  0.22456000  1.0
  H  H5  1  0.28813000  0.17300000  0.72455000  1.0
  H  H6  1  0.56583000  0.38385000  0.59651000  1.0
  H  H7  1  0.43416000  0.11615000  0.09650000  1.0
  H  H8  1  0.43415000  0.61613000  0.40350000  1.0
  H  H9  1  0.56585000  0.88387000  0.90350000  1.0
  H  H10  1  0.20780000  0.60981000  0.65139000  1.0
  H  H11  1  0.79220000  0.89019000  0.15139000  1.0
  H  H12  1  0.79218000  0.39018000  0.34861000  1.0
  H  H13  1  0.20781000  0.10983000  0.84861000  1.0
  H  H14  1  0.50707000  0.38136000  0.82557000  1.0
  H  H15  1  0.49293000  0.11867000  0.32556000  1.0
  H  H16  1  0.49292000  0.61865000  0.17443000  1.0
  H  H17  1  0.50708000  0.88133000  0.67444000  1.0
  H  H18  1  0.15353000  0.63532000  0.89190000  1.0
  H  H19  1  0.84650000  0.86470000  0.39190000  1.0
  H  H20  1  0.84648000  0.36468000  0.10810000  1.0
  H  H21  1  0.15352000  0.13528000  0.60810000  1.0
  H  H22  1  0.77066000  0.48760000  0.91675000  1.0
  H  H23  1  0.22936000  0.01245000  0.41674000  1.0
  H  H24  1  0.22934000  0.51243000  0.08325000  1.0
  H  H25  1  0.77066000  0.98754000  0.58325000  1.0
  C  C26  1  0.97412000  0.54294000  0.73377000  1.0
  C  C27  1  0.02586000  0.95707000  0.23377000  1.0
  C  C28  1  0.02586000  0.45705000  0.26623000  1.0
  C  C29  1  0.97414000  0.04294000  0.76623000  1.0
  C  C30  1  0.74956000  0.46280000  0.74806000  1.0
  C  C31  1  0.25042000  0.03721000  0.24805000  1.0
  C  C32  1  0.25041000  0.53720000  0.25195000  1.0
  C  C33  1  0.74958000  0.96279000  0.75194000  1.0
  C  C34  1  0.12005000  0.60582000  0.78622000  1.0
  C  C35  1  0.87995000  0.89419000  0.28622000  1.0
  C  C36  1  0.87994000  0.39418000  0.21378000  1.0
  C  C37  1  0.12006000  0.10581000  0.71378000  1.0
  C  C38  1  0.68203000  0.42645000  0.63668000  1.0
  C  C39  1  0.31796000  0.07355000  0.13668000  1.0
  C  C40  1  0.31795000  0.57353000  0.36332000  1.0
  C  C41  1  0.68205000  0.92646000  0.86332000  1.0
  C  C42  1  0.03757000  0.55331000  0.66615000  1.0
  C  C43  1  0.96243000  0.94670000  0.16614000  1.0
  C  C44  1  0.96242000  0.44668000  0.33386000  1.0
  C  C45  1  0.03758000  0.05332000  0.83385000  1.0
  C  C46  1  0.67849000  0.44186000  0.81488000  1.0
  C  C47  1  0.32152000  0.05817000  0.31487000  1.0
  C  C48  1  0.32150000  0.55815000  0.18512000  1.0
  C  C49  1  0.67849000  0.94183000  0.68513000  1.0
  C  C50  1  0.04524000  0.58509000  0.85095000  1.0
  C  C51  1  0.95477000  0.91492000  0.35095000  1.0
  C  C52  1  0.95477000  0.41491000  0.14905000  1.0
  C  C53  1  0.04524000  0.08507000  0.64905000  1.0
  C  C54  1  0.82541000  0.50134000  0.86513000  1.0
  C  C55  1  0.17461000  0.99870000  0.36513000  1.0
  C  C56  1  0.17459000  0.49868000  0.13487000  1.0
  C  C57  1  0.82540000  0.00129000  0.63487000  1.0
  C  C58  1  0.53134000  0.73152000  0.50928000  1.0
  C  C59  1  0.46863000  0.76848000  0.00929000  1.0
  C  C60  1  0.46866000  0.26844000  0.49072000  1.0
  C  C61  1  0.53137000  0.23154000  0.99071000  1.0
  S  S62  1  0.28554000  0.79959000  0.53300000  1.0
  S  S63  1  0.71446000  0.70041000  0.03301000  1.0
  S  S64  1  0.71447000  0.20039000  0.46700000  1.0
  S  S65  1  0.28553000  0.29961000  0.96699000  1.0
  N  N66  1  0.89613000  0.49485000  0.61806000  1.0
  N  N67  1  0.10387000  0.00516000  0.11806000  1.0
  N  N68  1  0.10386000  0.50514000  0.38194000  1.0
  N  N69  1  0.89613000  0.99487000  0.88194000  1.0
  N  N70  1  0.70949000  0.68491000  0.48975000  1.0
  N  N71  1  0.29051000  0.81508000  0.98975000  1.0
  N  N72  1  0.29051000  0.31505000  0.51025000  1.0
  N  N73  1  0.70950000  0.18494000  0.01025000  1.0
  N  N74  1  0.60411000  0.40763000  0.69772000  1.0
  N  N75  1  0.39589000  0.09238000  0.19771000  1.0
  N  N76  1  0.39586000  0.59237000  0.30229000  1.0
  N  N77  1  0.60412000  0.90763000  0.80229000  1.0
