# generated using pymatgen
data_TiPH9C2N2O5
_symmetry_space_group_name_H-M   'P 1'
_cell_length_a   7.29227000
_cell_length_b   9.21081000
_cell_length_c   9.96399000
_cell_angle_alpha   100.09500000
_cell_angle_beta   90.00000000
_cell_angle_gamma   89.99990000
_symmetry_Int_Tables_number   1
_chemical_formula_structural   TiPH9C2N2O5
_chemical_formula_sum   'Ti4 P4 H36 C8 N8 O20'
_cell_volume   658.89728724
_cell_formula_units_Z   4
loop_
 _symmetry_equiv_pos_site_id
 _symmetry_equiv_pos_as_xyz
  1  'x, y, z'
loop_
 _atom_site_type_symbol
 _atom_site_label
 _atom_site_symmetry_multiplicity
 _atom_site_fract_x
 _atom_site_fract_y
 _atom_site_fract_z
 _atom_site_occupancy
  Ti  Ti0  1  0.86217000  0.50895000  0.76821000  1.0
  Ti  Ti1  1  0.63783000  0.50895000  0.26821000  1.0
  Ti  Ti2  1  0.13783000  0.49105000  0.23180000  1.0
  Ti  Ti3  1  0.36217000  0.49105000  0.73180000  1.0
  P  P4  1  0.86429000  0.71125000  0.08646000  1.0
  P  P5  1  0.63570000  0.71125000  0.58646000  1.0
  P  P6  1  0.13571000  0.28875000  0.91354000  1.0
  P  P7  1  0.36430000  0.28875000  0.41354000  1.0
  H  H8  1  0.87706000  0.40106000  0.49429000  1.0
  H  H9  1  0.62294000  0.40106000  0.99429000  1.0
  H  H10  1  0.12294000  0.59893000  0.50571000  1.0
  H  H11  1  0.37706000  0.59894000  0.00571000  1.0
  H  H12  1  0.04813000  0.33396000  0.56924000  1.0
  H  H13  1  0.45187000  0.33397000  0.06924000  1.0
  H  H14  1  0.95186000  0.66604000  0.43076000  1.0
  H  H15  1  0.54813000  0.66604000  0.93076000  1.0
  H  H16  1  0.75028000  0.93608000  0.28168000  1.0
  H  H17  1  0.74973000  0.93608000  0.78168000  1.0
  H  H18  1  0.24972000  0.06392000  0.71832000  1.0
  H  H19  1  0.25028000  0.06392000  0.21832000  1.0
  H  H20  1  0.57841000  0.04448000  0.36828000  1.0
  H  H21  1  0.92159000  0.04448000  0.86828000  1.0
  H  H22  1  0.42159000  0.95552000  0.63171000  1.0
  H  H23  1  0.07841000  0.95552000  0.13172000  1.0
  H  H24  1  0.70170000  0.93374000  0.45055000  1.0
  H  H25  1  0.79830000  0.93374000  0.95054000  1.0
  H  H26  1  0.29830000  0.06626000  0.54945000  1.0
  H  H27  1  0.20171000  0.06627000  0.04946000  1.0
  H  H28  1  0.83604000  0.19412000  0.33752000  1.0
  H  H29  1  0.66396000  0.19412000  0.83752000  1.0
  H  H30  1  0.16396000  0.80588000  0.66248000  1.0
  H  H31  1  0.33604000  0.80588000  0.16248000  1.0
  H  H32  1  0.98569000  0.07229000  0.40331000  1.0
  H  H33  1  0.51431000  0.07229000  0.90331000  1.0
  H  H34  1  0.01431000  0.92771000  0.59668000  1.0
  H  H35  1  0.48569000  0.92771000  0.09668000  1.0
  H  H36  1  0.66589000  0.22992000  0.57119000  1.0
  H  H37  1  0.83411000  0.22992000  0.07119000  1.0
  H  H38  1  0.33411000  0.77007000  0.42881000  1.0
  H  H39  1  0.16589000  0.77008000  0.92881000  1.0
  H  H40  1  0.85802000  0.14612000  0.63416000  1.0
  H  H41  1  0.64199000  0.14612000  0.13415000  1.0
  H  H42  1  0.14199000  0.85388000  0.36584000  1.0
  H  H43  1  0.35801000  0.85388000  0.86584000  1.0
  C  C44  1  0.84744000  0.12018000  0.41238000  1.0
  C  C45  1  0.65257000  0.12018000  0.91237000  1.0
  C  C46  1  0.15256000  0.87982000  0.58762000  1.0
  C  C47  1  0.34744000  0.87982000  0.08763000  1.0
  C  C48  1  0.81275000  0.20745000  0.55496000  1.0
  C  C49  1  0.68725000  0.20745000  0.05496000  1.0
  C  C50  1  0.18725000  0.79255000  0.44504000  1.0
  C  C51  1  0.31275000  0.79255000  0.94504000  1.0
  N  N52  1  0.90875000  0.34944000  0.57487000  1.0
  N  N53  1  0.59125000  0.34944000  0.07487000  1.0
  N  N54  1  0.09125000  0.65056000  0.42513000  1.0
  N  N55  1  0.40875000  0.65056000  0.92513000  1.0
  N  N56  1  0.71141000  0.99921000  0.37568000  1.0
  N  N57  1  0.78859000  0.99921000  0.87567000  1.0
  N  N58  1  0.28859000  0.00079000  0.62432000  1.0
  N  N59  1  0.21141000  0.00079000  0.12433000  1.0
  O  O60  1  0.84926000  0.67108000  0.92907000  1.0
  O  O61  1  0.65074000  0.67108000  0.42907000  1.0
  O  O62  1  0.15074000  0.32892000  0.07093000  1.0
  O  O63  1  0.34926000  0.32892000  0.57093000  1.0
  O  O64  1  0.13480000  0.55127000  0.72855000  1.0
  O  O65  1  0.36520000  0.55127000  0.22855000  1.0
  O  O66  1  0.86521000  0.44873000  0.27145000  1.0
  O  O67  1  0.63479000  0.44873000  0.77145000  1.0
  O  O68  1  0.86801000  0.88145000  0.12535000  1.0
  O  O69  1  0.63199000  0.88145000  0.62535000  1.0
  O  O70  1  0.13199000  0.11855000  0.87465000  1.0
  O  O71  1  0.36801000  0.11855000  0.37465000  1.0
  O  O72  1  0.04261000  0.64457000  0.13407000  1.0
  O  O73  1  0.45739000  0.64457000  0.63408000  1.0
  O  O74  1  0.95739000  0.35543000  0.86593000  1.0
  O  O75  1  0.54261000  0.35543000  0.36592000  1.0
  O  O76  1  0.69116000  0.65433000  0.15037000  1.0
  O  O77  1  0.80884000  0.65432000  0.65037000  1.0
  O  O78  1  0.30884000  0.34568000  0.84963000  1.0
  O  O79  1  0.19116000  0.34568000  0.34963000  1.0
