# generated using pymatgen
data_NaYbH20(C10O7)2
_symmetry_space_group_name_H-M   'P 1'
_cell_length_a   7.13920000
_cell_length_b   16.19120000
_cell_length_c   20.39630000
_cell_angle_alpha   89.99910000
_cell_angle_beta   89.99890000
_cell_angle_gamma   87.32850000
_symmetry_Int_Tables_number   1
_chemical_formula_structural   NaYbH20(C10O7)2
_chemical_formula_sum   'Na4 Yb4 H80 C80 O56'
_cell_volume   2355.09115708
_cell_formula_units_Z   4
loop_
 _symmetry_equiv_pos_site_id
 _symmetry_equiv_pos_as_xyz
  1  'x, y, z'
loop_
 _atom_site_type_symbol
 _atom_site_label
 _atom_site_symmetry_multiplicity
 _atom_site_fract_x
 _atom_site_fract_y
 _atom_site_fract_z
 _atom_site_occupancy
  Na  Na0  1  0.02516000  0.48964000  0.41201000  1.0
  Na  Na1  1  0.47483000  0.51036000  0.91202000  1.0
  Na  Na2  1  0.97488000  0.51036000  0.58798000  1.0
  Na  Na3  1  0.52512000  0.48963000  0.08799000  1.0
  Yb  Yb4  1  0.30533000  0.25412000  0.38314000  1.0
  Yb  Yb5  1  0.19466000  0.74588000  0.88315000  1.0
  Yb  Yb6  1  0.69469000  0.74587000  0.61686000  1.0
  Yb  Yb7  1  0.80530000  0.25412000  0.11686000  1.0
  H  H8  1  0.84170000  0.27032000  0.44462000  1.0
  H  H9  1  0.65828000  0.72969000  0.94463000  1.0
  H  H10  1  0.15834000  0.72967000  0.55538000  1.0
  H  H11  1  0.34167000  0.27033000  0.05537000  1.0
  H  H12  1  0.71980000  0.31799000  0.51282000  1.0
  H  H13  1  0.78017000  0.68201000  0.01282000  1.0
  H  H14  1  0.28023000  0.68200000  0.48718000  1.0
  H  H15  1  0.21976000  0.31800000  0.98717000  1.0
  H  H16  1  0.82019000  0.20235000  0.55679000  1.0
  H  H17  1  0.67977000  0.79766000  0.05680000  1.0
  H  H18  1  0.17983000  0.79765000  0.44321000  1.0
  H  H19  1  0.32019000  0.20235000  0.94321000  1.0
  H  H20  1  0.79069000  0.09364000  0.64185000  1.0
  H  H21  1  0.70928000  0.90636000  0.14186000  1.0
  H  H22  1  0.20934000  0.90636000  0.35815000  1.0
  H  H23  1  0.29070000  0.09364000  0.85815000  1.0
  H  H24  1  0.51249000  0.00501000  0.64104000  1.0
  H  H25  1  0.98750000  0.99498000  0.14105000  1.0
  H  H26  1  0.48755000  0.99498000  0.35896000  1.0
  H  H27  1  0.01249000  0.00501000  0.85896000  1.0
  H  H28  1  0.28239000  0.01746000  0.55214000  1.0
  H  H29  1  0.21761000  0.98253000  0.05215000  1.0
  H  H30  1  0.71764000  0.98253000  0.44786000  1.0
  H  H31  1  0.78237000  0.01747000  0.94785000  1.0
  H  H32  1  0.05484000  0.10747000  0.50013000  1.0
  H  H33  1  0.44515000  0.89253000  0.00013000  1.0
  H  H34  1  0.94518000  0.89252000  0.49988000  1.0
  H  H35  1  0.55483000  0.10748000  0.99987000  1.0
  H  H36  1  0.13840000  0.02262000  0.44980000  1.0
  H  H37  1  0.36158000  0.97738000  0.94981000  1.0
  H  H38  1  0.86161000  0.97737000  0.55020000  1.0
  H  H39  1  0.63839000  0.02263000  0.05020000  1.0
  H  H40  1  0.24890000  0.45074000  0.22425000  1.0
  H  H41  1  0.25112000  0.54927000  0.72426000  1.0
  H  H42  1  0.75112000  0.54926000  0.77574000  1.0
  H  H43  1  0.74890000  0.45074000  0.27573000  1.0
  H  H44  1  0.01935000  0.41797000  0.21251000  1.0
  H  H45  1  0.48068000  0.58203000  0.71251000  1.0
  H  H46  1  0.98068000  0.58202000  0.78750000  1.0
  H  H47  1  0.51934000  0.41798000  0.28749000  1.0
  H  H48  1  0.04487000  0.53305000  0.15821000  1.0
  H  H49  1  0.45514000  0.46696000  0.65822000  1.0
  H  H50  1  0.95515000  0.46695000  0.84179000  1.0
  H  H51  1  0.54488000  0.53305000  0.34179000  1.0
  H  H52  1  0.91334000  0.66071000  0.10828000  1.0
  H  H53  1  0.58666000  0.33931000  0.60829000  1.0
  H  H54  1  0.08665000  0.33929000  0.89172000  1.0
  H  H55  1  0.41336000  0.66070000  0.39172000  1.0
  H  H56  1  0.79767000  0.77873000  0.17952000  1.0
  H  H57  1  0.70232000  0.22128000  0.67952000  1.0
  H  H58  1  0.20230000  0.22126000  0.82048000  1.0
  H  H59  1  0.29769000  0.77873000  0.32048000  1.0
  H  H60  1  0.80207000  0.76434000  0.29961000  1.0
  H  H61  1  0.69791000  0.23567000  0.79961000  1.0
  H  H62  1  0.19793000  0.23566000  0.70039000  1.0
  H  H63  1  0.30209000  0.76434000  0.20039000  1.0
  H  H64  1  0.71469000  0.70975000  0.39269000  1.0
  H  H65  1  0.78530000  0.29025000  0.89268000  1.0
  H  H66  1  0.28532000  0.29025000  0.60731000  1.0
  H  H67  1  0.21469000  0.70975000  0.10732000  1.0
  H  H68  1  0.94567000  0.74536000  0.40040000  1.0
  H  H69  1  0.55434000  0.25464000  0.90041000  1.0
  H  H70  1  0.05434000  0.25464000  0.59959000  1.0
  H  H71  1  0.44565000  0.74536000  0.09959000  1.0
  H  H72  1  0.66403000  0.15689000  0.34848000  1.0
  H  H73  1  0.83598000  0.84312000  0.84848000  1.0
  H  H74  1  0.33600000  0.84310000  0.65151000  1.0
  H  H75  1  0.16399000  0.15688000  0.15151000  1.0
  H  H76  1  0.61031000  0.21732000  0.28900000  1.0
  H  H77  1  0.88972000  0.78270000  0.78901000  1.0
  H  H78  1  0.38970000  0.78268000  0.71099000  1.0
  H  H79  1  0.11027000  0.21730000  0.21099000  1.0
  H  H80  1  0.31207000  0.51326000  0.49187000  1.0
  H  H81  1  0.18791000  0.48675000  0.99187000  1.0
  H  H82  1  0.68796000  0.48673000  0.50813000  1.0
  H  H83  1  0.81204000  0.51326000  0.00813000  1.0
  H  H84  1  0.39706000  0.47705000  0.42730000  1.0
  H  H85  1  0.10292000  0.52296000  0.92729000  1.0
  H  H86  1  0.60297000  0.52295000  0.57270000  1.0
  H  H87  1  0.89704000  0.47706000  0.07270000  1.0
  C  C88  1  0.63948000  0.36912000  0.42025000  1.0
  C  C89  1  0.86049000  0.63090000  0.92024000  1.0
  C  C90  1  0.36058000  0.63087000  0.57975000  1.0
  C  C91  1  0.13943000  0.36912000  0.07975000  1.0
  C  C92  1  0.70541000  0.29551000  0.46228000  1.0
  C  C93  1  0.79456000  0.70449000  0.96228000  1.0
  C  C94  1  0.29463000  0.70447000  0.53772000  1.0
  C  C95  1  0.20536000  0.29552000  0.03772000  1.0
  C  C96  1  0.56714000  0.17230000  0.50678000  1.0
  C  C97  1  0.93284000  0.82770000  0.00679000  1.0
  C  C98  1  0.43289000  0.82769000  0.49322000  1.0
  C  C99  1  0.06713000  0.17231000  0.99322000  1.0
  C  C100  1  0.70226000  0.16211000  0.55561000  1.0
  C  C101  1  0.79771000  0.83789000  0.05561000  1.0
  C  C102  1  0.29777000  0.83788000  0.44439000  1.0
  C  C103  1  0.20225000  0.16212000  0.94439000  1.0
  C  C104  1  0.68390000  0.10124000  0.60377000  1.0
  C  C105  1  0.81607000  0.89876000  0.10377000  1.0
  C  C106  1  0.31613000  0.89875000  0.39623000  1.0
  C  C107  1  0.18391000  0.10124000  0.89624000  1.0
  C  C108  1  0.52964000  0.05179000  0.60338000  1.0
  C  C109  1  0.97034000  0.94820000  0.10339000  1.0
  C  C110  1  0.47039000  0.94820000  0.39662000  1.0
  C  C111  1  0.02964000  0.05180000  0.89661000  1.0
  C  C112  1  0.39690000  0.05967000  0.55289000  1.0
  C  C113  1  0.10310000  0.94033000  0.05290000  1.0
  C  C114  1  0.60314000  0.94032000  0.44711000  1.0
  C  C115  1  0.89689000  0.05967000  0.94711000  1.0
  C  C116  1  0.41792000  0.11816000  0.50378000  1.0
  C  C117  1  0.08207000  0.88184000  0.00379000  1.0
  C  C118  1  0.58210000  0.88183000  0.49622000  1.0
  C  C119  1  0.91791000  0.11817000  0.99621000  1.0
  C  C120  1  0.12099000  0.09029000  0.45304000  1.0
  C  C121  1  0.37901000  0.90971000  0.95304000  1.0
  C  C122  1  0.87903000  0.90970000  0.54696000  1.0
  C  C123  1  0.62098000  0.09030000  0.04696000  1.0
  C  C124  1  0.99543000  0.12387000  0.39724000  1.0
  C  C125  1  0.50457000  0.87613000  0.89725000  1.0
  C  C126  1  0.00459000  0.87612000  0.60276000  1.0
  C  C127  1  0.49541000  0.12387000  0.10276000  1.0
  C  C128  1  0.16067000  0.36164000  0.29472000  1.0
  C  C129  1  0.33933000  0.63836000  0.79472000  1.0
  C  C130  1  0.83936000  0.63836000  0.70528000  1.0
  C  C131  1  0.66064000  0.36164000  0.20527000  1.0
  C  C132  1  0.12051000  0.43509000  0.25040000  1.0
  C  C133  1  0.37950000  0.56492000  0.75041000  1.0
  C  C134  1  0.87953000  0.56490000  0.74959000  1.0
  C  C135  1  0.62050000  0.43509000  0.24959000  1.0
  C  C136  1  0.99166000  0.57405000  0.25746000  1.0
  C  C137  1  0.50834000  0.42596000  0.75746000  1.0
  C  C138  1  0.00837000  0.42595000  0.74254000  1.0
  C  C139  1  0.49167000  0.57405000  0.24254000  1.0
  C  C140  1  0.99032000  0.58284000  0.18967000  1.0
  C  C141  1  0.50968000  0.41717000  0.68967000  1.0
  C  C142  1  0.00969000  0.41715000  0.81033000  1.0
  C  C143  1  0.49032000  0.58284000  0.31033000  1.0
  C  C144  1  0.91945000  0.65667000  0.16149000  1.0
  C  C145  1  0.58055000  0.34333000  0.66150000  1.0
  C  C146  1  0.08055000  0.34332000  0.83851000  1.0
  C  C147  1  0.41946000  0.65667000  0.33850000  1.0
  C  C148  1  0.85381000  0.72146000  0.20106000  1.0
  C  C149  1  0.64619000  0.27855000  0.70107000  1.0
  C  C150  1  0.14618000  0.27854000  0.79893000  1.0
  C  C151  1  0.35382000  0.72146000  0.29893000  1.0
  C  C152  1  0.85759000  0.71365000  0.26929000  1.0
  C  C153  1  0.64240000  0.28636000  0.76930000  1.0
  C  C154  1  0.14242000  0.28635000  0.73071000  1.0
  C  C155  1  0.35760000  0.71365000  0.23071000  1.0
  C  C156  1  0.92472000  0.64009000  0.29786000  1.0
  C  C157  1  0.57528000  0.35991000  0.79787000  1.0
  C  C158  1  0.07530000  0.35990000  0.70213000  1.0
  C  C159  1  0.42471000  0.64009000  0.20213000  1.0
  C  C160  1  0.86030000  0.69067000  0.40573000  1.0
  C  C161  1  0.63971000  0.30933000  0.90573000  1.0
  C  C162  1  0.13971000  0.30933000  0.59426000  1.0
  C  C163  1  0.36028000  0.69067000  0.09427000  1.0
  C  C164  1  0.86322000  0.66158000  0.47693000  1.0
  C  C165  1  0.63681000  0.33842000  0.97693000  1.0
  C  C166  1  0.13684000  0.33844000  0.52307000  1.0
  C  C167  1  0.36314000  0.66156000  0.02308000  1.0
  O  O168  1  0.47959000  0.36460000  0.39135000  1.0
  O  O169  1  0.02039000  0.63540000  0.89134000  1.0
  O  O170  1  0.52047000  0.63539000  0.60865000  1.0
  O  O171  1  0.97953000  0.36461000  0.10865000  1.0
  O  O172  1  0.73784000  0.43031000  0.41816000  1.0
  O  O173  1  0.76212000  0.56970000  0.91816000  1.0
  O  O174  1  0.26221000  0.56968000  0.58184000  1.0
  O  O175  1  0.23779000  0.43032000  0.08184000  1.0
  O  O176  1  0.56697000  0.23307000  0.45943000  1.0
  O  O177  1  0.93300000  0.76694000  0.95943000  1.0
  O  O178  1  0.43306000  0.76693000  0.54057000  1.0
  O  O179  1  0.06693000  0.23307000  0.04056000  1.0
  O  O180  1  0.30263000  0.12624000  0.44911000  1.0
  O  O181  1  0.19737000  0.87376000  0.94912000  1.0
  O  O182  1  0.69739000  0.87375000  0.55089000  1.0
  O  O183  1  0.80262000  0.12625000  0.05089000  1.0
  O  O184  1  0.06396000  0.17789000  0.35948000  1.0
  O  O185  1  0.43604000  0.82211000  0.85949000  1.0
  O  O186  1  0.93607000  0.82211000  0.64052000  1.0
  O  O187  1  0.56393000  0.17789000  0.14052000  1.0
  O  O188  1  0.83327000  0.09762000  0.39387000  1.0
  O  O189  1  0.66666667  0.90239000  0.89387000  1.0
  O  O190  1  0.16676000  0.90238000  0.60614000  1.0
  O  O191  1  0.33324000  0.09762000  0.10613000  1.0
  O  O192  1  0.25344000  0.29803000  0.27242000  1.0
  O  O193  1  0.24659000  0.70198000  0.77243000  1.0
  O  O194  1  0.74661000  0.70197000  0.72758000  1.0
  O  O195  1  0.75340000  0.29802000  0.22757000  1.0
  O  O196  1  0.10867000  0.36466000  0.35435000  1.0
  O  O197  1  0.39132000  0.63534000  0.85436000  1.0
  O  O198  1  0.89139000  0.63534000  0.64565000  1.0
  O  O199  1  0.60860000  0.36466000  0.14564000  1.0
  O  O200  1  0.05035000  0.50275000  0.28982000  1.0
  O  O201  1  0.44965000  0.49726000  0.78983000  1.0
  O  O202  1  0.94968000  0.49725000  0.71017000  1.0
  O  O203  1  0.55035000  0.50275000  0.21017000  1.0
  O  O204  1  0.92908000  0.62536000  0.36415000  1.0
  O  O205  1  0.57090000  0.37464000  0.86415000  1.0
  O  O206  1  0.07093000  0.37464000  0.63585000  1.0
  O  O207  1  0.42909000  0.62536000  0.13585000  1.0
  O  O208  1  0.82005000  0.71946000  0.51830000  1.0
  O  O209  1  0.67997000  0.28054000  0.01830000  1.0
  O  O210  1  0.17996000  0.28054000  0.48170000  1.0
  O  O211  1  0.31999000  0.71945000  0.98170000  1.0
  O  O212  1  0.90367000  0.58784000  0.49001000  1.0
  O  O213  1  0.59635000  0.41217000  0.99001000  1.0
  O  O214  1  0.09637000  0.41217000  0.50999000  1.0
  O  O215  1  0.40360000  0.58783000  0.01000000  1.0
  O  O216  1  0.55737000  0.18931000  0.32704000  1.0
  O  O217  1  0.94264000  0.81070000  0.82705000  1.0
  O  O218  1  0.44265000  0.81067000  0.67295000  1.0
  O  O219  1  0.05733000  0.18931000  0.17295000  1.0
  O  O220  1  0.33590000  0.52709000  0.44600000  1.0
  O  O221  1  0.16406000  0.47292000  0.94600000  1.0
  O  O222  1  0.66414000  0.47291000  0.55400000  1.0
  O  O223  1  0.83587000  0.52709000  0.05400000  1.0
