# generated using pymatgen
data_YbH15C15NO8
_symmetry_space_group_name_H-M   'P 1'
_cell_length_a   8.53581000
_cell_length_b   10.26430000
_cell_length_c   10.86720000
_cell_angle_alpha   62.87510000
_cell_angle_beta   70.51660000
_cell_angle_gamma   82.67970000
_symmetry_Int_Tables_number   1
_chemical_formula_structural   YbH15C15NO8
_chemical_formula_sum   'Yb2 H30 C30 N2 O16'
_cell_volume   798.53230202
_cell_formula_units_Z   2
loop_
 _symmetry_equiv_pos_site_id
 _symmetry_equiv_pos_as_xyz
  1  'x, y, z'
loop_
 _atom_site_type_symbol
 _atom_site_label
 _atom_site_symmetry_multiplicity
 _atom_site_fract_x
 _atom_site_fract_y
 _atom_site_fract_z
 _atom_site_occupancy
  Yb  Yb0  1  0.36011000  0.56418000  0.33382000  1.0
  Yb  Yb1  1  0.63989000  0.43583000  0.66618000  1.0
  H  H2  1  0.75358000  0.37261000  0.02430000  1.0
  H  H3  1  0.24642000  0.62738000  0.97569000  1.0
  H  H4  1  0.04079000  0.32819000  0.89017000  1.0
  H  H5  1  0.95922000  0.67180000  0.10983000  1.0
  H  H6  1  0.29954000  0.96408000  0.89718000  1.0
  H  H7  1  0.70046000  0.03592000  0.10282000  1.0
  H  H8  1  0.14826000  0.15668000  0.73865000  1.0
  H  H9  1  0.85174000  0.84332000  0.26135000  1.0
  H  H10  1  0.53312000  0.24959000  0.29390000  1.0
  H  H11  1  0.46689000  0.75041000  0.70609000  1.0
  H  H12  1  0.48381000  0.03052000  0.26421000  1.0
  H  H13  1  0.51619000  0.96948000  0.73578000  1.0
  H  H14  1  0.35083000  0.35040000  0.16030000  1.0
  H  H15  1  0.64917000  0.64960000  0.83971000  1.0
  H  H16  1  0.28970000  0.17737000  0.11725000  1.0
  H  H17  1  0.71030000  0.82263000  0.88275000  1.0
  H  H18  1  0.07394000  0.14517000  0.15734000  1.0
  H  H19  1  0.92606000  0.85483000  0.84266000  1.0
  H  H20  1  0.18333000  0.02394000  0.27931000  1.0
  H  H21  1  0.81667000  0.97606000  0.72069000  1.0
  H  H22  1  0.99176000  0.15205000  0.50505000  1.0
  H  H23  1  0.00823000  0.84795000  0.49496000  1.0
  H  H24  1  0.89127000  0.13422000  0.39209000  1.0
  H  H25  1  0.10873000  0.86578000  0.60791000  1.0
  H  H26  1  0.91396000  0.30906000  0.38607000  1.0
  H  H27  1  0.08604000  0.69094000  0.61393000  1.0
  H  H28  1  0.24094000  0.42703000  0.64951000  1.0
  H  H29  1  0.75906000  0.57297000  0.35049000  1.0
  H  H30  1  0.08085000  0.41420000  0.60923000  1.0
  H  H31  1  0.91915000  0.58580000  0.39077000  1.0
  C  C32  1  0.67068000  0.55361000  0.15406000  1.0
  C  C33  1  0.32932000  0.44639000  0.84594000  1.0
  C  C34  1  0.84065000  0.52428000  0.07608000  1.0
  C  C35  1  0.15936000  0.47571000  0.92392000  1.0
  C  C36  1  0.86199000  0.42718000  0.01403000  1.0
  C  C37  1  0.13801000  0.57281000  0.98597000  1.0
  C  C38  1  0.02098000  0.40388000  0.93804000  1.0
  C  C39  1  0.97903000  0.59612000  0.06196000  1.0
  C  C40  1  0.17826000  0.77370000  0.17694000  1.0
  C  C41  1  0.82175000  0.22630000  0.82306000  1.0
  C  C42  1  0.08550000  0.89206000  0.08761000  1.0
  C  C43  1  0.91451000  0.10794000  0.91239000  1.0
  C  C44  1  0.16818000  0.98083000  0.94053000  1.0
  C  C45  1  0.83182000  0.01917000  0.05947000  1.0
  C  C46  1  0.08372000  0.08777000  0.85293000  1.0
  C  C47  1  0.91628000  0.91223000  0.14707000  1.0
  C  C48  1  0.54722000  0.25280000  0.53653000  1.0
  C  C49  1  0.45277000  0.74720000  0.46347000  1.0
  C  C50  1  0.52447000  0.12194000  0.51741000  1.0
  C  C51  1  0.47553000  0.87807000  0.48259000  1.0
  C  C52  1  0.51689000  0.13989000  0.38371000  1.0
  C  C53  1  0.48311000  0.86011000  0.61629000  1.0
  C  C54  1  0.49145000  0.01857000  0.36686000  1.0
  C  C55  1  0.50855000  0.98144000  0.63314000  1.0
  C  C56  1  0.23604000  0.33249000  0.25193000  1.0
  C  C57  1  0.76396000  0.66751000  0.74807000  1.0
  C  C58  1  0.17124000  0.13884000  0.20496000  1.0
  C  C59  1  0.82876000  0.86116000  0.79504000  1.0
  C  C60  1  0.97236000  0.20422000  0.39796000  1.0
  C  C61  1  0.02764000  0.79578000  0.60204000  1.0
  N  N62  1  0.13039000  0.22963000  0.28178000  1.0
  N  N63  1  0.86961000  0.77037000  0.71823000  1.0
  O  O64  1  0.54445000  0.50272000  0.15094000  1.0
  O  O65  1  0.45556000  0.49728000  0.84905000  1.0
  O  O66  1  0.65167000  0.62882000  0.22558000  1.0
  O  O67  1  0.34833000  0.37118000  0.77441000  1.0
  O  O68  1  0.33086000  0.75585000  0.11846000  1.0
  O  O69  1  0.66914000  0.24415000  0.88154000  1.0
  O  O70  1  0.10415000  0.68914000  0.31124000  1.0
  O  O71  1  0.89585000  0.31086000  0.68876000  1.0
  O  O72  1  0.49519000  0.37486000  0.45953000  1.0
  O  O73  1  0.50481000  0.62515000  0.54047000  1.0
  O  O74  1  0.61758000  0.23676000  0.62868000  1.0
  O  O75  1  0.38242000  0.76324000  0.37132000  1.0
  O  O76  1  0.20726000  0.40648000  0.32273000  1.0
  O  O77  1  0.79274000  0.59351000  0.67727000  1.0
  O  O78  1  0.18669000  0.47060000  0.57168000  1.0
  O  O79  1  0.81331000  0.52940000  0.42833000  1.0
