# generated using pymatgen
data_CaH20C32(NO2)4
_symmetry_space_group_name_H-M   'P 1'
_cell_length_a   8.11261000
_cell_length_b   12.83530000
_cell_length_c   15.24670000
_cell_angle_alpha   71.99550000
_cell_angle_beta   74.90260000
_cell_angle_gamma   76.03120000
_symmetry_Int_Tables_number   1
_chemical_formula_structural   CaH20C32(NO2)4
_chemical_formula_sum   'Ca2 H40 C64 N8 O16'
_cell_volume   1435.19770489
_cell_formula_units_Z   2
loop_
 _symmetry_equiv_pos_site_id
 _symmetry_equiv_pos_as_xyz
  1  'x, y, z'
loop_
 _atom_site_type_symbol
 _atom_site_label
 _atom_site_symmetry_multiplicity
 _atom_site_fract_x
 _atom_site_fract_y
 _atom_site_fract_z
 _atom_site_occupancy
  Ca  Ca0  1  0.24023000  0.42202000  0.01579000  1.0
  Ca  Ca1  1  0.75976000  0.57798000  0.98421000  1.0
  H  H2  1  0.62798000  0.30020000  0.25993000  1.0
  H  H3  1  0.37203000  0.69980000  0.74007000  1.0
  H  H4  1  0.55489000  0.43210000  0.28470000  1.0
  H  H5  1  0.44511000  0.56790000  0.71530000  1.0
  H  H6  1  0.15682000  0.03852000  0.47080000  1.0
  H  H7  1  0.84318000  0.96148000  0.52920000  1.0
  H  H8  1  0.90789000  0.06810000  0.60341000  1.0
  H  H9  1  0.09211000  0.93191000  0.39659000  1.0
  H  H10  1  0.80288000  0.25421000  0.63276000  1.0
  H  H11  1  0.19712000  0.74579000  0.36724000  1.0
  H  H12  1  0.94050000  0.41516000  0.53324000  1.0
  H  H13  1  0.05951000  0.58484000  0.46676000  1.0
  H  H14  1  0.89707000  0.37626000  0.81112000  1.0
  H  H15  1  0.10293000  0.62374000  0.18888000  1.0
  H  H16  1  0.98409000  0.49913000  0.75381000  1.0
  H  H17  1  0.01591000  0.50087000  0.24619000  1.0
  H  H18  1  0.55279000  0.40086000  0.48667000  1.0
  H  H19  1  0.44721000  0.59914000  0.51333000  1.0
  H  H20  1  0.68686000  0.22568000  0.43920000  1.0
  H  H21  1  0.31314000  0.77432000  0.56080000  1.0
  H  H22  1  0.58243000  0.04855000  0.52902000  1.0
  H  H23  1  0.41757000  0.95145000  0.47097000  1.0
  H  H24  1  0.34512000  0.04098000  0.67045000  1.0
  H  H25  1  0.65488000  0.95902000  0.32955000  1.0
  H  H26  1  0.88323000  0.31737000  0.13919000  1.0
  H  H27  1  0.11677000  0.68263000  0.86081000  1.0
  H  H28  1  0.77447000  0.13828000  0.22517000  1.0
  H  H29  1  0.22553000  0.86172000  0.77483000  1.0
  H  H30  1  0.98771000  0.95932000  0.23848000  1.0
  H  H31  1  0.01229000  0.04068000  0.76152000  1.0
  H  H32  1  0.68165000  0.34101000  0.95825000  1.0
  H  H33  1  0.31835000  0.65899000  0.04175000  1.0
  H  H34  1  0.91583000  0.17311000  0.96533000  1.0
  H  H35  1  0.08417000  0.82689000  0.03467000  1.0
  H  H36  1  0.83605000  0.98453000  0.05303000  1.0
  H  H37  1  0.16395000  0.01547000  0.94697000  1.0
  H  H38  1  0.29388000  0.86196000  0.20601000  1.0
  H  H39  1  0.70612000  0.13804000  0.79399000  1.0
  H  H40  1  0.60405000  0.87048000  0.13635000  1.0
  H  H41  1  0.39594000  0.12952000  0.86365000  1.0
  C  C42  1  0.48684000  0.42198000  0.16039000  1.0
  C  C43  1  0.51316000  0.57802000  0.83961000  1.0
  C  C44  1  0.51851000  0.36962000  0.26110000  1.0
  C  C45  1  0.48150000  0.63038000  0.73890000  1.0
  C  C46  1  0.34675000  0.21782000  0.35300000  1.0
  C  C47  1  0.65325000  0.78218000  0.64699000  1.0
  C  C48  1  0.18828000  0.21080000  0.42926000  1.0
  C  C49  1  0.81172000  0.78920000  0.57074000  1.0
  C  C50  1  0.10980000  0.12034000  0.48390000  1.0
  C  C51  1  0.89020000  0.87966000  0.51610000  1.0
  C  C52  1  0.97078000  0.13751000  0.55790000  1.0
  C  C53  1  0.02922000  0.86249000  0.44210000  1.0
  C  C54  1  0.91151000  0.24266000  0.57500000  1.0
  C  C55  1  0.08849000  0.75734000  0.42500000  1.0
  C  C56  1  0.98868000  0.33416000  0.51859000  1.0
  C  C57  1  0.01133000  0.66585000  0.48141000  1.0
  C  C58  1  0.12792000  0.31591000  0.44647000  1.0
  C  C59  1  0.87208000  0.68409000  0.55353000  1.0
  C  C60  1  0.24469000  0.39248000  0.38076000  1.0
  C  C61  1  0.75531000  0.60752000  0.61924000  1.0
  C  C62  1  0.09386000  0.39783000  0.87334000  1.0
  C  C63  1  0.90614000  0.60217000  0.12666000  1.0
  C  C64  1  0.01752000  0.41040000  0.78796000  1.0
  C  C65  1  0.98249000  0.58960000  0.21204000  1.0
  C  C66  1  0.26080000  0.40749000  0.64817000  1.0
  C  C67  1  0.73920000  0.59250000  0.35183000  1.0
  C  C68  1  0.36997000  0.31847000  0.60421000  1.0
  C  C69  1  0.63003000  0.68153000  0.39579000  1.0
  C  C70  1  0.50548000  0.32370000  0.52667000  1.0
  C  C71  1  0.49452000  0.67630000  0.47333000  1.0
  C  C72  1  0.58052000  0.22437000  0.50023000  1.0
  C  C73  1  0.41948000  0.77563000  0.49977000  1.0
  C  C74  1  0.52251000  0.12443000  0.55095000  1.0
  C  C75  1  0.47749000  0.87557000  0.44905000  1.0
  C  C76  1  0.38718000  0.11956000  0.63031000  1.0
  C  C77  1  0.61282000  0.88044000  0.36969000  1.0
  C  C78  1  0.31155000  0.21811000  0.65507000  1.0
  C  C79  1  0.68845000  0.78189000  0.34493000  1.0
  C  C80  1  0.16414000  0.24167000  0.73186000  1.0
  C  C81  1  0.83587000  0.75832000  0.26814000  1.0
  C  C82  1  0.97382000  0.23821000  0.14985000  1.0
  C  C83  1  0.02618000  0.76179000  0.85015000  1.0
  C  C84  1  0.91297000  0.13770000  0.19778000  1.0
  C  C85  1  0.08703000  0.86230000  0.80222000  1.0
  C  C86  1  0.03073000  0.03916000  0.20595000  1.0
  C  C87  1  0.96927000  0.96084000  0.79405000  1.0
  C  C88  1  0.20860000  0.04117000  0.16726000  1.0
  C  C89  1  0.79140000  0.95883000  0.83274000  1.0
  C  C90  1  0.25835000  0.14682000  0.12060000  1.0
  C  C91  1  0.74164000  0.85318000  0.87940000  1.0
  C  C92  1  0.65082000  0.25796000  0.99399000  1.0
  C  C93  1  0.34918000  0.74204000  0.00602000  1.0
  C  C94  1  0.78250000  0.16336000  0.99900000  1.0
  C  C95  1  0.21750000  0.83664000  0.00100000  1.0
  C  C96  1  0.73830000  0.06008000  0.04608000  1.0
  C  C97  1  0.26170000  0.93992000  0.95392000  1.0
  C  C98  1  0.56300000  0.05155000  0.08720000  1.0
  C  C99  1  0.43700000  0.94845000  0.91280000  1.0
  C  C100  1  0.43925000  0.15212000  0.07898000  1.0
  C  C101  1  0.56075000  0.84788000  0.92102000  1.0
  C  C102  1  0.33672000  0.94185000  0.17221000  1.0
  C  C103  1  0.66328000  0.05815000  0.82779000  1.0
  C  C104  1  0.50761000  0.94662000  0.13390000  1.0
  C  C105  1  0.49239000  0.05338000  0.86610000  1.0
  N  N106  1  0.37271000  0.32801000  0.32857000  1.0
  N  N107  1  0.62729000  0.67199000  0.67143000  1.0
  N  N108  1  0.13639000  0.35625000  0.72068000  1.0
  N  N109  1  0.86362000  0.64375000  0.27933000  1.0
  N  N110  1  0.14063000  0.24305000  0.11254000  1.0
  N  N111  1  0.85937000  0.75695000  0.88746000  1.0
  N  N112  1  0.48458000  0.25322000  0.03264000  1.0
  N  N113  1  0.51542000  0.74678000  0.96737000  1.0
  O  O114  1  0.33702000  0.43319000  0.14552000  1.0
  O  O115  1  0.66298000  0.56680000  0.85448000  1.0
  O  O116  1  0.61993000  0.44994000  0.09987000  1.0
  O  O117  1  0.38007000  0.55006000  0.90013000  1.0
  O  O118  1  0.44317000  0.14428000  0.31883000  1.0
  O  O119  1  0.55682000  0.85572000  0.68117000  1.0
  O  O120  1  0.23958000  0.49133000  0.37237000  1.0
  O  O121  1  0.76043000  0.50867000  0.62763000  1.0
  O  O122  1  0.99725000  0.44762000  0.93484000  1.0
  O  O123  1  0.00274000  0.55238000  0.06516000  1.0
  O  O124  1  0.24315000  0.34338000  0.87987000  1.0
  O  O125  1  0.75684000  0.65662000  0.12014000  1.0
  O  O126  1  0.27012000  0.50636000  0.62876000  1.0
  O  O127  1  0.72988000  0.49364000  0.37124000  1.0
  O  O128  1  0.07875000  0.17752000  0.79433000  1.0
  O  O129  1  0.92125000  0.82248000  0.20567000  1.0
