# generated using pymatgen
data_CuH15C17Br(NO)4
_symmetry_space_group_name_H-M   'P 1'
_cell_length_a   8.95346000
_cell_length_b   9.21305000
_cell_length_c   11.44290000
_cell_angle_alpha   93.56410000
_cell_angle_beta   89.99990000
_cell_angle_gamma   89.99980000
_symmetry_Int_Tables_number   1
_chemical_formula_structural   CuH15C17Br(NO)4
_chemical_formula_sum   'Cu2 H30 C34 Br2 N8 O8'
_cell_volume   942.08401627
_cell_formula_units_Z   2
loop_
 _symmetry_equiv_pos_site_id
 _symmetry_equiv_pos_as_xyz
  1  'x, y, z'
loop_
 _atom_site_type_symbol
 _atom_site_label
 _atom_site_symmetry_multiplicity
 _atom_site_fract_x
 _atom_site_fract_y
 _atom_site_fract_z
 _atom_site_occupancy
  Cu  Cu0  1  0.40460000  0.69731000  0.44345000  1.0
  Cu  Cu1  1  0.90460000  0.30269000  0.55655000  1.0
  H  H2  1  0.52767000  0.01629000  0.40244000  1.0
  H  H3  1  0.02766000  0.98370000  0.59756000  1.0
  H  H4  1  0.08771000  0.85642000  0.41066000  1.0
  H  H5  1  0.58770000  0.14359000  0.58934000  1.0
  H  H6  1  0.07789000  0.14831000  0.35922000  1.0
  H  H7  1  0.57788000  0.85170000  0.64079000  1.0
  H  H8  1  0.48880000  0.27608000  0.36611000  1.0
  H  H9  1  0.98879000  0.72392000  0.63389000  1.0
  H  H10  1  0.30694000  0.35208000  0.38021000  1.0
  H  H11  1  0.80693000  0.64792000  0.61979000  1.0
  H  H12  1  0.52337000  0.09551000  0.16998000  1.0
  H  H13  1  0.02337000  0.90449000  0.83002000  1.0
  H  H14  1  0.31942000  0.26791000  0.86692000  1.0
  H  H15  1  0.81942000  0.73209000  0.13308000  1.0
  H  H16  1  0.19939000  0.44165000  0.21289000  1.0
  H  H17  1  0.69939000  0.55835000  0.78711000  1.0
  H  H18  1  0.07857000  0.53194000  0.05132000  1.0
  H  H19  1  0.57858000  0.46806000  0.94868000  1.0
  H  H20  1  0.20780000  0.55554000  0.93531000  1.0
  H  H21  1  0.70781000  0.44446000  0.06469000  1.0
  H  H22  1  0.12674000  0.48262000  0.73716000  1.0
  H  H23  1  0.62674000  0.51738000  0.26284000  1.0
  H  H24  1  0.77862000  0.18692000  0.79805000  1.0
  H  H25  1  0.27861000  0.81307000  0.20195000  1.0
  H  H26  1  0.90769000  0.27924000  0.01121000  1.0
  H  H27  1  0.40769000  0.72076000  0.98879000  1.0
  H  H28  1  0.42650000  0.40198000  0.70765000  1.0
  H  H29  1  0.92649000  0.59802000  0.29235000  1.0
  H  H30  1  0.32042000  0.43638000  0.57908000  1.0
  H  H31  1  0.82042000  0.56362000  0.42092000  1.0
  C  C32  1  0.40682000  0.01083000  0.39993000  1.0
  C  C33  1  0.90682000  0.98917000  0.60007000  1.0
  C  C34  1  0.17689000  0.93482000  0.40421000  1.0
  C  C35  1  0.67689000  0.06518000  0.59579000  1.0
  C  C36  1  0.17166000  0.07799000  0.37664000  1.0
  C  C37  1  0.67165000  0.92202000  0.62336000  1.0
  C  C38  1  0.37246000  0.26379000  0.33675000  1.0
  C  C39  1  0.87246000  0.73621000  0.66325000  1.0
  C  C40  1  0.36131000  0.26809000  0.20524000  1.0
  C  C41  1  0.86131000  0.73191000  0.79476000  1.0
  C  C42  1  0.44586000  0.17139000  0.13288000  1.0
  C  C43  1  0.94586000  0.82861000  0.86712000  1.0
  C  C44  1  0.42881000  0.17271000  0.01192000  1.0
  C  C45  1  0.92881000  0.82728000  0.98808000  1.0
  C  C46  1  0.33180000  0.26961000  0.96180000  1.0
  C  C47  1  0.83180000  0.73039000  0.03820000  1.0
  C  C48  1  0.24935000  0.36764000  0.03460000  1.0
  C  C49  1  0.74935000  0.63236000  0.96540000  1.0
  C  C50  1  0.26343000  0.36534000  0.15601000  1.0
  C  C51  1  0.76343000  0.63466000  0.84400000  1.0
  C  C52  1  0.14508000  0.47488000  0.98232000  1.0
  C  C53  1  0.64508000  0.52512000  0.01768000  1.0
  C  C54  1  0.04945000  0.41292000  0.77996000  1.0
  C  C55  1  0.54945000  0.58708000  0.22004000  1.0
  C  C56  1  0.87124000  0.26037000  0.81594000  1.0
  C  C57  1  0.37124000  0.73963000  0.18406000  1.0
  C  C58  1  0.93240000  0.30552000  0.92207000  1.0
  C  C59  1  0.43240000  0.69447000  0.07793000  1.0
  C  C60  1  0.55654000  0.47466000  0.56459000  1.0
  C  C61  1  0.05654000  0.52534000  0.43541000  1.0
  C  C62  1  0.41383000  0.47435000  0.63599000  1.0
  C  C63  1  0.91383000  0.52566000  0.36401000  1.0
  C  C64  1  0.37062000  0.62716000  0.68574000  1.0
  C  C65  1  0.87062000  0.37285000  0.31426000  1.0
  Br  Br66  1  0.53929000  0.03836000  0.91245000  1.0
  Br  Br67  1  0.03929000  0.96164000  0.08755000  1.0
  N  N68  1  0.32372000  0.89522000  0.41945000  1.0
  N  N69  1  0.82372000  0.10478000  0.58055000  1.0
  N  N70  1  0.31845000  0.12450000  0.37525000  1.0
  N  N71  1  0.81844000  0.87550000  0.62475000  1.0
  N  N72  1  0.94563000  0.32758000  0.72808000  1.0
  N  N73  1  0.44563000  0.67242000  0.27192000  1.0
  N  N74  1  0.04412000  0.40241000  0.89741000  1.0
  N  N75  1  0.54412000  0.59759000  0.10259000  1.0
  O  O76  1  0.55933000  0.55062000  0.47314000  1.0
  O  O77  1  0.05934000  0.44937000  0.52685000  1.0
  O  O78  1  0.66690000  0.40374000  0.59747000  1.0
  O  O79  1  0.16689000  0.59627000  0.40253000  1.0
  O  O80  1  0.36749000  0.73029000  0.61353000  1.0
  O  O81  1  0.86749000  0.26971000  0.38646000  1.0
  O  O82  1  0.33911000  0.64641000  0.79183000  1.0
  O  O83  1  0.83913000  0.35359000  0.20816000  1.0
