# generated using pymatgen
data_SnH17C11N5O3
_symmetry_space_group_name_H-M   'P 1'
_cell_length_a   9.69220000
_cell_length_b   11.97850000
_cell_length_c   12.93600000
_cell_angle_alpha   103.66300000
_cell_angle_beta   90.00000000
_cell_angle_gamma   90.00000000
_symmetry_Int_Tables_number   1
_chemical_formula_structural   SnH17C11N5O3
_chemical_formula_sum   'Sn4 H68 C44 N20 O12'
_cell_volume   1459.34456763
_cell_formula_units_Z   4
loop_
 _symmetry_equiv_pos_site_id
 _symmetry_equiv_pos_as_xyz
  1  'x, y, z'
loop_
 _atom_site_type_symbol
 _atom_site_label
 _atom_site_symmetry_multiplicity
 _atom_site_fract_x
 _atom_site_fract_y
 _atom_site_fract_z
 _atom_site_occupancy
  Sn  Sn0  1  0.16753000  0.95264000  0.18872000  1.0
  Sn  Sn1  1  0.66753000  0.04736000  0.31128000  1.0
  Sn  Sn2  1  0.83247000  0.04736000  0.81128000  1.0
  Sn  Sn3  1  0.33247000  0.95264000  0.68872000  1.0
  H  H4  1  0.15992000  0.15924000  0.39642000  1.0
  H  H5  1  0.65992000  0.84076000  0.10358000  1.0
  H  H6  1  0.84008000  0.84076000  0.60358000  1.0
  H  H7  1  0.34008000  0.15924000  0.89642000  1.0
  H  H8  1  0.13829000  0.08277000  0.49598000  1.0
  H  H9  1  0.63829000  0.91723000  0.00402000  1.0
  H  H10  1  0.86171000  0.91723000  0.50402000  1.0
  H  H11  1  0.36171000  0.08277000  0.99598000  1.0
  H  H12  1  0.98414000  0.23458000  0.59924000  1.0
  H  H13  1  0.48414000  0.76542000  0.90076000  1.0
  H  H14  1  0.01586000  0.76542000  0.40076000  1.0
  H  H15  1  0.51586000  0.23458000  0.09924000  1.0
  H  H16  1  0.14020000  0.29692000  0.56800000  1.0
  H  H17  1  0.64020000  0.70308000  0.93200000  1.0
  H  H18  1  0.85980000  0.70308000  0.43200000  1.0
  H  H19  1  0.35980000  0.29692000  0.06800000  1.0
  H  H20  1  0.76724000  0.31482000  0.55243000  1.0
  H  H21  1  0.26724000  0.68518000  0.94757000  1.0
  H  H22  1  0.23276000  0.68518000  0.44757000  1.0
  H  H23  1  0.73276000  0.31482000  0.05243000  1.0
  H  H24  1  0.92289000  0.58534000  0.14787000  1.0
  H  H25  1  0.42289000  0.41466000  0.35213000  1.0
  H  H26  1  0.07711000  0.41466000  0.85213000  1.0
  H  H27  1  0.57711000  0.58534000  0.64787000  1.0
  H  H28  1  0.10445000  0.56218000  0.12994000  1.0
  H  H29  1  0.60445000  0.43782000  0.37006000  1.0
  H  H30  1  0.89555000  0.43782000  0.87006000  1.0
  H  H31  1  0.39555000  0.56218000  0.62994000  1.0
  H  H32  1  0.18835000  0.84755000  0.35123000  1.0
  H  H33  1  0.68835000  0.15245000  0.14877000  1.0
  H  H34  1  0.81165000  0.15245000  0.64877000  1.0
  H  H35  1  0.31165000  0.84755000  0.85123000  1.0
  H  H36  1  0.33893000  0.93274000  0.35150000  1.0
  H  H37  1  0.83893000  0.06726000  0.14850000  1.0
  H  H38  1  0.66107000  0.06726000  0.64850000  1.0
  H  H39  1  0.16107000  0.93274000  0.85150000  1.0
  H  H40  1  0.32455000  0.79680000  0.25798000  1.0
  H  H41  1  0.82455000  0.20320000  0.24202000  1.0
  H  H42  1  0.67545000  0.20320000  0.74202000  1.0
  H  H43  1  0.17545000  0.79680000  0.75798000  1.0
  H  H44  1  0.07491000  0.81954000  0.00171000  1.0
  H  H45  1  0.57491000  0.18046000  0.49829000  1.0
  H  H46  1  0.92509000  0.18046000  0.99829000  1.0
  H  H47  1  0.42509000  0.81954000  0.50171000  1.0
  H  H48  1  0.93500000  0.90166000  0.07073000  1.0
  H  H49  1  0.43500000  0.09834000  0.42927000  1.0
  H  H50  1  0.06500000  0.09833000  0.92927000  1.0
  H  H51  1  0.56500000  0.90166000  0.57073000  1.0
  H  H52  1  0.99031000  0.77554000  0.10882000  1.0
  H  H53  1  0.49031000  0.22446000  0.39118000  1.0
  H  H54  1  0.00969000  0.22446000  0.89118000  1.0
  H  H55  1  0.50970000  0.77554000  0.60882000  1.0
  H  H56  1  0.17943000  0.13152000  0.09630000  1.0
  H  H57  1  0.67943000  0.86848000  0.40370000  1.0
  H  H58  1  0.82057000  0.86848000  0.90370000  1.0
  H  H59  1  0.32057000  0.13152000  0.59630000  1.0
  H  H60  1  0.27337000  0.16919000  0.21902000  1.0
  H  H61  1  0.77337000  0.83081000  0.28098000  1.0
  H  H62  1  0.72663000  0.83081000  0.78098000  1.0
  H  H63  1  0.22663000  0.16919000  0.71902000  1.0
  H  H64  1  0.08861000  0.17633000  0.21837000  1.0
  H  H65  1  0.58861000  0.82367000  0.28163000  1.0
  H  H66  1  0.91139000  0.82367000  0.78163000  1.0
  H  H67  1  0.41139000  0.17632000  0.71837000  1.0
  H  H68  1  0.22312000  0.47105000  0.24606000  1.0
  H  H69  1  0.72312000  0.52895000  0.25394000  1.0
  H  H70  1  0.77688000  0.52895000  0.75394000  1.0
  H  H71  1  0.27688000  0.47105000  0.74606000  1.0
  C  C72  1  0.96491000  0.07399000  0.39386000  1.0
  C  C73  1  0.46491000  0.92601000  0.10614000  1.0
  C  C74  1  0.03509000  0.92601000  0.60614000  1.0
  C  C75  1  0.53508000  0.07399000  0.89386000  1.0
  C  C76  1  0.13942000  0.38987000  0.35704000  1.0
  C  C77  1  0.63942000  0.61013000  0.14296000  1.0
  C  C78  1  0.86058000  0.61013000  0.64297000  1.0
  C  C79  1  0.36058000  0.38987000  0.85704000  1.0
  C  C80  1  0.08530000  0.14025000  0.45395000  1.0
  C  C81  1  0.58530000  0.85975000  0.04605000  1.0
  C  C82  1  0.91470000  0.85975000  0.54605000  1.0
  C  C83  1  0.41470000  0.14025000  0.95395000  1.0
  C  C84  1  0.00830000  0.37614000  0.40190000  1.0
  C  C85  1  0.50830000  0.62386000  0.09810000  1.0
  C  C86  1  0.99170000  0.62386000  0.59810000  1.0
  C  C87  1  0.49170000  0.37614000  0.90190000  1.0
  C  C88  1  0.00739000  0.49519000  0.24632000  1.0
  C  C89  1  0.50739000  0.50481000  0.25368000  1.0
  C  C90  1  0.99261000  0.50481000  0.75368000  1.0
  C  C91  1  0.49261000  0.49519000  0.74632000  1.0
  C  C92  1  0.04642000  0.25152000  0.53391000  1.0
  C  C93  1  0.54642000  0.74848000  0.96609000  1.0
  C  C94  1  0.95358000  0.74848000  0.46609000  1.0
  C  C95  1  0.45358000  0.25152000  0.03391000  1.0
  C  C96  1  0.82748000  0.34632000  0.49455000  1.0
  C  C97  1  0.32748000  0.65368000  0.00545000  1.0
  C  C98  1  0.17252000  0.65368000  0.50545000  1.0
  C  C99  1  0.67252000  0.34632000  0.99455000  1.0
  C  C100  1  0.88941000  0.42431000  0.36847000  1.0
  C  C101  1  0.38941000  0.57569000  0.13153000  1.0
  C  C102  1  0.11058000  0.57569000  0.63153000  1.0
  C  C103  1  0.61059000  0.42431000  0.86847000  1.0
  C  C104  1  0.26773000  0.87278000  0.30101000  1.0
  C  C105  1  0.76773000  0.12722000  0.19899000  1.0
  C  C106  1  0.73227000  0.12722000  0.69899000  1.0
  C  C107  1  0.23227000  0.87278000  0.80101000  1.0
  C  C108  1  0.02514000  0.84934000  0.07939000  1.0
  C  C109  1  0.52514000  0.15066000  0.42061000  1.0
  C  C110  1  0.97486000  0.15066000  0.92061000  1.0
  C  C111  1  0.47486000  0.84934000  0.57939000  1.0
  C  C112  1  0.17922000  0.12927000  0.18048000  1.0
  C  C113  1  0.67922000  0.87073000  0.31952000  1.0
  C  C114  1  0.82078000  0.87073000  0.81952000  1.0
  C  C115  1  0.32078000  0.12926000  0.68048000  1.0
  N  N116  1  0.12793000  0.45111000  0.27741000  1.0
  N  N117  1  0.62793000  0.54889000  0.22259000  1.0
  N  N118  1  0.87207000  0.54889000  0.72259000  1.0
  N  N119  1  0.37207000  0.45111000  0.77741000  1.0
  N  N120  1  0.96577000  0.32741000  0.48407000  1.0
  N  N121  1  0.46577000  0.67259000  0.01593000  1.0
  N  N122  1  0.03423000  0.67259000  0.51593000  1.0
  N  N123  1  0.53423000  0.32741000  0.98407000  1.0
  N  N124  1  0.88529000  0.48292000  0.29107000  1.0
  N  N125  1  0.38529000  0.51708000  0.20893000  1.0
  N  N126  1  0.11471000  0.51708000  0.70893000  1.0
  N  N127  1  0.61471000  0.48292000  0.79107000  1.0
  N  N128  1  0.77724000  0.40473000  0.42699000  1.0
  N  N129  1  0.27724000  0.59527000  0.07301000  1.0
  N  N130  1  0.22276000  0.59527000  0.57301000  1.0
  N  N131  1  0.72276000  0.40473000  0.92699000  1.0
  N  N132  1  0.01408000  0.55300000  0.16960000  1.0
  N  N133  1  0.51408000  0.44700000  0.33040000  1.0
  N  N134  1  0.98592000  0.44700000  0.83040000  1.0
  N  N135  1  0.48592000  0.55300000  0.66960000  1.0
  O  O136  1  0.84352000  0.09785000  0.43194000  1.0
  O  O137  1  0.34352000  0.90215000  0.06806000  1.0
  O  O138  1  0.15648000  0.90215000  0.56806000  1.0
  O  O139  1  0.65647000  0.09785000  0.93194000  1.0
  O  O140  1  0.98575000  0.99738000  0.30894000  1.0
  O  O141  1  0.48575000  0.00262000  0.19106000  1.0
  O  O142  1  0.01425000  0.00262000  0.69106000  1.0
  O  O143  1  0.51425000  0.99738000  0.80894000  1.0
  O  O144  1  0.25401000  0.35460000  0.38073000  1.0
  O  O145  1  0.75401000  0.64540000  0.11928000  1.0
  O  O146  1  0.74599000  0.64540000  0.61928000  1.0
  O  O147  1  0.24599000  0.35460000  0.88073000  1.0
