# generated using pymatgen
data_Mn3H44C52(NO10)2
_symmetry_space_group_name_H-M   'P 1'
_cell_length_a   9.34195000
_cell_length_b   17.42050000
_cell_length_c   17.42060000
_cell_angle_alpha   74.83910000
_cell_angle_beta   77.52390000
_cell_angle_gamma   77.52410000
_symmetry_Int_Tables_number   1
_chemical_formula_structural   Mn3H44C52(NO10)2
_chemical_formula_sum   'Mn6 H88 C104 N4 O40'
_cell_volume   2633.20490401
_cell_formula_units_Z   2
loop_
 _symmetry_equiv_pos_site_id
 _symmetry_equiv_pos_as_xyz
  1  'x, y, z'
loop_
 _atom_site_type_symbol
 _atom_site_label
 _atom_site_symmetry_multiplicity
 _atom_site_fract_x
 _atom_site_fract_y
 _atom_site_fract_z
 _atom_site_occupancy
  Mn  Mn0  1  0.50009000  0.49999000  0.00002000  1.0
  Mn  Mn1  1  0.00001000  0.99995000  0.49997000  1.0
  Mn  Mn2  1  0.43970000  0.68515000  0.80831000  1.0
  Mn  Mn3  1  0.06016000  0.19170000  0.31484000  1.0
  Mn  Mn4  1  0.56022000  0.31480000  0.19171000  1.0
  Mn  Mn5  1  0.93998000  0.80830000  0.68514000  1.0
  H  H6  1  0.60113000  0.82670000  0.79208000  1.0
  H  H7  1  0.89888000  0.20791000  0.17330000  1.0
  H  H8  1  0.39888000  0.17329000  0.20792000  1.0
  H  H9  1  0.10111000  0.79208000  0.82671000  1.0
  H  H10  1  0.40611000  0.52961000  0.67316000  1.0
  H  H11  1  0.09389000  0.32685000  0.47039000  1.0
  H  H12  1  0.59387000  0.47038000  0.32685000  1.0
  H  H13  1  0.90611000  0.67316000  0.52961000  1.0
  H  H14  1  0.43502000  0.33564000  0.88496000  1.0
  H  H15  1  0.06499000  0.11505000  0.66435000  1.0
  H  H16  1  0.56496000  0.66435000  0.11505000  1.0
  H  H17  1  0.93506000  0.88496000  0.33564000  1.0
  H  H18  1  0.30076000  0.42335000  0.45869000  1.0
  H  H19  1  0.19924000  0.54132000  0.57665000  1.0
  H  H20  1  0.69924000  0.57665000  0.54132000  1.0
  H  H21  1  0.80076000  0.45868000  0.42336000  1.0
  H  H22  1  0.84012000  0.10804000  0.64737000  1.0
  H  H23  1  0.65987000  0.35263000  0.89196000  1.0
  H  H24  1  0.15987000  0.89198000  0.35263000  1.0
  H  H25  1  0.34014000  0.64737000  0.10802000  1.0
  H  H26  1  0.42852000  0.34337000  0.35529000  1.0
  H  H27  1  0.07146000  0.64472000  0.65663000  1.0
  H  H28  1  0.57147000  0.65663000  0.64471000  1.0
  H  H29  1  0.92853000  0.35529000  0.34338000  1.0
  H  H30  1  0.52180000  0.96191000  0.79470000  1.0
  H  H31  1  0.97819000  0.20530000  0.03809000  1.0
  H  H32  1  0.47820000  0.03808000  0.20529000  1.0
  H  H33  1  0.02180000  0.79469000  0.96191000  1.0
  H  H34  1  0.43164000  0.28397000  0.65639000  1.0
  H  H35  1  0.06838000  0.34361000  0.71603000  1.0
  H  H36  1  0.56836000  0.71602000  0.34362000  1.0
  H  H37  1  0.93165000  0.65639000  0.28397000  1.0
  H  H38  1  0.68695000  0.35007000  0.57459000  1.0
  H  H39  1  0.81307000  0.42541000  0.64992000  1.0
  H  H40  1  0.31306000  0.64992000  0.42541000  1.0
  H  H41  1  0.18694000  0.57459000  0.35007000  1.0
  H  H42  1  0.69570000  0.22674000  0.70006000  1.0
  H  H43  1  0.80430000  0.29995000  0.77326000  1.0
  H  H44  1  0.30427000  0.77327000  0.29996000  1.0
  H  H45  1  0.19574000  0.70005000  0.22673000  1.0
  H  H46  1  0.81364000  0.27059000  0.47126000  1.0
  H  H47  1  0.68636000  0.52873000  0.72941000  1.0
  H  H48  1  0.18636000  0.72940000  0.52873000  1.0
  H  H49  1  0.31363000  0.47127000  0.27059000  1.0
  H  H50  1  0.28882000  0.33798000  0.08962000  1.0
  H  H51  1  0.21117000  0.91038000  0.66203000  1.0
  H  H52  1  0.71117000  0.66202000  0.91038000  1.0
  H  H53  1  0.78884000  0.08962000  0.33798000  1.0
  H  H54  1  0.27072000  0.38779000  0.98906000  1.0
  H  H55  1  0.22926000  0.01094000  0.61223000  1.0
  H  H56  1  0.72927000  0.61221000  0.01094000  1.0
  H  H57  1  0.77073000  0.98906000  0.38779000  1.0
  H  H58  1  0.02050000  0.36298000  0.01017000  1.0
  H  H59  1  0.47949000  0.98983000  0.63703000  1.0
  H  H60  1  0.97949000  0.63703000  0.98983000  1.0
  H  H61  1  0.52052000  0.01017000  0.36297000  1.0
  H  H62  1  0.05970000  0.29400000  0.10044000  1.0
  H  H63  1  0.44029000  0.89956000  0.70600000  1.0
  H  H64  1  0.94028000  0.70600000  0.89956000  1.0
  H  H65  1  0.55973000  0.10044000  0.29400000  1.0
  H  H66  1  0.85275000  0.44343000  0.09029000  1.0
  H  H67  1  0.64723000  0.90972000  0.55657000  1.0
  H  H68  1  0.14724000  0.55658000  0.90972000  1.0
  H  H69  1  0.35276000  0.09028000  0.44342000  1.0
  H  H70  1  0.92069000  0.38571000  0.17926000  1.0
  H  H71  1  0.57930000  0.82075000  0.61429000  1.0
  H  H72  1  0.07931000  0.61430000  0.82075000  1.0
  H  H73  1  0.42068000  0.17925000  0.38570000  1.0
  H  H74  1  0.06848000  0.58006000  0.14057000  1.0
  H  H75  1  0.43150000  0.85943000  0.41995000  1.0
  H  H76  1  0.93153000  0.41995000  0.85942000  1.0
  H  H77  1  0.56846000  0.14059000  0.58005000  1.0
  H  H78  1  0.93559000  0.52457000  0.21108000  1.0
  H  H79  1  0.56439000  0.78893000  0.47544000  1.0
  H  H80  1  0.06442000  0.47544000  0.78892000  1.0
  H  H81  1  0.43557000  0.21108000  0.52455000  1.0
  H  H82  1  0.88941000  0.58350000  0.11687000  1.0
  H  H83  1  0.61057000  0.88314000  0.41651000  1.0
  H  H84  1  0.11060000  0.41651000  0.88313000  1.0
  H  H85  1  0.38939000  0.11687000  0.58348000  1.0
  H  H86  1  0.37118000  0.08172000  0.84415000  1.0
  H  H87  1  0.12883000  0.15586000  0.91828000  1.0
  H  H88  1  0.62882000  0.91827000  0.15585000  1.0
  H  H89  1  0.87119000  0.84414000  0.08172000  1.0
  H  H90  1  0.53713000  0.79173000  0.88178000  1.0
  H  H91  1  0.96289000  0.11822000  0.20827000  1.0
  H  H92  1  0.46288000  0.20826000  0.11822000  1.0
  H  H93  1  0.03712000  0.88178000  0.79175000  1.0
  C  C94  1  0.48613000  0.39041000  0.52205000  1.0
  C  C95  1  0.01388000  0.47796000  0.60958000  1.0
  C  C96  1  0.51388000  0.60958000  0.47796000  1.0
  C  C97  1  0.98613000  0.52205000  0.39042000  1.0
  C  C98  1  0.41372000  0.46572000  0.70146000  1.0
  C  C99  1  0.08629000  0.29854000  0.53427000  1.0
  C  C100  1  0.58627000  0.53427000  0.29855000  1.0
  C  C101  1  0.91373000  0.70146000  0.46572000  1.0
  C  C102  1  0.41800000  0.43910000  0.78403000  1.0
  C  C103  1  0.08201000  0.21598000  0.56089000  1.0
  C  C104  1  0.58198000  0.56088000  0.21598000  1.0
  C  C105  1  0.91803000  0.78403000  0.43911000  1.0
  C  C106  1  0.52502000  0.16068000  0.77626000  1.0
  C  C107  1  0.97498000  0.22374000  0.83932000  1.0
  C  C108  1  0.47497000  0.83931000  0.22374000  1.0
  C  C109  1  0.02505000  0.77626000  0.16068000  1.0
  C  C110  1  0.42987000  0.35665000  0.82089000  1.0
  C  C111  1  0.07013000  0.17912000  0.64334000  1.0
  C  C112  1  0.57011000  0.64334000  0.17912000  1.0
  C  C113  1  0.92991000  0.82089000  0.35665000  1.0
  C  C114  1  0.41509000  0.50022000  0.83204000  1.0
  C  C115  1  0.08490000  0.16796000  0.49977000  1.0
  C  C116  1  0.58488000  0.49977000  0.16796000  1.0
  C  C117  1  0.91512000  0.83204000  0.50023000  1.0
  C  C118  1  0.78571000  0.95442000  0.69247000  1.0
  C  C119  1  0.71426000  0.30753000  0.04558000  1.0
  C  C120  1  0.21428000  0.04559000  0.30752000  1.0
  C  C121  1  0.28573000  0.69247000  0.95441000  1.0
  C  C122  1  0.42157000  0.40934000  0.65625000  1.0
  C  C123  1  0.07844000  0.34376000  0.59065000  1.0
  C  C124  1  0.57842000  0.59064000  0.34376000  1.0
  C  C125  1  0.92158000  0.65625000  0.40935000  1.0
  C  C126  1  0.69248000  0.02695000  0.71849000  1.0
  C  C127  1  0.80751000  0.28151000  0.97305000  1.0
  C  C128  1  0.30751000  0.97306000  0.28150000  1.0
  C  C129  1  0.19249000  0.71849000  0.02694000  1.0
  C  C130  1  0.41261000  0.38930000  0.46075000  1.0
  C  C131  1  0.08739000  0.53925000  0.61070000  1.0
  C  C132  1  0.58739000  0.61070000  0.53925000  1.0
  C  C133  1  0.91261000  0.46075000  0.38931000  1.0
  C  C134  1  0.62900000  0.30204000  0.40706000  1.0
  C  C135  1  0.87101000  0.59293000  0.69796000  1.0
  C  C136  1  0.37099000  0.69796000  0.59293000  1.0
  C  C137  1  0.12899000  0.40707000  0.30204000  1.0
  C  C138  1  0.70791000  0.25447000  0.34616000  1.0
  C  C139  1  0.79210000  0.65385000  0.74553000  1.0
  C  C140  1  0.29210000  0.74553000  0.65384000  1.0
  C  C141  1  0.20789000  0.34617000  0.25446000  1.0
  C  C142  1  0.73860000  0.10238000  0.69149000  1.0
  C  C143  1  0.76139000  0.30850000  0.89762000  1.0
  C  C144  1  0.26138000  0.89763000  0.30851000  1.0
  C  C145  1  0.23863000  0.69149000  0.10237000  1.0
  C  C146  1  0.43667000  0.30160000  0.77414000  1.0
  C  C147  1  0.06334000  0.22586000  0.69839000  1.0
  C  C148  1  0.56331000  0.69839000  0.22587000  1.0
  C  C149  1  0.93671000  0.77414000  0.30160000  1.0
  C  C150  1  0.48431000  0.34472000  0.40361000  1.0
  C  C151  1  0.01569000  0.59640000  0.65528000  1.0
  C  C152  1  0.51569000  0.65528000  0.59639000  1.0
  C  C153  1  0.98430000  0.40361000  0.34473000  1.0
  C  C154  1  0.55931000  0.02004000  0.77379000  1.0
  C  C155  1  0.94069000  0.22621000  0.97997000  1.0
  C  C156  1  0.44069000  0.97996000  0.22621000  1.0
  C  C157  1  0.05931000  0.77379000  0.02004000  1.0
  C  C158  1  0.42984000  0.32714000  0.69193000  1.0
  C  C159  1  0.07017000  0.30808000  0.67285000  1.0
  C  C160  1  0.57015000  0.67284000  0.30808000  1.0
  C  C161  1  0.92986000  0.69192000  0.32715000  1.0
  C  C162  1  0.63055000  0.34792000  0.52677000  1.0
  C  C163  1  0.86946000  0.47323000  0.65208000  1.0
  C  C164  1  0.36946000  0.65208000  0.47323000  1.0
  C  C165  1  0.13054000  0.52678000  0.34792000  1.0
  C  C166  1  0.65672000  0.16902000  0.72041000  1.0
  C  C167  1  0.84328000  0.27959000  0.83098000  1.0
  C  C168  1  0.34326000  0.83098000  0.27960000  1.0
  C  C169  1  0.15675000  0.72040000  0.16901000  1.0
  C  C170  1  0.18561000  0.45964000  0.07653000  1.0
  C  C171  1  0.31438000  0.92348000  0.54037000  1.0
  C  C172  1  0.81439000  0.54036000  0.92347000  1.0
  C  C173  1  0.68560000  0.07653000  0.45964000  1.0
  C  C174  1  0.70108000  0.30387000  0.46927000  1.0
  C  C175  1  0.79892000  0.53073000  0.69613000  1.0
  C  C176  1  0.29892000  0.69612000  0.53073000  1.0
  C  C177  1  0.20107000  0.46928000  0.30387000  1.0
  C  C178  1  0.21275000  0.38045000  0.05171000  1.0
  C  C179  1  0.28724000  0.94829000  0.61956000  1.0
  C  C180  1  0.78724000  0.61955000  0.94829000  1.0
  C  C181  1  0.71276000  0.05171000  0.38045000  1.0
  C  C182  1  0.05879000  0.35652000  0.06700000  1.0
  C  C183  1  0.44120000  0.93300000  0.64348000  1.0
  C  C184  1  0.94120000  0.64348000  0.93300000  1.0
  C  C185  1  0.55880000  0.06700000  0.35652000  1.0
  C  C186  1  0.95433000  0.41504000  0.11570000  1.0
  C  C187  1  0.54566000  0.88430000  0.58496000  1.0
  C  C188  1  0.04567000  0.58496000  0.88431000  1.0
  C  C189  1  0.45433000  0.11570000  0.41503000  1.0
  C  C190  1  0.98056000  0.54518000  0.14686000  1.0
  C  C191  1  0.51943000  0.85314000  0.45483000  1.0
  C  C192  1  0.01945000  0.45483000  0.85314000  1.0
  C  C193  1  0.48054000  0.14687000  0.54517000  1.0
  C  C194  1  0.47521000  0.08639000  0.80186000  1.0
  C  C195  1  0.02479000  0.19814000  0.91361000  1.0
  C  C196  1  0.52478000  0.91360000  0.19814000  1.0
  C  C197  1  0.97523000  0.80186000  0.08639000  1.0
  N  N198  1  0.04267000  0.47645000  0.11109000  1.0
  N  N199  1  0.45731000  0.88892000  0.52356000  1.0
  N  N200  1  0.95732000  0.52355000  0.88891000  1.0
  N  N201  1  0.54267000  0.11109000  0.47644000  1.0
  O  O202  1  0.39744000  0.57410000  0.79562000  1.0
  O  O203  1  0.10256000  0.20437000  0.42589000  1.0
  O  O204  1  0.60254000  0.42589000  0.20436000  1.0
  O  O205  1  0.89745000  0.79564000  0.57410000  1.0
  O  O206  1  0.44171000  0.22108000  0.81332000  1.0
  O  O207  1  0.05830000  0.18669000  0.77892000  1.0
  O  O208  1  0.55827000  0.77891000  0.18670000  1.0
  O  O209  1  0.94176000  0.81331000  0.22108000  1.0
  O  O210  1  0.41352000  0.43851000  0.57527000  1.0
  O  O211  1  0.08649000  0.42474000  0.56148000  1.0
  O  O212  1  0.58649000  0.56147000  0.42474000  1.0
  O  O213  1  0.91351000  0.57527000  0.43852000  1.0
  O  O214  1  0.64001000  0.24701000  0.29312000  1.0
  O  O215  1  0.86000000  0.70690000  0.75297000  1.0
  O  O216  1  0.35998000  0.75297000  0.70689000  1.0
  O  O217  1  0.14000000  0.29312000  0.24702000  1.0
  O  O218  1  0.74128000  0.88590000  0.72224000  1.0
  O  O219  1  0.75870000  0.27776000  0.11411000  1.0
  O  O220  1  0.25873000  0.11412000  0.27775000  1.0
  O  O221  1  0.24128000  0.72224000  0.88588000  1.0
  O  O222  1  0.91110000  0.95805000  0.64536000  1.0
  O  O223  1  0.58887000  0.35464000  0.04195000  1.0
  O  O224  1  0.08889000  0.04197000  0.35463000  1.0
  O  O225  1  0.41111000  0.64536000  0.95803000  1.0
  O  O226  1  0.51366000  0.80529000  0.82758000  1.0
  O  O227  1  0.98635000  0.17242000  0.19470000  1.0
  O  O228  1  0.48633000  0.19471000  0.17242000  1.0
  O  O229  1  0.01365000  0.82758000  0.80530000  1.0
  O  O230  1  0.28044000  0.50393000  0.06844000  1.0
  O  O231  1  0.21955000  0.93158000  0.49607000  1.0
  O  O232  1  0.71957000  0.49606000  0.93156000  1.0
  O  O233  1  0.78043000  0.06845000  0.50393000  1.0
  O  O234  1  0.42976000  0.47253000  0.90567000  1.0
  O  O235  1  0.07024000  0.09432000  0.52748000  1.0
  O  O236  1  0.57021000  0.52749000  0.09432000  1.0
  O  O237  1  0.92980000  0.90568000  0.47252000  1.0
  O  O238  1  0.84124000  0.22090000  0.35259000  1.0
  O  O239  1  0.65877000  0.64741000  0.77912000  1.0
  O  O240  1  0.15877000  0.77911000  0.64741000  1.0
  O  O241  1  0.34122000  0.35261000  0.22088000  1.0
