# generated using pymatgen
data_CdH22C24(N2Cl)2
_symmetry_space_group_name_H-M   'P 1'
_cell_length_a   9.57090000
_cell_length_b   10.35750000
_cell_length_c   26.36710000
_cell_angle_alpha   90.00060000
_cell_angle_beta   90.00000000
_cell_angle_gamma   96.49560000
_symmetry_Int_Tables_number   1
_chemical_formula_structural   CdH22C24(N2Cl)2
_chemical_formula_sum   'Cd4 H88 C96 N16 Cl8'
_cell_volume   2597.00727647
_cell_formula_units_Z   4
loop_
 _symmetry_equiv_pos_site_id
 _symmetry_equiv_pos_as_xyz
  1  'x, y, z'
loop_
 _atom_site_type_symbol
 _atom_site_label
 _atom_site_symmetry_multiplicity
 _atom_site_fract_x
 _atom_site_fract_y
 _atom_site_fract_z
 _atom_site_occupancy
  Cd  Cd0  1  0.75360000  0.23847000  0.39740000  1.0
  Cd  Cd1  1  0.24640000  0.26153000  0.89740000  1.0
  Cd  Cd2  1  0.24640000  0.76152000  0.60260000  1.0
  Cd  Cd3  1  0.75360000  0.73847000  0.10260000  1.0
  H  H4  1  0.81705000  0.52649000  0.32805000  1.0
  H  H5  1  0.18294000  0.97351000  0.82805000  1.0
  H  H6  1  0.18292000  0.47352000  0.67195000  1.0
  H  H7  1  0.81707000  0.02648000  0.17195000  1.0
  H  H8  1  0.95888000  0.51110000  0.28632000  1.0
  H  H9  1  0.04111000  0.98890000  0.78632000  1.0
  H  H10  1  0.04108000  0.48890000  0.71368000  1.0
  H  H11  1  0.95891000  0.01111000  0.21368000  1.0
  H  H12  1  0.16919000  0.04305000  0.43588000  1.0
  H  H13  1  0.83081000  0.45696000  0.93588000  1.0
  H  H14  1  0.83080000  0.95694000  0.56412000  1.0
  H  H15  1  0.16920000  0.54305000  0.06412000  1.0
  H  H16  1  0.19564000  0.91919000  0.47923000  1.0
  H  H17  1  0.80436000  0.58081000  0.97924000  1.0
  H  H18  1  0.80436000  0.08080000  0.52077000  1.0
  H  H19  1  0.19564000  0.41919000  0.02077000  1.0
  H  H20  1  0.33807000  0.72170000  0.47894000  1.0
  H  H21  1  0.66194000  0.77830000  0.97894000  1.0
  H  H22  1  0.66193000  0.27830000  0.52106000  1.0
  H  H23  1  0.33807000  0.22170000  0.02106000  1.0
  H  H24  1  0.44605000  0.28917000  0.39943000  1.0
  H  H25  1  0.55395000  0.21083000  0.89943000  1.0
  H  H26  1  0.55394000  0.71082000  0.60057000  1.0
  H  H27  1  0.44607000  0.78917000  0.10057000  1.0
  H  H28  1  0.27360000  0.20818000  0.40897000  1.0
  H  H29  1  0.72640000  0.29182000  0.90897000  1.0
  H  H30  1  0.72639000  0.79182000  0.59103000  1.0
  H  H31  1  0.27361000  0.70818000  0.09103000  1.0
  H  H32  1  0.36389000  0.18800000  0.35097000  1.0
  H  H33  1  0.63611000  0.31199000  0.85097000  1.0
  H  H34  1  0.63610000  0.81199000  0.64903000  1.0
  H  H35  1  0.36391000  0.68801000  0.14903000  1.0
  H  H36  1  0.78935000  0.72556000  0.47879000  1.0
  H  H37  1  0.21067000  0.77446000  0.97879000  1.0
  H  H38  1  0.21066000  0.27445000  0.52121000  1.0
  H  H39  1  0.78935000  0.22555000  0.02120000  1.0
  H  H40  1  0.89248000  0.59179000  0.40681000  1.0
  H  H41  1  0.10751000  0.90823000  0.90681000  1.0
  H  H42  1  0.10750000  0.40822000  0.59319000  1.0
  H  H43  1  0.89249000  0.09179000  0.09319000  1.0
  H  H44  1  0.68366000  0.73251000  0.35444000  1.0
  H  H45  1  0.31632000  0.76749000  0.85444000  1.0
  H  H46  1  0.31632000  0.26750000  0.64556000  1.0
  H  H47  1  0.68368000  0.23250000  0.14556000  1.0
  H  H48  1  0.03201000  0.74669000  0.46444000  1.0
  H  H49  1  0.96799000  0.75332000  0.96444000  1.0
  H  H50  1  0.96798000  0.25330000  0.53556000  1.0
  H  H51  1  0.03201000  0.24669000  0.03556000  1.0
  H  H52  1  0.11086000  0.77558000  0.27825000  1.0
  H  H53  1  0.88914000  0.72441000  0.77825000  1.0
  H  H54  1  0.88912000  0.22442000  0.72175000  1.0
  H  H55  1  0.11089000  0.27558000  0.22175000  1.0
  H  H56  1  0.82220000  0.94497000  0.43822000  1.0
  H  H57  1  0.17780000  0.55504000  0.93822000  1.0
  H  H58  1  0.17780000  0.05504000  0.56178000  1.0
  H  H59  1  0.82221000  0.44496000  0.06177000  1.0
  H  H60  1  0.24792000  0.93030000  0.33566000  1.0
  H  H61  1  0.75208000  0.56970000  0.83566000  1.0
  H  H62  1  0.75207000  0.06970000  0.66434000  1.0
  H  H63  1  0.24793000  0.43029000  0.16434000  1.0
  H  H64  1  0.56779000  0.89997000  0.18098000  1.0
  H  H65  1  0.43221000  0.60002000  0.68099000  1.0
  H  H66  1  0.43221000  0.10004000  0.81901000  1.0
  H  H67  1  0.56778000  0.39995000  0.31902000  1.0
  H  H68  1  0.50388000  0.88555000  0.34361000  1.0
  H  H69  1  0.49611000  0.61446000  0.84362000  1.0
  H  H70  1  0.49612000  0.11448000  0.65638000  1.0
  H  H71  1  0.50387000  0.38552000  0.15639000  1.0
  H  H72  1  0.55316000  0.61692000  0.49865000  1.0
  H  H73  1  0.44686000  0.88310000  0.99864000  1.0
  H  H74  1  0.44685000  0.38309000  0.50136000  1.0
  H  H75  1  0.55316000  0.11691000  0.00135000  1.0
  H  H76  1  0.97368000  0.59163000  0.15111000  1.0
  H  H77  1  0.02632000  0.90838000  0.65111000  1.0
  H  H78  1  0.02631000  0.40837000  0.84889000  1.0
  H  H79  1  0.97370000  0.09163000  0.34889000  1.0
  H  H80  1  0.05700000  0.57518000  0.21076000  1.0
  H  H81  1  0.94300000  0.92483000  0.71076000  1.0
  H  H82  1  0.94299000  0.42483000  0.78925000  1.0
  H  H83  1  0.05701000  0.07519000  0.28924000  1.0
  H  H84  1  0.91398000  0.46077000  0.19234000  1.0
  H  H85  1  0.08603000  0.03922000  0.69235000  1.0
  H  H86  1  0.08602000  0.53923000  0.80766000  1.0
  H  H87  1  0.91399000  0.96078000  0.30765000  1.0
  H  H88  1  0.44784000  0.96988000  0.25894000  1.0
  H  H89  1  0.55216000  0.53012000  0.75895000  1.0
  H  H90  1  0.55217000  0.03015000  0.74105000  1.0
  H  H91  1  0.44782000  0.46984000  0.24106000  1.0
  C  C92  1  0.89868000  0.58181000  0.30495000  1.0
  C  C93  1  0.10131000  0.91820000  0.80495000  1.0
  C  C94  1  0.10129000  0.41819000  0.69505000  1.0
  C  C95  1  0.89870000  0.08181000  0.19505000  1.0
  C  C96  1  0.14630000  0.85071000  0.40394000  1.0
  C  C97  1  0.85370000  0.64930000  0.90394000  1.0
  C  C98  1  0.85369000  0.14929000  0.59607000  1.0
  C  C99  1  0.14630000  0.35070000  0.09606000  1.0
  C  C100  1  0.21594000  0.95147000  0.43995000  1.0
  C  C101  1  0.78406000  0.54853000  0.93995000  1.0
  C  C102  1  0.78405000  0.04852000  0.56006000  1.0
  C  C103  1  0.21595000  0.45147000  0.06006000  1.0
  C  C104  1  0.46226000  0.89334000  0.44800000  1.0
  C  C105  1  0.53774000  0.60666000  0.94800000  1.0
  C  C106  1  0.53774000  0.10665000  0.55200000  1.0
  C  C107  1  0.46227000  0.39334000  0.05200000  1.0
  C  C108  1  0.44225000  0.77048000  0.47031000  1.0
  C  C109  1  0.55777000  0.72952000  0.97030000  1.0
  C  C110  1  0.55775000  0.22951000  0.52970000  1.0
  C  C111  1  0.44225000  0.27048000  0.02969000  1.0
  C  C112  1  0.37695000  0.19895000  0.39232000  1.0
  C  C113  1  0.62306000  0.30105000  0.89232000  1.0
  C  C114  1  0.62304000  0.80104000  0.60768000  1.0
  C  C115  1  0.37696000  0.69895000  0.10768000  1.0
  C  C116  1  0.72558000  0.73103000  0.27305000  1.0
  C  C117  1  0.27442000  0.76897000  0.77306000  1.0
  C  C118  1  0.27441000  0.26898000  0.72695000  1.0
  C  C119  1  0.72559000  0.23102000  0.22695000  1.0
  C  C120  1  0.69806000  0.77483000  0.46958000  1.0
  C  C121  1  0.30196000  0.72518000  0.96958000  1.0
  C  C122  1  0.30195000  0.22518000  0.53042000  1.0
  C  C123  1  0.69806000  0.27482000  0.03041000  1.0
  C  C124  1  0.59690000  0.95722000  0.43646000  1.0
  C  C125  1  0.40310000  0.54278000  0.93646000  1.0
  C  C126  1  0.40310000  0.04277000  0.56354000  1.0
  C  C127  1  0.59691000  0.45722000  0.06354000  1.0
  C  C128  1  0.97131000  0.66555000  0.39122000  1.0
  C  C129  1  0.02868000  0.83446000  0.89122000  1.0
  C  C130  1  0.02867000  0.33445000  0.60878000  1.0
  C  C131  1  0.97132000  0.16555000  0.10878000  1.0
  C  C132  1  0.99071000  0.67382000  0.33877000  1.0
  C  C133  1  0.00929000  0.82618000  0.83877000  1.0
  C  C134  1  0.00926000  0.32618000  0.66123000  1.0
  C  C135  1  0.99073000  0.17383000  0.16123000  1.0
  C  C136  1  0.65910000  0.76822000  0.31698000  1.0
  C  C137  1  0.34089000  0.73178000  0.81699000  1.0
  C  C138  1  0.34089000  0.23179000  0.68301000  1.0
  C  C139  1  0.65910000  0.26821000  0.18302000  1.0
  C  C140  1  0.69205000  0.77591000  0.22431000  1.0
  C  C141  1  0.30796000  0.72409000  0.72431000  1.0
  C  C142  1  0.30795000  0.22411000  0.77569000  1.0
  C  C143  1  0.69204000  0.27590000  0.27570000  1.0
  C  C144  1  0.04880000  0.75281000  0.42348000  1.0
  C  C145  1  0.95120000  0.74720000  0.92348000  1.0
  C  C146  1  0.95118000  0.24718000  0.57652000  1.0
  C  C147  1  0.04881000  0.25281000  0.07652000  1.0
  C  C148  1  0.09308000  0.76822000  0.31915000  1.0
  C  C149  1  0.90692000  0.73178000  0.81915000  1.0
  C  C150  1  0.90690000  0.23178000  0.68085000  1.0
  C  C151  1  0.09309000  0.26822000  0.18085000  1.0
  C  C152  1  0.44186000  0.08745000  0.41367000  1.0
  C  C153  1  0.55815000  0.41254000  0.91367000  1.0
  C  C154  1  0.55813000  0.91254000  0.58633000  1.0
  C  C155  1  0.44187000  0.58746000  0.08633000  1.0
  C  C156  1  0.71751000  0.89720000  0.44696000  1.0
  C  C157  1  0.28250000  0.60280000  0.94696000  1.0
  C  C158  1  0.28249000  0.10280000  0.55304000  1.0
  C  C159  1  0.71752000  0.39720000  0.05303000  1.0
  C  C160  1  0.85483000  0.64543000  0.21409000  1.0
  C  C161  1  0.14517000  0.85457000  0.71409000  1.0
  C  C162  1  0.14516000  0.35457000  0.78591000  1.0
  C  C163  1  0.85484000  0.14543000  0.28591000  1.0
  C  C164  1  0.17010000  0.85598000  0.35149000  1.0
  C  C165  1  0.82990000  0.64402000  0.85150000  1.0
  C  C166  1  0.82989000  0.14401000  0.64851000  1.0
  C  C167  1  0.17011000  0.35599000  0.14851000  1.0
  C  C168  1  0.59121000  0.86262000  0.21835000  1.0
  C  C169  1  0.40879000  0.63738000  0.71836000  1.0
  C  C170  1  0.40879000  0.13741000  0.78164000  1.0
  C  C171  1  0.59120000  0.36259000  0.28165000  1.0
  C  C172  1  0.55823000  0.85406000  0.31039000  1.0
  C  C173  1  0.44175000  0.64595000  0.81039000  1.0
  C  C174  1  0.44176000  0.14597000  0.68961000  1.0
  C  C175  1  0.55823000  0.35403000  0.18961000  1.0
  C  C176  1  0.56327000  0.71257000  0.48106000  1.0
  C  C177  1  0.43675000  0.78744000  0.98106000  1.0
  C  C178  1  0.43674000  0.28743000  0.51894000  1.0
  C  C179  1  0.56327000  0.21256000  0.01894000  1.0
  C  C180  1  0.95545000  0.56415000  0.19094000  1.0
  C  C181  1  0.04455000  0.93585000  0.69094000  1.0
  C  C182  1  0.04454000  0.43585000  0.80906000  1.0
  C  C183  1  0.95547000  0.06415000  0.30906000  1.0
  C  C184  1  0.52556000  0.90094000  0.26217000  1.0
  C  C185  1  0.47444000  0.59905000  0.76218000  1.0
  C  C186  1  0.47445000  0.09907000  0.73782000  1.0
  C  C187  1  0.52554000  0.40092000  0.23783000  1.0
  N  N188  1  0.36726000  0.97808000  0.43313000  1.0
  N  N189  1  0.63274000  0.52192000  0.93314000  1.0
  N  N190  1  0.63274000  0.02191000  0.56687000  1.0
  N  N191  1  0.36727000  0.47808000  0.06687000  1.0
  N  N192  1  0.58024000  0.07769000  0.41520000  1.0
  N  N193  1  0.41976000  0.42231000  0.91521000  1.0
  N  N194  1  0.41975000  0.92230000  0.58480000  1.0
  N  N195  1  0.58025000  0.57769000  0.08479000  1.0
  N  N196  1  0.77456000  0.72070000  0.18858000  1.0
  N  N197  1  0.22545000  0.77930000  0.68858000  1.0
  N  N198  1  0.22544000  0.27931000  0.81142000  1.0
  N  N199  1  0.77456000  0.22069000  0.31142000  1.0
  N  N200  1  0.82927000  0.64924000  0.26513000  1.0
  N  N201  1  0.17073000  0.85075000  0.76513000  1.0
  N  N202  1  0.17071000  0.35076000  0.73487000  1.0
  N  N203  1  0.82929000  0.14925000  0.23488000  1.0
  Cl  Cl204  1  0.97771000  0.20068000  0.43702000  1.0
  Cl  Cl205  1  0.02229000  0.29932000  0.93702000  1.0
  Cl  Cl206  1  0.02229000  0.79932000  0.56298000  1.0
  Cl  Cl207  1  0.97772000  0.70068000  0.06298000  1.0
  Cl  Cl208  1  0.66458000  0.44672000  0.41473000  1.0
  Cl  Cl209  1  0.33542000  0.05328000  0.91472000  1.0
  Cl  Cl210  1  0.33541000  0.55327000  0.58527000  1.0
  Cl  Cl211  1  0.66459000  0.94672000  0.08527000  1.0
