# generated using pymatgen
data_CuH4C5(NO2)2
_symmetry_space_group_name_H-M   'P 1'
_cell_length_a   8.32095000
_cell_length_b   8.56407000
_cell_length_c   9.34170000
_cell_angle_alpha   89.99960000
_cell_angle_beta   89.99920000
_cell_angle_gamma   92.49520000
_symmetry_Int_Tables_number   1
_chemical_formula_structural   CuH4C5(NO2)2
_chemical_formula_sum   'Cu4 H16 C20 N8 O16'
_cell_volume   665.06956647
_cell_formula_units_Z   4
loop_
 _symmetry_equiv_pos_site_id
 _symmetry_equiv_pos_as_xyz
  1  'x, y, z'
loop_
 _atom_site_type_symbol
 _atom_site_label
 _atom_site_symmetry_multiplicity
 _atom_site_fract_x
 _atom_site_fract_y
 _atom_site_fract_z
 _atom_site_occupancy
  Cu  Cu0  1  0.87138000  0.10125000  0.76023000  1.0
  Cu  Cu1  1  0.12862000  0.39876000  0.26024000  1.0
  Cu  Cu2  1  0.12862000  0.89876000  0.23976000  1.0
  Cu  Cu3  1  0.87138000  0.60124000  0.73977000  1.0
  H  H4  1  0.27147000  0.09287000  0.73624000  1.0
  H  H5  1  0.72853000  0.40712000  0.23622000  1.0
  H  H6  1  0.72852000  0.90713000  0.26377000  1.0
  H  H7  1  0.27147000  0.59287000  0.76378000  1.0
  H  H8  1  0.68045000  0.23700000  0.48956000  1.0
  H  H9  1  0.31956000  0.26301000  0.98956000  1.0
  H  H10  1  0.31953000  0.76299000  0.51042000  1.0
  H  H11  1  0.68045000  0.73700000  0.01044000  1.0
  H  H12  1  0.34435000  0.21833000  0.49124000  1.0
  H  H13  1  0.65566000  0.28167000  0.99123000  1.0
  H  H14  1  0.65563000  0.78166000  0.50876000  1.0
  H  H15  1  0.34435000  0.71833000  0.00877000  1.0
  H  H16  1  0.52049000  0.02132000  0.87288000  1.0
  H  H17  1  0.47952000  0.47868000  0.37287000  1.0
  H  H18  1  0.47951000  0.97869000  0.12712000  1.0
  H  H19  1  0.52049000  0.52131000  0.62713000  1.0
  C  C20  1  0.91613000  0.98859000  0.03218000  1.0
  C  C21  1  0.08388000  0.51141000  0.53219000  1.0
  C  C22  1  0.08388000  0.01142000  0.96781000  1.0
  C  C23  1  0.91611000  0.48858000  0.46782000  1.0
  C  C24  1  0.01956000  0.08914000  0.48651000  1.0
  C  C25  1  0.98045000  0.41087000  0.98651000  1.0
  C  C26  1  0.98044000  0.91087000  0.51349000  1.0
  C  C27  1  0.01955000  0.58913000  0.01349000  1.0
  C  C28  1  0.59726000  0.19025000  0.56928000  1.0
  C  C29  1  0.40275000  0.30975000  0.06927000  1.0
  C  C30  1  0.40273000  0.80974000  0.43072000  1.0
  C  C31  1  0.59726000  0.69025000  0.93073000  1.0
  C  C32  1  0.43186000  0.18262000  0.56913000  1.0
  C  C33  1  0.56814000  0.31738000  0.06912000  1.0
  C  C34  1  0.56812000  0.81737000  0.43087000  1.0
  C  C35  1  0.43186000  0.68262000  0.93088000  1.0
  C  C36  1  0.52034000  0.07887000  0.76984000  1.0
  C  C37  1  0.47967000  0.42112000  0.26983000  1.0
  C  C38  1  0.47965000  0.92113000  0.23016000  1.0
  C  C39  1  0.52034000  0.57887000  0.73017000  1.0
  N  N40  1  0.65071000  0.12592000  0.69559000  1.0
  N  N41  1  0.34930000  0.37408000  0.19558000  1.0
  N  N42  1  0.34928000  0.87407000  0.30441000  1.0
  N  N43  1  0.65071000  0.62592000  0.80442000  1.0
  N  N44  1  0.38648000  0.11219000  0.69637000  1.0
  N  N45  1  0.61353000  0.38780000  0.19635000  1.0
  N  N46  1  0.61351000  0.88780000  0.30364000  1.0
  N  N47  1  0.38648000  0.61220000  0.80365000  1.0
  O  O48  1  0.79717000  0.02229000  0.95602000  1.0
  O  O49  1  0.20284000  0.47772000  0.45601000  1.0
  O  O50  1  0.20284000  0.97772000  0.04397000  1.0
  O  O51  1  0.79716000  0.52229000  0.54400000  1.0
  O  O52  1  0.90807000  0.93588000  0.15934000  1.0
  O  O53  1  0.09192000  0.56413000  0.65936000  1.0
  O  O54  1  0.09194000  0.06414000  0.84065000  1.0
  O  O55  1  0.90807000  0.43586000  0.34065000  1.0
  O  O56  1  0.97456000  0.18477000  0.58253000  1.0
  O  O57  1  0.02545000  0.31523000  0.08252000  1.0
  O  O58  1  0.02544000  0.81523000  0.41747000  1.0
  O  O59  1  0.97455000  0.68477000  0.91748000  1.0
  O  O60  1  0.09289000  0.12840000  0.37400000  1.0
  O  O61  1  0.90712000  0.37160000  0.87401000  1.0
  O  O62  1  0.90711000  0.87161000  0.62600000  1.0
  O  O63  1  0.09288000  0.62840000  0.12600000  1.0
