# generated using pymatgen
data_ZnPH5C5N2O3
_symmetry_space_group_name_H-M   'P 1'
_cell_length_a   10.19520000
_cell_length_b   19.59420000
_cell_length_c   26.14840000
_cell_angle_alpha   90.00050000
_cell_angle_beta   90.00010000
_cell_angle_gamma   85.47040000
_symmetry_Int_Tables_number   1
_chemical_formula_structural   ZnPH5C5N2O3
_chemical_formula_sum   'Zn24 P24 H120 C120 N48 O72'
_cell_volume   5207.26689119
_cell_formula_units_Z   24
loop_
 _symmetry_equiv_pos_site_id
 _symmetry_equiv_pos_as_xyz
  1  'x, y, z'
loop_
 _atom_site_type_symbol
 _atom_site_label
 _atom_site_symmetry_multiplicity
 _atom_site_fract_x
 _atom_site_fract_y
 _atom_site_fract_z
 _atom_site_occupancy
  Zn  Zn0  1  0.96670000  0.89609000  0.03742000  1.0
  Zn  Zn1  1  0.53330000  0.60390000  0.53742000  1.0
  Zn  Zn2  1  0.03331000  0.10391000  0.96259000  1.0
  Zn  Zn3  1  0.46670000  0.39609000  0.46258000  1.0
  Zn  Zn4  1  0.97599000  0.96350000  0.84142000  1.0
  Zn  Zn5  1  0.52401000  0.53650000  0.34142000  1.0
  Zn  Zn6  1  0.02401000  0.03651000  0.15858000  1.0
  Zn  Zn7  1  0.47598000  0.46349000  0.65857000  1.0
  Zn  Zn8  1  0.32471000  0.04317000  0.82270000  1.0
  Zn  Zn9  1  0.17532000  0.45683000  0.32269000  1.0
  Zn  Zn10  1  0.67530000  0.95683000  0.17731000  1.0
  Zn  Zn11  1  0.82470000  0.54318000  0.67730000  1.0
  Zn  Zn12  1  0.33065000  0.88743000  0.70325000  1.0
  Zn  Zn13  1  0.16934000  0.61256000  0.20324000  1.0
  Zn  Zn14  1  0.66933000  0.11256000  0.29676000  1.0
  Zn  Zn15  1  0.83066000  0.38744000  0.79675000  1.0
  Zn  Zn16  1  0.63746000  0.96967000  0.63244000  1.0
  Zn  Zn17  1  0.86256000  0.53033000  0.13245000  1.0
  Zn  Zn18  1  0.36256000  0.03033000  0.36756000  1.0
  Zn  Zn19  1  0.13744000  0.46967000  0.86756000  1.0
  Zn  Zn20  1  0.46264000  0.88651000  0.51262000  1.0
  Zn  Zn21  1  0.03735000  0.61349000  0.01262000  1.0
  Zn  Zn22  1  0.53736000  0.11348000  0.48739000  1.0
  Zn  Zn23  1  0.96265000  0.38651000  0.98739000  1.0
  P  P24  1  0.13899000  0.95243000  0.95088000  1.0
  P  P25  1  0.36102000  0.54756000  0.45088000  1.0
  P  P26  1  0.86101000  0.04756000  0.04912000  1.0
  P  P27  1  0.63899000  0.45244000  0.54912000  1.0
  P  P28  1  0.03337000  0.11628000  0.84248000  1.0
  P  P29  1  0.46664000  0.38372000  0.34248000  1.0
  P  P30  1  0.96663000  0.88372000  0.15752000  1.0
  P  P31  1  0.53336000  0.61629000  0.65752000  1.0
  P  P32  1  0.23150000  0.88647000  0.81400000  1.0
  P  P33  1  0.26851000  0.61353000  0.31400000  1.0
  P  P34  1  0.76849000  0.11353000  0.18600000  1.0
  P  P35  1  0.73150000  0.38648000  0.68600000  1.0
  P  P36  1  0.44715000  0.03435000  0.70952000  1.0
  P  P37  1  0.05286000  0.46565000  0.20952000  1.0
  P  P38  1  0.55286000  0.96565000  0.29048000  1.0
  P  P39  1  0.94715000  0.53435000  0.79048000  1.0
  P  P40  1  0.54651000  0.82070000  0.62042000  1.0
  P  P41  1  0.95348000  0.67931000  0.12042000  1.0
  P  P42  1  0.45348000  0.17930000  0.37959000  1.0
  P  P43  1  0.04651000  0.32070000  0.87959000  1.0
  P  P44  1  0.38479000  0.02778000  0.55807000  1.0
  P  P45  1  0.11522000  0.47222000  0.05807000  1.0
  P  P46  1  0.61521000  0.97222000  0.44194000  1.0
  P  P47  1  0.88477000  0.52778000  0.94194000  1.0
  H  H48  1  0.98534000  0.81500000  0.92798000  1.0
  H  H49  1  0.51465000  0.68500000  0.42798000  1.0
  H  H50  1  0.01467000  0.18500000  0.07202000  1.0
  H  H51  1  0.48534000  0.31500000  0.57201000  1.0
  H  H52  1  0.83107000  0.70657000  0.90940000  1.0
  H  H53  1  0.66892000  0.79343000  0.40940000  1.0
  H  H54  1  0.16893000  0.29345000  0.09059000  1.0
  H  H55  1  0.33109000  0.20655000  0.59059000  1.0
  H  H56  1  0.73322000  0.79648000  0.05370000  1.0
  H  H57  1  0.76678000  0.70351000  0.55370000  1.0
  H  H58  1  0.26679000  0.20352000  0.94630000  1.0
  H  H59  1  0.23322000  0.29648000  0.44630000  1.0
  H  H60  1  0.58696000  0.58363000  0.85920000  1.0
  H  H61  1  0.91302000  0.91637000  0.35922000  1.0
  H  H62  1  0.41303000  0.41637000  0.14079000  1.0
  H  H63  1  0.08699000  0.08363000  0.64079000  1.0
  H  H64  1  0.40406000  0.51437000  0.80709000  1.0
  H  H65  1  0.09593000  0.98562000  0.30709000  1.0
  H  H66  1  0.59593000  0.48563000  0.19292000  1.0
  H  H67  1  0.90410000  0.01438000  0.69292000  1.0
  H  H68  1  0.28510000  0.53123000  0.96173000  1.0
  H  H69  1  0.21490000  0.96877000  0.46174000  1.0
  H  H70  1  0.71491000  0.46878000  0.03827000  1.0
  H  H71  1  0.78510000  0.03123000  0.53827000  1.0
  H  H72  1  0.65167000  0.65236000  0.14613000  1.0
  H  H73  1  0.84830000  0.84764000  0.64614000  1.0
  H  H74  1  0.34831000  0.34767000  0.85387000  1.0
  H  H75  1  0.15170000  0.15232000  0.35388000  1.0
  H  H76  1  0.47459000  0.64523000  0.22783000  1.0
  H  H77  1  0.02539000  0.85477000  0.72783000  1.0
  H  H78  1  0.52538000  0.35477000  0.77217000  1.0
  H  H79  1  0.97461000  0.14522000  0.27218000  1.0
  H  H80  1  0.27942000  0.60003000  0.09104000  1.0
  H  H81  1  0.22055000  0.89996000  0.59105000  1.0
  H  H82  1  0.72058000  0.39997000  0.90895000  1.0
  H  H83  1  0.77943000  0.10003000  0.40896000  1.0
  H  H84  1  0.62842000  0.66428000  0.91272000  1.0
  H  H85  1  0.87160000  0.83572000  0.41273000  1.0
  H  H86  1  0.37159000  0.33572000  0.08727000  1.0
  H  H87  1  0.12844000  0.16428000  0.58727000  1.0
  H  H88  1  0.39964000  0.55838000  0.02254000  1.0
  H  H89  1  0.10035000  0.94161000  0.52255000  1.0
  H  H90  1  0.60037000  0.44162000  0.97746000  1.0
  H  H91  1  0.89964000  0.05837000  0.47746000  1.0
  H  H92  1  0.66075000  0.70546000  0.07404000  1.0
  H  H93  1  0.83922000  0.79455000  0.57404000  1.0
  H  H94  1  0.33925000  0.29456000  0.92596000  1.0
  H  H95  1  0.16075000  0.20544000  0.42596000  1.0
  H  H96  1  0.73351000  0.91649000  0.76360000  1.0
  H  H97  1  0.76647000  0.58352000  0.26359000  1.0
  H  H98  1  0.26647000  0.08353000  0.23639000  1.0
  H  H99  1  0.23348000  0.41649000  0.73640000  1.0
  H  H100  1  0.51559000  0.86536000  0.80784000  1.0
  H  H101  1  0.98440000  0.63463000  0.30784000  1.0
  H  H102  1  0.48442000  0.13464000  0.19216000  1.0
  H  H103  1  0.01557000  0.36537000  0.69215000  1.0
  H  H104  1  0.78119000  0.92129000  0.92384000  1.0
  H  H105  1  0.71880000  0.57871000  0.42384000  1.0
  H  H106  1  0.21882000  0.07871000  0.07616000  1.0
  H  H107  1  0.28120000  0.42129000  0.57616000  1.0
  H  H108  1  0.35927000  0.93861000  0.16902000  1.0
  H  H109  1  0.14072000  0.56139000  0.66903000  1.0
  H  H110  1  0.64072000  0.06139000  0.83097000  1.0
  H  H111  1  0.85929000  0.43861000  0.33096000  1.0
  H  H112  1  0.25379000  0.89735000  0.07695000  1.0
  H  H113  1  0.24621000  0.60265000  0.57696000  1.0
  H  H114  1  0.74623000  0.10264000  0.92304000  1.0
  H  H115  1  0.75380000  0.39735000  0.42303000  1.0
  H  H116  1  0.65851000  0.93438000  0.05715000  1.0
  H  H117  1  0.84150000  0.56561000  0.55714000  1.0
  H  H118  1  0.34151000  0.06562000  0.94285000  1.0
  H  H119  1  0.15850000  0.43440000  0.44285000  1.0
  H  H120  1  0.28415000  0.72469000  0.85822000  1.0
  H  H121  1  0.21584000  0.77529000  0.35822000  1.0
  H  H122  1  0.71582000  0.27529000  0.14178000  1.0
  H  H123  1  0.78417000  0.22471000  0.64178000  1.0
  H  H124  1  0.10736000  0.63006000  0.88513000  1.0
  H  H125  1  0.39264000  0.86992000  0.38512000  1.0
  H  H126  1  0.89260000  0.36993000  0.11489000  1.0
  H  H127  1  0.60738000  0.13008000  0.61488000  1.0
  H  H128  1  0.22592000  0.72521000  0.01962000  1.0
  H  H129  1  0.27409000  0.77478000  0.51962000  1.0
  H  H130  1  0.77409000  0.27479000  0.98038000  1.0
  H  H131  1  0.72590000  0.22522000  0.48038000  1.0
  H  H132  1  0.46066000  0.78521000  0.87116000  1.0
  H  H133  1  0.03934000  0.71478000  0.37116000  1.0
  H  H134  1  0.53935000  0.21478000  0.12884000  1.0
  H  H135  1  0.96065000  0.28523000  0.62883000  1.0
  H  H136  1  0.30960000  0.81178000  0.02516000  1.0
  H  H137  1  0.19039000  0.68822000  0.52516000  1.0
  H  H138  1  0.69041000  0.18822000  0.97484000  1.0
  H  H139  1  0.80960000  0.31179000  0.47484000  1.0
  H  H140  1  0.59613000  0.94231000  0.96939000  1.0
  H  H141  1  0.90387000  0.55768000  0.46939000  1.0
  H  H142  1  0.40388000  0.05769000  0.03061000  1.0
  H  H143  1  0.09614000  0.44231000  0.53060000  1.0
  H  H144  1  0.29516000  0.04903000  0.59716000  1.0
  H  H145  1  0.20485000  0.45097000  0.09716000  1.0
  H  H146  1  0.70484000  0.95097000  0.40285000  1.0
  H  H147  1  0.79514000  0.54903000  0.90285000  1.0
  H  H148  1  0.61584000  0.75570000  0.62380000  1.0
  H  H149  1  0.88415000  0.74430000  0.12381000  1.0
  H  H150  1  0.38414000  0.24430000  0.37620000  1.0
  H  H151  1  0.11584000  0.25570000  0.87620000  1.0
  H  H152  1  0.42619000  0.09148000  0.67636000  1.0
  H  H153  1  0.07380000  0.40851000  0.17636000  1.0
  H  H154  1  0.57381000  0.90851000  0.32364000  1.0
  H  H155  1  0.92619000  0.59149000  0.82364000  1.0
  H  H156  1  0.23219000  0.83875000  0.85446000  1.0
  H  H157  1  0.26781000  0.66127000  0.35445000  1.0
  H  H158  1  0.76780000  0.16126000  0.14555000  1.0
  H  H159  1  0.73219000  0.33875000  0.64554000  1.0
  H  H160  1  0.99498000  0.17360000  0.81187000  1.0
  H  H161  1  0.50504000  0.32640000  0.31187000  1.0
  H  H162  1  0.00503000  0.82641000  0.18814000  1.0
  H  H163  1  0.49496000  0.67360000  0.68813000  1.0
  H  H164  1  0.25407000  0.92645000  0.92583000  1.0
  H  H165  1  0.24595000  0.57354000  0.42583000  1.0
  H  H166  1  0.74594000  0.07355000  0.07417000  1.0
  H  H167  1  0.75406000  0.42646000  0.57417000  1.0
  C  C168  1  0.90947000  0.79446000  0.95113000  1.0
  C  C169  1  0.59053000  0.70554000  0.45112000  1.0
  C  C170  1  0.09053000  0.20554000  0.04887000  1.0
  C  C171  1  0.40948000  0.29446000  0.54886000  1.0
  C  C172  1  0.83167000  0.74212000  0.94103000  1.0
  C  C173  1  0.66833000  0.75788000  0.44103000  1.0
  C  C174  1  0.16832000  0.25789000  0.05896000  1.0
  C  C175  1  0.33169000  0.24211000  0.55896000  1.0
  C  C176  1  0.78120000  0.78693000  0.01716000  1.0
  C  C177  1  0.71881000  0.71306000  0.51716000  1.0
  C  C178  1  0.21882000  0.21307000  0.98283000  1.0
  C  C179  1  0.28119000  0.28693000  0.48283000  1.0
  C  C180  1  0.49665000  0.56407000  0.87244000  1.0
  C  C181  1  0.00333000  0.93593000  0.37244000  1.0
  C  C182  1  0.50334000  0.43594000  0.12756000  1.0
  C  C183  1  0.99668000  0.06407000  0.62756000  1.0
  C  C184  1  0.40649000  0.52832000  0.84717000  1.0
  C  C185  1  0.09350000  0.97167000  0.34718000  1.0
  C  C186  1  0.59350000  0.47167000  0.15283000  1.0
  C  C187  1  0.90652000  0.02833000  0.65283000  1.0
  C  C188  1  0.34281000  0.53513000  0.92700000  1.0
  C  C189  1  0.15718000  0.96486000  0.42701000  1.0
  C  C190  1  0.65719000  0.46487000  0.07300000  1.0
  C  C191  1  0.84282000  0.03513000  0.57301000  1.0
  C  C192  1  0.54789000  0.64355000  0.14740000  1.0
  C  C193  1  0.95209000  0.85644000  0.64740000  1.0
  C  C194  1  0.45211000  0.35646000  0.85260000  1.0
  C  C195  1  0.04790000  0.14354000  0.35260000  1.0
  C  C196  1  0.46132000  0.63907000  0.18695000  1.0
  C  C197  1  0.03867000  0.86092000  0.68696000  1.0
  C  C198  1  0.53867000  0.36093000  0.81304000  1.0
  C  C199  1  0.96133000  0.13906000  0.31304000  1.0
  C  C200  1  0.35530000  0.61369000  0.11758000  1.0
  C  C201  1  0.14468000  0.88630000  0.61759000  1.0
  C  C202  1  0.64470000  0.38631000  0.88241000  1.0
  C  C203  1  0.85531000  0.11368000  0.38242000  1.0
  C  C204  1  0.65573000  0.68940000  0.99228000  1.0
  C  C205  1  0.84426000  0.81060000  0.49228000  1.0
  C  C206  1  0.34427000  0.31061000  0.00771000  1.0
  C  C207  1  0.15574000  0.18939000  0.50771000  1.0
  C  C208  1  0.60144000  0.65407000  0.95202000  1.0
  C  C209  1  0.89856000  0.84593000  0.45203000  1.0
  C  C210  1  0.39858000  0.34594000  0.04797000  1.0
  C  C211  1  0.10144000  0.15407000  0.54797000  1.0
  C  C212  1  0.51124000  0.60595000  0.96327000  1.0
  C  C213  1  0.98875000  0.89406000  0.46328000  1.0
  C  C214  1  0.48877000  0.39406000  0.03672000  1.0
  C  C215  1  0.01124000  0.10594000  0.53673000  1.0
  C  C216  1  0.47146000  0.59492000  0.01361000  1.0
  C  C217  1  0.02853000  0.90508000  0.51362000  1.0
  C  C218  1  0.52854000  0.40509000  0.98639000  1.0
  C  C219  1  0.97147000  0.09490000  0.48639000  1.0
  C  C220  1  0.52345000  0.63319000  0.05260000  1.0
  C  C221  1  0.97653000  0.86680000  0.55261000  1.0
  C  C222  1  0.47656000  0.36682000  0.94739000  1.0
  C  C223  1  0.02345000  0.13318000  0.44740000  1.0
  C  C224  1  0.61722000  0.67926000  0.04251000  1.0
  C  C225  1  0.88276000  0.82074000  0.54251000  1.0
  C  C226  1  0.38278000  0.32075000  0.95749000  1.0
  C  C227  1  0.11723000  0.17925000  0.45749000  1.0
  C  C228  1  0.71295000  0.90808000  0.80366000  1.0
  C  C229  1  0.78704000  0.59193000  0.30366000  1.0
  C  C230  1  0.28705000  0.09193000  0.19633000  1.0
  C  C231  1  0.21294000  0.40808000  0.69634000  1.0
  C  C232  1  0.60454000  0.88226000  0.82497000  1.0
  C  C233  1  0.89545000  0.61775000  0.32497000  1.0
  C  C234  1  0.39546000  0.11775000  0.17502000  1.0
  C  C235  1  0.10453000  0.38226000  0.67502000  1.0
  C  C236  1  0.73960000  0.91307000  0.88639000  1.0
  C  C237  1  0.76040000  0.58693000  0.38639000  1.0
  C  C238  1  0.26041000  0.08693000  0.11361000  1.0
  C  C239  1  0.23959000  0.41306000  0.61361000  1.0
  C  C240  1  0.40492000  0.93097000  0.13182000  1.0
  C  C241  1  0.09507000  0.56904000  0.63183000  1.0
  C  C242  1  0.59508000  0.06902000  0.86818000  1.0
  C  C243  1  0.90494000  0.43097000  0.36817000  1.0
  C  C244  1  0.35254000  0.90944000  0.08699000  1.0
  C  C245  1  0.14747000  0.59056000  0.58700000  1.0
  C  C246  1  0.64748000  0.09056000  0.91300000  1.0
  C  C247  1  0.85254000  0.40944000  0.41299000  1.0
  C  C248  1  0.56344000  0.92947000  0.07535000  1.0
  C  C249  1  0.93656000  0.57052000  0.57535000  1.0
  C  C250  1  0.43657000  0.07053000  0.92465000  1.0
  C  C251  1  0.06344000  0.42949000  0.42465000  1.0
  C  C252  1  0.24761000  0.71046000  0.89527000  1.0
  C  C253  1  0.25238000  0.78953000  0.39528000  1.0
  C  C254  1  0.75236000  0.28953000  0.10473000  1.0
  C  C255  1  0.74762000  0.21048000  0.60472000  1.0
  C  C256  1  0.15922000  0.66440000  0.90889000  1.0
  C  C257  1  0.34079000  0.83559000  0.40888000  1.0
  C  C258  1  0.84076000  0.33560000  0.09112000  1.0
  C  C259  1  0.65922000  0.16441000  0.59112000  1.0
  C  C260  1  0.21948000  0.71212000  0.97952000  1.0
  C  C261  1  0.28053000  0.78787000  0.47952000  1.0
  C  C262  1  0.78052000  0.28788000  0.02049000  1.0
  C  C263  1  0.71946000  0.21213000  0.52048000  1.0
  C  C264  1  0.53741000  0.86505000  0.91662000  1.0
  C  C265  1  0.96260000  0.63494000  0.41662000  1.0
  C  C266  1  0.46260000  0.13494000  0.08338000  1.0
  C  C267  1  0.03741000  0.36506000  0.58338000  1.0
  C  C268  1  0.45718000  0.81138000  0.90788000  1.0
  C  C269  1  0.04282000  0.68861000  0.40789000  1.0
  C  C270  1  0.54281000  0.18862000  0.09211000  1.0
  C  C271  1  0.95719000  0.31139000  0.59210000  1.0
  C  C272  1  0.37363000  0.79289000  0.94710000  1.0
  C  C273  1  0.12637000  0.70710000  0.44710000  1.0
  C  C274  1  0.62636000  0.20711000  0.05290000  1.0
  C  C275  1  0.87362000  0.29291000  0.55290000  1.0
  C  C276  1  0.37434000  0.82511000  0.99451000  1.0
  C  C277  1  0.12566000  0.67488000  0.49451000  1.0
  C  C278  1  0.62567000  0.17489000  0.00549000  1.0
  C  C279  1  0.87434000  0.32513000  0.50549000  1.0
  C  C280  1  0.45552000  0.87780000  0.00238000  1.0
  C  C281  1  0.04448000  0.62218000  0.50238000  1.0
  C  C282  1  0.54450000  0.12219000  0.99761000  1.0
  C  C283  1  0.95553000  0.37781000  0.49761000  1.0
  C  C284  1  0.53649000  0.89927000  0.96354000  1.0
  C  C285  1  0.96352000  0.60072000  0.46354000  1.0
  C  C286  1  0.46352000  0.10073000  0.03645000  1.0
  C  C287  1  0.03649000  0.39928000  0.53645000  1.0
  N  N288  1  0.87662000  0.82182000  0.99868000  1.0
  N  N289  1  0.62338000  0.67818000  0.49868000  1.0
  N  N290  1  0.12339000  0.17818000  0.00131000  1.0
  N  N291  1  0.37661000  0.32182000  0.50131000  1.0
  N  N292  1  0.75011000  0.73750000  0.98332000  1.0
  N  N293  1  0.74988000  0.76250000  0.48332000  1.0
  N  N294  1  0.24989000  0.26251000  0.01667000  1.0
  N  N295  1  0.25013000  0.23749000  0.51667000  1.0
  N  N296  1  0.31176000  0.51057000  0.88167000  1.0
  N  N297  1  0.18824000  0.98942000  0.38168000  1.0
  N  N298  1  0.68824000  0.48943000  0.11833000  1.0
  N  N299  1  0.81178000  0.01057000  0.61834000  1.0
  N  N300  1  0.45537000  0.56863000  0.92323000  1.0
  N  N301  1  0.04463000  0.93137000  0.42324000  1.0
  N  N302  1  0.54464000  0.43138000  0.07677000  1.0
  N  N303  1  0.95537000  0.06863000  0.57677000  1.0
  N  N304  1  0.34247000  0.62091000  0.16768000  1.0
  N  N305  1  0.15751000  0.87908000  0.66769000  1.0
  N  N306  1  0.65752000  0.37909000  0.83231000  1.0
  N  N307  1  0.84247000  0.12091000  0.33232000  1.0
  N  N308  1  0.47967000  0.62720000  0.10346000  1.0
  N  N309  1  0.02031000  0.87280000  0.60347000  1.0
  N  N310  1  0.52033000  0.37281000  0.89653000  1.0
  N  N311  1  0.97968000  0.12718000  0.39654000  1.0
  N  N312  1  0.79634000  0.92652000  0.84232000  1.0
  N  N313  1  0.70365000  0.57349000  0.34231000  1.0
  N  N314  1  0.20366000  0.07349000  0.15768000  1.0
  N  N315  1  0.29633000  0.42651000  0.65769000  1.0
  N  N316  1  0.62245000  0.88573000  0.87769000  1.0
  N  N317  1  0.87755000  0.61426000  0.37769000  1.0
  N  N318  1  0.37756000  0.11427000  0.12231000  1.0
  N  N319  1  0.12244000  0.38573000  0.62231000  1.0
  N  N320  1  0.53538000  0.94292000  0.12387000  1.0
  N  N321  1  0.96462000  0.55708000  0.62388000  1.0
  N  N322  1  0.46463000  0.05708000  0.87612000  1.0
  N  N323  1  0.03538000  0.44293000  0.37612000  1.0
  N  N324  1  0.45439000  0.90852000  0.05127000  1.0
  N  N325  1  0.04562000  0.59146000  0.55127000  1.0
  N  N326  1  0.54563000  0.09147000  0.94873000  1.0
  N  N327  1  0.95438000  0.40853000  0.44873000  1.0
  N  N328  1  0.14352000  0.66593000  0.96149000  1.0
  N  N329  1  0.35648000  0.83406000  0.46148000  1.0
  N  N330  1  0.85647000  0.33407000  0.03853000  1.0
  N  N331  1  0.64351000  0.16594000  0.53852000  1.0
  N  N332  1  0.28572000  0.74079000  0.94055000  1.0
  N  N333  1  0.21428000  0.75920000  0.44056000  1.0
  N  N334  1  0.71427000  0.25921000  0.05944000  1.0
  N  N335  1  0.78572000  0.24080000  0.55944000  1.0
  O  O336  1  0.12588000  0.90533000  0.99743000  1.0
  O  O337  1  0.37413000  0.59467000  0.49743000  1.0
  O  O338  1  0.87413000  0.09467000  0.00257000  1.0
  O  O339  1  0.62587000  0.40533000  0.50257000  1.0
  O  O340  1  0.02173000  0.94893000  0.91434000  1.0
  O  O341  1  0.47829000  0.55105000  0.41434000  1.0
  O  O342  1  0.97828000  0.05107000  0.08566000  1.0
  O  O343  1  0.52172000  0.44895000  0.58567000  1.0
  O  O344  1  0.16629000  0.02615000  0.96640000  1.0
  O  O345  1  0.33372000  0.47384000  0.46641000  1.0
  O  O346  1  0.83372000  0.97385000  0.03360000  1.0
  O  O347  1  0.66629000  0.52616000  0.53360000  1.0
  O  O348  1  0.97440000  0.05571000  0.81562000  1.0
  O  O349  1  0.52561000  0.44429000  0.31562000  1.0
  O  O350  1  0.02560000  0.94430000  0.18439000  1.0
  O  O351  1  0.47439000  0.55571000  0.68438000  1.0
  O  O352  1  0.18483000  0.11000000  0.84474000  1.0
  O  O353  1  0.31518000  0.39000000  0.34474000  1.0
  O  O354  1  0.81517000  0.89000000  0.15526000  1.0
  O  O355  1  0.68482000  0.61001000  0.65526000  1.0
  O  O356  1  0.97229000  0.13293000  0.89548000  1.0
  O  O357  1  0.52772000  0.36706000  0.39548000  1.0
  O  O358  1  0.02772000  0.86707000  0.10452000  1.0
  O  O359  1  0.47229000  0.63294000  0.60452000  1.0
  O  O360  1  0.08687000  0.90041000  0.79781000  1.0
  O  O361  1  0.41315000  0.59960000  0.29781000  1.0
  O  O362  1  0.91313000  0.09959000  0.20219000  1.0
  O  O363  1  0.58686000  0.40041000  0.70220000  1.0
  O  O364  1  0.29123000  0.94874000  0.83690000  1.0
  O  O365  1  0.20879000  0.55127000  0.33690000  1.0
  O  O366  1  0.70877000  0.05126000  0.16310000  1.0
  O  O367  1  0.79123000  0.44874000  0.66310000  1.0
  O  O368  1  0.31842000  0.85019000  0.77248000  1.0
  O  O369  1  0.18158000  0.64981000  0.27247000  1.0
  O  O370  1  0.68157000  0.14981000  0.22753000  1.0
  O  O371  1  0.81842000  0.35019000  0.72752000  1.0
  O  O372  1  0.34376000  0.98563000  0.69319000  1.0
  O  O373  1  0.15626000  0.51436000  0.19319000  1.0
  O  O374  1  0.65625000  0.01436000  0.30681000  1.0
  O  O375  1  0.84375000  0.48564000  0.80681000  1.0
  O  O376  1  0.42866000  0.06340000  0.76343000  1.0
  O  O377  1  0.07137000  0.43659000  0.26343000  1.0
  O  O378  1  0.57135000  0.93660000  0.23658000  1.0
  O  O379  1  0.92865000  0.56340000  0.73658000  1.0
  O  O380  1  0.58990000  0.00414000  0.70041000  1.0
  O  O381  1  0.91012000  0.49586000  0.20042000  1.0
  O  O382  1  0.41012000  0.99586000  0.29959000  1.0
  O  O383  1  0.08989000  0.50414000  0.79959000  1.0
  O  O384  1  0.65514000  0.87177000  0.62113000  1.0
  O  O385  1  0.84485000  0.62823000  0.12113000  1.0
  O  O386  1  0.34486000  0.12823000  0.37886000  1.0
  O  O387  1  0.15515000  0.37177000  0.87887000  1.0
  O  O388  1  0.45737000  0.82605000  0.66720000  1.0
  O  O389  1  0.04263000  0.67395000  0.16720000  1.0
  O  O390  1  0.54264000  0.17395000  0.33281000  1.0
  O  O391  1  0.95735000  0.32605000  0.83281000  1.0
  O  O392  1  0.47267000  0.82147000  0.56894000  1.0
  O  O393  1  0.02731000  0.67854000  0.06894000  1.0
  O  O394  1  0.52730000  0.17853000  0.43107000  1.0
  O  O395  1  0.97270000  0.32147000  0.93107000  1.0
  O  O396  1  0.52297000  0.01848000  0.58122000  1.0
  O  O397  1  0.97704000  0.48153000  0.08122000  1.0
  O  O398  1  0.47703000  0.98153000  0.41880000  1.0
  O  O399  1  0.02295000  0.51847000  0.91879000  1.0
  O  O400  1  0.33322000  0.96119000  0.53701000  1.0
  O  O401  1  0.16678000  0.53881000  0.03701000  1.0
  O  O402  1  0.66678000  0.03881000  0.46300000  1.0
  O  O403  1  0.83321000  0.46119000  0.96300000  1.0
  O  O404  1  0.37691000  0.08591000  0.51827000  1.0
  O  O405  1  0.12308000  0.41409000  0.01827000  1.0
  O  O406  1  0.62309000  0.91408000  0.48174000  1.0
  O  O407  1  0.87691000  0.58591000  0.98174000  1.0
