# generated using pymatgen
data_CdH7C17S2NF8
_symmetry_space_group_name_H-M   'P 1'
_cell_length_a   7.52385000
_cell_length_b   11.91610000
_cell_length_c   11.91610000
_cell_angle_alpha   63.50110000
_cell_angle_beta   77.46440000
_cell_angle_gamma   77.46450000
_symmetry_Int_Tables_number   1
_chemical_formula_structural   CdH7C17S2NF8
_chemical_formula_sum   'Cd2 H14 C34 S4 N2 F16'
_cell_volume   924.43190364
_cell_formula_units_Z   2
loop_
 _symmetry_equiv_pos_site_id
 _symmetry_equiv_pos_as_xyz
  1  'x, y, z'
loop_
 _atom_site_type_symbol
 _atom_site_label
 _atom_site_symmetry_multiplicity
 _atom_site_fract_x
 _atom_site_fract_y
 _atom_site_fract_z
 _atom_site_occupancy
  Cd  Cd0  1  0.25000000  0.53033000  0.46967000  1.0
  Cd  Cd1  1  0.75000000  0.46967000  0.53033000  1.0
  H  H2  1  0.17815000  0.62547000  0.89231000  1.0
  H  H3  1  0.32184000  0.10769000  0.37453000  1.0
  H  H4  1  0.82184000  0.37453000  0.10769000  1.0
  H  H5  1  0.67816000  0.89231000  0.62547000  1.0
  H  H6  1  0.04172000  0.81524000  0.36377000  1.0
  H  H7  1  0.45828000  0.63623000  0.18475000  1.0
  H  H8  1  0.95828000  0.18475000  0.63623000  1.0
  H  H9  1  0.54172000  0.36377000  0.81525000  1.0
  H  H10  1  0.25000000  0.02771000  0.97229000  1.0
  H  H11  1  0.75000000  0.97229000  0.02771000  1.0
  H  H12  1  0.03316000  0.01859000  0.16864000  1.0
  H  H13  1  0.46684000  0.83136000  0.98140000  1.0
  H  H14  1  0.96684000  0.98140000  0.83136000  1.0
  H  H15  1  0.53316000  0.16864000  0.01860000  1.0
  C  C16  1  0.11557000  0.45807000  0.26579000  1.0
  C  C17  1  0.38443000  0.73421000  0.54193000  1.0
  C  C18  1  0.88442000  0.54193000  0.73421000  1.0
  C  C19  1  0.61558000  0.26579000  0.45807000  1.0
  C  C20  1  0.16090000  0.58009000  0.99513000  1.0
  C  C21  1  0.33910000  0.00487000  0.41991000  1.0
  C  C22  1  0.83910000  0.41991000  0.00487000  1.0
  C  C23  1  0.66090000  0.99513000  0.58009000  1.0
  C  C24  1  0.13341000  0.82325000  0.27684000  1.0
  C  C25  1  0.36659000  0.72316000  0.17674000  1.0
  C  C26  1  0.86659000  0.17675000  0.72316000  1.0
  C  C27  1  0.63341000  0.27684000  0.82326000  1.0
  C  C28  1  0.25000000  0.94076000  0.05924000  1.0
  C  C29  1  0.75000000  0.05924000  0.94076000  1.0
  C  C30  1  0.01309000  0.57471000  0.19923000  1.0
  C  C31  1  0.48691000  0.80077000  0.42529000  1.0
  C  C32  1  0.98691000  0.42529000  0.80077000  1.0
  C  C33  1  0.51309000  0.19923000  0.57471000  1.0
  C  C34  1  0.12921000  0.93612000  0.16774000  1.0
  C  C35  1  0.37079000  0.83226000  0.06388000  1.0
  C  C36  1  0.87079000  0.06388000  0.83226000  1.0
  C  C37  1  0.62921000  0.16775000  0.93612000  1.0
  C  C38  1  0.24405000  0.40614000  0.19088000  1.0
  C  C39  1  0.25595000  0.80912000  0.59386000  1.0
  C  C40  1  0.75595000  0.59386000  0.80912000  1.0
  C  C41  1  0.74405000  0.19088000  0.40614000  1.0
  C  C42  1  0.03508000  0.63363000  0.06764000  1.0
  C  C43  1  0.46492000  0.93236000  0.36638000  1.0
  C  C44  1  0.96492000  0.36638000  0.93236000  1.0
  C  C45  1  0.53508000  0.06763000  0.63362000  1.0
  C  C46  1  0.26422000  0.46540000  0.05943000  1.0
  C  C47  1  0.23579000  0.94057000  0.53460000  1.0
  C  C48  1  0.73578000  0.53461000  0.94057000  1.0
  C  C49  1  0.76422000  0.05943000  0.46540000  1.0
  S  S50  1  0.09204000  0.38014000  0.43129000  1.0
  S  S51  1  0.40796000  0.56870000  0.61986000  1.0
  S  S52  1  0.90796000  0.61986000  0.56870000  1.0
  S  S53  1  0.59204000  0.43129000  0.38014000  1.0
  N  N54  1  0.25000000  0.71850000  0.28150000  1.0
  N  N55  1  0.75000000  0.28150000  0.71850000  1.0
  F  F56  1  0.89276000  0.63541000  0.26343000  1.0
  F  F57  1  0.60724000  0.73657000  0.36459000  1.0
  F  F58  1  0.10724000  0.36459000  0.73657000  1.0
  F  F59  1  0.39276000  0.26343000  0.63541000  1.0
  F  F60  1  0.35433000  0.29579000  0.24627000  1.0
  F  F61  1  0.14567000  0.75374000  0.70421000  1.0
  F  F62  1  0.64566000  0.70421000  0.75373000  1.0
  F  F63  1  0.85434000  0.24627000  0.29579000  1.0
  F  F64  1  0.93021000  0.74652000  0.00969000  1.0
  F  F65  1  0.56979000  0.99031000  0.25348000  1.0
  F  F66  1  0.06979000  0.25348000  0.99031000  1.0
  F  F67  1  0.43021000  0.00968000  0.74652000  1.0
  F  F68  1  0.38929000  0.40856000  0.99295000  1.0
  F  F69  1  0.11070000  0.00705000  0.59144000  1.0
  F  F70  1  0.61070000  0.59144000  0.00705000  1.0
  F  F71  1  0.88930000  0.99295000  0.40856000  1.0
