# generated using pymatgen
data_CuH28C29N8O3
_symmetry_space_group_name_H-M   'P 1'
_cell_length_a   10.91530000
_cell_length_b   12.37352398
_cell_length_c   13.17680000
_cell_angle_alpha   64.08871717
_cell_angle_beta   79.12100000
_cell_angle_gamma   65.51645392
_symmetry_Int_Tables_number   1
_chemical_formula_structural   CuH28C29N8O3
_chemical_formula_sum   'Cu2 H56 C58 N16 O6'
_cell_volume   1456.75789931
_cell_formula_units_Z   2
loop_
 _symmetry_equiv_pos_site_id
 _symmetry_equiv_pos_as_xyz
  1  'x, y, z'
loop_
 _atom_site_type_symbol
 _atom_site_label
 _atom_site_symmetry_multiplicity
 _atom_site_fract_x
 _atom_site_fract_y
 _atom_site_fract_z
 _atom_site_occupancy
  Cu  Cu0  1  0.82783000  0.80809000  0.48075000  1.0
  Cu  Cu1  1  0.17219000  0.19191000  0.51926000  1.0
  H  H2  1  0.59880000  0.08699000  0.37928000  1.0
  H  H3  1  0.40119000  0.91301000  0.62072000  1.0
  H  H4  1  0.45157000  0.21113000  0.52026000  1.0
  H  H5  1  0.54841000  0.78887000  0.47973000  1.0
  H  H6  1  0.78841000  0.88355000  0.69490000  1.0
  H  H7  1  0.21159000  0.11647000  0.30511000  1.0
  H  H8  1  0.58479000  0.99229000  0.80992000  1.0
  H  H9  1  0.41521000  0.00771000  0.19008000  1.0
  H  H10  1  0.45856000  0.13981000  0.73265000  1.0
  H  H11  1  0.54143000  0.86021000  0.26734000  1.0
  H  H12  1  0.51332000  0.18311000  0.89425000  1.0
  H  H13  1  0.48668000  0.81691000  0.10573000  1.0
  H  H14  1  0.63916000  0.28548000  0.93641000  1.0
  H  H15  1  0.36084000  0.71453000  0.06358000  1.0
  H  H16  1  0.90948000  0.25092000  0.65878000  1.0
  H  H17  1  0.09053000  0.74907000  0.34122000  1.0
  H  H18  1  0.78394000  0.14977000  0.61564000  1.0
  H  H19  1  0.21606000  0.85022000  0.38436000  1.0
  H  H20  1  0.85743000  0.31513000  0.91552000  1.0
  H  H21  1  0.14256000  0.68488000  0.08447000  1.0
  H  H22  1  0.96640000  0.30312000  0.79916000  1.0
  H  H23  1  0.03360000  0.69688000  0.20083000  1.0
  H  H24  1  0.70370000  0.53575000  0.90271000  1.0
  H  H25  1  0.29632000  0.46425000  0.09727000  1.0
  H  H26  1  0.61536000  0.77873000  0.72380000  1.0
  H  H27  1  0.38465000  0.22128000  0.27618000  1.0
  H  H28  1  0.86883000  0.50046000  0.59619000  1.0
  H  H29  1  0.13116000  0.49954000  0.40380000  1.0
  H  H30  1  0.00473000  0.91162000  0.55526000  1.0
  H  H31  1  0.99529000  0.08837000  0.44474000  1.0
  H  H32  1  0.25558000  0.74394000  0.65483000  1.0
  H  H33  1  0.74446000  0.25605000  0.34514000  1.0
  H  H34  1  0.06808000  0.52895000  0.61123000  1.0
  H  H35  1  0.93191000  0.47103000  0.38882000  1.0
  H  H36  1  0.28400000  0.40220000  0.72015000  1.0
  H  H37  1  0.71601000  0.59779000  0.27986000  1.0
  H  H38  1  0.35087000  0.48541000  0.76282000  1.0
  H  H39  1  0.64915000  0.51458000  0.23717000  1.0
  H  H40  1  0.32031000  0.41814000  0.52088000  1.0
  H  H41  1  0.67970000  0.58186000  0.47912000  1.0
  H  H42  1  0.52962000  0.56072000  0.64807000  1.0
  H  H43  1  0.47038000  0.43928000  0.35194000  1.0
  H  H44  1  0.14231000  0.10214000  0.02092000  1.0
  H  H45  1  0.85768000  0.89786000  0.97908000  1.0
  H  H46  1  0.18465000  0.03504000  0.86308000  1.0
  H  H47  1  0.81533000  0.96496000  0.13693000  1.0
  H  H48  1  0.03282000  0.09450000  0.20189000  1.0
  H  H49  1  0.96717000  0.90550000  0.79812000  1.0
  H  H50  1  0.91760000  0.01450000  0.26196000  1.0
  H  H51  1  0.08239000  0.98551000  0.73806000  1.0
  H  H52  1  0.66595000  0.14890000  0.19696000  1.0
  H  H53  1  0.33406000  0.85110000  0.80304000  1.0
  H  H54  1  0.93809000  0.34046000  0.09615000  1.0
  H  H55  1  0.06192000  0.65953000  0.90387000  1.0
  H  H56  1  0.52283000  0.41702000  0.11951000  1.0
  H  H57  1  0.47718000  0.58297000  0.88046000  1.0
  C  C58  1  0.61827000  0.06599000  0.46466000  1.0
  C  C59  1  0.38173000  0.93398000  0.53535000  1.0
  C  C60  1  0.54507000  0.12823000  0.53356000  1.0
  C  C61  1  0.45492000  0.87178000  0.46643000  1.0
  C  C62  1  0.71955000  0.95661000  0.62657000  1.0
  C  C63  1  0.28045000  0.04340000  0.37343000  1.0
  C  C64  1  0.56807000  0.08544000  0.73665000  1.0
  C  C65  1  0.43193000  0.91457000  0.26335000  1.0
  C  C66  1  0.64184000  0.15624000  0.75367000  1.0
  C  C67  1  0.35814000  0.84379000  0.24631000  1.0
  C  C68  1  0.60070000  0.19742000  0.84256000  1.0
  C  C69  1  0.39931000  0.80259000  0.15743000  1.0
  C  C70  1  0.67082000  0.25580000  0.86577000  1.0
  C  C71  1  0.32918000  0.74420000  0.13422000  1.0
  C  C72  1  0.78344000  0.27433000  0.80076000  1.0
  C  C73  1  0.21654000  0.72569000  0.19922000  1.0
  C  C74  1  0.82230000  0.23619000  0.71044000  1.0
  C  C75  1  0.17770000  0.76380000  0.28956000  1.0
  C  C76  1  0.75190000  0.17805000  0.68691000  1.0
  C  C77  1  0.24809000  0.82195000  0.31308000  1.0
  C  C78  1  0.86047000  0.33719000  0.82522000  1.0
  C  C79  1  0.13953000  0.66280000  0.17477000  1.0
  C  C80  1  0.72091000  0.56606000  0.81216000  1.0
  C  C81  1  0.27909000  0.43393000  0.18783000  1.0
  C  C82  1  0.68026000  0.68513000  0.72265000  1.0
  C  C83  1  0.31974000  0.31487000  0.27735000  1.0
  C  C84  1  0.80890000  0.54596000  0.65269000  1.0
  C  C85  1  0.19110000  0.45403000  0.34730000  1.0
  C  C86  1  0.05508000  0.80778000  0.58102000  1.0
  C  C87  1  0.94494000  0.19220000  0.41900000  1.0
  C  C88  1  0.17775000  0.72618000  0.63177000  1.0
  C  C89  1  0.82226000  0.27381000  0.36825000  1.0
  C  C90  1  0.08119000  0.61237000  0.60900000  1.0
  C  C91  1  0.91880000  0.38762000  0.39104000  1.0
  C  C92  1  0.31391000  0.48588000  0.69077000  1.0
  C  C93  1  0.68610000  0.51411000  0.30924000  1.0
  C  C94  1  0.41501000  0.48783000  0.59537000  1.0
  C  C95  1  0.58500000  0.51217000  0.40464000  1.0
  C  C96  1  0.39971000  0.45377000  0.51161000  1.0
  C  C97  1  0.60029000  0.54624000  0.48839000  1.0
  C  C98  1  0.51641000  0.53405000  0.58325000  1.0
  C  C99  1  0.48360000  0.46595000  0.41675000  1.0
  C  C100  1  0.79878000  0.77280000  0.32034000  1.0
  C  C101  1  0.20117000  0.22721000  0.67967000  1.0
  C  C102  1  0.07973000  0.05690000  0.01254000  1.0
  C  C103  1  0.92028000  0.94309000  0.98747000  1.0
  C  C104  1  0.10416000  0.01860000  0.92341000  1.0
  C  C105  1  0.89585000  0.98138000  0.07660000  1.0
  C  C106  1  0.97563000  0.03839000  0.08975000  1.0
  C  C107  1  0.02438000  0.96157000  0.91028000  1.0
  C  C108  1  0.94513000  0.08390000  0.18410000  1.0
  C  C109  1  0.05486000  0.91610000  0.81592000  1.0
  C  C110  1  0.69828000  0.22999000  0.16450000  1.0
  C  C111  1  0.30172000  0.77002000  0.83548000  1.0
  C  C112  1  0.84206000  0.32892000  0.11092000  1.0
  C  C113  1  0.15795000  0.67108000  0.88907000  1.0
  C  C114  1  0.63063000  0.36277000  0.12453000  1.0
  C  C115  1  0.36937000  0.63725000  0.87544000  1.0
  N  N116  1  0.72689000  0.95886000  0.52348000  1.0
  N  N117  1  0.27312000  0.04116000  0.47652000  1.0
  N  N118  1  0.60970000  0.05732000  0.63614000  1.0
  N  N119  1  0.39028000  0.94269000  0.36386000  1.0
  N  N120  1  0.80266000  0.47877000  0.76591000  1.0
  N  N121  1  0.19734000  0.52122000  0.23409000  1.0
  N  N122  1  0.73613000  0.67197000  0.62342000  1.0
  N  N123  1  0.26388000  0.32802000  0.37657000  1.0
  N  N124  1  0.99589000  0.73588000  0.56677000  1.0
  N  N125  1  0.00411000  0.26413000  0.43325000  1.0
  N  N126  1  0.19168000  0.60328000  0.64995000  1.0
  N  N127  1  0.80832000  0.39671000  0.35008000  1.0
  N  N128  1  0.83316000  0.20987000  0.15572000  1.0
  N  N129  1  0.16683000  0.79014000  0.84427000  1.0
  N  N130  1  0.72120000  0.42390000  0.09095000  1.0
  N  N131  1  0.27880000  0.57611000  0.90902000  1.0
  O  O132  1  0.73072000  0.88147000  0.33591000  1.0
  O  O133  1  0.26928000  0.11856000  0.66411000  1.0
  O  O134  1  0.89097000  0.68677000  0.39838000  1.0
  O  O135  1  0.10905000  0.31322000  0.60162000  1.0
  O  O136  1  0.77715000  0.75407000  0.24033000  1.0
  O  O137  1  0.22281000  0.24594000  0.75968000  1.0
