# generated using pymatgen
data_CdH11C9N2ClO3
_symmetry_space_group_name_H-M   'P 1'
_cell_length_a   5.79775000
_cell_length_b   15.15460000
_cell_length_c   16.45860000
_cell_angle_alpha   90.00000000
_cell_angle_beta   89.99990000
_cell_angle_gamma   90.00000000
_symmetry_Int_Tables_number   1
_chemical_formula_structural   CdH11C9N2ClO3
_chemical_formula_sum   'Cd4 H44 C36 N8 Cl4 O12'
_cell_volume   1446.09509457
_cell_formula_units_Z   4
loop_
 _symmetry_equiv_pos_site_id
 _symmetry_equiv_pos_as_xyz
  1  'x, y, z'
loop_
 _atom_site_type_symbol
 _atom_site_label
 _atom_site_symmetry_multiplicity
 _atom_site_fract_x
 _atom_site_fract_y
 _atom_site_fract_z
 _atom_site_occupancy
  Cd  Cd0  1  0.62829000  0.41529000  0.03708000  1.0
  Cd  Cd1  1  0.87171000  0.58471000  0.53708000  1.0
  Cd  Cd2  1  0.37171000  0.91530000  0.46292000  1.0
  Cd  Cd3  1  0.12829000  0.08470000  0.96292000  1.0
  H  H4  1  0.55595000  0.61997000  0.75361000  1.0
  H  H5  1  0.94406000  0.38003000  0.25361000  1.0
  H  H6  1  0.44405000  0.11998000  0.74639000  1.0
  H  H7  1  0.05595000  0.88002000  0.24639000  1.0
  H  H8  1  0.35036000  0.63599000  0.62211000  1.0
  H  H9  1  0.14965000  0.36401000  0.12211000  1.0
  H  H10  1  0.64965000  0.13599000  0.87789000  1.0
  H  H11  1  0.85035000  0.86401000  0.37789000  1.0
  H  H12  1  0.80169000  0.48403000  0.70108000  1.0
  H  H13  1  0.69831000  0.51597000  0.20108000  1.0
  H  H14  1  0.19830000  0.98403000  0.79891000  1.0
  H  H15  1  0.30169000  0.01597000  0.29892000  1.0
  H  H16  1  0.98035000  0.46448000  0.83939000  1.0
  H  H17  1  0.51965000  0.53552000  0.33939000  1.0
  H  H18  1  0.01964000  0.96448000  0.66061000  1.0
  H  H19  1  0.48035000  0.03552000  0.16061000  1.0
  H  H20  1  0.20666000  0.44707000  0.95966000  1.0
  H  H21  1  0.29334000  0.55293000  0.45966000  1.0
  H  H22  1  0.79334000  0.94707000  0.54034000  1.0
  H  H23  1  0.70666000  0.05293000  0.04034000  1.0
  H  H24  1  0.59366000  0.53636000  0.87973000  1.0
  H  H25  1  0.90634000  0.46364000  0.37973000  1.0
  H  H26  1  0.40633000  0.03636000  0.62027000  1.0
  H  H27  1  0.09367000  0.96364000  0.12027000  1.0
  H  H28  1  0.35150000  0.57938000  0.93041000  1.0
  H  H29  1  0.14850000  0.42062000  0.43040000  1.0
  H  H30  1  0.64850000  0.07938000  0.56960000  1.0
  H  H31  1  0.85150000  0.92062000  0.06960000  1.0
  H  H32  1  0.25372000  0.36098000  0.83007000  1.0
  H  H33  1  0.24628000  0.63902000  0.33007000  1.0
  H  H34  1  0.74627000  0.86098000  0.66993000  1.0
  H  H35  1  0.75372000  0.13902000  0.16993000  1.0
  H  H36  1  0.62253000  0.28616000  0.81223000  1.0
  H  H37  1  0.87748000  0.71384000  0.31223000  1.0
  H  H38  1  0.37746000  0.78616000  0.68777000  1.0
  H  H39  1  0.12253000  0.21384000  0.18777000  1.0
  H  H40  1  0.65461000  0.40212000  0.80250000  1.0
  H  H41  1  0.84540000  0.59788000  0.30250000  1.0
  H  H42  1  0.34538000  0.90213000  0.69750000  1.0
  H  H43  1  0.15461000  0.09787000  0.19750000  1.0
  H  H44  1  0.80649000  0.29121000  0.93442000  1.0
  H  H45  1  0.69352000  0.70879000  0.43442000  1.0
  H  H46  1  0.19351000  0.79121000  0.56558000  1.0
  H  H47  1  0.30649000  0.20879000  0.06558000  1.0
  C  C48  1  0.38706000  0.58933000  0.74574000  1.0
  C  C49  1  0.11295000  0.41067000  0.24574000  1.0
  C  C50  1  0.61294000  0.08933000  0.75426000  1.0
  C  C51  1  0.88705000  0.91066000  0.25426000  1.0
  C  C52  1  0.28491000  0.54007000  0.80789000  1.0
  C  C53  1  0.21509000  0.45993000  0.30789000  1.0
  C  C54  1  0.71509000  0.04007000  0.69211000  1.0
  C  C55  1  0.78491000  0.95992000  0.19211000  1.0
  C  C56  1  0.27368000  0.59869000  0.67173000  1.0
  C  C57  1  0.22632000  0.40131000  0.17173000  1.0
  C  C58  1  0.72632000  0.09868000  0.82827000  1.0
  C  C59  1  0.77368000  0.90131000  0.32827000  1.0
  C  C60  1  0.96736000  0.51400000  0.71659000  1.0
  C  C61  1  0.53264000  0.48600000  0.21659000  1.0
  C  C62  1  0.03264000  0.01400000  0.78340000  1.0
  C  C63  1  0.46736000  0.98600000  0.28340000  1.0
  C  C64  1  0.06773000  0.50299000  0.79263000  1.0
  C  C65  1  0.43227000  0.49702000  0.29262000  1.0
  C  C66  1  0.93226000  0.00299000  0.70737000  1.0
  C  C67  1  0.56773000  0.99701000  0.20737000  1.0
  C  C68  1  0.40694000  0.52724000  0.88805000  1.0
  C  C69  1  0.09306000  0.47277000  0.38805000  1.0
  C  C70  1  0.59305000  0.02724000  0.61195000  1.0
  C  C71  1  0.90695000  0.97276000  0.11195000  1.0
  C  C72  1  0.37564000  0.36159000  0.88137000  1.0
  C  C73  1  0.12436000  0.63842000  0.38137000  1.0
  C  C74  1  0.62435000  0.86159000  0.61863000  1.0
  C  C75  1  0.87564000  0.13841000  0.11863000  1.0
  C  C76  1  0.61858000  0.34881000  0.84596000  1.0
  C  C77  1  0.88142000  0.65119000  0.34596000  1.0
  C  C78  1  0.38141000  0.84881000  0.65404000  1.0
  C  C79  1  0.11858000  0.15119000  0.15404000  1.0
  C  C80  1  0.31686000  0.28188000  0.93500000  1.0
  C  C81  1  0.18314000  0.71812000  0.43500000  1.0
  C  C82  1  0.68315000  0.78188000  0.56500000  1.0
  C  C83  1  0.81685000  0.21812000  0.06500000  1.0
  N  N84  1  0.06776000  0.56120000  0.65710000  1.0
  N  N85  1  0.43225000  0.43880000  0.15710000  1.0
  N  N86  1  0.93225000  0.06120000  0.84289000  1.0
  N  N87  1  0.56775000  0.93880000  0.34289000  1.0
  N  N88  1  0.36270000  0.44305000  0.92995000  1.0
  N  N89  1  0.13730000  0.55695000  0.42995000  1.0
  N  N90  1  0.63729000  0.94306000  0.57005000  1.0
  N  N91  1  0.86270000  0.05694000  0.07005000  1.0
  Cl  Cl92  1  0.92758000  0.53161000  0.03491000  1.0
  Cl  Cl93  1  0.57242000  0.46839000  0.53491000  1.0
  Cl  Cl94  1  0.07241000  0.03161000  0.46509000  1.0
  Cl  Cl95  1  0.42758000  0.96839000  0.96509000  1.0
  O  O96  1  0.31947000  0.29396000  0.01169000  1.0
  O  O97  1  0.18054000  0.70604000  0.51169000  1.0
  O  O98  1  0.68054000  0.79396000  0.48831000  1.0
  O  O99  1  0.81946000  0.20604000  0.98831000  1.0
  O  O100  1  0.79319000  0.35132000  0.90696000  1.0
  O  O101  1  0.70681000  0.64868000  0.40696000  1.0
  O  O102  1  0.20680000  0.85133000  0.59304000  1.0
  O  O103  1  0.29320000  0.14868000  0.09304000  1.0
  O  O104  1  0.27898000  0.20975000  0.89873000  1.0
  O  O105  1  0.22102000  0.79025000  0.39873000  1.0
  O  O106  1  0.72102000  0.70975000  0.60127000  1.0
  O  O107  1  0.77899000  0.29025000  0.10127000  1.0
