# generated using pymatgen
data_CoH20C27Br4(NO)4
_symmetry_space_group_name_H-M   'P 1'
_cell_length_a   11.00540000
_cell_length_b   11.06340000
_cell_length_c   12.43980000
_cell_angle_alpha   76.70380000
_cell_angle_beta   79.73640000
_cell_angle_gamma   88.26700000
_symmetry_Int_Tables_number   1
_chemical_formula_structural   CoH20C27Br4(NO)4
_chemical_formula_sum   'Co2 H40 C54 Br8 N8 O8'
_cell_volume   1450.35539799
_cell_formula_units_Z   2
loop_
 _symmetry_equiv_pos_site_id
 _symmetry_equiv_pos_as_xyz
  1  'x, y, z'
loop_
 _atom_site_type_symbol
 _atom_site_label
 _atom_site_symmetry_multiplicity
 _atom_site_fract_x
 _atom_site_fract_y
 _atom_site_fract_z
 _atom_site_occupancy
  Co  Co0  1  0.72363000  0.27317000  0.27731000  1.0
  Co  Co1  1  0.27637000  0.72683000  0.72269000  1.0
  H  H2  1  0.48854000  0.28619000  0.47278000  1.0
  H  H3  1  0.51147000  0.71381000  0.52722000  1.0
  H  H4  1  0.50994000  0.47248000  0.36859000  1.0
  H  H5  1  0.49006000  0.52752000  0.63141000  1.0
  H  H6  1  0.65555000  0.26872000  0.04916000  1.0
  H  H7  1  0.34445000  0.73127000  0.95084000  1.0
  H  H8  1  0.83880000  0.00836000  0.37213000  1.0
  H  H9  1  0.16120000  0.99164000  0.62787000  1.0
  H  H10  1  0.55783000  0.88943000  0.74928000  1.0
  H  H11  1  0.44217000  0.11057000  0.25072000  1.0
  H  H12  1  0.51937000  0.33996000  0.89691000  1.0
  H  H13  1  0.48063000  0.66004000  0.10309000  1.0
  H  H14  1  0.36906000  0.39312000  0.93769000  1.0
  H  H15  1  0.63094000  0.60688000  0.06231000  1.0
  H  H16  1  0.86946000  0.81176000  0.51044000  1.0
  H  H17  1  0.13054000  0.18824000  0.48956000  1.0
  H  H18  1  0.36589000  0.03789000  0.71178000  1.0
  H  H19  1  0.63411000  0.96211000  0.28822000  1.0
  H  H20  1  0.35083000  0.19682000  0.64981000  1.0
  H  H21  1  0.64917000  0.80319000  0.35019000  1.0
  H  H22  1  0.30124000  0.56796000  0.38628000  1.0
  H  H23  1  0.69876000  0.43205000  0.61372000  1.0
  H  H24  1  0.29815000  0.08007000  0.89810000  1.0
  H  H25  1  0.70185000  0.91993000  0.10190000  1.0
  H  H26  1  0.28605000  0.24099000  0.84469000  1.0
  H  H27  1  0.71395000  0.75901000  0.15531000  1.0
  H  H28  1  0.73153000  0.75255000  0.69348000  1.0
  H  H29  1  0.26847000  0.24745000  0.30652000  1.0
  H  H30  1  0.23257000  0.46559000  0.08650000  1.0
  H  H31  1  0.76743000  0.53441000  0.91350000  1.0
  H  H32  1  0.50988000  0.25179000  0.75308000  1.0
  H  H33  1  0.49012000  0.74821000  0.24692000  1.0
  H  H34  1  0.52586000  0.09278000  0.81556000  1.0
  H  H35  1  0.47414000  0.90722000  0.18444000  1.0
  H  H36  1  0.30484000  0.17904000  0.05079000  1.0
  H  H37  1  0.69516000  0.82096000  0.94921000  1.0
  H  H38  1  0.45506000  0.12450000  0.01198000  1.0
  H  H39  1  0.54494000  0.87550000  0.98802000  1.0
  H  H40  1  0.16652000  0.56633000  0.24522000  1.0
  H  H41  1  0.83348000  0.43367000  0.75477000  1.0
  C  C42  1  0.96380000  0.96595000  0.90874000  1.0
  C  C43  1  0.03620000  0.03405000  0.09126000  1.0
  C  C44  1  0.89780000  0.05552000  0.95803000  1.0
  C  C45  1  0.10220000  0.94448000  0.04197000  1.0
  C  C46  1  0.05053000  0.61956000  0.46525000  1.0
  C  C47  1  0.94947000  0.38043000  0.53475000  1.0
  C  C48  1  0.93291000  0.09027000  0.04962000  1.0
  C  C49  1  0.06709000  0.90973000  0.95038000  1.0
  C  C50  1  0.91305000  0.46289000  0.44257000  1.0
  C  C51  1  0.08695000  0.53711000  0.55743000  1.0
  C  C52  1  0.86284000  0.18810000  0.10300000  1.0
  C  C53  1  0.13716000  0.81190000  0.89699000  1.0
  C  C54  1  0.96432000  0.58272000  0.40825000  1.0
  C  C55  1  0.03567000  0.41728000  0.59175000  1.0
  C  C56  1  0.68013000  0.05825000  0.48373000  1.0
  C  C57  1  0.31987000  0.94175000  0.51627000  1.0
  C  C58  1  0.48510000  0.40892000  0.22164000  1.0
  C  C59  1  0.51490000  0.59107000  0.77835000  1.0
  C  C60  1  0.81701000  0.42220000  0.38428000  1.0
  C  C61  1  0.18299000  0.57780000  0.61572000  1.0
  C  C62  1  0.60237000  0.02475000  0.59015000  1.0
  C  C63  1  0.39763000  0.97525000  0.40985000  1.0
  C  C64  1  0.54287000  0.20331000  0.49295000  1.0
  C  C65  1  0.45713000  0.79669000  0.50705000  1.0
  C  C66  1  0.44806000  0.46764000  0.31023000  1.0
  C  C67  1  0.55194000  0.53236000  0.68977000  1.0
  C  C68  1  0.58458000  0.31542000  0.09656000  1.0
  C  C69  1  0.41542000  0.68458000  0.90344000  1.0
  C  C70  1  0.77833000  0.98250000  0.45346000  1.0
  C  C71  1  0.22167000  0.01750000  0.54654000  1.0
  C  C72  1  0.40805000  0.40870000  0.14154000  1.0
  C  C73  1  0.59195000  0.59130000  0.85846000  1.0
  C  C74  1  0.61843000  0.91520000  0.66806000  1.0
  C  C75  1  0.38158000  0.08481000  0.33194000  1.0
  C  C76  1  0.43779000  0.32364000  0.96374000  1.0
  C  C77  1  0.56221000  0.67636000  0.03626000  1.0
  C  C78  1  0.79402000  0.87304000  0.53117000  1.0
  C  C79  1  0.20599000  0.12696000  0.46883000  1.0
  C  C80  1  0.41568000  0.12750000  0.68437000  1.0
  C  C81  1  0.58432000  0.87250000  0.31563000  1.0
  C  C82  1  0.33238000  0.52297000  0.31712000  1.0
  C  C83  1  0.66763000  0.47703000  0.68288000  1.0
  C  C84  1  0.34996000  0.16828000  0.87646000  1.0
  C  C85  1  0.65005000  0.83172000  0.12354000  1.0
  C  C86  1  0.71548000  0.83962000  0.63624000  1.0
  C  C87  1  0.28452000  0.16038000  0.36376000  1.0
  C  C88  1  0.29226000  0.46462000  0.14787000  1.0
  C  C89  1  0.70774000  0.53538000  0.85213000  1.0
  C  C90  1  0.45970000  0.16241000  0.78310000  1.0
  C  C91  1  0.54030000  0.83759000  0.21690000  1.0
  C  C92  1  0.38573000  0.19248000  0.98304000  1.0
  C  C93  1  0.61427000  0.80752000  0.01696000  1.0
  C  C94  1  0.25597000  0.52131000  0.23759000  1.0
  C  C95  1  0.74403000  0.47869000  0.76241000  1.0
  Br  Br96  1  0.12218000  0.78093000  0.41753000  1.0
  Br  Br97  1  0.87782000  0.21906000  0.58247000  1.0
  Br  Br98  1  0.91393000  0.91542000  0.78704000  1.0
  Br  Br99  1  0.08607000  0.08458000  0.21296000  1.0
  Br  Br100  1  0.75726000  0.13103000  0.90147000  1.0
  Br  Br101  1  0.24274000  0.86897000  0.09853000  1.0
  Br  Br102  1  0.91789000  0.69239000  0.28080000  1.0
  Br  Br103  1  0.08210000  0.30761000  0.71921000  1.0
  N  N104  1  0.47500000  0.34872000  0.06349000  1.0
  N  N105  1  0.52499000  0.65128000  0.93652000  1.0
  N  N106  1  0.59450000  0.34829000  0.19130000  1.0
  N  N107  1  0.40550000  0.65170000  0.80870000  1.0
  N  N108  1  0.63976000  0.17093000  0.42500000  1.0
  N  N109  1  0.36024000  0.82906000  0.57500000  1.0
  N  N110  1  0.51625000  0.11926000  0.59251000  1.0
  N  N111  1  0.48375000  0.88074000  0.40749000  1.0
  O  O112  1  0.79010000  0.14274000  0.19744000  1.0
  O  O113  1  0.20989000  0.85726000  0.80256000  1.0
  O  O114  1  0.87812000  0.29946000  0.05599000  1.0
  O  O115  1  0.12188000  0.70054000  0.94401000  1.0
  O  O116  1  0.85916000  0.35771000  0.31185000  1.0
  O  O117  1  0.14084000  0.64229000  0.68816000  1.0
  O  O118  1  0.70657000  0.44935000  0.41100000  1.0
  O  O119  1  0.29343000  0.55066000  0.58900000  1.0
