# generated using pymatgen
data_CoH14C11N4
_symmetry_space_group_name_H-M   'P 1'
_cell_length_a   9.15525000
_cell_length_b   9.15516000
_cell_length_c   13.44870000
_cell_angle_alpha   90.00000000
_cell_angle_beta   90.00000000
_cell_angle_gamma   90.00000000
_symmetry_Int_Tables_number   1
_chemical_formula_structural   CoH14C11N4
_chemical_formula_sum   'Co4 H56 C44 N16'
_cell_volume   1127.24015892
_cell_formula_units_Z   4
loop_
 _symmetry_equiv_pos_site_id
 _symmetry_equiv_pos_as_xyz
  1  'x, y, z'
loop_
 _atom_site_type_symbol
 _atom_site_label
 _atom_site_symmetry_multiplicity
 _atom_site_fract_x
 _atom_site_fract_y
 _atom_site_fract_z
 _atom_site_occupancy
  Co  Co0  1  0.00000000  0.91332000  0.00000000  1.0
  Co  Co1  1  0.00000000  0.08668000  0.50000000  1.0
  Co  Co2  1  0.08668000  0.00000000  0.25000000  1.0
  Co  Co3  1  0.91332000  0.00000000  0.75000000  1.0
  H  H4  1  0.67098000  0.46165000  0.19017000  1.0
  H  H5  1  0.32902000  0.53835000  0.69017000  1.0
  H  H6  1  0.32902000  0.46165000  0.80983000  1.0
  H  H7  1  0.53835000  0.32901000  0.05983000  1.0
  H  H8  1  0.53835000  0.67098000  0.44017000  1.0
  H  H9  1  0.46165000  0.32901000  0.94017000  1.0
  H  H10  1  0.46165000  0.67098000  0.55983000  1.0
  H  H11  1  0.67098000  0.53835000  0.30983000  1.0
  H  H12  1  0.72663000  0.72609000  0.98038000  1.0
  H  H13  1  0.27336000  0.27391000  0.48038000  1.0
  H  H14  1  0.27336000  0.72609000  0.01962000  1.0
  H  H15  1  0.27391000  0.27336000  0.26962000  1.0
  H  H16  1  0.27391000  0.72664000  0.23038000  1.0
  H  H17  1  0.72609000  0.27336000  0.73038000  1.0
  H  H18  1  0.72609000  0.72664000  0.76962000  1.0
  H  H19  1  0.72664000  0.27391000  0.51962000  1.0
  H  H20  1  0.84720000  0.57593000  0.97015000  1.0
  H  H21  1  0.15281000  0.42408000  0.47015000  1.0
  H  H22  1  0.15280000  0.57593000  0.02985000  1.0
  H  H23  1  0.42407000  0.15281000  0.27984000  1.0
  H  H24  1  0.42407000  0.84719000  0.22016000  1.0
  H  H25  1  0.57593000  0.15281000  0.72015000  1.0
  H  H26  1  0.57593000  0.84719000  0.77985000  1.0
  H  H27  1  0.84719000  0.42408000  0.52985000  1.0
  H  H28  1  0.68126000  0.55656000  0.03741000  1.0
  H  H29  1  0.31874000  0.44344000  0.53741000  1.0
  H  H30  1  0.31874000  0.55656000  0.96259000  1.0
  H  H31  1  0.44343000  0.31874000  0.21259000  1.0
  H  H32  1  0.44343000  0.68126000  0.28741000  1.0
  H  H33  1  0.55657000  0.31874000  0.78741000  1.0
  H  H34  1  0.55657000  0.68126000  0.71259000  1.0
  H  H35  1  0.68126000  0.44344000  0.46259000  1.0
  H  H36  1  0.05735000  0.62910000  0.38854000  1.0
  H  H37  1  0.94265000  0.37090000  0.88854000  1.0
  H  H38  1  0.94265000  0.62910000  0.61146000  1.0
  H  H39  1  0.37090000  0.94265000  0.86146000  1.0
  H  H40  1  0.37090000  0.05735000  0.63854000  1.0
  H  H41  1  0.62910000  0.94265000  0.13854000  1.0
  H  H42  1  0.62910000  0.05735000  0.36146000  1.0
  H  H43  1  0.05735000  0.37090000  0.11147000  1.0
  H  H44  1  0.98233000  0.80330000  0.41215000  1.0
  H  H45  1  0.01767000  0.19669000  0.91215000  1.0
  H  H46  1  0.01767000  0.80331000  0.58785000  1.0
  H  H47  1  0.19670000  0.01767000  0.83785000  1.0
  H  H48  1  0.19670000  0.98233000  0.66215000  1.0
  H  H49  1  0.80330000  0.01767000  0.16215000  1.0
  H  H50  1  0.80330000  0.98233000  0.33785000  1.0
  H  H51  1  0.98233000  0.19669000  0.08785000  1.0
  H  H52  1  0.86883000  0.64679000  0.41598000  1.0
  H  H53  1  0.13117000  0.35321000  0.91598000  1.0
  H  H54  1  0.13117000  0.64679000  0.58402000  1.0
  H  H55  1  0.35321000  0.13117000  0.83403000  1.0
  H  H56  1  0.35321000  0.86883000  0.66597000  1.0
  H  H57  1  0.64679000  0.13117000  0.16597000  1.0
  H  H58  1  0.64679000  0.86883000  0.33403000  1.0
  H  H59  1  0.86883000  0.35321000  0.08402000  1.0
  C  C60  1  0.74401000  0.50000000  0.25000000  1.0
  C  C61  1  0.25599000  0.50000000  0.75000000  1.0
  C  C62  1  0.50000000  0.25598000  0.00000000  1.0
  C  C63  1  0.50000000  0.74402000  0.50000000  1.0
  C  C64  1  0.83354000  0.62553000  0.21176000  1.0
  C  C65  1  0.16646000  0.37448000  0.71176000  1.0
  C  C66  1  0.16646000  0.62553000  0.78824000  1.0
  C  C67  1  0.37447000  0.16645000  0.03824000  1.0
  C  C68  1  0.37447000  0.83355000  0.46176000  1.0
  C  C69  1  0.62553000  0.16645000  0.96176000  1.0
  C  C70  1  0.62552000  0.83355000  0.53824000  1.0
  C  C71  1  0.83354000  0.37448000  0.28824000  1.0
  C  C72  1  0.84530000  0.67990000  0.11427000  1.0
  C  C73  1  0.15469000  0.32011000  0.61427000  1.0
  C  C74  1  0.15469000  0.67990000  0.88572000  1.0
  C  C75  1  0.32010000  0.15469000  0.13573000  1.0
  C  C76  1  0.32010000  0.84531000  0.36427000  1.0
  C  C77  1  0.67990000  0.15469000  0.86427000  1.0
  C  C78  1  0.67990000  0.84531000  0.63573000  1.0
  C  C79  1  0.84531000  0.32011000  0.38573000  1.0
  C  C80  1  0.77128000  0.63186000  0.02090000  1.0
  C  C81  1  0.22872000  0.36814000  0.52090000  1.0
  C  C82  1  0.22872000  0.63186000  0.97910000  1.0
  C  C83  1  0.36814000  0.22872000  0.22910000  1.0
  C  C84  1  0.36814000  0.77128000  0.27090000  1.0
  C  C85  1  0.63187000  0.22872000  0.77090000  1.0
  C  C86  1  0.63186000  0.77128000  0.72910000  1.0
  C  C87  1  0.77128000  0.36814000  0.47910000  1.0
  C  C88  1  0.92695000  0.71333000  0.26896000  1.0
  C  C89  1  0.07305000  0.28668000  0.76896000  1.0
  C  C90  1  0.07305000  0.71333000  0.73104000  1.0
  C  C91  1  0.28667000  0.07304000  0.98103000  1.0
  C  C92  1  0.28667000  0.92696000  0.51897000  1.0
  C  C93  1  0.71333000  0.07305000  0.01897000  1.0
  C  C94  1  0.71333000  0.92695000  0.48103000  1.0
  C  C95  1  0.92695000  0.28668000  0.23104000  1.0
  C  C96  1  0.96033000  0.69806000  0.37671000  1.0
  C  C97  1  0.03967000  0.30194000  0.87671000  1.0
  C  C98  1  0.03967000  0.69806000  0.62329000  1.0
  C  C99  1  0.30194000  0.03966000  0.87328000  1.0
  C  C100  1  0.30194000  0.96033000  0.62671000  1.0
  C  C101  1  0.69806000  0.03967000  0.12671000  1.0
  C  C102  1  0.69806000  0.96033000  0.37329000  1.0
  C  C103  1  0.96033000  0.30194000  0.12329000  1.0
  N  N104  1  0.93991000  0.79373000  0.11419000  1.0
  N  N105  1  0.06009000  0.20627000  0.61419000  1.0
  N  N106  1  0.06008000  0.79373000  0.88581000  1.0
  N  N107  1  0.20627000  0.06009000  0.13581000  1.0
  N  N108  1  0.20627000  0.93992000  0.36419000  1.0
  N  N109  1  0.79373000  0.06008000  0.86418000  1.0
  N  N110  1  0.79373000  0.93991000  0.63581000  1.0
  N  N111  1  0.93991000  0.20627000  0.38581000  1.0
  N  N112  1  0.98894000  0.81635000  0.20955000  1.0
  N  N113  1  0.01106000  0.18365000  0.70955000  1.0
  N  N114  1  0.01106000  0.81635000  0.79045000  1.0
  N  N115  1  0.18365000  0.01106000  0.04045000  1.0
  N  N116  1  0.18365000  0.98894000  0.45955000  1.0
  N  N117  1  0.81635000  0.01106000  0.95955000  1.0
  N  N118  1  0.81635000  0.98894000  0.54045000  1.0
  N  N119  1  0.98894000  0.18365000  0.29045000  1.0
