# generated using pymatgen
data_CuH8C4S2I
_symmetry_space_group_name_H-M   'P 1'
_cell_length_a   6.57123000
_cell_length_b   7.52234000
_cell_length_c   16.07950000
_cell_angle_alpha   89.99990000
_cell_angle_beta   89.99960000
_cell_angle_gamma   98.14670000
_symmetry_Int_Tables_number   1
_chemical_formula_structural   CuH8C4S2I
_chemical_formula_sum   'Cu4 H32 C16 S8 I4'
_cell_volume   786.80518638
_cell_formula_units_Z   4
loop_
 _symmetry_equiv_pos_site_id
 _symmetry_equiv_pos_as_xyz
  1  'x, y, z'
loop_
 _atom_site_type_symbol
 _atom_site_label
 _atom_site_symmetry_multiplicity
 _atom_site_fract_x
 _atom_site_fract_y
 _atom_site_fract_z
 _atom_site_occupancy
  Cu  Cu0  1  0.69849000  0.03775000  0.98365000  1.0
  Cu  Cu1  1  0.30151000  0.46224000  0.48365000  1.0
  Cu  Cu2  1  0.30151000  0.96224000  0.01635000  1.0
  Cu  Cu3  1  0.69848000  0.53776000  0.51635000  1.0
  H  H4  1  0.64306000  0.60861000  0.90560000  1.0
  H  H5  1  0.35695000  0.89139000  0.40561000  1.0
  H  H6  1  0.35694000  0.39139000  0.09439000  1.0
  H  H7  1  0.64305000  0.10861000  0.59439000  1.0
  H  H8  1  0.58831000  0.74534000  0.81995000  1.0
  H  H9  1  0.41168000  0.75464000  0.31995000  1.0
  H  H10  1  0.41168000  0.25467000  0.18004000  1.0
  H  H11  1  0.58832000  0.24536000  0.68005000  1.0
  H  H12  1  0.71753000  0.47494000  0.76792000  1.0
  H  H13  1  0.28248000  0.02504000  0.26792000  1.0
  H  H14  1  0.28248000  0.52507000  0.23207000  1.0
  H  H15  1  0.71753000  0.97496000  0.73208000  1.0
  H  H16  1  0.88784000  0.66885000  0.74153000  1.0
  H  H17  1  0.11216000  0.83112000  0.24152000  1.0
  H  H18  1  0.11217000  0.33116000  0.25847000  1.0
  H  H19  1  0.88785000  0.16888000  0.75848000  1.0
  H  H20  1  0.08304000  0.43244000  0.78440000  1.0
  H  H21  1  0.91698000  0.06756000  0.28440000  1.0
  H  H22  1  0.91697000  0.56756000  0.21560000  1.0
  H  H23  1  0.08303000  0.93245000  0.71560000  1.0
  H  H24  1  0.94061000  0.39271000  0.87742000  1.0
  H  H25  1  0.05941000  0.10729000  0.37742000  1.0
  H  H26  1  0.05938000  0.60729000  0.12257000  1.0
  H  H27  1  0.94060000  0.89271000  0.62258000  1.0
  H  H28  1  0.24740000  0.73224000  0.83719000  1.0
  H  H29  1  0.75259000  0.76775000  0.33718000  1.0
  H  H30  1  0.75259000  0.26776000  0.16282000  1.0
  H  H31  1  0.24741000  0.23225000  0.66282000  1.0
  H  H32  1  0.28431000  0.55313000  0.90650000  1.0
  H  H33  1  0.71570000  0.94687000  0.40650000  1.0
  H  H34  1  0.71568000  0.44686000  0.09351000  1.0
  H  H35  1  0.28430000  0.05313000  0.59350000  1.0
  C  C36  1  0.71125000  0.68946000  0.85300000  1.0
  C  C37  1  0.28875000  0.81051000  0.35299000  1.0
  C  C38  1  0.28875000  0.31054000  0.14700000  1.0
  C  C39  1  0.71125000  0.18949000  0.64701000  1.0
  C  C40  1  0.82963000  0.58308000  0.79409000  1.0
  C  C41  1  0.17038000  0.91693000  0.29410000  1.0
  C  C42  1  0.17037000  0.41693000  0.20591000  1.0
  C  C43  1  0.82963000  0.08308000  0.70591000  1.0
  C  C44  1  0.00470000  0.49855000  0.83371000  1.0
  C  C45  1  0.99530000  0.00143000  0.33370000  1.0
  C  C46  1  0.99529000  0.50145000  0.16630000  1.0
  C  C47  1  0.00471000  0.99857000  0.66630000  1.0
  C  C48  1  0.16908000  0.62722000  0.87827000  1.0
  C  C49  1  0.83093000  0.87280000  0.37828000  1.0
  C  C50  1  0.83091000  0.37278000  0.12173000  1.0
  C  C51  1  0.16907000  0.12721000  0.62172000  1.0
  S  S52  1  0.87607000  0.88386000  0.89488000  1.0
  S  S53  1  0.12393000  0.61613000  0.39489000  1.0
  S  S54  1  0.12392000  0.11613000  0.10511000  1.0
  S  S55  1  0.87607000  0.38387000  0.60512000  1.0
  S  S56  1  0.06414000  0.74026000  0.96510000  1.0
  S  S57  1  0.93586000  0.75974000  0.46510000  1.0
  S  S58  1  0.93584000  0.25973000  0.03490000  1.0
  S  S59  1  0.06414000  0.24026000  0.53490000  1.0
  I  I60  1  0.56489000  0.82838000  0.11138000  1.0
  I  I61  1  0.43511000  0.67159000  0.61140000  1.0
  I  I62  1  0.43510000  0.17159000  0.88860000  1.0
  I  I63  1  0.56489000  0.32841000  0.38860000  1.0
