# generated using pymatgen
data_CdH10C12(SN2)2
_symmetry_space_group_name_H-M   'P 1'
_cell_length_a   7.62968000
_cell_length_b   8.52186000
_cell_length_c   23.70500000
_cell_angle_alpha   84.82850000
_cell_angle_beta   89.50760000
_cell_angle_gamma   63.46070000
_symmetry_Int_Tables_number   1
_chemical_formula_structural   CdH10C12(SN2)2
_chemical_formula_sum   'Cd4 H40 C48 S8 N16'
_cell_volume   1372.38840438
_cell_formula_units_Z   4
loop_
 _symmetry_equiv_pos_site_id
 _symmetry_equiv_pos_as_xyz
  1  'x, y, z'
loop_
 _atom_site_type_symbol
 _atom_site_label
 _atom_site_symmetry_multiplicity
 _atom_site_fract_x
 _atom_site_fract_y
 _atom_site_fract_z
 _atom_site_occupancy
  Cd  Cd0  1  0.55893000  0.97054000  0.37469000  1.0
  Cd  Cd1  1  0.44107000  0.02946000  0.62531000  1.0
  Cd  Cd2  1  0.45047000  0.99172000  0.12448000  1.0
  Cd  Cd3  1  0.54953000  0.00828000  0.87552000  1.0
  H  H4  1  0.31189000  0.27231000  0.45633000  1.0
  H  H5  1  0.68811000  0.72769000  0.54367000  1.0
  H  H6  1  0.18255000  0.79007000  0.37693000  1.0
  H  H7  1  0.81745000  0.20993000  0.62307000  1.0
  H  H8  1  0.36068000  0.64568000  0.29233000  1.0
  H  H9  1  0.63931000  0.35432000  0.70767000  1.0
  H  H10  1  0.51480000  0.31575000  0.29606000  1.0
  H  H11  1  0.48519000  0.68426000  0.70394000  1.0
  H  H12  1  0.85439000  0.67067000  0.29530000  1.0
  H  H13  1  0.14561000  0.32933000  0.70470000  1.0
  H  H14  1  0.03701000  0.34170000  0.29432000  1.0
  H  H15  1  0.96298000  0.65831000  0.70568000  1.0
  H  H16  1  0.00813000  0.15038000  0.37670000  1.0
  H  H17  1  0.99186000  0.84962000  0.62330000  1.0
  H  H18  1  0.79083000  0.29322000  0.45537000  1.0
  H  H19  1  0.20917000  0.70678000  0.54463000  1.0
  H  H20  1  0.61497000  0.62564000  0.44927000  1.0
  H  H21  1  0.38502000  0.37436000  0.55073000  1.0
  H  H22  1  0.31251000  0.28437000  0.21467000  1.0
  H  H23  1  0.68749000  0.71562000  0.78533000  1.0
  H  H24  1  0.97984000  0.80630000  0.12994000  1.0
  H  H25  1  0.02017000  0.19369000  0.87006000  1.0
  H  H26  1  0.03552000  0.66870000  0.03812000  1.0
  H  H27  1  0.96449000  0.33129000  0.96188000  1.0
  H  H28  1  0.22441000  0.33921000  0.04067000  1.0
  H  H29  1  0.77561000  0.66079000  0.95933000  1.0
  H  H30  1  0.54101000  0.69340000  0.03701000  1.0
  H  H31  1  0.45899000  0.30660000  0.96299000  1.0
  H  H32  1  0.67556000  0.36518000  0.03586000  1.0
  H  H33  1  0.32444000  0.63482000  0.96414000  1.0
  H  H34  1  0.79636000  0.17425000  0.12742000  1.0
  H  H35  1  0.20363000  0.82575000  0.87258000  1.0
  H  H36  1  0.78529000  0.31651000  0.21637000  1.0
  H  H37  1  0.21471000  0.68349000  0.78363000  1.0
  H  H38  1  0.64490000  0.64721000  0.21010000  1.0
  H  H39  1  0.35510000  0.35279000  0.78990000  1.0
  H  H40  1  0.12466000  0.61154000  0.21982000  1.0
  H  H41  1  0.87534000  0.38846000  0.78018000  1.0
  H  H42  1  0.15225000  0.59945000  0.45987000  1.0
  H  H43  1  0.84775000  0.40056000  0.54013000  1.0
  C  C44  1  0.71587000  0.00940000  0.51089000  1.0
  C  C45  1  0.28413000  0.99060000  0.48911000  1.0
  C  C46  1  0.27846000  0.98282000  0.26077000  1.0
  C  C47  1  0.72154000  0.01719000  0.73922000  1.0
  C  C48  1  0.72960000  0.98031000  0.24015000  1.0
  C  C49  1  0.27039000  0.01969000  0.75985000  1.0
  C  C50  1  0.27635000  0.99687000  0.99019000  1.0
  C  C51  1  0.72365000  0.00312000  0.00981000  1.0
  C  C52  1  0.32057000  0.35965000  0.42106000  1.0
  C  C53  1  0.67943000  0.64035000  0.57894000  1.0
  C  C54  1  0.24674000  0.64759000  0.37652000  1.0
  C  C55  1  0.75326000  0.35241000  0.62348000  1.0
  C  C56  1  0.34687000  0.56762000  0.32955000  1.0
  C  C57  1  0.65312000  0.43238000  0.67044000  1.0
  C  C58  1  0.43089000  0.38486000  0.33113000  1.0
  C  C59  1  0.56910000  0.61514000  0.66887000  1.0
  C  C60  1  0.84272000  0.58197000  0.32960000  1.0
  C  C61  1  0.15728000  0.41804000  0.67040000  1.0
  C  C62  1  0.94415000  0.39977000  0.32932000  1.0
  C  C63  1  0.05584000  0.60024000  0.67068000  1.0
  C  C64  1  0.92783000  0.29322000  0.37521000  1.0
  C  C65  1  0.07216000  0.70678000  0.62479000  1.0
  C  C66  1  0.80860000  0.37297000  0.41934000  1.0
  C  C67  1  0.19140000  0.62704000  0.58066000  1.0
  C  C68  1  0.71168000  0.55617000  0.41627000  1.0
  C  C69  1  0.28832000  0.44383000  0.58373000  1.0
  C  C70  1  0.24810000  0.37487000  0.17666000  1.0
  C  C71  1  0.75190000  0.62513000  0.82334000  1.0
  C  C72  1  0.06434000  0.66443000  0.12921000  1.0
  C  C73  1  0.93567000  0.33556000  0.87079000  1.0
  C  C74  1  0.09357000  0.58802000  0.07819000  1.0
  C  C75  1  0.90644000  0.41198000  0.92181000  1.0
  C  C76  1  0.19972000  0.40584000  0.07927000  1.0
  C  C77  1  0.80029000  0.59416000  0.92073000  1.0
  C  C78  1  0.59720000  0.60460000  0.07574000  1.0
  C  C79  1  0.40280000  0.39540000  0.92426000  1.0
  C  C80  1  0.67108000  0.42293000  0.07533000  1.0
  C  C81  1  0.32891000  0.57707000  0.92468000  1.0
  C  C82  1  0.73955000  0.31659000  0.12630000  1.0
  C  C83  1  0.26045000  0.68341000  0.87370000  1.0
  C  C84  1  0.73188000  0.39578000  0.17585000  1.0
  C  C85  1  0.26812000  0.60421000  0.82415000  1.0
  C  C86  1  0.65511000  0.57851000  0.17260000  1.0
  C  C87  1  0.34488000  0.42149000  0.82740000  1.0
  C  C88  1  0.14321000  0.55590000  0.17933000  1.0
  C  C89  1  0.85679000  0.44410000  0.82067000  1.0
  C  C90  1  0.23285000  0.54154000  0.42294000  1.0
  C  C91  1  0.76715000  0.45846000  0.57706000  1.0
  S  S92  1  0.84545000  0.93106000  0.45626000  1.0
  S  S93  1  0.15455000  0.06894000  0.54374000  1.0
  S  S94  1  0.19695000  0.95021000  0.20195000  1.0
  S  S95  1  0.80305000  0.04978000  0.79805000  1.0
  S  S96  1  0.82100000  0.00276000  0.29906000  1.0
  S  S97  1  0.17901000  0.99724000  0.70094000  1.0
  S  S98  1  0.15816000  0.02676000  0.04889000  1.0
  S  S99  1  0.84185000  0.97323000  0.95111000  1.0
  N  N100  1  0.62377000  0.06563000  0.55122000  1.0
  N  N101  1  0.37623000  0.93437000  0.44878000  1.0
  N  N102  1  0.33481000  0.00599000  0.30420000  1.0
  N  N103  1  0.66519000  0.99400000  0.69580000  1.0
  N  N104  1  0.66655000  0.96263000  0.19703000  1.0
  N  N105  1  0.33346000  0.03737000  0.80297000  1.0
  N  N106  1  0.41888000  0.28208000  0.37604000  1.0
  N  N107  1  0.58112000  0.71792000  0.62396000  1.0
  N  N108  1  0.72866000  0.65925000  0.37232000  1.0
  N  N109  1  0.27134000  0.34075000  0.62768000  1.0
  N  N110  1  0.27572000  0.30101000  0.12751000  1.0
  N  N111  1  0.72428000  0.69899000  0.87249000  1.0
  N  N112  1  0.58911000  0.68118000  0.12350000  1.0
  N  N113  1  0.41089000  0.31882000  0.87650000  1.0
  N  N114  1  0.36024000  0.97425000  0.94713000  1.0
  N  N115  1  0.63977000  0.02574000  0.05287000  1.0
