# generated using pymatgen
data_ZnP2H12C13O4
_symmetry_space_group_name_H-M   'P 1'
_cell_length_a   9.49699000
_cell_length_b   11.61920000
_cell_length_c   12.51600000
_cell_angle_alpha   95.12590000
_cell_angle_beta   90.00000000
_cell_angle_gamma   90.00000000
_symmetry_Int_Tables_number   1
_chemical_formula_structural   ZnP2H12C13O4
_chemical_formula_sum   'Zn4 P8 H48 C52 O16'
_cell_volume   1375.58502992
_cell_formula_units_Z   4
loop_
 _symmetry_equiv_pos_site_id
 _symmetry_equiv_pos_as_xyz
  1  'x, y, z'
loop_
 _atom_site_type_symbol
 _atom_site_label
 _atom_site_symmetry_multiplicity
 _atom_site_fract_x
 _atom_site_fract_y
 _atom_site_fract_z
 _atom_site_occupancy
  Zn  Zn0  1  0.50999000  0.92299000  0.65496000  1.0
  Zn  Zn1  1  0.99001000  0.92299000  0.15496000  1.0
  Zn  Zn2  1  0.49002000  0.07701000  0.34504000  1.0
  Zn  Zn3  1  0.00999000  0.07701000  0.84504000  1.0
  P  P4  1  0.52933000  0.17301000  0.57240000  1.0
  P  P5  1  0.97067000  0.17301000  0.07239000  1.0
  P  P6  1  0.47067000  0.82699000  0.42760000  1.0
  P  P7  1  0.02934000  0.82700000  0.92761000  1.0
  P  P8  1  0.29446000  0.10959000  0.73152000  1.0
  P  P9  1  0.20554000  0.10959000  0.23152000  1.0
  P  P10  1  0.70554000  0.89040000  0.26848000  1.0
  P  P11  1  0.79446000  0.89041000  0.76848000  1.0
  H  H12  1  0.30058000  0.25879000  0.60809000  1.0
  H  H13  1  0.19942000  0.25879000  0.10809000  1.0
  H  H14  1  0.69942000  0.74121000  0.39191000  1.0
  H  H15  1  0.80058000  0.74121000  0.89191000  1.0
  H  H16  1  0.28920000  0.11676000  0.54475000  1.0
  H  H17  1  0.21080000  0.11675000  0.04475000  1.0
  H  H18  1  0.71080000  0.88325000  0.45525000  1.0
  H  H19  1  0.78921000  0.88325000  0.95526000  1.0
  H  H20  1  0.73013000  0.18529000  0.74984000  1.0
  H  H21  1  0.76987000  0.18529000  0.24984000  1.0
  H  H22  1  0.26987000  0.81471000  0.25016000  1.0
  H  H23  1  0.23013000  0.81471000  0.75016000  1.0
  H  H24  1  0.82167000  0.35129000  0.86828000  1.0
  H  H25  1  0.67833000  0.35129000  0.36828000  1.0
  H  H26  1  0.17834000  0.64871000  0.13171000  1.0
  H  H27  1  0.32167000  0.64871000  0.63172000  1.0
  H  H28  1  0.74398000  0.55191000  0.84009000  1.0
  H  H29  1  0.75602000  0.55191000  0.34009000  1.0
  H  H30  1  0.25603000  0.44809000  0.15991000  1.0
  H  H31  1  0.24398000  0.44809000  0.65991000  1.0
  H  H32  1  0.57511000  0.58548000  0.69385000  1.0
  H  H33  1  0.92489000  0.58547000  0.19385000  1.0
  H  H34  1  0.42489000  0.41452000  0.30615000  1.0
  H  H35  1  0.07511000  0.41453000  0.80615000  1.0
  H  H36  1  0.49041000  0.41943000  0.57166000  1.0
  H  H37  1  0.00959000  0.41942000  0.07166000  1.0
  H  H38  1  0.50959000  0.58057000  0.42834000  1.0
  H  H39  1  0.99042000  0.58058000  0.92834000  1.0
  H  H40  1  0.27925000  0.34356000  0.83340000  1.0
  H  H41  1  0.22075000  0.34356000  0.33340000  1.0
  H  H42  1  0.72075000  0.65644000  0.16659000  1.0
  H  H43  1  0.77924000  0.65644000  0.66666667  1.0
  H  H44  1  0.39760000  0.44312000  0.99121000  1.0
  H  H45  1  0.10240000  0.44312000  0.49121000  1.0
  H  H46  1  0.60241000  0.55688000  0.00879000  1.0
  H  H47  1  0.89759000  0.55688000  0.50879000  1.0
  H  H48  1  0.57162000  0.33682000  0.09536000  1.0
  H  H49  1  0.92837000  0.33682000  0.59536000  1.0
  H  H50  1  0.42837000  0.66318000  0.90464000  1.0
  H  H51  1  0.07162000  0.66319000  0.40464000  1.0
  H  H52  1  0.62704000  0.13136000  0.03872000  1.0
  H  H53  1  0.87295000  0.13136000  0.53872000  1.0
  H  H54  1  0.37295000  0.86863000  0.96128000  1.0
  H  H55  1  0.12704000  0.86865000  0.46128000  1.0
  H  H56  1  0.50872000  0.03125000  0.87927000  1.0
  H  H57  1  0.99128000  0.03125000  0.37926000  1.0
  H  H58  1  0.49127000  0.96874000  0.12074000  1.0
  H  H59  1  0.00871000  0.96875000  0.62074000  1.0
  C  C60  1  0.34384000  0.17118000  0.60869000  1.0
  C  C61  1  0.15616000  0.17118000  0.10869000  1.0
  C  C62  1  0.65616000  0.82882000  0.39131000  1.0
  C  C63  1  0.84384000  0.82883000  0.89132000  1.0
  C  C64  1  0.60539000  0.29232000  0.65358000  1.0
  C  C65  1  0.89461000  0.29231000  0.15358000  1.0
  C  C66  1  0.39461000  0.70768000  0.34642000  1.0
  C  C67  1  0.10540000  0.70769000  0.84641000  1.0
  C  C68  1  0.69860000  0.27326000  0.73696000  1.0
  C  C69  1  0.80140000  0.27326000  0.23696000  1.0
  C  C70  1  0.30140000  0.72674000  0.26304000  1.0
  C  C71  1  0.19860000  0.72675000  0.76303000  1.0
  C  C72  1  0.74942000  0.36711000  0.80341000  1.0
  C  C73  1  0.75058000  0.36711000  0.30341000  1.0
  C  C74  1  0.25059000  0.63288000  0.19659000  1.0
  C  C75  1  0.24942000  0.63289000  0.69659000  1.0
  C  C76  1  0.70525000  0.47894000  0.78753000  1.0
  C  C77  1  0.79475000  0.47894000  0.28754000  1.0
  C  C78  1  0.29476000  0.52106000  0.21246000  1.0
  C  C79  1  0.20525000  0.52106000  0.71246000  1.0
  C  C80  1  0.61115000  0.49820000  0.70500000  1.0
  C  C81  1  0.88886000  0.49819000  0.20500000  1.0
  C  C82  1  0.38886000  0.50180000  0.29500000  1.0
  C  C83  1  0.11115000  0.50181000  0.79500000  1.0
  C  C84  1  0.56249000  0.40506000  0.63716000  1.0
  C  C85  1  0.93752000  0.40506000  0.13717000  1.0
  C  C86  1  0.43752000  0.59494000  0.36284000  1.0
  C  C87  1  0.06249000  0.59494000  0.86284000  1.0
  C  C88  1  0.38599000  0.18082000  0.84550000  1.0
  C  C89  1  0.11401000  0.18082000  0.34550000  1.0
  C  C90  1  0.61400000  0.81917000  0.15450000  1.0
  C  C91  1  0.88599000  0.81918000  0.65450000  1.0
  C  C92  1  0.35561000  0.29687000  0.87780000  1.0
  C  C93  1  0.14439000  0.29687000  0.37779000  1.0
  C  C94  1  0.64439000  0.70312000  0.12220000  1.0
  C  C95  1  0.85561000  0.70313000  0.62220000  1.0
  C  C96  1  0.42218000  0.35283000  0.96708000  1.0
  C  C97  1  0.07782000  0.35283000  0.46708000  1.0
  C  C98  1  0.57782000  0.64717000  0.03292000  1.0
  C  C99  1  0.92217000  0.64717000  0.53292000  1.0
  C  C100  1  0.51963000  0.29329000  0.02526000  1.0
  C  C101  1  0.98037000  0.29329000  0.52526000  1.0
  C  C102  1  0.48036000  0.70671000  0.97474000  1.0
  C  C103  1  0.01962000  0.70672000  0.47474000  1.0
  C  C104  1  0.55060000  0.17770000  0.99362000  1.0
  C  C105  1  0.94939000  0.17770000  0.49362000  1.0
  C  C106  1  0.44939000  0.82229000  0.00638000  1.0
  C  C107  1  0.05060000  0.82230000  0.50638000  1.0
  C  C108  1  0.48428000  0.12140000  0.90396000  1.0
  C  C109  1  0.01572000  0.12140000  0.40396000  1.0
  C  C110  1  0.51571000  0.87860000  0.09604000  1.0
  C  C111  1  0.98428000  0.87861000  0.59604000  1.0
  O  O112  1  0.59897000  0.05952000  0.59660000  1.0
  O  O113  1  0.90103000  0.05952000  0.09660000  1.0
  O  O114  1  0.40103000  0.94048000  0.40340000  1.0
  O  O115  1  0.09897000  0.94048000  0.90340000  1.0
  O  O116  1  0.53632000  0.20130000  0.45503000  1.0
  O  O117  1  0.96368000  0.20130000  0.95502000  1.0
  O  O118  1  0.46368000  0.79870000  0.54498000  1.0
  O  O119  1  0.03633000  0.79870000  0.04498000  1.0
  O  O120  1  0.33506000  0.98172000  0.72112000  1.0
  O  O121  1  0.16494000  0.98172000  0.22112000  1.0
  O  O122  1  0.66494000  0.01827000  0.27888000  1.0
  O  O123  1  0.83506000  0.01828000  0.77889000  1.0
  O  O124  1  0.13666000  0.13504000  0.74183000  1.0
  O  O125  1  0.36334000  0.13504000  0.24183000  1.0
  O  O126  1  0.86334000  0.86496000  0.25817000  1.0
  O  O127  1  0.63666000  0.86497000  0.75818000  1.0
