# generated using pymatgen
data_CdH2C4(S3N2)2
_symmetry_space_group_name_H-M   'P 1'
_cell_length_a   8.00492000
_cell_length_b   10.72620000
_cell_length_c   13.20320000
_cell_angle_alpha   90.00060000
_cell_angle_beta   89.99960000
_cell_angle_gamma   89.99950000
_symmetry_Int_Tables_number   1
_chemical_formula_structural   CdH2C4(S3N2)2
_chemical_formula_sum   'Cd4 H8 C16 S24 N16'
_cell_volume   1133.65808179
_cell_formula_units_Z   4
loop_
 _symmetry_equiv_pos_site_id
 _symmetry_equiv_pos_as_xyz
  1  'x, y, z'
loop_
 _atom_site_type_symbol
 _atom_site_label
 _atom_site_symmetry_multiplicity
 _atom_site_fract_x
 _atom_site_fract_y
 _atom_site_fract_z
 _atom_site_occupancy
  Cd  Cd0  1  0.24998000  0.64344000  0.50000000  1.0
  Cd  Cd1  1  0.74999000  0.85656000  0.99999000  1.0
  Cd  Cd2  1  0.75002000  0.35656000  0.50001000  1.0
  Cd  Cd3  1  0.25000000  0.14342000  0.00000000  1.0
  H  H4  1  0.47334000  0.84309000  0.82117000  1.0
  H  H5  1  0.97334000  0.65692000  0.67882000  1.0
  H  H6  1  0.02663000  0.84311000  0.17882000  1.0
  H  H7  1  0.52663000  0.65689000  0.32118000  1.0
  H  H8  1  0.52666000  0.15689000  0.17883000  1.0
  H  H9  1  0.02666000  0.34309000  0.32117000  1.0
  H  H10  1  0.97336000  0.15691000  0.82117000  1.0
  H  H11  1  0.47334000  0.34310000  0.67884000  1.0
  C  C12  1  0.29144000  0.60089000  0.74442000  1.0
  C  C13  1  0.79142000  0.89915000  0.75556000  1.0
  C  C14  1  0.20854000  0.60089000  0.25557000  1.0
  C  C15  1  0.70854000  0.89913000  0.24444000  1.0
  C  C16  1  0.70855000  0.39913000  0.25557000  1.0
  C  C17  1  0.20857000  0.10086000  0.24443000  1.0
  C  C18  1  0.79145000  0.39912000  0.74445000  1.0
  C  C19  1  0.29146000  0.10088000  0.75558000  1.0
  C  C20  1  0.42513000  0.67927000  0.90036000  1.0
  C  C21  1  0.92512000  0.82074000  0.59963000  1.0
  C  C22  1  0.07486000  0.67929000  0.09962000  1.0
  C  C23  1  0.57486000  0.82071000  0.40038000  1.0
  C  C24  1  0.57488000  0.32071000  0.09962000  1.0
  C  C25  1  0.07490000  0.17928000  0.40036000  1.0
  C  C26  1  0.92514000  0.32072000  0.90038000  1.0
  C  C27  1  0.42514000  0.17928000  0.59964000  1.0
  S  S28  1  0.18764000  0.51174000  0.65621000  1.0
  S  S29  1  0.68764000  0.98827000  0.84379000  1.0
  S  S30  1  0.31232000  0.51174000  0.34378000  1.0
  S  S31  1  0.81232000  0.98826000  0.15621000  1.0
  S  S32  1  0.81234000  0.48827000  0.34380000  1.0
  S  S33  1  0.31235000  0.01173000  0.15620000  1.0
  S  S34  1  0.68766000  0.48826000  0.65622000  1.0
  S  S35  1  0.18767000  0.01173000  0.84378000  1.0
  S  S36  1  0.33027000  0.54032000  0.86550000  1.0
  S  S37  1  0.83026000  0.95969000  0.63448000  1.0
  S  S38  1  0.16973000  0.54033000  0.13448000  1.0
  S  S39  1  0.66972000  0.95966000  0.36551000  1.0
  S  S40  1  0.66971000  0.45967000  0.13450000  1.0
  S  S41  1  0.16976000  0.04033000  0.36552000  1.0
  S  S42  1  0.83028000  0.45968000  0.86552000  1.0
  S  S43  1  0.33029000  0.04032000  0.63448000  1.0
  S  S44  1  0.49629000  0.71061000  0.01829000  1.0
  S  S45  1  0.99628000  0.78941000  0.48170000  1.0
  S  S46  1  0.00372000  0.71063000  0.98170000  1.0
  S  S47  1  0.50373000  0.78937000  0.51830000  1.0
  S  S48  1  0.50374000  0.28937000  0.98171000  1.0
  S  S49  1  0.00377000  0.21062000  0.51830000  1.0
  S  S50  1  0.99631000  0.28937000  0.01830000  1.0
  S  S51  1  0.49631000  0.21062000  0.48171000  1.0
  N  N52  1  0.42266000  0.75452000  0.81923000  1.0
  N  N53  1  0.92264000  0.74548000  0.68076000  1.0
  N  N54  1  0.07733000  0.75452000  0.18075000  1.0
  N  N55  1  0.57734000  0.74548000  0.31924000  1.0
  N  N56  1  0.57735000  0.24547000  0.18077000  1.0
  N  N57  1  0.07735000  0.25452000  0.31923000  1.0
  N  N58  1  0.92266000  0.24548000  0.81924000  1.0
  N  N59  1  0.42266000  0.25453000  0.68077000  1.0
  N  N60  1  0.34992000  0.71470000  0.73203000  1.0
  N  N61  1  0.84991000  0.78532000  0.76796000  1.0
  N  N62  1  0.15007000  0.71470000  0.26796000  1.0
  N  N63  1  0.65005000  0.78530000  0.23204000  1.0
  N  N64  1  0.65005000  0.28530000  0.26797000  1.0
  N  N65  1  0.15008000  0.21468000  0.23203000  1.0
  N  N66  1  0.84995000  0.28529000  0.73204000  1.0
  N  N67  1  0.34992000  0.21470000  0.76797000  1.0
