# generated using pymatgen
data_Al2H7C20S2Cl(O5F)2
_symmetry_space_group_name_H-M   'P 1'
_cell_length_a   6.63159000
_cell_length_b   11.04777413
_cell_length_c   12.68760000
_cell_angle_alpha   91.85099836
_cell_angle_beta   104.11240000
_cell_angle_gamma   106.45945501
_symmetry_Int_Tables_number   1
_chemical_formula_structural   Al2H7C20S2Cl(O5F)2
_chemical_formula_sum   'Al2 H7 C20 S2 Cl1 O10 F2'
_cell_volume   859.39912258
_cell_formula_units_Z   1
loop_
 _symmetry_equiv_pos_site_id
 _symmetry_equiv_pos_as_xyz
  1  'x, y, z'
loop_
 _atom_site_type_symbol
 _atom_site_label
 _atom_site_symmetry_multiplicity
 _atom_site_fract_x
 _atom_site_fract_y
 _atom_site_fract_z
 _atom_site_occupancy
  Al  Al0  1  0.00761000  0.50106000  0.49971000  1.0
  Al  Al1  1  0.51097000  0.50487000  0.50379000  1.0
  H  H2  1  0.34975000  0.58189000  0.63272000  1.0
  H  H3  1  0.64651000  0.34770000  0.44096000  1.0
  H  H4  1  0.76437000  0.41998000  0.14775000  1.0
  H  H5  1  0.49487000  0.75509000  0.37193000  1.0
  H  H6  1  0.75083000  0.22216000  0.35277000  1.0
  H  H7  1  0.38224000  0.12232000  0.56095000  1.0
  H  H8  1  0.26320000  0.88512000  0.55460000  1.0
  C  C9  1  0.86909000  0.72626000  0.48727000  1.0
  C  C10  1  0.85186000  0.51117000  0.69912000  1.0
  C  C11  1  0.14003000  0.27292000  0.49410000  1.0
  C  C12  1  0.17509000  0.50041000  0.30670000  1.0
  C  C13  1  0.12716000  0.55709000  0.88967000  1.0
  C  C14  1  0.90782000  0.46052000  0.11859000  1.0
  C  C15  1  0.91946000  0.51174000  0.81814000  1.0
  C  C16  1  0.11590000  0.50337000  0.18789000  1.0
  C  C17  1  0.91235000  0.47805000  0.00943000  1.0
  C  C18  1  0.12389000  0.53659000  0.99878000  1.0
  C  C19  1  0.92959000  0.86527000  0.47659000  1.0
  C  C20  1  0.77350000  0.92631000  0.42500000  1.0
  C  C21  1  0.14642000  0.93489000  0.51979000  1.0
  C  C22  1  0.55443000  0.85719000  0.37028000  1.0
  C  C23  1  0.41616000  0.91871000  0.31397000  1.0
  C  C24  1  0.06551000  0.13131000  0.47835000  1.0
  C  C25  1  0.21360000  0.06762000  0.52213000  1.0
  C  C26  1  0.84501000  0.06188000  0.42320000  1.0
  C  C27  1  0.69752000  0.12135000  0.36187000  1.0
  C  C28  1  0.48861000  0.05101000  0.30872000  1.0
  S  S29  1  0.72048000  0.44710000  0.88517000  1.0
  S  S30  1  0.31797000  0.56618000  0.12210000  1.0
  Cl  Cl31  1  0.36202000  0.63585000  0.85686000  1.0
  O  O32  1  0.00330000  0.66896000  0.47299000  1.0
  O  O33  1  0.64812000  0.49073000  0.65511000  1.0
  O  O34  1  0.33124000  0.32858000  0.48551000  1.0
  O  O35  1  0.01920000  0.47089000  0.35231000  1.0
  O  O36  1  0.00770000  0.32770000  0.51650000  1.0
  O  O37  1  0.37743000  0.52689000  0.35538000  1.0
  O  O38  1  0.69289000  0.67564000  0.51378000  1.0
  O  O39  1  0.00102000  0.53050000  0.64915000  1.0
  O  O40  1  0.30996000  0.56090000  0.55394000  1.0
  O  O41  1  0.70480000  0.43955000  0.45439000  1.0
  F  F42  1  0.20774000  0.85348000  0.26041000  1.0
  F  F43  1  0.34825000  0.10711000  0.24878000  1.0
