# generated using pymatgen
data_CdH9C13Br2N
_symmetry_space_group_name_H-M   'P 1'
_cell_length_a   7.27068000
_cell_length_b   10.11826874
_cell_length_c   10.11820000
_cell_angle_alpha   61.69865172
_cell_angle_beta   74.52300000
_cell_angle_gamma   74.52321420
_symmetry_Int_Tables_number   1
_chemical_formula_structural   CdH9C13Br2N
_chemical_formula_sum   'Cd2 H18 C26 Br4 N2'
_cell_volume   622.92275072
_cell_formula_units_Z   2
loop_
 _symmetry_equiv_pos_site_id
 _symmetry_equiv_pos_as_xyz
  1  'x, y, z'
loop_
 _atom_site_type_symbol
 _atom_site_label
 _atom_site_symmetry_multiplicity
 _atom_site_fract_x
 _atom_site_fract_y
 _atom_site_fract_z
 _atom_site_occupancy
  Cd  Cd0  1  0.75000000  0.92554000  0.07446000  1.0
  Cd  Cd1  1  0.25000000  0.07446000  0.92554000  1.0
  H  H2  1  0.74999000  0.32726000  0.67275000  1.0
  H  H3  1  0.25000000  0.67275000  0.32725000  1.0
  H  H4  1  0.98605000  0.19252000  0.53225000  1.0
  H  H5  1  0.51394000  0.46776000  0.80748000  1.0
  H  H6  1  0.01395000  0.80748000  0.46776000  1.0
  H  H7  1  0.48605000  0.53224000  0.19252000  1.0
  H  H8  1  0.19594000  0.20046000  0.28918000  1.0
  H  H9  1  0.30406000  0.71082000  0.79955000  1.0
  H  H10  1  0.80406000  0.79954000  0.71082000  1.0
  H  H11  1  0.69594000  0.28918000  0.20045000  1.0
  H  H12  1  0.99152000  0.68051000  0.05702000  1.0
  H  H13  1  0.50847000  0.94298000  0.31949000  1.0
  H  H14  1  0.00848000  0.31948000  0.94299000  1.0
  H  H15  1  0.49153000  0.05702000  0.68051000  1.0
  H  H16  1  0.19791000  0.44460000  0.05620000  1.0
  H  H17  1  0.30209000  0.94380000  0.55541000  1.0
  H  H18  1  0.80209000  0.55539000  0.94382000  1.0
  H  H19  1  0.69791000  0.05620000  0.44460000  1.0
  C  C20  1  0.74999000  0.43253000  0.56747000  1.0
  C  C21  1  0.25000000  0.56747000  0.43253000  1.0
  C  C22  1  0.86545000  0.57374000  0.29669000  1.0
  C  C23  1  0.63454000  0.70331000  0.42627000  1.0
  C  C24  1  0.13456000  0.42627000  0.70330000  1.0
  C  C25  1  0.36546000  0.29670000  0.57372000  1.0
  C  C26  1  0.98805000  0.29801000  0.42763000  1.0
  C  C27  1  0.51194000  0.57237000  0.70200000  1.0
  C  C28  1  0.01196000  0.70199000  0.57237000  1.0
  C  C29  1  0.48806000  0.42762000  0.29801000  1.0
  C  C30  1  0.86713000  0.43218000  0.43333000  1.0
  C  C31  1  0.63286000  0.56667000  0.56783000  1.0
  C  C32  1  0.13287000  0.56783000  0.56666000  1.0
  C  C33  1  0.36714000  0.43334000  0.43216000  1.0
  C  C34  1  0.10324000  0.30262000  0.29430000  1.0
  C  C35  1  0.39675000  0.70571000  0.69738000  1.0
  C  C36  1  0.89676000  0.69738000  0.70570000  1.0
  C  C37  1  0.60324000  0.29430000  0.30261000  1.0
  C  C38  1  0.98841000  0.57426000  0.16124000  1.0
  C  C39  1  0.51158000  0.83876000  0.42575000  1.0
  C  C40  1  0.01159000  0.42574000  0.83876000  1.0
  C  C41  1  0.48842000  0.16124000  0.57425000  1.0
  C  C42  1  0.10376000  0.44233000  0.16078000  1.0
  C  C43  1  0.39623000  0.83923000  0.55768000  1.0
  C  C44  1  0.89624000  0.55767000  0.83923000  1.0
  C  C45  1  0.60377000  0.16078000  0.44231000  1.0
  Br  Br46  1  0.49088000  0.18006000  0.02252000  1.0
  Br  Br47  1  0.00912000  0.97748000  0.81993000  1.0
  Br  Br48  1  0.50912000  0.81994000  0.97747000  1.0
  Br  Br49  1  0.99089000  0.02251000  0.18007000  1.0
  N  N50  1  0.74999000  0.70388000  0.29613000  1.0
  N  N51  1  0.25001000  0.29612000  0.70387000  1.0
