# generated using pymatgen
data_MnH16C8(N6O)2
_symmetry_space_group_name_H-M   'P 1'
_cell_length_a   5.41256000
_cell_length_b   11.76360000
_cell_length_c   11.78190000
_cell_angle_alpha   89.65620000
_cell_angle_beta   78.04100000
_cell_angle_gamma   89.77910000
_symmetry_Int_Tables_number   1
_chemical_formula_structural   MnH16C8(N6O)2
_chemical_formula_sum   'Mn2 H32 C16 N24 O4'
_cell_volume   733.87023417
_cell_formula_units_Z   2
loop_
 _symmetry_equiv_pos_site_id
 _symmetry_equiv_pos_as_xyz
  1  'x, y, z'
loop_
 _atom_site_type_symbol
 _atom_site_label
 _atom_site_symmetry_multiplicity
 _atom_site_fract_x
 _atom_site_fract_y
 _atom_site_fract_z
 _atom_site_occupancy
  Mn  Mn0  1  0.00000000  0.50000000  0.50000000  1.0
  Mn  Mn1  1  0.00000000  0.00000000  0.00000000  1.0
  H  H2  1  0.28147000  0.71121000  0.33900000  1.0
  H  H3  1  0.72784000  0.22464000  0.16995000  1.0
  H  H4  1  0.71853000  0.28878000  0.66099000  1.0
  H  H5  1  0.27217000  0.77535000  0.83005000  1.0
  H  H6  1  0.66721000  0.51101000  0.29250000  1.0
  H  H7  1  0.35716000  0.03112000  0.21258000  1.0
  H  H8  1  0.33277000  0.48900000  0.70751000  1.0
  H  H9  1  0.64284000  0.96888000  0.78742000  1.0
  H  H10  1  0.78843000  0.71782000  0.04729000  1.0
  H  H11  1  0.19891000  0.22139000  0.47083000  1.0
  H  H12  1  0.21155000  0.28219000  0.95271000  1.0
  H  H13  1  0.80109000  0.77862000  0.52917000  1.0
  H  H14  1  0.62114000  0.59060000  0.09524000  1.0
  H  H15  1  0.37805000  0.09837000  0.41978000  1.0
  H  H16  1  0.37885000  0.40940000  0.90476000  1.0
  H  H17  1  0.62196000  0.90163000  0.58023000  1.0
  H  H18  1  0.17946000  0.60198000  0.96892000  1.0
  H  H19  1  0.81000000  0.09864000  0.53134000  1.0
  H  H20  1  0.82051000  0.39801000  0.03107000  1.0
  H  H21  1  0.19001000  0.90137000  0.46867000  1.0
  H  H22  1  0.92105000  0.57232000  0.90342000  1.0
  H  H23  1  0.05587000  0.06682000  0.60429000  1.0
  H  H24  1  0.07891000  0.42768000  0.09658000  1.0
  H  H25  1  0.94413000  0.93318000  0.39571000  1.0
  H  H26  1  0.42674000  0.60032000  0.54554000  1.0
  H  H27  1  0.56636000  0.11125000  0.94731000  1.0
  H  H28  1  0.57326000  0.39968000  0.45446000  1.0
  H  H29  1  0.43365000  0.88875000  0.05269000  1.0
  H  H30  1  0.19205000  0.68323000  0.58640000  1.0
  H  H31  1  0.80003000  0.19208000  0.90723000  1.0
  H  H32  1  0.80796000  0.31677000  0.41360000  1.0
  H  H33  1  0.19997000  0.80791000  0.09277000  1.0
  C  C34  1  0.13484000  0.67279000  0.30172000  1.0
  C  C35  1  0.87621000  0.18646000  0.20726000  1.0
  C  C36  1  0.86517000  0.32721000  0.69828000  1.0
  C  C37  1  0.12380000  0.81354000  0.79274000  1.0
  C  C38  1  0.82205000  0.57031000  0.28116000  1.0
  C  C39  1  0.19500000  0.08737000  0.22675000  1.0
  C  C40  1  0.17794000  0.42970000  0.71884000  1.0
  C  C41  1  0.80501000  0.91263000  0.77325000  1.0
  C  C42  1  0.80905000  0.62994000  0.07581000  1.0
  C  C43  1  0.18750000  0.13543000  0.43680000  1.0
  C  C44  1  0.19094000  0.37006000  0.92419000  1.0
  C  C45  1  0.81251000  0.86457000  0.56320000  1.0
  C  C46  1  0.99114000  0.56264000  0.98422000  1.0
  C  C47  1  0.00057000  0.06150000  0.51991000  1.0
  C  C48  1  0.00882000  0.43736000  0.01578000  1.0
  C  C49  1  0.99943000  0.93850000  0.48009000  1.0
  N  N50  1  0.89562000  0.63444000  0.18549000  1.0
  N  N51  1  0.11246000  0.14585000  0.32477000  1.0
  N  N52  1  0.10436000  0.36556000  0.81451000  1.0
  N  N53  1  0.88754000  0.85415000  0.67523000  1.0
  N  N54  1  0.09478000  0.69986000  0.19720000  1.0
  N  N55  1  0.90769000  0.20927000  0.31386000  1.0
  N  N56  1  0.90521000  0.30013000  0.80279000  1.0
  N  N57  1  0.09232000  0.79073000  0.68614000  1.0
  N  N58  1  0.97096000  0.59149000  0.35695000  1.0
  N  N59  1  0.04937000  0.11067000  0.15055000  1.0
  N  N60  1  0.02904000  0.40851000  0.64305000  1.0
  N  N61  1  0.95063000  0.88932000  0.84945000  1.0
  N  N62  1  0.29084000  0.41321000  0.40209000  1.0
  N  N63  1  0.69464000  0.91385000  0.11363000  1.0
  N  N64  1  0.70916000  0.58679000  0.59790000  1.0
  N  N65  1  0.30536000  0.08614000  0.88638000  1.0
  N  N66  1  0.33779000  0.39550000  0.29894000  1.0
  N  N67  1  0.65307000  0.89122000  0.21564000  1.0
  N  N68  1  0.66221000  0.60450000  0.70105000  1.0
  N  N69  1  0.34694000  0.10878000  0.78435000  1.0
  N  N70  1  0.39692000  0.37591000  0.19933000  1.0
  N  N71  1  0.60617000  0.86938000  0.31499000  1.0
  N  N72  1  0.60308000  0.62409000  0.80067000  1.0
  N  N73  1  0.39384000  0.13061000  0.68502000  1.0
  O  O74  1  0.25500000  0.61975000  0.53128000  1.0
  O  O75  1  0.73424000  0.13110000  0.96502000  1.0
  O  O76  1  0.74501000  0.38025000  0.46872000  1.0
  O  O77  1  0.26577000  0.86889000  0.03498000  1.0
