# generated using pymatgen
data_GaH5C4O7
_symmetry_space_group_name_H-M   'P 1'
_cell_length_a   8.69490000
_cell_length_b   10.64780000
_cell_length_c   10.64760000
_cell_angle_alpha   60.17450000
_cell_angle_beta   65.95140000
_cell_angle_gamma   65.95190000
_symmetry_Int_Tables_number   1
_chemical_formula_structural   GaH5C4O7
_chemical_formula_sum   'Ga4 H20 C16 O28'
_cell_volume   754.41712445
_cell_formula_units_Z   4
loop_
 _symmetry_equiv_pos_site_id
 _symmetry_equiv_pos_as_xyz
  1  'x, y, z'
loop_
 _atom_site_type_symbol
 _atom_site_label
 _atom_site_symmetry_multiplicity
 _atom_site_fract_x
 _atom_site_fract_y
 _atom_site_fract_z
 _atom_site_occupancy
  Ga  Ga0  1  0.90792000  0.09205000  0.09206000  1.0
  Ga  Ga1  1  0.59209000  0.40793000  0.40795000  1.0
  Ga  Ga2  1  0.09209000  0.90795000  0.90792000  1.0
  Ga  Ga3  1  0.40792000  0.59206000  0.59206000  1.0
  H  H4  1  0.68245000  0.99442000  0.35449000  1.0
  H  H5  1  0.96861000  0.35440000  0.99450000  1.0
  H  H6  1  0.81754000  0.14550000  0.50559000  1.0
  H  H7  1  0.53139000  0.50550000  0.14560000  1.0
  H  H8  1  0.31755000  0.00560000  0.64550000  1.0
  H  H9  1  0.03139000  0.64559000  0.00551000  1.0
  H  H10  1  0.18244000  0.85448000  0.49442000  1.0
  H  H11  1  0.46862000  0.49451000  0.85441000  1.0
  H  H12  1  0.10919000  0.17447000  0.82575000  1.0
  H  H13  1  0.89082000  0.82553000  0.17424000  1.0
  H  H14  1  0.39083000  0.67424000  0.32553000  1.0
  H  H15  1  0.60920000  0.32576000  0.67447000  1.0
  H  H16  1  0.44211000  0.12256000  0.25356000  1.0
  H  H17  1  0.18127000  0.25394000  0.12295000  1.0
  H  H18  1  0.05789000  0.24642000  0.37746000  1.0
  H  H19  1  0.31873000  0.37707000  0.24602000  1.0
  H  H20  1  0.55789000  0.87747000  0.74642000  1.0
  H  H21  1  0.81872000  0.74603000  0.87707000  1.0
  H  H22  1  0.94211000  0.75355000  0.62255000  1.0
  H  H23  1  0.68127000  0.62295000  0.75396000  1.0
  C  C24  1  0.53300000  0.18973000  0.21630000  1.0
  C  C25  1  0.06052000  0.21663000  0.19007000  1.0
  C  C26  1  0.96700000  0.28368000  0.31028000  1.0
  C  C27  1  0.43948000  0.30994000  0.28334000  1.0
  C  C28  1  0.46701000  0.81030000  0.78369000  1.0
  C  C29  1  0.93948000  0.78334000  0.80993000  1.0
  C  C30  1  0.03299000  0.71632000  0.68973000  1.0
  C  C31  1  0.56053000  0.69007000  0.71664000  1.0
  C  C32  1  0.57850000  0.26926000  0.04527000  1.0
  C  C33  1  0.10641000  0.04561000  0.26964000  1.0
  C  C34  1  0.92150000  0.45471000  0.23074000  1.0
  C  C35  1  0.39358000  0.23036000  0.45437000  1.0
  C  C36  1  0.42150000  0.73076000  0.95471000  1.0
  C  C37  1  0.89357000  0.95437000  0.73037000  1.0
  C  C38  1  0.07849000  0.54528000  0.76927000  1.0
  C  C39  1  0.60641000  0.76965000  0.54562000  1.0
  O  O40  1  0.68938000  0.09719000  0.26166000  1.0
  O  O41  1  0.95136000  0.26192000  0.09745000  1.0
  O  O42  1  0.81062000  0.23833000  0.40281000  1.0
  O  O43  1  0.54865000  0.40256000  0.23807000  1.0
  O  O44  1  0.31063000  0.90281000  0.73833000  1.0
  O  O45  1  0.04863000  0.73808000  0.90256000  1.0
  O  O46  1  0.18938000  0.76165000  0.59719000  1.0
  O  O47  1  0.45135000  0.59746000  0.76193000  1.0
  O  O48  1  0.73841000  0.24199000  0.97194000  1.0
  O  O49  1  0.04721000  0.97215000  0.24227000  1.0
  O  O50  1  0.76161000  0.52805000  0.25800000  1.0
  O  O51  1  0.45276000  0.25775000  0.52783000  1.0
  O  O52  1  0.26160000  0.75802000  0.02804000  1.0
  O  O53  1  0.95277000  0.02784000  0.75773000  1.0
  O  O54  1  0.23840000  0.47193000  0.74202000  1.0
  O  O55  1  0.54723000  0.74225000  0.47217000  1.0
  O  O56  1  0.45377000  0.36018000  0.98819000  1.0
  O  O57  1  0.19714000  0.98861000  0.36071000  1.0
  O  O58  1  0.04623000  0.51180000  0.13981000  1.0
  O  O59  1  0.30285000  0.13931000  0.51136000  1.0
  O  O60  1  0.54623000  0.63984000  0.01180000  1.0
  O  O61  1  0.80285000  0.01137000  0.63930000  1.0
  O  O62  1  0.95377000  0.48818000  0.86019000  1.0
  O  O63  1  0.69715000  0.86070000  0.48862000  1.0
  O  O64  1  0.10511000  0.08337000  0.91679000  1.0
  O  O65  1  0.89489000  0.91664000  0.08320000  1.0
  O  O66  1  0.39489000  0.58320000  0.41664000  1.0
  O  O67  1  0.60510000  0.41681000  0.58337000  1.0
