# generated using pymatgen
data_CuH6C5S4I
_symmetry_space_group_name_H-M   'P 1'
_cell_length_a   7.58788000
_cell_length_b   7.58794000
_cell_length_c   10.33370000
_cell_angle_alpha   98.69320000
_cell_angle_beta   98.69450000
_cell_angle_gamma   118.46400000
_symmetry_Int_Tables_number   1
_chemical_formula_structural   CuH6C5S4I
_chemical_formula_sum   'Cu2 H12 C10 S8 I2'
_cell_volume   499.69993818
_cell_formula_units_Z   2
loop_
 _symmetry_equiv_pos_site_id
 _symmetry_equiv_pos_as_xyz
  1  'x, y, z'
loop_
 _atom_site_type_symbol
 _atom_site_label
 _atom_site_symmetry_multiplicity
 _atom_site_fract_x
 _atom_site_fract_y
 _atom_site_fract_z
 _atom_site_occupancy
  Cu  Cu0  1  0.03873000  0.03873000  0.38269000  1.0
  Cu  Cu1  1  0.96128000  0.96127000  0.61731000  1.0
  H  H2  1  0.22299000  0.54419000  0.40457000  1.0
  H  H3  1  0.45582000  0.77701000  0.59543000  1.0
  H  H4  1  0.77701000  0.45581000  0.59543000  1.0
  H  H5  1  0.54419000  0.22299000  0.40457000  1.0
  H  H6  1  0.08781000  0.58381000  0.26193000  1.0
  H  H7  1  0.41619000  0.91219000  0.73807000  1.0
  H  H8  1  0.91219000  0.41619000  0.73807000  1.0
  H  H9  1  0.58381000  0.08781000  0.26193000  1.0
  H  H10  1  0.95890000  0.48813000  0.38744000  1.0
  H  H11  1  0.51186000  0.04109000  0.61256000  1.0
  H  H12  1  0.04110000  0.51187000  0.61256000  1.0
  H  H13  1  0.48814000  0.95891000  0.38744000  1.0
  C  C14  1  0.42301000  0.42302000  0.01803000  1.0
  C  C15  1  0.57697000  0.57698000  0.98197000  1.0
  C  C16  1  0.14933000  0.25379000  0.14778000  1.0
  C  C17  1  0.74621000  0.85066000  0.85222000  1.0
  C  C18  1  0.85067000  0.74621000  0.85222000  1.0
  C  C19  1  0.25379000  0.14934000  0.14778000  1.0
  C  C20  1  0.07313000  0.48842000  0.33393000  1.0
  C  C21  1  0.51159000  0.92687000  0.66607000  1.0
  C  C22  1  0.92687000  0.51158000  0.66607000  1.0
  C  C23  1  0.48842000  0.07313000  0.33393000  1.0
  S  S24  1  0.96773000  0.22217000  0.24119000  1.0
  S  S25  1  0.77784000  0.03226000  0.75881000  1.0
  S  S26  1  0.03227000  0.77783000  0.75882000  1.0
  S  S27  1  0.22217000  0.96773000  0.24119000  1.0
  S  S28  1  0.20009000  0.42475000  0.04278000  1.0
  S  S29  1  0.57525000  0.79991000  0.95722000  1.0
  S  S30  1  0.79991000  0.57525000  0.95723000  1.0
  S  S31  1  0.42475000  0.20010000  0.04278000  1.0
  I  I32  1  0.70509000  0.70508000  0.38709000  1.0
  I  I33  1  0.29492000  0.29491000  0.61290000  1.0
