# generated using pymatgen
data_Zn4H30C43NO13
_symmetry_space_group_name_H-M   'P 1'
_cell_length_a   17.28420000
_cell_length_b   25.37260000
_cell_length_c   32.86900000
_cell_angle_alpha   90.00000000
_cell_angle_beta   90.00000000
_cell_angle_gamma   99.56960000
_symmetry_Int_Tables_number   1
_chemical_formula_structural   Zn4H30C43NO13
_chemical_formula_sum   'Zn16 H120 C172 N4 O52'
_cell_volume   14213.95145215
_cell_formula_units_Z   4
loop_
 _symmetry_equiv_pos_site_id
 _symmetry_equiv_pos_as_xyz
  1  'x, y, z'
loop_
 _atom_site_type_symbol
 _atom_site_label
 _atom_site_symmetry_multiplicity
 _atom_site_fract_x
 _atom_site_fract_y
 _atom_site_fract_z
 _atom_site_occupancy
  Zn  Zn0  1  0.88748000  0.70239000  0.06493000  1.0
  Zn  Zn1  1  0.11252000  0.79761000  0.56493000  1.0
  Zn  Zn2  1  0.11252000  0.29761000  0.93507000  1.0
  Zn  Zn3  1  0.88748000  0.20239000  0.43507000  1.0
  Zn  Zn4  1  0.03592000  0.78978000  0.03776000  1.0
  Zn  Zn5  1  0.96408000  0.71022000  0.53776000  1.0
  Zn  Zn6  1  0.96408000  0.21022000  0.96224000  1.0
  Zn  Zn7  1  0.03592000  0.28978000  0.46224000  1.0
  Zn  Zn8  1  0.91092000  0.82154000  0.10043000  1.0
  Zn  Zn9  1  0.08908000  0.67846000  0.60043000  1.0
  Zn  Zn10  1  0.08908000  0.17846000  0.89957000  1.0
  Zn  Zn11  1  0.91092000  0.32154000  0.39957000  1.0
  Zn  Zn12  1  0.02591000  0.74363000  0.12906000  1.0
  Zn  Zn13  1  0.97409000  0.75637000  0.62906000  1.0
  Zn  Zn14  1  0.97409000  0.25637000  0.87094000  1.0
  Zn  Zn15  1  0.02591000  0.24363000  0.37094000  1.0
  H  H16  1  0.88038000  0.54141000  0.08611000  1.0
  H  H17  1  0.11962000  0.95859000  0.58611000  1.0
  H  H18  1  0.11962000  0.45859000  0.91389000  1.0
  H  H19  1  0.88038000  0.04141000  0.41389000  1.0
  H  H20  1  0.90036000  0.44792000  0.10006000  1.0
  H  H21  1  0.09964000  0.05208000  0.60006000  1.0
  H  H22  1  0.09964000  0.55208000  0.89994000  1.0
  H  H23  1  0.90036000  0.94792000  0.39994000  1.0
  H  H24  1  0.04825000  0.50389000  0.20204000  1.0
  H  H25  1  0.95175000  0.99611000  0.70204000  1.0
  H  H26  1  0.95175000  0.49611000  0.79796000  1.0
  H  H27  1  0.04825000  0.00389000  0.29796000  1.0
  H  H28  1  0.03014000  0.59741000  0.18683000  1.0
  H  H29  1  0.96986000  0.90259000  0.68683000  1.0
  H  H30  1  0.96986000  0.40260000  0.81317000  1.0
  H  H31  1  0.03014000  0.09741000  0.31317000  1.0
  H  H32  1  0.08795000  0.44975000  0.09773000  1.0
  H  H33  1  0.91205000  0.05025000  0.59773000  1.0
  H  H34  1  0.91205000  0.55025000  0.90227000  1.0
  H  H35  1  0.08795000  0.94975000  0.40227000  1.0
  H  H36  1  0.11065000  0.39673000  0.03609000  1.0
  H  H37  1  0.88935000  0.10326000  0.53609000  1.0
  H  H38  1  0.88935000  0.60327000  0.96391000  1.0
  H  H39  1  0.11065000  0.89673000  0.46391000  1.0
  H  H40  1  0.94489000  0.26421000  0.08063000  1.0
  H  H41  1  0.05511000  0.23579000  0.58063000  1.0
  H  H42  1  0.05511000  0.73579000  0.91937000  1.0
  H  H43  1  0.94489000  0.76421000  0.41937000  1.0
  H  H44  1  0.92370000  0.31618000  0.14297000  1.0
  H  H45  1  0.07630000  0.18382000  0.64297000  1.0
  H  H46  1  0.07630000  0.68382000  0.85702000  1.0
  H  H47  1  0.92370000  0.81618000  0.35702000  1.0
  H  H48  1  0.26060000  0.73186000  0.14171000  1.0
  H  H49  1  0.73940000  0.76814000  0.64171000  1.0
  H  H50  1  0.73940000  0.26814000  0.85829000  1.0
  H  H51  1  0.26060000  0.23186000  0.35829000  1.0
  H  H52  1  0.27706000  0.79674000  0.02089000  1.0
  H  H53  1  0.72294000  0.70326000  0.52089000  1.0
  H  H54  1  0.72294000  0.20326000  0.97911000  1.0
  H  H55  1  0.27706000  0.29674000  0.47911000  1.0
  H  H56  1  0.46166000  0.75310000  0.16382000  1.0
  H  H57  1  0.53834000  0.74690000  0.66382000  1.0
  H  H58  1  0.53834000  0.24690000  0.83618000  1.0
  H  H59  1  0.46166000  0.25310000  0.33618000  1.0
  H  H60  1  0.44200000  0.68749000  0.14461000  1.0
  H  H61  1  0.55800000  0.81251000  0.64461000  1.0
  H  H62  1  0.55800000  0.31251000  0.85539000  1.0
  H  H63  1  0.44200000  0.18749000  0.35539000  1.0
  H  H64  1  0.37146000  0.71135000  0.17612000  1.0
  H  H65  1  0.62854000  0.78865000  0.67612000  1.0
  H  H66  1  0.62854000  0.28865000  0.82388000  1.0
  H  H67  1  0.37146000  0.21135000  0.32388000  1.0
  H  H68  1  0.46268000  0.76703000  0.99584000  1.0
  H  H69  1  0.53732000  0.73297000  0.49584000  1.0
  H  H70  1  0.53732000  0.23297000  0.00416000  1.0
  H  H71  1  0.46268000  0.26703000  0.50416000  1.0
  H  H72  1  0.48138000  0.83183000  0.01663000  1.0
  H  H73  1  0.51862000  0.66817000  0.51663000  1.0
  H  H74  1  0.51862000  0.16817000  0.98337000  1.0
  H  H75  1  0.48138000  0.33183000  0.48337000  1.0
  H  H76  1  0.39734000  0.81267000  0.98536000  1.0
  H  H77  1  0.60266000  0.68733000  0.48536000  1.0
  H  H78  1  0.60266000  0.18733000  0.01464000  1.0
  H  H79  1  0.39734000  0.31267000  0.51464000  1.0
  H  H80  1  0.64063000  0.67874000  0.05573000  1.0
  H  H81  1  0.35937000  0.82126000  0.55573000  1.0
  H  H82  1  0.35937000  0.32126000  0.94427000  1.0
  H  H83  1  0.64063000  0.17874000  0.44427000  1.0
  H  H84  1  0.67981000  0.83689000  0.10609000  1.0
  H  H85  1  0.32019000  0.66311000  0.60609000  1.0
  H  H86  1  0.32019000  0.16311000  0.89391000  1.0
  H  H87  1  0.67981000  0.33689000  0.39391000  1.0
  H  H88  1  0.48878000  0.84266000  0.13627000  1.0
  H  H89  1  0.51122000  0.65734000  0.63627000  1.0
  H  H90  1  0.51123000  0.15734000  0.86373000  1.0
  H  H91  1  0.48878000  0.34266000  0.36373000  1.0
  H  H92  1  0.49260000  0.86857000  0.08650000  1.0
  H  H93  1  0.50740000  0.63143000  0.58650000  1.0
  H  H94  1  0.50740000  0.13143000  0.91350000  1.0
  H  H95  1  0.49260000  0.36857000  0.41350000  1.0
  H  H96  1  0.57607000  0.88365000  0.11879000  1.0
  H  H97  1  0.42393000  0.61636000  0.61879000  1.0
  H  H98  1  0.42393000  0.11635000  0.88121000  1.0
  H  H99  1  0.57607000  0.38365000  0.38121000  1.0
  H  H100  1  0.44481000  0.67455000  0.02528000  1.0
  H  H101  1  0.55519000  0.82545000  0.52528000  1.0
  H  H102  1  0.55519000  0.32545000  0.97472000  1.0
  H  H103  1  0.44481000  0.17455000  0.47472000  1.0
  H  H104  1  0.43998000  0.64729000  0.07469000  1.0
  H  H105  1  0.56002000  0.85271000  0.57469000  1.0
  H  H106  1  0.56002000  0.35271000  0.92531000  1.0
  H  H107  1  0.43998000  0.14729000  0.42531000  1.0
  H  H108  1  0.51413000  0.63379000  0.04056000  1.0
  H  H109  1  0.48587000  0.86621000  0.54056000  1.0
  H  H110  1  0.48587000  0.36621000  0.95944000  1.0
  H  H111  1  0.51413000  0.13379000  0.45944000  1.0
  H  H112  1  0.91296000  0.97672000  0.05989000  1.0
  H  H113  1  0.08705000  0.52328000  0.55989000  1.0
  H  H114  1  0.08704000  0.02328000  0.94011000  1.0
  H  H115  1  0.91295000  0.47672000  0.44011000  1.0
  H  H116  1  0.92272000  0.06692000  0.02675000  1.0
  H  H117  1  0.07728000  0.43308000  0.52675000  1.0
  H  H118  1  0.07728000  0.93308000  0.97325000  1.0
  H  H119  1  0.92272000  0.56692000  0.47325000  1.0
  H  H120  1  0.89467000  0.39949000  0.28900000  1.0
  H  H121  1  0.10533000  0.10050000  0.78900000  1.0
  H  H122  1  0.10533000  0.60051000  0.71100000  1.0
  H  H123  1  0.89467000  0.89949000  0.21100000  1.0
  H  H124  1  0.89932000  0.43975000  0.21982000  1.0
  H  H125  1  0.10068000  0.06025000  0.71982000  1.0
  H  H126  1  0.10068000  0.56025000  0.78018000  1.0
  H  H127  1  0.89932000  0.93975000  0.28018000  1.0
  H  H128  1  0.07369000  0.34497000  0.18446000  1.0
  H  H129  1  0.92631000  0.15503000  0.68446000  1.0
  H  H130  1  0.92631000  0.65503000  0.81554000  1.0
  H  H131  1  0.07369000  0.84497000  0.31554000  1.0
  H  H132  1  0.06737000  0.30463000  0.25362000  1.0
  H  H133  1  0.93263000  0.19537000  0.75362000  1.0
  H  H134  1  0.93263000  0.69537000  0.74638000  1.0
  H  H135  1  0.06737000  0.80463000  0.24638000  1.0
  C  C136  1  0.94769000  0.63138000  0.12472000  1.0
  C  C137  1  0.05231000  0.86862000  0.62472000  1.0
  C  C138  1  0.05231000  0.36862000  0.87528000  1.0
  C  C139  1  0.94769000  0.13138000  0.37528000  1.0
  C  C140  1  0.95440000  0.57527000  0.13543000  1.0
  C  C141  1  0.04560000  0.92473000  0.63543000  1.0
  C  C142  1  0.04560000  0.42473000  0.86457000  1.0
  C  C143  1  0.95440000  0.07527000  0.36457000  1.0
  C  C144  1  0.91743000  0.53283000  0.11125000  1.0
  C  C145  1  0.08258000  0.96717000  0.61125000  1.0
  C  C146  1  0.08257000  0.46717000  0.88875000  1.0
  C  C147  1  0.91742000  0.03283000  0.38875000  1.0
  C  C148  1  0.92838000  0.48080000  0.11910000  1.0
  C  C149  1  0.07162000  0.01920000  0.61910000  1.0
  C  C150  1  0.07162000  0.51920000  0.88090000  1.0
  C  C151  1  0.92838000  0.98080000  0.38090000  1.0
  C  C152  1  0.97615000  0.47010000  0.15166000  1.0
  C  C153  1  0.02385000  0.02990000  0.65166000  1.0
  C  C154  1  0.02384000  0.52990000  0.84834000  1.0
  C  C155  1  0.97615000  0.97010000  0.34834000  1.0
  C  C156  1  0.01141000  0.51224000  0.17672000  1.0
  C  C157  1  0.98859000  0.98776000  0.67672000  1.0
  C  C158  1  0.98859000  0.48777000  0.82328000  1.0
  C  C159  1  0.01141000  0.01224000  0.32328000  1.0
  C  C160  1  0.00094000  0.56429000  0.16839000  1.0
  C  C161  1  0.99906000  0.93571000  0.66839000  1.0
  C  C162  1  0.99906000  0.43571000  0.83161000  1.0
  C  C163  1  0.00094000  0.06429000  0.33161000  1.0
  C  C164  1  0.00398000  0.38638000  0.12398000  1.0
  C  C165  1  0.99602000  0.11363000  0.62398000  1.0
  C  C166  1  0.99602000  0.61363000  0.87602000  1.0
  C  C167  1  0.00398000  0.88637000  0.37602000  1.0
  C  C168  1  0.05701000  0.40899000  0.09387000  1.0
  C  C169  1  0.94299000  0.09101000  0.59387000  1.0
  C  C170  1  0.94299000  0.59101000  0.90613000  1.0
  C  C171  1  0.05701000  0.90899000  0.40613000  1.0
  C  C172  1  0.06947000  0.37958000  0.05955000  1.0
  C  C173  1  0.93053000  0.12042000  0.55955000  1.0
  C  C174  1  0.93053000  0.62042000  0.94045000  1.0
  C  C175  1  0.06947000  0.87958000  0.44045000  1.0
  C  C176  1  0.02889000  0.32732000  0.05448000  1.0
  C  C177  1  0.97111000  0.17268000  0.55448000  1.0
  C  C178  1  0.97111000  0.67268000  0.94552000  1.0
  C  C179  1  0.02889000  0.82732000  0.44552000  1.0
  C  C180  1  0.97678000  0.30461000  0.08494000  1.0
  C  C181  1  0.02322000  0.19539000  0.58494000  1.0
  C  C182  1  0.02322000  0.69539000  0.91506000  1.0
  C  C183  1  0.97678000  0.80461000  0.41506000  1.0
  C  C184  1  0.96465000  0.33363000  0.11950000  1.0
  C  C185  1  0.03535000  0.16637000  0.61950000  1.0
  C  C186  1  0.03535000  0.66637000  0.88050000  1.0
  C  C187  1  0.96465000  0.83363000  0.38050000  1.0
  C  C188  1  0.98692000  0.39508000  0.19751000  1.0
  C  C189  1  0.01308000  0.10492000  0.69751000  1.0
  C  C190  1  0.01308000  0.60492000  0.80249000  1.0
  C  C191  1  0.98692000  0.89508000  0.30249000  1.0
  C  C192  1  0.17486000  0.76657000  0.08213000  1.0
  C  C193  1  0.82514000  0.73343000  0.58213000  1.0
  C  C194  1  0.82514000  0.23343000  0.91787000  1.0
  C  C195  1  0.17486000  0.26657000  0.41787000  1.0
  C  C196  1  0.26056000  0.76429000  0.08131000  1.0
  C  C197  1  0.73944000  0.73571000  0.58131000  1.0
  C  C198  1  0.73944000  0.23571000  0.91869000  1.0
  C  C199  1  0.26056000  0.26429000  0.41869000  1.0
  C  C200  1  0.29632000  0.74490000  0.11509000  1.0
  C  C201  1  0.70368000  0.75510000  0.61510000  1.0
  C  C202  1  0.70368000  0.25510000  0.88491000  1.0
  C  C203  1  0.29632000  0.24490000  0.38490000  1.0
  C  C204  1  0.37641000  0.74247000  0.11501000  1.0
  C  C205  1  0.62359000  0.75753000  0.61501000  1.0
  C  C206  1  0.62359000  0.25753000  0.88499000  1.0
  C  C207  1  0.37641000  0.24247000  0.38499000  1.0
  C  C208  1  0.42105000  0.75967000  0.08010000  1.0
  C  C209  1  0.57895000  0.74033000  0.58010000  1.0
  C  C210  1  0.57895000  0.24033000  0.91990000  1.0
  C  C211  1  0.42105000  0.25967000  0.41990000  1.0
  C  C212  1  0.38580000  0.77941000  0.04584000  1.0
  C  C213  1  0.61420000  0.72059000  0.54584000  1.0
  C  C214  1  0.61420000  0.22059000  0.95416000  1.0
  C  C215  1  0.38580000  0.27941000  0.45416000  1.0
  C  C216  1  0.30556000  0.78146000  0.04692000  1.0
  C  C217  1  0.69444000  0.71854000  0.54692000  1.0
  C  C218  1  0.69444000  0.21854000  0.95308000  1.0
  C  C219  1  0.30556000  0.28146000  0.45308000  1.0
  C  C220  1  0.41457000  0.72250000  0.15182000  1.0
  C  C221  1  0.58544000  0.77750000  0.65182000  1.0
  C  C222  1  0.58544000  0.27750000  0.84818000  1.0
  C  C223  1  0.41456000  0.22250000  0.34818000  1.0
  C  C224  1  0.43399000  0.79870000  0.00896000  1.0
  C  C225  1  0.56601000  0.70130000  0.50896000  1.0
  C  C226  1  0.56601000  0.20130000  0.99104000  1.0
  C  C227  1  0.43399000  0.29870000  0.49104000  1.0
  C  C228  1  0.50688000  0.75861000  0.08007000  1.0
  C  C229  1  0.49312000  0.74139000  0.58007000  1.0
  C  C230  1  0.49312000  0.24139000  0.91993000  1.0
  C  C231  1  0.50688000  0.25861000  0.41993000  1.0
  C  C232  1  0.53588000  0.71307000  0.06599000  1.0
  C  C233  1  0.46412000  0.78693000  0.56599000  1.0
  C  C234  1  0.46412000  0.28693000  0.93401000  1.0
  C  C235  1  0.53588000  0.21307000  0.43401000  1.0
  C  C236  1  0.61678000  0.71335000  0.06656000  1.0
  C  C237  1  0.38322000  0.78665000  0.56656000  1.0
  C  C238  1  0.38322000  0.28665000  0.93344000  1.0
  C  C239  1  0.61678000  0.21335000  0.43344000  1.0
  C  C240  1  0.66840000  0.75780000  0.08095000  1.0
  C  C241  1  0.33160000  0.74220000  0.58095000  1.0
  C  C242  1  0.33160000  0.24220000  0.91905000  1.0
  C  C243  1  0.66840000  0.25780000  0.41906000  1.0
  C  C244  1  0.75469000  0.75812000  0.08144000  1.0
  C  C245  1  0.24531000  0.74188000  0.58144000  1.0
  C  C246  1  0.24531000  0.24188000  0.91856000  1.0
  C  C247  1  0.75469000  0.25812000  0.41856000  1.0
  C  C248  1  0.63884000  0.80262000  0.09492000  1.0
  C  C249  1  0.36116000  0.69738000  0.59492000  1.0
  C  C250  1  0.36116000  0.19738000  0.90508000  1.0
  C  C251  1  0.63884000  0.30262000  0.40508000  1.0
  C  C252  1  0.55843000  0.80369000  0.09463000  1.0
  C  C253  1  0.44157000  0.69631000  0.59463000  1.0
  C  C254  1  0.44157000  0.19631000  0.90537000  1.0
  C  C255  1  0.55843000  0.30369000  0.40537000  1.0
  C  C256  1  0.52761000  0.85221000  0.10982000  1.0
  C  C257  1  0.47239000  0.64779000  0.60982000  1.0
  C  C258  1  0.47239000  0.14779000  0.89019000  1.0
  C  C259  1  0.52761000  0.35221000  0.39019000  1.0
  C  C260  1  0.48104000  0.66469000  0.05079000  1.0
  C  C261  1  0.51896000  0.83531000  0.55079000  1.0
  C  C262  1  0.51896000  0.33531000  0.94921000  1.0
  C  C263  1  0.48104000  0.16469000  0.44921000  1.0
  C  C264  1  0.98819000  0.89618000  0.03795000  1.0
  C  C265  1  0.01181000  0.60382000  0.53795000  1.0
  C  C266  1  0.01181000  0.10382000  0.96205000  1.0
  C  C267  1  0.98819000  0.39618000  0.46205000  1.0
  C  C268  1  0.99456000  0.94992000  0.01841000  1.0
  C  C269  1  0.00544000  0.55008000  0.51841000  1.0
  C  C270  1  0.00544000  0.05008000  0.98159000  1.0
  C  C271  1  0.99456000  0.44992000  0.48159000  1.0
  C  C272  1  0.95083000  0.98742000  0.03366000  1.0
  C  C273  1  0.04917000  0.51258000  0.53366000  1.0
  C  C274  1  0.04917000  0.01258000  0.96634000  1.0
  C  C275  1  0.95083000  0.48742000  0.46634000  1.0
  C  C276  1  0.95623000  0.03728000  0.01533000  1.0
  C  C277  1  0.04377000  0.46272000  0.51533000  1.0
  C  C278  1  0.04377000  0.96272000  0.98467000  1.0
  C  C279  1  0.95623000  0.53728000  0.48467000  1.0
  C  C280  1  0.97676000  0.32501000  0.31680000  1.0
  C  C281  1  0.02324000  0.17499000  0.81680000  1.0
  C  C282  1  0.02324000  0.67499000  0.68320000  1.0
  C  C283  1  0.97676000  0.82501000  0.18320000  1.0
  C  C284  1  0.98073000  0.34953000  0.27569000  1.0
  C  C285  1  0.01927000  0.15047000  0.77569000  1.0
  C  C286  1  0.01927000  0.65047000  0.72431000  1.0
  C  C287  1  0.98073000  0.84953000  0.22431000  1.0
  C  C288  1  0.93405000  0.38808000  0.26594000  1.0
  C  C289  1  0.06595000  0.11192000  0.76594000  1.0
  C  C290  1  0.06595000  0.61192000  0.73406000  1.0
  C  C291  1  0.93405000  0.88808000  0.23406000  1.0
  C  C292  1  0.93668000  0.41053000  0.22736000  1.0
  C  C293  1  0.06332000  0.08947000  0.72736000  1.0
  C  C294  1  0.06332000  0.58947000  0.77264000  1.0
  C  C295  1  0.93668000  0.91053000  0.27264000  1.0
  C  C296  1  0.03811000  0.29720000  0.01637000  1.0
  C  C297  1  0.96188000  0.20280000  0.51637000  1.0
  C  C298  1  0.96189000  0.70280000  0.98363000  1.0
  C  C299  1  0.03811000  0.79720000  0.48363000  1.0
  C  C300  1  0.03422000  0.35673000  0.20732000  1.0
  C  C301  1  0.96578000  0.14327000  0.70732000  1.0
  C  C302  1  0.96578000  0.64327000  0.79268000  1.0
  C  C303  1  0.03422000  0.85673000  0.29268000  1.0
  C  C304  1  0.03073000  0.33421000  0.24587000  1.0
  C  C305  1  0.96927000  0.16579000  0.74587000  1.0
  C  C306  1  0.96927000  0.66579000  0.75413000  1.0
  C  C307  1  0.03073000  0.83421000  0.25413000  1.0
  N  N308  1  0.98956000  0.41723000  0.15825000  1.0
  N  N309  1  0.01044000  0.08277000  0.65825000  1.0
  N  N310  1  0.01044000  0.58277000  0.84175000  1.0
  N  N311  1  0.98956000  0.91723000  0.34175000  1.0
  O  O312  1  0.09062000  0.31841000  0.99124000  1.0
  O  O313  1  0.90938000  0.18159000  0.49124000  1.0
  O  O314  1  0.90938000  0.68159000  0.00876000  1.0
  O  O315  1  0.09062000  0.81841000  0.50876000  1.0
  O  O316  1  0.99181000  0.25278000  0.01167000  1.0
  O  O317  1  0.00819000  0.24722000  0.51167000  1.0
  O  O318  1  0.00819000  0.74722000  0.98833000  1.0
  O  O319  1  0.99181000  0.75278000  0.48833000  1.0
  O  O320  1  0.14559000  0.78517000  0.05054000  1.0
  O  O321  1  0.85441000  0.71483000  0.55054000  1.0
  O  O322  1  0.85441000  0.21483000  0.94946000  1.0
  O  O323  1  0.14559000  0.28517000  0.44946000  1.0
  O  O324  1  0.13740000  0.74966000  0.11436000  1.0
  O  O325  1  0.86260000  0.75034000  0.61436000  1.0
  O  O326  1  0.86260000  0.25034000  0.88564000  1.0
  O  O327  1  0.13740000  0.24966000  0.38564000  1.0
  O  O328  1  0.03041000  0.86415000  0.02307000  1.0
  O  O329  1  0.96959000  0.63585000  0.52307000  1.0
  O  O330  1  0.96959000  0.13585000  0.97693000  1.0
  O  O331  1  0.03041000  0.36415000  0.47693000  1.0
  O  O332  1  0.94088000  0.88673000  0.06788000  1.0
  O  O333  1  0.05912000  0.61327000  0.56788000  1.0
  O  O334  1  0.05912000  0.11327000  0.93212000  1.0
  O  O335  1  0.94088000  0.38673000  0.43212000  1.0
  O  O336  1  0.77936000  0.71624000  0.06864000  1.0
  O  O337  1  0.22064000  0.78376000  0.56864000  1.0
  O  O338  1  0.22064000  0.28376000  0.93136000  1.0
  O  O339  1  0.77936000  0.21624000  0.43136000  1.0
  O  O340  1  0.79731000  0.80061000  0.09468000  1.0
  O  O341  1  0.20269000  0.69939000  0.59468000  1.0
  O  O342  1  0.20269000  0.19939000  0.90532000  1.0
  O  O343  1  0.79731000  0.30061000  0.40532000  1.0
  O  O344  1  0.93174000  0.34218000  0.34277000  1.0
  O  O345  1  0.06826000  0.15782000  0.84277000  1.0
  O  O346  1  0.06826000  0.65782000  0.65723000  1.0
  O  O347  1  0.93175000  0.84218000  0.15723000  1.0
  O  O348  1  0.01846000  0.28856000  0.32306000  1.0
  O  O349  1  0.98154000  0.21144000  0.82306000  1.0
  O  O350  1  0.98154000  0.71144000  0.67694000  1.0
  O  O351  1  0.01846000  0.78856000  0.17694000  1.0
  O  O352  1  0.99110000  0.66849000  0.14447000  1.0
  O  O353  1  0.00890000  0.83151000  0.64447000  1.0
  O  O354  1  0.00890000  0.33151000  0.85553000  1.0
  O  O355  1  0.99110000  0.16849000  0.35553000  1.0
  O  O356  1  0.90001000  0.63801000  0.09616000  1.0
  O  O357  1  0.09999000  0.86199000  0.59615000  1.0
  O  O358  1  0.09999000  0.36199000  0.90384000  1.0
  O  O359  1  0.90001000  0.13801000  0.40384000  1.0
  O  O360  1  0.96518000  0.76360000  0.08270000  1.0
  O  O361  1  0.03482000  0.73640000  0.58270000  1.0
  O  O362  1  0.03482000  0.23640000  0.91730000  1.0
  O  O363  1  0.96518000  0.26360000  0.41730000  1.0
