# generated using pymatgen
data_ZnH7C6N7
_symmetry_space_group_name_H-M   'P 1'
_cell_length_a   6.05523000
_cell_length_b   7.70719000
_cell_length_c   10.09290000
_cell_angle_alpha   92.64200000
_cell_angle_beta   101.55800000
_cell_angle_gamma   94.36090000
_symmetry_Int_Tables_number   1
_chemical_formula_structural   ZnH7C6N7
_chemical_formula_sum   'Zn2 H14 C12 N14'
_cell_volume   459.22864515
_cell_formula_units_Z   2
loop_
 _symmetry_equiv_pos_site_id
 _symmetry_equiv_pos_as_xyz
  1  'x, y, z'
loop_
 _atom_site_type_symbol
 _atom_site_label
 _atom_site_symmetry_multiplicity
 _atom_site_fract_x
 _atom_site_fract_y
 _atom_site_fract_z
 _atom_site_occupancy
  Zn  Zn0  1  0.23434000  0.05442000  0.44929000  1.0
  Zn  Zn1  1  0.76566000  0.94557000  0.55071000  1.0
  H  H2  1  0.35911000  0.42696000  0.05407000  1.0
  H  H3  1  0.64089000  0.57304000  0.94594000  1.0
  H  H4  1  0.98089000  0.32845000  0.90880000  1.0
  H  H5  1  0.01912000  0.67154000  0.09120000  1.0
  H  H6  1  0.71427000  0.12477000  0.00319000  1.0
  H  H7  1  0.28575000  0.87521000  0.99680000  1.0
  H  H8  1  0.84943000  0.01772000  0.23324000  1.0
  H  H9  1  0.15056000  0.98227000  0.76676000  1.0
  H  H10  1  0.63507000  0.41507000  0.26046000  1.0
  H  H11  1  0.36492000  0.58494000  0.73955000  1.0
  H  H12  1  0.60790000  0.23523000  0.36281000  1.0
  H  H13  1  0.39209000  0.76478000  0.63720000  1.0
  H  H14  1  0.48484000  0.43051000  0.39403000  1.0
  H  H15  1  0.51515000  0.56950000  0.60598000  1.0
  C  C16  1  0.30335000  0.27730000  0.22041000  1.0
  C  C17  1  0.69664000  0.72271000  0.77960000  1.0
  C  C18  1  0.24122000  0.33618000  0.09020000  1.0
  C  C19  1  0.75878000  0.66382000  0.90981000  1.0
  C  C20  1  0.02989000  0.28200000  0.01012000  1.0
  C  C21  1  0.97012000  0.71800000  0.98988000  1.0
  C  C22  1  0.88209000  0.16876000  0.06181000  1.0
  C  C23  1  0.11792000  0.83123000  0.93819000  1.0
  C  C24  1  0.95512000  0.11080000  0.18994000  1.0
  C  C25  1  0.04488000  0.88920000  0.81005000  1.0
  C  C26  1  0.52089000  0.34228000  0.31354000  1.0
  C  C27  1  0.47909000  0.65773000  0.68646000  1.0
  N  N28  1  0.49904000  0.11325000  0.60558000  1.0
  N  N29  1  0.50096000  0.88676000  0.39442000  1.0
  N  N30  1  0.48408000  0.18213000  0.71320000  1.0
  N  N31  1  0.51592000  0.81787000  0.28680000  1.0
  N  N32  1  0.47121000  0.24733000  0.81725000  1.0
  N  N33  1  0.52879000  0.75268000  0.18275000  1.0
  N  N34  1  0.01488000  0.83888000  0.44968000  1.0
  N  N35  1  0.98512000  0.16111000  0.55032000  1.0
  N  N36  1  0.03737000  0.69531000  0.40256000  1.0
  N  N37  1  0.96263000  0.30468000  0.59744000  1.0
  N  N38  1  0.05999000  0.55839000  0.35729000  1.0
  N  N39  1  0.94000000  0.44159000  0.64270000  1.0
  N  N40  1  0.16057000  0.16236000  0.26716000  1.0
  N  N41  1  0.83943000  0.83764000  0.73284000  1.0
