# generated using pymatgen
data_MgH4C12NO5
_symmetry_space_group_name_H-M   'P 1'
_cell_length_a   6.85370000
_cell_length_b   34.36560000
_cell_length_c   34.36500000
_cell_angle_alpha   119.56500000
_cell_angle_beta   93.81180000
_cell_angle_gamma   93.81100000
_symmetry_Int_Tables_number   1
_chemical_formula_structural   MgH4C12NO5
_chemical_formula_sum   'Mg6 H24 C72 N6 O30'
_cell_volume   6978.49198139
_cell_formula_units_Z   6
loop_
 _symmetry_equiv_pos_site_id
 _symmetry_equiv_pos_as_xyz
  1  'x, y, z'
loop_
 _atom_site_type_symbol
 _atom_site_label
 _atom_site_symmetry_multiplicity
 _atom_site_fract_x
 _atom_site_fract_y
 _atom_site_fract_z
 _atom_site_occupancy
  Mg  Mg0  1  0.44117000  0.67217000  0.30573000  1.0
  Mg  Mg1  1  0.13547000  0.69426000  0.36646000  1.0
  Mg  Mg2  1  0.76899000  0.63354000  0.32783000  1.0
  Mg  Mg3  1  0.66195000  0.33324000  0.69733000  1.0
  Mg  Mg4  1  0.96460000  0.30267000  0.63590000  1.0
  Mg  Mg5  1  0.32874000  0.36410000  0.66675000  1.0
  H  H6  1  0.91872000  0.82058000  0.42922000  1.0
  H  H7  1  0.48954000  0.57076000  0.39136000  1.0
  H  H8  1  0.09810000  0.60865000  0.17943000  1.0
  H  H9  1  0.38720000  0.88144000  0.42997000  1.0
  H  H10  1  0.95724000  0.57002000  0.45148000  1.0
  H  H11  1  0.50571000  0.54854000  0.11856000  1.0
  H  H12  1  0.20156000  0.80604000  0.38594000  1.0
  H  H13  1  0.81566000  0.61404000  0.42011000  1.0
  H  H14  1  0.39550000  0.57989000  0.19396000  1.0
  H  H15  1  0.31165000  0.96834000  0.45434000  1.0
  H  H16  1  0.85731000  0.54571000  0.51406000  1.0
  H  H17  1  0.34330000  0.48602000  0.03167000  1.0
  H  H18  1  0.81355000  0.03125000  0.56696000  1.0
  H  H19  1  0.24695000  0.43297000  0.46421000  1.0
  H  H20  1  0.78240000  0.53573000  0.96876000  1.0
  H  H21  1  0.73230000  0.12210000  0.59352000  1.0
  H  H22  1  0.13911000  0.40646000  0.52858000  1.0
  H  H23  1  0.61030000  0.47144000  0.87789000  1.0
  H  H24  1  0.90963000  0.19859000  0.63286000  1.0
  H  H25  1  0.27694000  0.36709000  0.56572000  1.0
  H  H26  1  0.71112000  0.43431000  0.80139000  1.0
  H  H27  1  0.19293000  0.17719000  0.58557000  1.0
  H  H28  1  0.60763000  0.41445000  0.59160000  1.0
  H  H29  1  0.01588000  0.40838000  0.82281000  1.0
  C  C30  1  0.77475000  0.73622000  0.38030000  1.0
  C  C31  1  0.39447000  0.61969000  0.35594000  1.0
  C  C32  1  0.03846000  0.64406000  0.26378000  1.0
  C  C33  1  0.65938000  0.77467000  0.39334000  1.0
  C  C34  1  0.26607000  0.60665000  0.38134000  1.0
  C  C35  1  0.88464000  0.61865000  0.22533000  1.0
  C  C36  1  0.76199000  0.81793000  0.41954000  1.0
  C  C37  1  0.34250000  0.58045000  0.39840000  1.0
  C  C38  1  0.94400000  0.60161000  0.18207000  1.0
  C  C39  1  0.66742000  0.85616000  0.43220000  1.0
  C  C40  1  0.23524000  0.56778000  0.42395000  1.0
  C  C41  1  0.81120000  0.57606000  0.14384000  1.0
  C  C42  1  0.46386000  0.85182000  0.42037000  1.0
  C  C43  1  0.04355000  0.57961000  0.43146000  1.0
  C  C44  1  0.61199000  0.56855000  0.14818000  1.0
  C  C45  1  0.35915000  0.80939000  0.39545000  1.0
  C  C46  1  0.96373000  0.60453000  0.41395000  1.0
  C  C47  1  0.54971000  0.58604000  0.19061000  1.0
  C  C48  1  0.45235000  0.76974000  0.38023000  1.0
  C  C49  1  0.07213000  0.61976000  0.38953000  1.0
  C  C50  1  0.68252000  0.61046000  0.23025000  1.0
  C  C51  1  0.73021000  0.93737000  0.49413000  1.0
  C  C52  1  0.23623000  0.50583000  0.44321000  1.0
  C  C53  1  0.79289000  0.55680000  0.06264000  1.0
  C  C54  1  0.89511000  0.97359000  0.50702000  1.0
  C  C55  1  0.38825000  0.49295000  0.46655000  1.0
  C  C56  1  0.92156000  0.53347000  0.02642000  1.0
  C  C57  1  0.03292000  0.95641000  0.47600000  1.0
  C  C58  1  0.55699000  0.52401000  0.48044000  1.0
  C  C59  1  0.07651000  0.51962000  0.04360000  1.0
  C  C60  1  0.96032000  0.90880000  0.44233000  1.0
  C  C61  1  0.51805000  0.55769000  0.46650000  1.0
  C  C62  1  0.05149000  0.53355000  0.09121000  1.0
  C  C63  1  0.20528000  0.98186000  0.47859000  1.0
  C  C64  1  0.72676000  0.52143000  0.50331000  1.0
  C  C65  1  0.22340000  0.49675000  0.01815000  1.0
  C  C66  1  0.23057000  0.02597000  0.51442000  1.0
  C  C67  1  0.71632000  0.48559000  0.51156000  1.0
  C  C68  1  0.20462000  0.48846000  0.97404000  1.0
  C  C69  1  0.09216000  0.04319000  0.54530000  1.0
  C  C70  1  0.54713000  0.45468000  0.49787000  1.0
  C  C71  1  0.04905000  0.50214000  0.95682000  1.0
  C  C72  1  0.92032000  0.01768000  0.54282000  1.0
  C  C73  1  0.37779000  0.45713000  0.47482000  1.0
  C  C74  1  0.90272000  0.52517000  0.98233000  1.0
  C  C75  1  0.16131000  0.09120000  0.57823000  1.0
  C  C76  1  0.58342000  0.42174000  0.51292000  1.0
  C  C77  1  0.07020000  0.48705000  0.90881000  1.0
  C  C78  1  0.39406000  0.06245000  0.52709000  1.0
  C  C79  1  0.86716000  0.47294000  0.53538000  1.0
  C  C80  1  0.33166000  0.46464000  0.93756000  1.0
  C  C81  1  0.44908000  0.14447000  0.58694000  1.0
  C  C82  1  0.86239000  0.41306000  0.55752000  1.0
  C  C83  1  0.30469000  0.44248000  0.85554000  1.0
  C  C84  1  0.65219000  0.15067000  0.60013000  1.0
  C  C85  1  0.05229000  0.39986000  0.55053000  1.0
  C  C86  1  0.50157000  0.44949000  0.84932000  1.0
  C  C87  1  0.75224000  0.19371000  0.62241000  1.0
  C  C88  1  0.13000000  0.37756000  0.57128000  1.0
  C  C89  1  0.55858000  0.42874000  0.80629000  1.0
  C  C90  1  0.65509000  0.23220000  0.63323000  1.0
  C  C91  1  0.02198000  0.36675000  0.59895000  1.0
  C  C92  1  0.42295000  0.40105000  0.76780000  1.0
  C  C93  1  0.44784000  0.22533000  0.61940000  1.0
  C  C94  1  0.82857000  0.38060000  0.60592000  1.0
  C  C95  1  0.22256000  0.39408000  0.77466000  1.0
  C  C96  1  0.34980000  0.18140000  0.59610000  1.0
  C  C97  1  0.75393000  0.40391000  0.58529000  1.0
  C  C98  1  0.16850000  0.41471000  0.81860000  1.0
  C  C99  1  0.32825000  0.26234000  0.62808000  1.0
  C  C100  1  0.70023000  0.37192000  0.63424000  1.0
  C  C101  1  0.06597000  0.36575000  0.73766000  1.0
  N  N102  1  0.78047000  0.89912000  0.45558000  1.0
  N  N103  1  0.32494000  0.54442000  0.44356000  1.0
  N  N104  1  0.88133000  0.55648000  0.10088000  1.0
  N  N105  1  0.34134000  0.10089000  0.56512000  1.0
  N  N106  1  0.77651000  0.43488000  0.53574000  1.0
  N  N107  1  0.24056000  0.46425000  0.89912000  1.0
  O  O108  1  0.95440000  0.74206000  0.39596000  1.0
  O  O109  1  0.55850000  0.60404000  0.34612000  1.0
  O  O110  1  0.21230000  0.65388000  0.25794000  1.0
  O  O111  1  0.68904000  0.69633000  0.35177000  1.0
  O  O112  1  0.33727000  0.64821000  0.34458000  1.0
  O  O113  1  0.99267000  0.65540000  0.30366000  1.0
  O  O114  1  0.34470000  0.72974000  0.35410000  1.0
  O  O115  1  0.99064000  0.64589000  0.37566000  1.0
  O  O116  1  0.61490000  0.62433000  0.27026000  1.0
  O  O117  1  0.14753000  0.25437000  0.61242000  1.0
  O  O118  1  0.53518000  0.38758000  0.64193000  1.0
  O  O119  1  0.89323000  0.35805000  0.74562000  1.0
  O  O120  1  0.41130000  0.30331000  0.65262000  1.0
  O  O121  1  0.75872000  0.34737000  0.65067000  1.0
  O  O122  1  0.10804000  0.34933000  0.69669000  1.0
  O  O123  1  0.76012000  0.27295000  0.65586000  1.0
  O  O124  1  0.10428000  0.34412000  0.61707000  1.0
  O  O125  1  0.48722000  0.38293000  0.72704000  1.0
  O  O126  1  0.58085000  0.93931000  0.51225000  1.0
  O  O127  1  0.06879000  0.48768000  0.42701000  1.0
  O  O128  1  0.64159000  0.57298000  0.06069000  1.0
  O  O129  1  0.03659000  0.88269000  0.40949000  1.0
  O  O130  1  0.62708000  0.59054000  0.47325000  1.0
  O  O131  1  0.15378000  0.52680000  0.11731000  1.0
  O  O132  1  0.08173000  0.11766000  0.61025000  1.0
  O  O133  1  0.47195000  0.38969000  0.50733000  1.0
  O  O134  1  0.96423000  0.49262000  0.88236000  1.0
  O  O135  1  0.54378000  0.06066000  0.50913000  1.0
  O  O136  1  0.03477000  0.49092000  0.55157000  1.0
  O  O137  1  0.48314000  0.44847000  0.93936000  1.0
