# generated using pymatgen
data_H12PbC14(N2O3)2
_symmetry_space_group_name_H-M   'P 1'
_cell_length_a   8.76884000
_cell_length_b   10.06080000
_cell_length_c   10.06520000
_cell_angle_alpha   68.04930000
_cell_angle_beta   75.85920000
_cell_angle_gamma   75.88190000
_symmetry_Int_Tables_number   1
_chemical_formula_structural   H12PbC14(N2O3)2
_chemical_formula_sum   'H24 Pb2 C28 N8 O12'
_cell_volume   787.05972547
_cell_formula_units_Z   2
loop_
 _symmetry_equiv_pos_site_id
 _symmetry_equiv_pos_as_xyz
  1  'x, y, z'
loop_
 _atom_site_type_symbol
 _atom_site_label
 _atom_site_symmetry_multiplicity
 _atom_site_fract_x
 _atom_site_fract_y
 _atom_site_fract_z
 _atom_site_occupancy
  H  H0  1  0.20570000  0.67957000  0.87948000  1.0
  H  H1  1  0.70584000  0.87955000  0.67950000  1.0
  H  H2  1  0.79429000  0.32044000  0.12049000  1.0
  H  H3  1  0.29419000  0.12048000  0.32054000  1.0
  H  H4  1  0.08425000  0.93115000  0.73851000  1.0
  H  H5  1  0.58431000  0.73856000  0.93107000  1.0
  H  H6  1  0.91578000  0.06887000  0.26143000  1.0
  H  H7  1  0.41568000  0.26147000  0.06899000  1.0
  H  H8  1  0.03004000  0.47436000  0.26091000  1.0
  H  H9  1  0.53025000  0.26110000  0.47449000  1.0
  H  H10  1  0.96986000  0.52546000  0.73894000  1.0
  H  H11  1  0.46970000  0.73884000  0.52544000  1.0
  H  H12  1  0.22148000  0.51920000  0.16979000  1.0
  H  H13  1  0.72166000  0.16967000  0.51901000  1.0
  H  H14  1  0.77845000  0.48081000  0.83036000  1.0
  H  H15  1  0.27830000  0.83032000  0.48101000  1.0
  H  H16  1  0.11662000  0.44604000  0.09262000  1.0
  H  H17  1  0.61635000  0.09272000  0.44603000  1.0
  H  H18  1  0.88362000  0.55398000  0.90726000  1.0
  H  H19  1  0.38369000  0.90723000  0.55398000  1.0
  H  H20  1  0.87132000  0.14834000  0.73189000  1.0
  H  H21  1  0.37146000  0.73189000  0.14824000  1.0
  H  H22  1  0.12866000  0.85169000  0.26810000  1.0
  H  H23  1  0.62857000  0.26815000  0.85175000  1.0
  Pb  Pb24  1  0.75006000  0.61521000  0.38475000  1.0
  Pb  Pb25  1  0.24995000  0.38470000  0.61527000  1.0
  C  C26  1  0.02675000  0.66935000  0.07161000  1.0
  C  C27  1  0.52682000  0.07165000  0.66929000  1.0
  C  C28  1  0.97325000  0.33064000  0.92836000  1.0
  C  C29  1  0.47316000  0.92834000  0.33071000  1.0
  C  C30  1  0.09830000  0.73833000  0.92696000  1.0
  C  C31  1  0.59836000  0.92697000  0.73823000  1.0
  C  C32  1  0.90169000  0.26168000  0.07301000  1.0
  C  C33  1  0.40158000  0.07299000  0.26177000  1.0
  C  C34  1  0.03133000  0.87615000  0.85015000  1.0
  C  C35  1  0.53138000  0.85016000  0.87604000  1.0
  C  C36  1  0.96866000  0.12387000  0.14981000  1.0
  C  C37  1  0.46858000  0.14982000  0.12397000  1.0
  C  C38  1  0.89087000  0.94776000  0.91587000  1.0
  C  C39  1  0.39095000  0.91585000  0.94768000  1.0
  C  C40  1  0.10914000  0.05226000  0.08412000  1.0
  C  C41  1  0.60906000  0.08415000  0.05234000  1.0
  C  C42  1  0.82320000  0.87160000  0.06034000  1.0
  C  C43  1  0.32329000  0.06034000  0.87154000  1.0
  C  C44  1  0.17681000  0.12842000  0.93966000  1.0
  C  C45  1  0.67675000  0.93968000  0.12847000  1.0
  C  C46  1  0.10142000  0.51975000  0.15421000  1.0
  C  C47  1  0.60147000  0.15428000  0.51969000  1.0
  C  C48  1  0.89861000  0.48023000  0.84575000  1.0
  C  C49  1  0.39852000  0.84569000  0.48030000  1.0
  C  C50  1  0.81744000  0.09140000  0.84210000  1.0
  C  C51  1  0.31755000  0.84207000  0.09132000  1.0
  C  C52  1  0.18256000  0.90863000  0.15791000  1.0
  C  C53  1  0.68245000  0.15796000  0.90870000  1.0
  N  N54  1  0.89385000  0.73581000  0.13499000  1.0
  N  N55  1  0.39395000  0.13506000  0.73577000  1.0
  N  N56  1  0.10614000  0.26419000  0.86497000  1.0
  N  N57  1  0.60609000  0.86498000  0.26424000  1.0
  N  N58  1  0.95153000  0.75558000  0.50556000  1.0
  N  N59  1  0.45165000  0.50553000  0.75539000  1.0
  N  N60  1  0.04847000  0.24447000  0.49442000  1.0
  N  N61  1  0.54832000  0.49445000  0.24468000  1.0
  O  O62  1  0.81221000  0.81351000  0.47266000  1.0
  O  O63  1  0.31215000  0.47295000  0.81325000  1.0
  O  O64  1  0.18779000  0.18651000  0.52733000  1.0
  O  O65  1  0.68781000  0.52704000  0.18676000  1.0
  O  O66  1  0.02750000  0.64887000  0.46210000  1.0
  O  O67  1  0.52750000  0.46194000  0.64875000  1.0
  O  O68  1  0.97253000  0.35118000  0.53788000  1.0
  O  O69  1  0.47253000  0.53805000  0.35132000  1.0
  O  O70  1  0.01058000  0.80182000  0.57706000  1.0
  O  O71  1  0.51099000  0.57686000  0.80160000  1.0
  O  O72  1  0.98942000  0.19826000  0.42292000  1.0
  O  O73  1  0.48894000  0.42310000  0.19852000  1.0
