# generated using pymatgen
data_CuH10C10I(N3O)2
_symmetry_space_group_name_H-M   'P 1'
_cell_length_a   4.15924000
_cell_length_b   5.93025000
_cell_length_c   26.26310000
_cell_angle_alpha   89.99930000
_cell_angle_beta   89.99970000
_cell_angle_gamma   80.73710000
_symmetry_Int_Tables_number   1
_chemical_formula_structural   CuH10C10I(N3O)2
_chemical_formula_sum   'Cu2 H20 C20 I2 N12 O4'
_cell_volume   639.34104807
_cell_formula_units_Z   2
loop_
 _symmetry_equiv_pos_site_id
 _symmetry_equiv_pos_as_xyz
  1  'x, y, z'
loop_
 _atom_site_type_symbol
 _atom_site_label
 _atom_site_symmetry_multiplicity
 _atom_site_fract_x
 _atom_site_fract_y
 _atom_site_fract_z
 _atom_site_occupancy
  Cu  Cu0  1  0.52903000  0.23351000  0.25000000  1.0
  Cu  Cu1  1  0.47098000  0.76650000  0.75000000  1.0
  H  H2  1  0.24172000  0.09397000  0.34564000  1.0
  H  H3  1  0.24169000  0.09396000  0.15436000  1.0
  H  H4  1  0.75830000  0.90604000  0.65436000  1.0
  H  H5  1  0.75832000  0.90602000  0.84564000  1.0
  H  H6  1  0.73092000  0.75044000  0.39616000  1.0
  H  H7  1  0.73090000  0.75042000  0.10383000  1.0
  H  H8  1  0.26906000  0.24958000  0.60384000  1.0
  H  H9  1  0.26909000  0.24955000  0.89616000  1.0
  H  H10  1  0.72026000  0.63435000  0.30511000  1.0
  H  H11  1  0.72023000  0.63435000  0.19489000  1.0
  H  H12  1  0.27976000  0.36564000  0.69489000  1.0
  H  H13  1  0.27977000  0.36565000  0.80511000  1.0
  H  H14  1  0.33876000  0.36366000  0.50569000  1.0
  H  H15  1  0.33877000  0.36363000  0.99431000  1.0
  H  H16  1  0.66122000  0.63638000  0.49432000  1.0
  H  H17  1  0.66120000  0.63635000  0.00569000  1.0
  H  H18  1  0.11042000  0.14638000  0.52241000  1.0
  H  H19  1  0.11044000  0.14635000  0.97759000  1.0
  H  H20  1  0.88956000  0.85366000  0.47759000  1.0
  H  H21  1  0.88954000  0.85364000  0.02241000  1.0
  C  C22  1  0.35295000  0.24075000  0.35681000  1.0
  C  C23  1  0.35291000  0.24076000  0.14319000  1.0
  C  C24  1  0.64708000  0.75924000  0.64319000  1.0
  C  C25  1  0.64710000  0.75923000  0.85681000  1.0
  C  C26  1  0.35800000  0.30808000  0.40758000  1.0
  C  C27  1  0.35798000  0.30806000  0.09242000  1.0
  C  C28  1  0.64201000  0.69194000  0.59242000  1.0
  C  C29  1  0.64201000  0.69192000  0.90758000  1.0
  C  C30  1  0.61921000  0.60273000  0.38548000  1.0
  C  C31  1  0.61918000  0.60274000  0.11452000  1.0
  C  C32  1  0.38081000  0.39727000  0.61452000  1.0
  C  C33  1  0.38082000  0.39725000  0.88548000  1.0
  C  C34  1  0.61413000  0.53870000  0.33441000  1.0
  C  C35  1  0.61412000  0.53869000  0.16558000  1.0
  C  C36  1  0.38588000  0.46131000  0.66559000  1.0
  C  C37  1  0.38588000  0.46130000  0.83441000  1.0
  C  C38  1  0.20039000  0.17429000  0.44622000  1.0
  C  C39  1  0.20040000  0.17428000  0.05378000  1.0
  C  C40  1  0.79961000  0.82574000  0.55378000  1.0
  C  C41  1  0.79959000  0.82570000  0.94622000  1.0
  I  I42  1  0.07032000  0.93360000  0.25001000  1.0
  I  I43  1  0.92968000  0.06641000  0.75000000  1.0
  N  N44  1  0.48334000  0.35444000  0.31968000  1.0
  N  N45  1  0.48331000  0.35443000  0.18032000  1.0
  N  N46  1  0.51668000  0.64556000  0.68032000  1.0
  N  N47  1  0.51669000  0.64555000  0.81968000  1.0
  N  N48  1  0.49377000  0.48820000  0.42260000  1.0
  N  N49  1  0.49374000  0.48818000  0.07739000  1.0
  N  N50  1  0.50624000  0.51182000  0.57740000  1.0
  N  N51  1  0.50624000  0.51180000  0.92260000  1.0
  N  N52  1  0.21573000  0.23621000  0.49475000  1.0
  N  N53  1  0.21573000  0.23619000  0.00525000  1.0
  N  N54  1  0.78425000  0.76382000  0.50526000  1.0
  N  N55  1  0.78424000  0.76380000  0.99474000  1.0
  O  O56  1  0.05978000  0.01391000  0.43115000  1.0
  O  O57  1  0.05975000  0.01390000  0.06885000  1.0
  O  O58  1  0.94024000  0.98611000  0.56885000  1.0
  O  O59  1  0.94028000  0.98607000  0.93115000  1.0
