# generated using pymatgen
data_Cu3H92C132(N9O8)2
_symmetry_space_group_name_H-M   'P 1'
_cell_length_a   10.42350000
_cell_length_b   13.35290000
_cell_length_c   21.86650000
_cell_angle_alpha   73.91390000
_cell_angle_beta   86.28920000
_cell_angle_gamma   70.06250000
_symmetry_Int_Tables_number   1
_chemical_formula_structural   Cu3H92C132(N9O8)2
_chemical_formula_sum   'Cu3 H92 C132 N18 O16'
_cell_volume   2747.54280223
_cell_formula_units_Z   1
loop_
 _symmetry_equiv_pos_site_id
 _symmetry_equiv_pos_as_xyz
  1  'x, y, z'
loop_
 _atom_site_type_symbol
 _atom_site_label
 _atom_site_symmetry_multiplicity
 _atom_site_fract_x
 _atom_site_fract_y
 _atom_site_fract_z
 _atom_site_occupancy
  Cu  Cu0  1  0.77243000  0.74203000  0.29699000  1.0
  Cu  Cu1  1  0.22757000  0.25797000  0.70301000  1.0
  Cu  Cu2  1  0.50000000  0.00000000  0.00000000  1.0
  H  H3  1  0.79538000  0.98211000  0.43721000  1.0
  H  H4  1  0.20462000  0.01788000  0.56279000  1.0
  H  H5  1  0.83700000  0.90927000  0.34164000  1.0
  H  H6  1  0.16299000  0.09073000  0.65836000  1.0
  H  H7  1  0.61015000  0.70386000  0.41029000  1.0
  H  H8  1  0.38985000  0.29614000  0.58971000  1.0
  H  H9  1  0.56118000  0.76603000  0.51054000  1.0
  H  H10  1  0.43882000  0.23397000  0.48946000  1.0
  H  H11  1  0.75576000  0.03349000  0.51747000  1.0
  H  H12  1  0.24424000  0.96651000  0.48253000  1.0
  H  H13  1  0.69616000  0.21272000  0.52810000  1.0
  H  H14  1  0.30384000  0.78728000  0.47190000  1.0
  H  H15  1  0.81872000  0.32935000  0.55309000  1.0
  H  H16  1  0.18128000  0.67066000  0.44690000  1.0
  H  H17  1  0.89811000  0.12195000  0.74469000  1.0
  H  H18  1  0.10188000  0.87806000  0.25530000  1.0
  H  H19  1  0.76565000  0.01120000  0.72201000  1.0
  H  H20  1  0.23435000  0.98880000  0.27799000  1.0
  H  H21  1  0.55723000  0.99921000  0.69721000  1.0
  H  H22  1  0.44278000  0.00080000  0.30279000  1.0
  H  H23  1  0.39637000  0.94733000  0.74738000  1.0
  H  H24  1  0.60364000  0.05266000  0.25262000  1.0
  H  H25  1  0.26900000  0.83872000  0.81598000  1.0
  H  H26  1  0.73100000  0.16127000  0.18402000  1.0
  H  H27  1  0.33241000  0.62863000  0.70050000  1.0
  H  H28  1  0.66759000  0.37137000  0.29950000  1.0
  H  H29  1  0.46953000  0.72730000  0.62650000  1.0
  H  H30  1  0.53046000  0.27270000  0.37350000  1.0
  H  H31  1  0.83102000  0.40272000  0.21747000  1.0
  H  H32  1  0.16898000  0.59728000  0.78253000  1.0
  H  H33  1  0.73926000  0.53155000  0.28579000  1.0
  H  H34  1  0.26074000  0.46846000  0.71421000  1.0
  H  H35  1  0.95268000  0.73679000  0.19267000  1.0
  H  H36  1  0.04732000  0.26321000  0.80733000  1.0
  H  H37  1  0.05307000  0.61663000  0.11932000  1.0
  H  H38  1  0.94694000  0.38337000  0.88068000  1.0
  H  H39  1  0.89984000  0.31706000  0.14659000  1.0
  H  H40  1  0.10016000  0.68294000  0.85341000  1.0
  H  H41  1  0.99746000  0.11950000  0.16310000  1.0
  H  H42  1  0.00254000  0.88050000  0.83690000  1.0
  H  H43  1  0.89011000  0.98357000  0.15458000  1.0
  H  H44  1  0.10990000  0.01643000  0.84542000  1.0
  H  H45  1  0.83740000  0.12738000  0.95215000  1.0
  H  H46  1  0.16260000  0.87262000  0.04785000  1.0
  H  H47  1  0.96094000  0.25424000  0.95951000  1.0
  H  H48  1  0.03906000  0.74576000  0.04049000  1.0
  H  H49  1  0.16586000  0.28449000  0.98850000  1.0
  H  H50  1  0.83415000  0.71551000  0.01150000  1.0
  H  H51  1  0.23865000  0.57904000  0.04336000  1.0
  H  H52  1  0.76135000  0.42096000  0.95664000  1.0
  H  H53  1  0.38703000  0.66627000  0.97091000  1.0
  H  H54  1  0.61297000  0.33373000  0.02909000  1.0
  H  H55  1  0.44545000  0.44917000  0.86021000  1.0
  H  H56  1  0.55455000  0.55083000  0.13979000  1.0
  H  H57  1  0.30710000  0.35011000  0.92864000  1.0
  H  H58  1  0.69290000  0.64989000  0.07136000  1.0
  H  H59  1  0.46938000  0.30096000  0.10600000  1.0
  H  H60  1  0.53062000  0.69904000  0.89400000  1.0
  H  H61  1  0.54310000  0.19168000  0.02608000  1.0
  H  H62  1  0.45690000  0.80832000  0.97392000  1.0
  H  H63  1  0.32259000  0.98681000  0.10901000  1.0
  H  H64  1  0.67741000  0.01319000  0.89100000  1.0
  H  H65  1  0.23616000  0.08908000  0.19177000  1.0
  H  H66  1  0.76384000  0.91092000  0.80823000  1.0
  H  H67  1  0.39198000  0.38867000  0.16925000  1.0
  H  H68  1  0.60802000  0.61133000  0.83075000  1.0
  H  H69  1  0.28085000  0.58761000  0.15338000  1.0
  H  H70  1  0.71915000  0.41239000  0.84662000  1.0
  H  H71  1  0.37532000  0.73415000  0.15696000  1.0
  H  H72  1  0.62468000  0.26585000  0.84304000  1.0
  H  H73  1  0.46041000  0.58969000  0.35783000  1.0
  H  H74  1  0.53959000  0.41031000  0.64217000  1.0
  H  H75  1  0.34941000  0.45188000  0.35612000  1.0
  H  H76  1  0.65059000  0.54812000  0.64388000  1.0
  H  H77  1  0.14354000  0.41608000  0.33297000  1.0
  H  H78  1  0.85646000  0.58392000  0.66703000  1.0
  H  H79  1  0.09746000  0.29618000  0.41664000  1.0
  H  H80  1  0.90254000  0.70381000  0.58336000  1.0
  H  H81  1  0.95688000  0.20235000  0.49015000  1.0
  H  H82  1  0.04312000  0.79765000  0.50985000  1.0
  H  H83  1  0.87186000  0.07156000  0.35288000  1.0
  H  H84  1  0.12815000  0.92843000  0.64712000  1.0
  H  H85  1  0.01302000  0.15698000  0.27423000  1.0
  H  H86  1  0.98698000  0.84301000  0.72577000  1.0
  H  H87  1  0.73043000  0.90442000  0.17484000  1.0
  H  H88  1  0.26956000  0.09558000  0.82516000  1.0
  H  H89  1  0.60145000  0.88792000  0.21088000  1.0
  H  H90  1  0.39855000  0.11208000  0.78912000  1.0
  H  H91  1  0.34244000  0.16017000  0.90963000  1.0
  H  H92  1  0.65756000  0.83982000  0.09037000  1.0
  H  H93  1  0.46788000  0.17955000  0.87231000  1.0
  H  H94  1  0.53212000  0.82045000  0.12769000  1.0
  C  C95  1  0.75302000  0.91948000  0.43402000  1.0
  C  C96  1  0.24698000  0.08052000  0.56598000  1.0
  C  C97  1  0.77640000  0.88012000  0.38040000  1.0
  C  C98  1  0.22359000  0.11988000  0.61960000  1.0
  C  C99  1  0.65088000  0.76374000  0.41916000  1.0
  C  C100  1  0.34912000  0.23626000  0.58084000  1.0
  C  C101  1  0.62361000  0.79879000  0.47412000  1.0
  C  C102  1  0.37639000  0.20121000  0.52589000  1.0
  C  C103  1  0.67430000  0.87898000  0.48261000  1.0
  C  C104  1  0.32570000  0.12101000  0.51739000  1.0
  C  C105  1  0.64278000  0.91823000  0.54072000  1.0
  C  C106  1  0.35722000  0.08177000  0.45928000  1.0
  C  C107  1  0.69152000  0.99763000  0.55158000  1.0
  C  C108  1  0.30848000  0.00237000  0.44842000  1.0
  C  C109  1  0.66281000  0.02708000  0.60901000  1.0
  C  C110  1  0.33720000  0.97292000  0.39099000  1.0
  C  C111  1  0.72315000  0.10342000  0.62361000  1.0
  C  C112  1  0.27685000  0.89659000  0.37639000  1.0
  C  C113  1  0.73774000  0.19403000  0.57608000  1.0
  C  C114  1  0.26226000  0.80597000  0.42392000  1.0
  C  C115  1  0.80716000  0.25854000  0.58947000  1.0
  C  C116  1  0.19284000  0.74147000  0.41053000  1.0
  C  C117  1  0.86835000  0.23139000  0.64978000  1.0
  C  C118  1  0.13164000  0.76862000  0.35022000  1.0
  C  C119  1  0.96043000  0.29193000  0.66003000  1.0
  C  C120  1  0.03956000  0.70807000  0.33998000  1.0
  C  C121  1  0.85095000  0.14284000  0.69772000  1.0
  C  C122  1  0.14904000  0.85716000  0.30228000  1.0
  C  C123  1  0.77681000  0.08134000  0.68511000  1.0
  C  C124  1  0.22319000  0.91866000  0.31489000  1.0
  C  C125  1  0.58209000  0.97770000  0.65230000  1.0
  C  C126  1  0.41791000  0.02230000  0.34770000  1.0
  C  C127  1  0.53426000  0.90087000  0.63714000  1.0
  C  C128  1  0.46574000  0.09912000  0.36286000  1.0
  C  C129  1  0.44882000  0.84455000  0.68040000  1.0
  C  C130  1  0.55118000  0.15545000  0.31960000  1.0
  C  C131  1  0.38900000  0.87619000  0.73447000  1.0
  C  C132  1  0.61101000  0.12381000  0.26553000  1.0
  C  C133  1  0.31419000  0.81558000  0.77331000  1.0
  C  C134  1  0.68581000  0.18441000  0.22669000  1.0
  C  C135  1  0.34953000  0.69947000  0.70981000  1.0
  C  C136  1  0.65047000  0.30053000  0.29019000  1.0
  C  C137  1  0.42628000  0.75404000  0.66825000  1.0
  C  C138  1  0.57373000  0.24596000  0.33175000  1.0
  C  C139  1  0.86221000  0.47533000  0.21002000  1.0
  C  C140  1  0.13779000  0.52467000  0.78998000  1.0
  C  C141  1  0.81025000  0.54655000  0.24843000  1.0
  C  C142  1  0.18975000  0.45345000  0.75157000  1.0
  C  C143  1  0.92871000  0.66235000  0.19611000  1.0
  C  C144  1  0.07129000  0.33765000  0.80389000  1.0
  C  C145  1  0.98394000  0.59572000  0.15599000  1.0
  C  C146  1  0.01607000  0.40428000  0.84402000  1.0
  C  C147  1  0.95212000  0.49968000  0.16220000  1.0
  C  C148  1  0.04789000  0.50032000  0.83780000  1.0
  C  C149  1  0.01272000  0.43146000  0.11768000  1.0
  C  C150  1  0.98728000  0.56854000  0.88232000  1.0
  C  C151  1  0.97571000  0.34154000  0.11498000  1.0
  C  C152  1  0.02429000  0.65846000  0.88502000  1.0
  C  C153  1  0.03048000  0.28763000  0.06769000  1.0
  C  C154  1  0.96952000  0.71237000  0.93231000  1.0
  C  C155  1  0.98301000  0.19829000  0.06197000  1.0
  C  C156  1  0.01699000  0.80171000  0.93804000  1.0
  C  C157  1  0.96479000  0.11994000  0.11659000  1.0
  C  C158  1  0.03521000  0.88006000  0.88341000  1.0
  C  C159  1  0.90365000  0.04439000  0.11202000  1.0
  C  C160  1  0.09635000  0.95561000  0.88798000  1.0
  C  C161  1  0.85307000  0.04956000  0.05296000  1.0
  C  C162  1  0.14693000  0.95044000  0.94704000  1.0
  C  C163  1  0.76867000  0.97987000  0.04982000  1.0
  C  C164  1  0.23134000  0.02013000  0.95018000  1.0
  C  C165  1  0.87524000  0.12498000  0.99802000  1.0
  C  C166  1  0.12476000  0.87502000  0.00198000  1.0
  C  C167  1  0.94327000  0.19610000  0.00232000  1.0
  C  C168  1  0.05673000  0.80389000  0.99768000  1.0
  C  C169  1  0.12202000  0.32507000  0.02562000  1.0
  C  C170  1  0.87798000  0.67493000  0.97438000  1.0
  C  C171  1  0.15821000  0.41320000  0.03319000  1.0
  C  C172  1  0.84179000  0.58680000  0.96681000  1.0
  C  C173  1  0.25493000  0.45914000  0.99192000  1.0
  C  C174  1  0.74507000  0.54086000  0.00808000  1.0
  C  C175  1  0.28313000  0.54811000  0.00308000  1.0
  C  C176  1  0.71687000  0.45189000  0.99692000  1.0
  C  C177  1  0.36586000  0.59667000  0.96217000  1.0
  C  C178  1  0.63413000  0.40333000  0.03783000  1.0
  C  C179  1  0.39865000  0.47628000  0.90154000  1.0
  C  C180  1  0.60134000  0.52372000  0.09846000  1.0
  C  C181  1  0.31771000  0.42137000  0.94007000  1.0
  C  C182  1  0.68229000  0.57863000  0.05993000  1.0
  C  C183  1  0.43384000  0.23186000  0.10892000  1.0
  C  C184  1  0.56616000  0.76813000  0.89108000  1.0
  C  C185  1  0.47628000  0.17154000  0.06436000  1.0
  C  C186  1  0.52372000  0.82846000  0.93564000  1.0
  C  C187  1  0.35242000  0.05666000  0.11040000  1.0
  C  C188  1  0.64758000  0.94334000  0.88961000  1.0
  C  C189  1  0.30531000  0.11346000  0.15615000  1.0
  C  C190  1  0.69468000  0.88654000  0.84385000  1.0
  C  C191  1  0.34439000  0.20397000  0.15612000  1.0
  C  C192  1  0.65561000  0.79603000  0.84388000  1.0
  C  C193  1  0.28967000  0.26722000  0.20371000  1.0
  C  C194  1  0.71033000  0.73278000  0.79629000  1.0
  C  C195  1  0.32291000  0.36030000  0.20386000  1.0
  C  C196  1  0.67709000  0.63970000  0.79614000  1.0
  C  C197  1  0.27158000  0.41431000  0.25131000  1.0
  C  C198  1  0.72842000  0.58569000  0.74869000  1.0
  C  C199  1  0.31259000  0.50817000  0.25420000  1.0
  C  C200  1  0.68741000  0.49183000  0.74580000  1.0
  C  C201  1  0.31755000  0.58963000  0.19846000  1.0
  C  C202  1  0.68245000  0.41037000  0.80154000  1.0
  C  C203  1  0.37139000  0.67086000  0.20024000  1.0
  C  C204  1  0.62860000  0.32914000  0.79976000  1.0
  C  C205  1  0.42813000  0.66822000  0.25728000  1.0
  C  C206  1  0.57186000  0.33178000  0.74272000  1.0
  C  C207  1  0.50634000  0.74395000  0.25635000  1.0
  C  C208  1  0.49365000  0.25605000  0.74364000  1.0
  C  C209  1  0.41856000  0.58966000  0.31347000  1.0
  C  C210  1  0.58144000  0.41034000  0.68653000  1.0
  C  C211  1  0.35751000  0.51254000  0.31230000  1.0
  C  C212  1  0.64249000  0.48746000  0.68770000  1.0
  C  C213  1  0.18763000  0.37351000  0.29663000  1.0
  C  C214  1  0.81237000  0.62649000  0.70337000  1.0
  C  C215  1  0.15701000  0.28123000  0.29239000  1.0
  C  C216  1  0.84299000  0.71877000  0.70761000  1.0
  C  C217  1  0.06817000  0.23382000  0.33837000  1.0
  C  C218  1  0.93183000  0.76618000  0.66163000  1.0
  C  C219  1  0.04851000  0.24790000  0.39995000  1.0
  C  C220  1  0.95149000  0.75209000  0.60005000  1.0
  C  C221  1  0.96955000  0.19491000  0.44145000  1.0
  C  C222  1  0.03045000  0.80509000  0.55855000  1.0
  C  C223  1  0.92440000  0.12090000  0.36623000  1.0
  C  C224  1  0.07560000  0.87910000  0.63377000  1.0
  C  C225  1  0.00280000  0.16888000  0.32176000  1.0
  C  C226  1  0.99720000  0.83112000  0.67824000  1.0
  N  N227  1  0.72645000  0.80351000  0.37274000  1.0
  N  N228  1  0.27355000  0.19649000  0.62726000  1.0
  N  N229  1  0.56613000  0.87128000  0.58269000  1.0
  N  N230  1  0.43387000  0.12872000  0.41731000  1.0
  N  N231  1  0.29327000  0.72823000  0.76215000  1.0
  N  N232  1  0.70673000  0.27177000  0.23785000  1.0
  N  N233  1  0.84257000  0.63851000  0.24187000  1.0
  N  N234  1  0.15743000  0.36150000  0.75813000  1.0
  N  N235  1  0.10306000  0.46469000  0.07809000  1.0
  N  N236  1  0.89694000  0.53531000  0.92191000  1.0
  N  N237  1  0.42342000  0.56315000  0.91131000  1.0
  N  N238  1  0.57658000  0.43685000  0.08869000  1.0
  N  N239  1  0.43648000  0.08531000  0.06481000  1.0
  N  N240  1  0.56352000  0.91469000  0.93520000  1.0
  N  N241  1  0.20695000  0.22964000  0.24676000  1.0
  N  N242  1  0.79305000  0.77036000  0.75324000  1.0
  N  N243  1  0.90738000  0.13177000  0.42575000  1.0
  N  N244  1  0.09262000  0.86823000  0.57425000  1.0
  O  O245  1  0.59263000  0.71363000  0.30302000  1.0
  O  O246  1  0.40738000  0.28637000  0.69697000  1.0
  O  O247  1  0.48726000  0.82899000  0.20948000  1.0
  O  O248  1  0.51274000  0.17101000  0.79052000  1.0
  O  O249  1  0.68659000  0.01633000  0.00116000  1.0
  O  O250  1  0.31341000  0.98367000  0.99884000  1.0
  O  O251  1  0.77933000  0.89412000  0.09525000  1.0
  O  O252  1  0.22067000  0.10588000  0.90475000  1.0
  O  O253  1  0.05106000  0.23285000  0.70638000  1.0
  O  O254  1  0.94893000  0.76715000  0.29362000  1.0
  O  O255  1  0.95211000  0.38458000  0.62451000  1.0
  O  O256  1  0.04788000  0.61544000  0.37550000  1.0
  O  O257  1  0.68477000  0.90710000  0.21564000  1.0
  O  O258  1  0.31523000  0.09291000  0.78436000  1.0
  O  O259  1  0.42470000  0.18059000  0.91369000  1.0
  O  O260  1  0.57530000  0.81940000  0.08631000  1.0
