# generated using pymatgen
data_CuH6C4O5
_symmetry_space_group_name_H-M   'P 1'
_cell_length_a   6.76537000
_cell_length_b   7.22438000
_cell_length_c   7.90862000
_cell_angle_alpha   67.85480000
_cell_angle_beta   72.59440000
_cell_angle_gamma   65.51780000
_symmetry_Int_Tables_number   1
_chemical_formula_structural   CuH6C4O5
_chemical_formula_sum   'Cu2 H12 C8 O10'
_cell_volume   321.11691981
_cell_formula_units_Z   2
loop_
 _symmetry_equiv_pos_site_id
 _symmetry_equiv_pos_as_xyz
  1  'x, y, z'
loop_
 _atom_site_type_symbol
 _atom_site_label
 _atom_site_symmetry_multiplicity
 _atom_site_fract_x
 _atom_site_fract_y
 _atom_site_fract_z
 _atom_site_occupancy
  Cu  Cu0  1  0.62126000  0.81777000  0.97546000  1.0
  Cu  Cu1  1  0.37875000  0.18221000  0.02454000  1.0
  H  H2  1  0.71247000  0.44047000  0.90580000  1.0
  H  H3  1  0.28752000  0.55953000  0.09421000  1.0
  H  H4  1  0.95286000  0.42818000  0.89237000  1.0
  H  H5  1  0.04714000  0.57180000  0.10764000  1.0
  H  H6  1  0.90821000  0.41347000  0.61790000  1.0
  H  H7  1  0.09179000  0.58653000  0.38210000  1.0
  H  H8  1  0.88124000  0.29758000  0.46910000  1.0
  H  H9  1  0.11876000  0.70243000  0.53090000  1.0
  H  H10  1  0.19688000  0.96505000  0.58074000  1.0
  H  H11  1  0.80312000  0.03495000  0.41925000  1.0
  H  H12  1  0.27280000  0.19222000  0.46144000  1.0
  H  H13  1  0.72720000  0.80778000  0.53856000  1.0
  C  C14  1  0.77910000  0.16010000  0.75314000  1.0
  C  C15  1  0.22089000  0.83991000  0.24686000  1.0
  C  C16  1  0.93411000  0.26143000  0.60044000  1.0
  C  C17  1  0.06589000  0.73858000  0.39956000  1.0
  C  C18  1  0.17535000  0.12025000  0.58900000  1.0
  C  C19  1  0.82465000  0.87975000  0.41100000  1.0
  C  C20  1  0.28468000  0.08088000  0.74671000  1.0
  C  C21  1  0.71533000  0.91912000  0.25328000  1.0
  O  O22  1  0.82393000  0.96196000  0.78836000  1.0
  O  O23  1  0.17608000  0.03805000  0.21163000  1.0
  O  O24  1  0.61165000  0.28515000  0.83219000  1.0
  O  O25  1  0.38833000  0.71485000  0.16780000  1.0
  O  O26  1  0.44006000  0.90393000  0.78457000  1.0
  O  O27  1  0.55996000  0.09607000  0.21542000  1.0
  O  O28  1  0.22167000  0.22661000  0.82553000  1.0
  O  O29  1  0.77834000  0.77338000  0.17448000  1.0
  O  O30  1  0.79761000  0.50505000  0.93310000  1.0
  O  O31  1  0.20239000  0.49494000  0.06691000  1.0
