# generated using pymatgen
data_ZnH18C26N4O5
_symmetry_space_group_name_H-M   'P 1'
_cell_length_a   8.63214000
_cell_length_b   11.00620000
_cell_length_c   14.34340000
_cell_angle_alpha   111.76100000
_cell_angle_beta   100.44800000
_cell_angle_gamma   98.38150000
_symmetry_Int_Tables_number   1
_chemical_formula_structural   ZnH18C26N4O5
_chemical_formula_sum   'Zn2 H36 C52 N8 O10'
_cell_volume   1210.31333868
_cell_formula_units_Z   2
loop_
 _symmetry_equiv_pos_site_id
 _symmetry_equiv_pos_as_xyz
  1  'x, y, z'
loop_
 _atom_site_type_symbol
 _atom_site_label
 _atom_site_symmetry_multiplicity
 _atom_site_fract_x
 _atom_site_fract_y
 _atom_site_fract_z
 _atom_site_occupancy
  Zn  Zn0  1  0.13663000  0.77802000  0.87964000  1.0
  Zn  Zn1  1  0.86337000  0.22198000  0.12036000  1.0
  H  H2  1  0.16468000  0.47008000  0.49943000  1.0
  H  H3  1  0.83532000  0.52992000  0.50057000  1.0
  H  H4  1  0.33684000  0.32585000  0.41131000  1.0
  H  H5  1  0.66316000  0.67415000  0.58869000  1.0
  H  H6  1  0.54534000  0.29728000  0.69696000  1.0
  H  H7  1  0.45466000  0.70271000  0.30304000  1.0
  H  H8  1  0.37721000  0.44825000  0.78636000  1.0
  H  H9  1  0.62279000  0.55175000  0.21364000  1.0
  H  H10  1  0.65043000  0.23187000  0.34098000  1.0
  H  H11  1  0.34957000  0.76813000  0.65901000  1.0
  H  H12  1  0.51935000  0.06357000  0.15682000  1.0
  H  H13  1  0.48065000  0.93643000  0.84317000  1.0
  H  H14  1  0.18962000  0.85058000  0.26491000  1.0
  H  H15  1  0.81038000  0.14941000  0.73509000  1.0
  H  H16  1  0.31625000  0.01991000  0.44898000  1.0
  H  H17  1  0.68376000  0.98009000  0.55102000  1.0
  H  H18  1  0.02004000  0.78258000  0.65831000  1.0
  H  H19  1  0.97996000  0.21742000  0.34169000  1.0
  H  H20  1  0.25575000  0.10212000  0.94663000  1.0
  H  H21  1  0.74424000  0.89788000  0.05337000  1.0
  H  H22  1  0.21676000  0.20597000  0.79582000  1.0
  H  H23  1  0.78323000  0.79403000  0.20418000  1.0
  H  H24  1  0.04162000  0.20867000  0.65880000  1.0
  H  H25  1  0.95837000  0.79132000  0.34120000  1.0
  H  H26  1  0.05388000  0.78962000  0.51204000  1.0
  H  H27  1  0.94612000  0.21037000  0.48796000  1.0
  H  H28  1  0.92579000  0.61178000  0.97287000  1.0
  H  H29  1  0.07420000  0.38822000  0.02713000  1.0
  H  H30  1  0.78570000  0.82475000  0.79343000  1.0
  H  H31  1  0.21430000  0.17525000  0.20657000  1.0
  H  H32  1  0.51090000  0.71146000  0.83770000  1.0
  H  H33  1  0.48910000  0.28854000  0.16230000  1.0
  H  H34  1  0.71858000  0.40623000  0.92720000  1.0
  H  H35  1  0.28142000  0.59378000  0.07280000  1.0
  H  H36  1  0.44674000  0.71508000  0.99722000  1.0
  H  H37  1  0.55326000  0.28493000  0.00279000  1.0
  C  C38  1  0.17238000  0.56957000  0.70447000  1.0
  C  C39  1  0.82761000  0.43043000  0.29553000  1.0
  C  C40  1  0.26251000  0.47047000  0.64941000  1.0
  C  C41  1  0.73749000  0.52953000  0.35059000  1.0
  C  C42  1  0.24863000  0.43302000  0.54292000  1.0
  C  C43  1  0.75137000  0.56698000  0.45708000  1.0
  C  C44  1  0.34349000  0.35115000  0.49320000  1.0
  C  C45  1  0.65652000  0.64885000  0.50680000  1.0
  C  C46  1  0.45184000  0.30495000  0.54993000  1.0
  C  C47  1  0.54816000  0.69505000  0.45007000  1.0
  C  C48  1  0.46307000  0.33726000  0.65516000  1.0
  C  C49  1  0.53694000  0.66274000  0.34484000  1.0
  C  C50  1  0.36896000  0.42046000  0.70412000  1.0
  C  C51  1  0.63104000  0.57954000  0.29588000  1.0
  C  C52  1  0.48823000  0.13487000  0.40353000  1.0
  C  C53  1  0.51177000  0.86513000  0.59647000  1.0
  C  C54  1  0.55033000  0.14735000  0.32332000  1.0
  C  C55  1  0.44967000  0.85265000  0.67668000  1.0
  C  C56  1  0.47755000  0.05401000  0.22152000  1.0
  C  C57  1  0.52245000  0.94600000  0.77847000  1.0
  C  C58  1  0.34550000  0.94875000  0.20039000  1.0
  C  C59  1  0.65450000  0.05125000  0.79961000  1.0
  C  C60  1  0.29046000  0.93465000  0.28287000  1.0
  C  C61  1  0.70954000  0.06535000  0.71713000  1.0
  C  C62  1  0.36031000  0.02782000  0.38441000  1.0
  C  C63  1  0.63969000  0.97218000  0.61559000  1.0
  C  C64  1  0.25620000  0.85359000  0.09161000  1.0
  C  C65  1  0.74380000  0.14640000  0.90839000  1.0
  C  C66  1  0.07744000  0.88395000  0.71569000  1.0
  C  C67  1  0.92256000  0.11604000  0.28431000  1.0
  C  C68  1  0.19940000  0.05284000  0.86395000  1.0
  C  C69  1  0.80060000  0.94716000  0.13605000  1.0
  C  C70  1  0.17981000  0.10484000  0.79046000  1.0
  C  C71  1  0.82018000  0.89516000  0.20954000  1.0
  C  C72  1  0.02506000  0.11727000  0.58952000  1.0
  C  C73  1  0.97494000  0.88272000  0.41048000  1.0
  C  C74  1  0.05352000  0.99912000  0.59731000  1.0
  C  C75  1  0.94648000  0.00087000  0.40269000  1.0
  C  C76  1  0.02913000  0.88176000  0.50751000  1.0
  C  C77  1  0.97087000  0.11823000  0.49249000  1.0
  C  C78  1  0.85080000  0.64994000  0.92637000  1.0
  C  C79  1  0.14919000  0.35006000  0.07364000  1.0
  C  C80  1  0.77342000  0.76245000  0.83615000  1.0
  C  C81  1  0.22659000  0.23756000  0.16385000  1.0
  C  C82  1  0.63773000  0.71018000  0.85842000  1.0
  C  C83  1  0.36227000  0.28982000  0.14158000  1.0
  C  C84  1  0.59302000  0.56889000  0.95854000  1.0
  C  C85  1  0.40698000  0.43112000  0.04146000  1.0
  C  C86  1  0.62401000  0.44840000  0.95971000  1.0
  C  C87  1  0.37599000  0.55161000  0.04030000  1.0
  C  C88  1  0.46962000  0.62104000  0.99848000  1.0
  C  C89  1  0.53039000  0.37897000  0.00153000  1.0
  N  N90  1  0.13553000  0.91544000  0.81618000  1.0
  N  N91  1  0.86447000  0.08455000  0.18382000  1.0
  N  N92  1  0.10255000  0.99654000  0.69640000  1.0
  N  N93  1  0.89745000  0.00346000  0.30360000  1.0
  N  N94  1  0.90477000  0.72474000  0.87934000  1.0
  N  N95  1  0.09523000  0.27526000  0.12066000  1.0
  N  N96  1  0.68908000  0.63877000  0.91543000  1.0
  N  N97  1  0.31092000  0.36123000  0.08457000  1.0
  O  O98  1  0.55553000  0.23004000  0.50492000  1.0
  O  O99  1  0.44447000  0.76996000  0.49507000  1.0
  O  O100  1  0.05216000  0.59114000  0.65522000  1.0
  O  O101  1  0.94785000  0.40886000  0.34478000  1.0
  O  O102  1  0.23433000  0.63272000  0.80494000  1.0
  O  O103  1  0.76567000  0.36727000  0.19506000  1.0
  O  O104  1  0.28713000  0.88858000  0.01837000  1.0
  O  O105  1  0.71287000  0.11142000  0.98163000  1.0
  O  O106  1  0.15756000  0.74852000  0.07654000  1.0
  O  O107  1  0.84244000  0.25149000  0.92346000  1.0
