# generated using pymatgen
data_CaH14C24(NO2)4
_symmetry_space_group_name_H-M   'P 1'
_cell_length_a   9.40204000
_cell_length_b   9.40390000
_cell_length_c   13.17651218
_cell_angle_alpha   110.48572141
_cell_angle_beta   98.27429083
_cell_angle_gamma   107.91200000
_symmetry_Int_Tables_number   1
_chemical_formula_structural   CaH14C24(NO2)4
_chemical_formula_sum   'Ca2 H28 C48 N8 O16'
_cell_volume   996.22969825
_cell_formula_units_Z   2
loop_
 _symmetry_equiv_pos_site_id
 _symmetry_equiv_pos_as_xyz
  1  'x, y, z'
loop_
 _atom_site_type_symbol
 _atom_site_label
 _atom_site_symmetry_multiplicity
 _atom_site_fract_x
 _atom_site_fract_y
 _atom_site_fract_z
 _atom_site_occupancy
  Ca  Ca0  1  0.81100000  0.06102000  0.24997000  1.0
  Ca  Ca1  1  0.18900000  0.93898000  0.75003000  1.0
  H  H2  1  0.13952000  0.98231000  0.25263000  1.0
  H  H3  1  0.72958000  0.38700000  0.24745000  1.0
  H  H4  1  0.86048000  0.01769000  0.74737000  1.0
  H  H5  1  0.27042000  0.61300000  0.75255000  1.0
  H  H6  1  0.47483000  0.30623000  0.15933000  1.0
  H  H7  1  0.14686000  0.81543000  0.34066000  1.0
  H  H8  1  0.52517000  0.69377000  0.84067000  1.0
  H  H9  1  0.85313000  0.18456000  0.65933000  1.0
  H  H10  1  0.25941000  0.35736000  0.06815000  1.0
  H  H11  1  0.28916000  0.69126000  0.43192000  1.0
  H  H12  1  0.74058000  0.64264000  0.93185000  1.0
  H  H13  1  0.71084000  0.30874000  0.56808000  1.0
  H  H14  1  0.05853000  0.33548000  0.96073000  1.0
  H  H15  1  0.37481000  0.59746000  0.53903000  1.0
  H  H16  1  0.94146000  0.66452000  0.03927000  1.0
  H  H17  1  0.62519000  0.40254000  0.46097000  1.0
  H  H18  1  0.82063000  0.36929000  0.87931000  1.0
  H  H19  1  0.48973000  0.44100000  0.62060000  1.0
  H  H20  1  0.17937000  0.63071000  0.12069000  1.0
  H  H21  1  0.51026000  0.55900000  0.37940000  1.0
  H  H22  1  0.58056000  0.12042000  0.06117000  1.0
  H  H23  1  0.05891000  0.01933000  0.43873000  1.0
  H  H24  1  0.41944000  0.87958000  0.93883000  1.0
  H  H25  1  0.94108000  0.98066000  0.56126000  1.0
  H  H26  1  0.43771000  0.38125000  0.85218000  1.0
  H  H27  1  0.52889000  0.08545000  0.64788000  1.0
  H  H28  1  0.56229000  0.61875000  0.14782000  1.0
  H  H29  1  0.47111000  0.91455000  0.35212000  1.0
  C  C30  1  0.17012000  0.06699000  0.21302000  1.0
  C  C31  1  0.85388000  0.45717000  0.28705000  1.0
  C  C32  1  0.82988000  0.93301000  0.78698000  1.0
  C  C33  1  0.14612000  0.54283000  0.71295000  1.0
  C  C34  1  0.32473000  0.13688000  0.21243000  1.0
  C  C35  1  0.92443000  0.61228000  0.28757000  1.0
  C  C36  1  0.67527000  0.86312000  0.78757000  1.0
  C  C37  1  0.07557000  0.38773000  0.71243000  1.0
  C  C38  1  0.35638000  0.24515000  0.16044000  1.0
  C  C39  1  0.08468000  0.69591000  0.33956000  1.0
  C  C40  1  0.64362000  0.75485000  0.83956000  1.0
  C  C41  1  0.91532000  0.30409000  0.66044000  1.0
  C  C42  1  0.23442000  0.27403000  0.10919000  1.0
  C  C43  1  0.16479000  0.62523000  0.39084000  1.0
  C  C44  1  0.76558000  0.72597000  0.89081000  1.0
  C  C45  1  0.83521000  0.37477000  0.60916000  1.0
  C  C46  1  0.08315000  0.19741000  0.11332000  1.0
  C  C47  1  0.08399000  0.46984000  0.38669000  1.0
  C  C48  1  0.91685000  0.80259000  0.88668000  1.0
  C  C49  1  0.91601000  0.53016000  0.61331000  1.0
  C  C50  1  0.94617000  0.21825000  0.05924000  1.0
  C  C51  1  0.15895000  0.38679000  0.44058000  1.0
  C  C52  1  0.05383000  0.78175000  0.94076000  1.0
  C  C53  1  0.84105000  0.61321000  0.55942000  1.0
  C  C54  1  0.95215000  0.29397000  0.98428000  1.0
  C  C55  1  0.30965000  0.46757000  0.51546000  1.0
  C  C56  1  0.04785000  0.70604000  0.01572000  1.0
  C  C57  1  0.69035000  0.53243000  0.48454000  1.0
  C  C58  1  0.81957000  0.31164000  0.93807000  1.0
  C  C59  1  0.37337000  0.38121000  0.56180000  1.0
  C  C60  1  0.18043000  0.68836000  0.06193000  1.0
  C  C61  1  0.62663000  0.61879000  0.43820000  1.0
  C  C62  1  0.68197000  0.24885000  0.96484000  1.0
  C  C63  1  0.28371000  0.21693000  0.53509000  1.0
  C  C64  1  0.31802000  0.75115000  0.03516000  1.0
  C  C65  1  0.71629000  0.78307000  0.46491000  1.0
  C  C66  1  0.68472000  0.17039000  0.03735000  1.0
  C  C67  1  0.13275000  0.14728000  0.46255000  1.0
  C  C68  1  0.31528000  0.82960000  0.96265000  1.0
  C  C69  1  0.86725000  0.85272000  0.53745000  1.0
  C  C70  1  0.44586000  0.08888000  0.26428000  1.0
  C  C71  1  0.82467000  0.68154000  0.23563000  1.0
  C  C72  1  0.55414000  0.91113000  0.73572000  1.0
  C  C73  1  0.17533000  0.31846000  0.76437000  1.0
  C  C74  1  0.53377000  0.25856000  0.91668000  1.0
  C  C75  1  0.34152000  0.11684000  0.58324000  1.0
  C  C76  1  0.46623000  0.74144000  0.08332000  1.0
  C  C77  1  0.65848000  0.88316000  0.41676000  1.0
  N  N78  1  0.05312000  0.09803000  0.16776000  1.0
  N  N79  1  0.93016000  0.38543000  0.33231000  1.0
  N  N80  1  0.94688000  0.90197000  0.83224000  1.0
  N  N81  1  0.06984000  0.61457000  0.66769000  1.0
  N  N82  1  0.81268000  0.15720000  0.08473000  1.0
  N  N83  1  0.07230000  0.22790000  0.41516000  1.0
  N  N84  1  0.18732000  0.84280000  0.91527000  1.0
  N  N85  1  0.92770000  0.77210000  0.58484000  1.0
  O  O86  1  0.39583000  0.99618000  0.31403000  1.0
  O  O87  1  0.68225000  0.58176000  0.18588000  1.0
  O  O88  1  0.60418000  0.00383000  0.68598000  1.0
  O  O89  1  0.31775000  0.41824000  0.81412000  1.0
  O  O90  1  0.58161000  0.13826000  0.25403000  1.0
  O  O91  1  0.88433000  0.82745000  0.24579000  1.0
  O  O92  1  0.41839000  0.86174000  0.74597000  1.0
  O  O93  1  0.11567000  0.17255000  0.75421000  1.0
  O  O94  1  0.55090667  0.37754000  0.88424000  1.0
  O  O95  1  0.49294000  0.16650000  0.61578000  1.0
  O  O96  1  0.44909333  0.62246000  0.11576000  1.0
  O  O97  1  0.50706000  0.83350000  0.38422000  1.0
  O  O98  1  0.40537000  0.15767000  0.90857000  1.0
  O  O99  1  0.24872000  0.99646000  0.59123000  1.0
  O  O100  1  0.59462000  0.84233000  0.09143000  1.0
  O  O101  1  0.75128000  0.00354000  0.40877000  1.0
