# generated using pymatgen
data_Zn3Si2H34(C7O2)8
_symmetry_space_group_name_H-M   'P 1'
_cell_length_a   13.77910000
_cell_length_b   14.64410000
_cell_length_c   24.14920000
_cell_angle_alpha   79.92260000
_cell_angle_beta   73.45060000
_cell_angle_gamma   61.96250000
_symmetry_Int_Tables_number   1
_chemical_formula_structural   Zn3Si2H34(C7O2)8
_chemical_formula_sum   'Zn6 Si4 H68 C112 O32'
_cell_volume   4117.96923945
_cell_formula_units_Z   2
loop_
 _symmetry_equiv_pos_site_id
 _symmetry_equiv_pos_as_xyz
  1  'x, y, z'
loop_
 _atom_site_type_symbol
 _atom_site_label
 _atom_site_symmetry_multiplicity
 _atom_site_fract_x
 _atom_site_fract_y
 _atom_site_fract_z
 _atom_site_occupancy
  Zn  Zn0  1  0.27387000  0.07425000  0.96208000  1.0
  Zn  Zn1  1  0.31001000  0.42582000  0.53797000  1.0
  Zn  Zn2  1  0.72613000  0.92575000  0.03792000  1.0
  Zn  Zn3  1  0.68999000  0.57418000  0.46203000  1.0
  Zn  Zn4  1  0.50000000  0.00000000  0.00000000  1.0
  Zn  Zn5  1  0.50000000  0.50000000  0.50000000  1.0
  Si  Si6  1  0.64617000  0.44575000  0.83604000  1.0
  Si  Si7  1  0.92764000  0.05417000  0.66405000  1.0
  Si  Si8  1  0.35383000  0.55425000  0.16396000  1.0
  Si  Si9  1  0.07237000  0.94583000  0.33595000  1.0
  H  H10  1  0.27418000  0.19099000  0.86176000  1.0
  H  H11  1  0.46459000  0.83623000  0.82491000  1.0
  H  H12  1  0.55246000  0.66298000  0.78382000  1.0
  H  H13  1  0.60678000  0.51788000  0.95156000  1.0
  H  H14  1  0.52577000  0.69143000  0.99035000  1.0
  H  H15  1  0.55381000  0.14446000  0.88062000  1.0
  H  H16  1  0.41143000  0.51649000  0.91276000  1.0
  H  H17  1  0.28614000  0.42902000  0.95239000  1.0
  H  H18  1  0.82050000  0.43914000  0.72136000  1.0
  H  H19  1  0.80029000  0.48462000  0.62004000  1.0
  H  H20  1  0.45655000  0.53006000  0.67378000  1.0
  H  H21  1  0.47279000  0.48922000  0.77620000  1.0
  H  H22  1  0.76059000  0.24942000  0.90651000  1.0
  H  H23  1  0.95258000  0.15700000  0.92554000  1.0
  H  H24  1  0.04835000  0.37728000  0.81136000  1.0
  H  H25  1  0.85410000  0.47548000  0.79642000  1.0
  H  H26  1  0.67707000  0.23073000  0.83707000  1.0
  H  H27  1  0.32669000  0.30897000  0.63836000  1.0
  H  H28  1  0.12619000  0.66368000  0.67499000  1.0
  H  H29  1  0.99925000  0.83684000  0.71613000  1.0
  H  H30  1  0.07568000  0.98238000  0.54852000  1.0
  H  H31  1  0.20731000  0.80895000  0.50964000  1.0
  H  H32  1  0.57892000  0.35547000  0.61944000  1.0
  H  H33  1  0.84032000  0.98354000  0.58720000  1.0
  H  H34  1  0.66724000  0.07110000  0.54751000  1.0
  H  H35  1  0.98072000  0.06066000  0.77887000  1.0
  H  H36  1  0.90445000  0.01522000  0.88015000  1.0
  H  H37  1  0.65995000  0.96992000  0.82609000  1.0
  H  H38  1  0.73803000  0.01074000  0.72371000  1.0
  H  H39  1  0.91633000  0.25056000  0.59350000  1.0
  H  H40  1  0.03515000  0.34279000  0.57435000  1.0
  H  H41  1  0.23684000  0.12257000  0.68863000  1.0
  H  H42  1  0.12577000  0.02438000  0.70360000  1.0
  H  H43  1  0.74473000  0.26913000  0.66307000  1.0
  H  H44  1  0.72582000  0.80901000  0.13824000  1.0
  H  H45  1  0.53542000  0.16377000  0.17509000  1.0
  H  H46  1  0.44754000  0.33702000  0.21618000  1.0
  H  H47  1  0.39321000  0.48212000  0.04844000  1.0
  H  H48  1  0.47423000  0.30857000  0.00965000  1.0
  H  H49  1  0.44619000  0.85554000  0.11938000  1.0
  H  H50  1  0.58857000  0.48351000  0.08724000  1.0
  H  H51  1  0.71385000  0.57098000  0.04761000  1.0
  H  H52  1  0.17949000  0.56086000  0.27864000  1.0
  H  H53  1  0.19971000  0.51539000  0.37996000  1.0
  H  H54  1  0.54345000  0.46994000  0.32622000  1.0
  H  H55  1  0.52721000  0.51078000  0.22381000  1.0
  H  H56  1  0.23940000  0.75059000  0.09349000  1.0
  H  H57  1  0.04741000  0.84301000  0.07446000  1.0
  H  H58  1  0.95165000  0.62272000  0.18864000  1.0
  H  H59  1  0.14590000  0.52453000  0.20359000  1.0
  H  H60  1  0.32293000  0.76927000  0.16293000  1.0
  H  H61  1  0.67331000  0.69103000  0.36164000  1.0
  H  H62  1  0.87381000  0.33631000  0.32501000  1.0
  H  H63  1  0.00075000  0.16316000  0.28387000  1.0
  H  H64  1  0.92432000  0.01762000  0.45148000  1.0
  H  H65  1  0.79269000  0.19105000  0.49036000  1.0
  H  H66  1  0.42108000  0.64453000  0.38056000  1.0
  H  H67  1  0.15968000  0.01646000  0.41280000  1.0
  H  H68  1  0.33276000  0.92889000  0.45249000  1.0
  H  H69  1  0.01929000  0.93933000  0.22113000  1.0
  H  H70  1  0.09556000  0.98477000  0.11985000  1.0
  H  H71  1  0.34005000  0.03008000  0.17391000  1.0
  H  H72  1  0.26197000  0.98927000  0.27629000  1.0
  H  H73  1  0.08367000  0.74944000  0.40650000  1.0
  H  H74  1  0.96485000  0.65721000  0.42565000  1.0
  H  H75  1  0.76317000  0.87743000  0.31137000  1.0
  H  H76  1  0.87423000  0.97562000  0.29640000  1.0
  H  H77  1  0.25526000  0.73087000  0.33693000  1.0
  C  C78  1  0.43796000  0.87722000  0.93513000  1.0
  C  C79  1  0.49056000  0.77374000  0.90999000  1.0
  C  C80  1  0.49735000  0.76575000  0.85194000  1.0
  C  C81  1  0.54599000  0.66838000  0.82936000  1.0
  C  C82  1  0.58553000  0.57753000  0.86458000  1.0
  C  C83  1  0.57714000  0.58700000  0.92298000  1.0
  C  C84  1  0.53144000  0.68390000  0.94535000  1.0
  C  C85  1  0.41330000  0.28139000  0.91931000  1.0
  C  C86  1  0.52357000  0.22599000  0.88701000  1.0
  C  C87  1  0.55419000  0.38011000  0.87264000  1.0
  C  C88  1  0.44320000  0.43488000  0.90518000  1.0
  C  C89  1  0.37263000  0.38668000  0.92768000  1.0
  C  C90  1  0.33845000  0.22916000  0.94317000  1.0
  C  C91  1  0.73941000  0.46051000  0.71198000  1.0
  C  C92  1  0.72937000  0.48519000  0.65480000  1.0
  C  C93  1  0.62721000  0.51063000  0.64106000  1.0
  C  C94  1  0.53520000  0.51126000  0.68514000  1.0
  C  C95  1  0.54531000  0.48799000  0.74223000  1.0
  C  C96  1  0.64736000  0.46258000  0.75682000  1.0
  C  C97  1  0.79333000  0.36822000  0.84882000  1.0
  C  C98  1  0.01249000  0.26018000  0.86876000  1.0
  C  C99  1  0.12362000  0.20518000  0.88315000  1.0
  C  C100  1  0.82289000  0.27816000  0.88542000  1.0
  C  C101  1  0.93060000  0.22529000  0.89604000  1.0
  C  C102  1  0.98516000  0.34940000  0.83168000  1.0
  C  C103  1  0.87598000  0.40341000  0.82301000  1.0
  C  C104  1  0.61704000  0.53277000  0.57966000  1.0
  C  C105  1  0.59249000  0.27513000  0.86335000  1.0
  C  C106  1  0.25056000  0.62297000  0.56481000  1.0
  C  C107  1  0.17444000  0.72642000  0.58994000  1.0
  C  C108  1  0.11529000  0.73421000  0.64799000  1.0
  C  C109  1  0.04382000  0.83151000  0.67061000  1.0
  C  C110  1  0.02735000  0.92248000  0.63544000  1.0
  C  C111  1  0.08679000  0.91318000  0.57704000  1.0
  C  C112  1  0.16059000  0.81636000  0.55464000  1.0
  C  C113  1  0.61375000  0.21864000  0.58071000  1.0
  C  C114  1  0.63645000  0.27395000  0.61305000  1.0
  C  C115  1  0.80667000  0.11983000  0.62742000  1.0
  C  C116  1  0.78292000  0.06512000  0.59483000  1.0
  C  C117  1  0.68666000  0.11335000  0.57233000  1.0
  C  C118  1  0.51053000  0.27098000  0.55683000  1.0
  C  C119  1  0.91156000  0.03933000  0.78819000  1.0
  C  C120  1  0.86892000  0.01468000  0.84533000  1.0
  C  C121  1  0.77841000  0.98927000  0.85895000  1.0
  C  C122  1  0.73117000  0.98871000  0.81481000  1.0
  C  C123  1  0.77526000  0.01190000  0.75775000  1.0
  C  C124  1  0.86655000  0.03721000  0.74327000  1.0
  C  C125  1  0.01004000  0.13174000  0.65126000  1.0
  C  C126  1  0.14134000  0.23967000  0.63121000  1.0
  C  C127  1  0.21180000  0.29474000  0.61690000  1.0
  C  C128  1  0.98633000  0.22172000  0.61459000  1.0
  C  C129  1  0.05191000  0.27454000  0.60389000  1.0
  C  C130  1  0.16607000  0.15046000  0.66831000  1.0
  C  C131  1  0.10218000  0.09645000  0.67700000  1.0
  C  C132  1  0.72903000  0.96701000  0.92030000  1.0
  C  C133  1  0.73080000  0.22477000  0.63675000  1.0
  C  C134  1  0.56204000  0.12278000  0.06488000  1.0
  C  C135  1  0.50944000  0.22626000  0.09001000  1.0
  C  C136  1  0.50265000  0.23425000  0.14806000  1.0
  C  C137  1  0.45400000  0.33162000  0.17064000  1.0
  C  C138  1  0.41447000  0.42247000  0.13542000  1.0
  C  C139  1  0.42286000  0.41300000  0.07701000  1.0
  C  C140  1  0.46857000  0.31610000  0.05465000  1.0
  C  C141  1  0.58670000  0.71861000  0.08069000  1.0
  C  C142  1  0.47644000  0.77401000  0.11298000  1.0
  C  C143  1  0.44581000  0.61989000  0.12736000  1.0
  C  C144  1  0.55680000  0.56513000  0.09482000  1.0
  C  C145  1  0.62737000  0.61332000  0.07232000  1.0
  C  C146  1  0.66155000  0.77084000  0.05683000  1.0
  C  C147  1  0.26059000  0.53949000  0.28802000  1.0
  C  C148  1  0.27063000  0.51481000  0.34520000  1.0
  C  C149  1  0.37279000  0.48937000  0.35894000  1.0
  C  C150  1  0.46480000  0.48874000  0.31486000  1.0
  C  C151  1  0.45469000  0.51201000  0.25777000  1.0
  C  C152  1  0.35264000  0.53742000  0.24318000  1.0
  C  C153  1  0.20667000  0.63178000  0.15118000  1.0
  C  C154  1  0.98750000  0.73982000  0.13124000  1.0
  C  C155  1  0.87637000  0.79482000  0.11686000  1.0
  C  C156  1  0.17711000  0.72185000  0.11458000  1.0
  C  C157  1  0.06940000  0.77472000  0.10396000  1.0
  C  C158  1  0.01483000  0.65060000  0.16832000  1.0
  C  C159  1  0.12402000  0.59659000  0.17699000  1.0
  C  C160  1  0.38296000  0.46723000  0.42034000  1.0
  C  C161  1  0.40751000  0.72487000  0.13665000  1.0
  C  C162  1  0.74945000  0.37703000  0.43519000  1.0
  C  C163  1  0.82557000  0.27358000  0.41006000  1.0
  C  C164  1  0.88471000  0.26579000  0.35201000  1.0
  C  C165  1  0.95618000  0.16849000  0.32939000  1.0
  C  C166  1  0.97266000  0.07752000  0.36456000  1.0
  C  C167  1  0.91321000  0.08682000  0.42296000  1.0
  C  C168  1  0.83941000  0.18364000  0.44536000  1.0
  C  C169  1  0.38625000  0.78136000  0.41929000  1.0
  C  C170  1  0.36355000  0.72605000  0.38695000  1.0
  C  C171  1  0.19332000  0.88017000  0.37258000  1.0
  C  C172  1  0.21708000  0.93488000  0.40518000  1.0
  C  C173  1  0.31334000  0.88665000  0.42767000  1.0
  C  C174  1  0.48948000  0.72902000  0.44317000  1.0
  C  C175  1  0.08845000  0.96067000  0.21181000  1.0
  C  C176  1  0.13109000  0.98532000  0.15467000  1.0
  C  C177  1  0.22159000  0.01073000  0.14105000  1.0
  C  C178  1  0.26883000  0.01129000  0.18519000  1.0
  C  C179  1  0.22474000  0.98810000  0.24225000  1.0
  C  C180  1  0.13346000  0.96280000  0.25673000  1.0
  C  C181  1  0.98996000  0.86826000  0.34874000  1.0
  C  C182  1  0.85866000  0.76033000  0.36879000  1.0
  C  C183  1  0.78820000  0.70526000  0.38310000  1.0
  C  C184  1  0.01367000  0.77828000  0.38541000  1.0
  C  C185  1  0.94809000  0.72546000  0.39612000  1.0
  C  C186  1  0.83393000  0.84954000  0.33168000  1.0
  C  C187  1  0.89783000  0.90355000  0.32299000  1.0
  C  C188  1  0.27097000  0.03299000  0.07971000  1.0
  C  C189  1  0.26920000  0.77523000  0.36325000  1.0
  O  O190  1  0.35770000  0.95049000  0.91405000  1.0
  O  O191  1  0.47300000  0.88560000  0.97642000  1.0
  O  O192  1  0.69845000  0.54451000  0.54233000  1.0
  O  O193  1  0.52986000  0.53757000  0.56891000  1.0
  O  O194  1  0.23506000  0.27812000  0.96254000  1.0
  O  O195  1  0.38886000  0.12703000  0.93869000  1.0
  O  O196  1  0.13869000  0.14419000  0.92629000  1.0
  O  O197  1  0.20516000  0.22606000  0.84694000  1.0
  O  O198  1  0.22255000  0.54964000  0.58588000  1.0
  O  O199  1  0.33533000  0.61466000  0.52362000  1.0
  O  O200  1  0.78496000  0.95518000  0.95760000  1.0
  O  O201  1  0.63590000  0.96221000  0.93105000  1.0
  O  O202  1  0.47522000  0.22202000  0.53759000  1.0
  O  O203  1  0.45459000  0.37316000  0.56117000  1.0
  O  O204  1  0.20895000  0.35589000  0.57382000  1.0
  O  O205  1  0.27802000  0.27380000  0.65312000  1.0
  O  O206  1  0.64230000  0.04951000  0.08595000  1.0
  O  O207  1  0.52700000  0.11440000  0.02358000  1.0
  O  O208  1  0.30154000  0.45549000  0.45767000  1.0
  O  O209  1  0.47014000  0.46242000  0.43109000  1.0
  O  O210  1  0.76494000  0.72189000  0.03746000  1.0
  O  O211  1  0.61113000  0.87298000  0.06131000  1.0
  O  O212  1  0.86130000  0.85581000  0.07372000  1.0
  O  O213  1  0.79483000  0.77394000  0.15307000  1.0
  O  O214  1  0.77745000  0.45036000  0.41412000  1.0
  O  O215  1  0.66468000  0.38534000  0.47638000  1.0
  O  O216  1  0.21504000  0.04482000  0.04240000  1.0
  O  O217  1  0.36410000  0.03779000  0.06895000  1.0
  O  O218  1  0.52479000  0.77798000  0.46240000  1.0
  O  O219  1  0.54541000  0.62684000  0.43883000  1.0
  O  O220  1  0.79105000  0.64411000  0.42618000  1.0
  O  O221  1  0.72199000  0.72620000  0.34688000  1.0
