# generated using pymatgen
data_AgH8(C3N2)3
_symmetry_space_group_name_H-M   'P 1'
_cell_length_a   5.33965000
_cell_length_b   12.29170000
_cell_length_c   14.81650000
_cell_angle_alpha   88.93270000
_cell_angle_beta   89.99880000
_cell_angle_gamma   89.99950000
_symmetry_Int_Tables_number   1
_chemical_formula_structural   AgH8(C3N2)3
_chemical_formula_sum   'Ag4 H32 C36 N24'
_cell_volume   972.28819812
_cell_formula_units_Z   4
loop_
 _symmetry_equiv_pos_site_id
 _symmetry_equiv_pos_as_xyz
  1  'x, y, z'
loop_
 _atom_site_type_symbol
 _atom_site_label
 _atom_site_symmetry_multiplicity
 _atom_site_fract_x
 _atom_site_fract_y
 _atom_site_fract_z
 _atom_site_occupancy
  Ag  Ag0  1  0.81359000  0.59744000  0.99741000  1.0
  Ag  Ag1  1  0.31359000  0.90256000  0.00260000  1.0
  Ag  Ag2  1  0.18641000  0.40256000  0.00259000  1.0
  Ag  Ag3  1  0.68641000  0.09743000  0.99741000  1.0
  H  H4  1  0.33811000  0.69323000  0.88590000  1.0
  H  H5  1  0.83813000  0.80676000  0.11410000  1.0
  H  H6  1  0.66188000  0.30677000  0.11410000  1.0
  H  H7  1  0.16189000  0.19324000  0.88590000  1.0
  H  H8  1  0.49894000  0.64478000  0.65219000  1.0
  H  H9  1  0.99894000  0.85522000  0.34781000  1.0
  H  H10  1  0.50106000  0.35523000  0.34782000  1.0
  H  H11  1  0.00108000  0.14477000  0.65219000  1.0
  H  H12  1  0.54442000  0.73782000  0.74100000  1.0
  H  H13  1  0.04443000  0.76218000  0.25900000  1.0
  H  H14  1  0.45556000  0.26219000  0.25900000  1.0
  H  H15  1  0.95557000  0.23782000  0.74100000  1.0
  H  H16  1  0.55765000  0.78276000  0.53346000  1.0
  H  H17  1  0.05763000  0.71724000  0.46654000  1.0
  H  H18  1  0.44235000  0.21724000  0.46653000  1.0
  H  H19  1  0.94236000  0.28275000  0.53346000  1.0
  H  H20  1  0.37463000  0.92565000  0.43941000  1.0
  H  H21  1  0.87461000  0.57436000  0.56059000  1.0
  H  H22  1  0.62538000  0.07436000  0.56059000  1.0
  H  H23  1  0.12538000  0.42564000  0.43941000  1.0
  H  H24  1  0.77696000  0.96091000  0.63375000  1.0
  H  H25  1  0.27698000  0.53909000  0.36625000  1.0
  H  H26  1  0.22304000  0.03910000  0.36625000  1.0
  H  H27  1  0.72302000  0.46090000  0.63375000  1.0
  H  H28  1  0.97281000  0.82112000  0.73010000  1.0
  H  H29  1  0.47284000  0.67887000  0.26990000  1.0
  H  H30  1  0.02718000  0.17889000  0.26990000  1.0
  H  H31  1  0.52716000  0.32112000  0.73010000  1.0
  H  H32  1  0.74786000  0.49961000  0.78949000  1.0
  H  H33  1  0.24784000  0.00038000  0.21052000  1.0
  H  H34  1  0.25214000  0.50040000  0.21051000  1.0
  H  H35  1  0.75215000  0.99960000  0.78949000  1.0
  C  C36  1  0.20929000  0.64806000  0.84399000  1.0
  C  C37  1  0.70929000  0.85194000  0.15601000  1.0
  C  C38  1  0.79071000  0.35194000  0.15601000  1.0
  C  C39  1  0.29071000  0.14807000  0.84399000  1.0
  C  C40  1  0.40353000  0.70322000  0.69552000  1.0
  C  C41  1  0.90354000  0.79678000  0.30448000  1.0
  C  C42  1  0.59646000  0.29679000  0.30448000  1.0
  C  C43  1  0.09647000  0.20321000  0.69553000  1.0
  C  C44  1  0.27919000  0.79114000  0.63875000  1.0
  C  C45  1  0.77919000  0.70885000  0.36125000  1.0
  C  C46  1  0.72080000  0.20886000  0.36125000  1.0
  C  C47  1  0.22080000  0.29114000  0.63875000  1.0
  C  C48  1  0.38819000  0.82302000  0.55662000  1.0
  C  C49  1  0.88819000  0.67697000  0.44338000  1.0
  C  C50  1  0.61181000  0.17698000  0.44338000  1.0
  C  C51  1  0.11180000  0.32302000  0.55662000  1.0
  C  C52  1  0.28177000  0.90492000  0.50293000  1.0
  C  C53  1  0.78175000  0.59508000  0.49706000  1.0
  C  C54  1  0.71824000  0.09509000  0.49707000  1.0
  C  C55  1  0.21825000  0.40491000  0.50293000  1.0
  C  C56  1  0.05905000  0.95725000  0.52881000  1.0
  C  C57  1  0.55906000  0.54275000  0.47119000  1.0
  C  C58  1  0.94096000  0.04276000  0.47119000  1.0
  C  C59  1  0.44094000  0.45724000  0.52881000  1.0
  C  C60  1  0.95137000  0.92415000  0.61163000  1.0
  C  C61  1  0.45138000  0.57584000  0.38837000  1.0
  C  C62  1  0.04863000  0.07586000  0.38837000  1.0
  C  C63  1  0.54862000  0.42415000  0.61163000  1.0
  C  C64  1  0.06008000  0.84346000  0.66589000  1.0
  C  C65  1  0.56011000  0.65654000  0.33411000  1.0
  C  C66  1  0.93992000  0.15655000  0.33410000  1.0
  C  C67  1  0.43990000  0.34345000  0.66589000  1.0
  C  C68  1  0.91465000  0.54999000  0.79154000  1.0
  C  C69  1  0.41463000  0.95000000  0.20846000  1.0
  C  C70  1  0.08535000  0.45001000  0.20845000  1.0
  C  C71  1  0.58535000  0.04999000  0.79155000  1.0
  N  N72  1  0.04150000  0.58181000  0.71883000  1.0
  N  N73  1  0.54149000  0.91819000  0.28117000  1.0
  N  N74  1  0.95849000  0.41820000  0.28116000  1.0
  N  N75  1  0.45851000  0.08180000  0.71884000  1.0
  N  N76  1  0.01051000  0.58904000  0.87020000  1.0
  N  N77  1  0.51050000  0.91095000  0.12980000  1.0
  N  N78  1  0.98949000  0.41096000  0.12980000  1.0
  N  N79  1  0.48949000  0.08904000  0.87021000  1.0
  N  N80  1  0.22847000  0.64398000  0.75363000  1.0
  N  N81  1  0.72847000  0.85602000  0.24637000  1.0
  N  N82  1  0.77153000  0.35603000  0.24637000  1.0
  N  N83  1  0.27154000  0.14398000  0.75363000  1.0
  N  N84  1  0.53049000  0.59674000  0.09985000  1.0
  N  N85  1  0.03051000  0.90327000  0.90015000  1.0
  N  N86  1  0.46952000  0.40326000  0.90015000  1.0
  N  N87  1  0.96949000  0.09673000  0.09986000  1.0
  N  N88  1  0.34519000  0.65002000  0.08964000  1.0
  N  N89  1  0.84520000  0.84998000  0.91036000  1.0
  N  N90  1  0.65480000  0.34999000  0.91036000  1.0
  N  N91  1  0.15479000  0.15002000  0.08964000  1.0
  N  N92  1  0.15802000  0.70090000  0.08268000  1.0
  N  N93  1  0.65806000  0.79910000  0.91732000  1.0
  N  N94  1  0.84197000  0.29910000  0.91733000  1.0
  N  N95  1  0.34195000  0.20090000  0.08268000  1.0
