# generated using pymatgen
data_CdH8C6(SN3)2
_symmetry_space_group_name_H-M   'P 1'
_cell_length_a   8.13488000
_cell_length_b   10.17480000
_cell_length_c   13.06610000
_cell_angle_alpha   90.00010000
_cell_angle_beta   90.00050000
_cell_angle_gamma   90.00000000
_symmetry_Int_Tables_number   1
_chemical_formula_structural   CdH8C6(SN3)2
_chemical_formula_sum   'Cd4 H32 C24 S8 N24'
_cell_volume   1081.49124963
_cell_formula_units_Z   4
loop_
 _symmetry_equiv_pos_site_id
 _symmetry_equiv_pos_as_xyz
  1  'x, y, z'
loop_
 _atom_site_type_symbol
 _atom_site_label
 _atom_site_symmetry_multiplicity
 _atom_site_fract_x
 _atom_site_fract_y
 _atom_site_fract_z
 _atom_site_occupancy
  Cd  Cd0  1  0.75000000  0.41375000  0.50000000  1.0
  Cd  Cd1  1  0.25000000  0.08625000  0.00000000  1.0
  Cd  Cd2  1  0.25000000  0.58625000  0.50000000  1.0
  Cd  Cd3  1  0.75000000  0.91375000  0.00000000  1.0
  H  H4  1  0.35151000  0.00767000  0.58559000  1.0
  H  H5  1  0.85153000  0.49233000  0.91441000  1.0
  H  H6  1  0.14849000  0.00767000  0.41441000  1.0
  H  H7  1  0.64847000  0.49233000  0.08559000  1.0
  H  H8  1  0.64847000  0.99233000  0.41441000  1.0
  H  H9  1  0.14847000  0.50767000  0.08559000  1.0
  H  H10  1  0.85153000  0.99233000  0.58560000  1.0
  H  H11  1  0.35153000  0.50767000  0.91440000  1.0
  H  H12  1  0.11633000  0.11107000  0.68532000  1.0
  H  H13  1  0.61633000  0.38893000  0.81468000  1.0
  H  H14  1  0.38367000  0.11107000  0.31468000  1.0
  H  H15  1  0.88367000  0.38893000  0.18532000  1.0
  H  H16  1  0.88367000  0.88893000  0.31468000  1.0
  H  H17  1  0.38367000  0.61107000  0.18532000  1.0
  H  H18  1  0.61633000  0.88893000  0.68532000  1.0
  H  H19  1  0.11633000  0.61107000  0.81468000  1.0
  H  H20  1  0.07571000  0.27686000  0.64432000  1.0
  H  H21  1  0.57572000  0.22314000  0.85568000  1.0
  H  H22  1  0.42429000  0.27686000  0.35568000  1.0
  H  H23  1  0.92428000  0.22314000  0.14432000  1.0
  H  H24  1  0.92428000  0.72314000  0.35568000  1.0
  H  H25  1  0.42428000  0.77686000  0.14432000  1.0
  H  H26  1  0.57572000  0.72314000  0.64432000  1.0
  H  H27  1  0.07572000  0.77685000  0.85568000  1.0
  H  H28  1  0.18214000  0.24765000  0.76127000  1.0
  H  H29  1  0.68214000  0.25236000  0.73873000  1.0
  H  H30  1  0.31786000  0.24765000  0.23873000  1.0
  H  H31  1  0.81785000  0.25236000  0.26127000  1.0
  H  H32  1  0.81785000  0.75236000  0.23873000  1.0
  H  H33  1  0.31786000  0.74765000  0.26127000  1.0
  H  H34  1  0.68214000  0.75236000  0.76127000  1.0
  H  H35  1  0.18214000  0.74764000  0.73873000  1.0
  C  C36  1  0.41626000  0.32060000  0.61011000  1.0
  C  C37  1  0.91626000  0.17940000  0.88989000  1.0
  C  C38  1  0.08374000  0.32060000  0.38989000  1.0
  C  C39  1  0.58374000  0.17940000  0.11010000  1.0
  C  C40  1  0.58374000  0.67940000  0.38990000  1.0
  C  C41  1  0.08373000  0.82060000  0.11011000  1.0
  C  C42  1  0.91626000  0.67940000  0.61011000  1.0
  C  C43  1  0.41626000  0.82060000  0.88989000  1.0
  C  C44  1  0.39932000  0.10725000  0.58648000  1.0
  C  C45  1  0.89933000  0.39274000  0.91352000  1.0
  C  C46  1  0.10068000  0.10725000  0.41352000  1.0
  C  C47  1  0.60067000  0.39274000  0.08648000  1.0
  C  C48  1  0.60067000  0.89275000  0.41352000  1.0
  C  C49  1  0.10067000  0.60726000  0.08648000  1.0
  C  C50  1  0.89934000  0.89274000  0.58649000  1.0
  C  C51  1  0.39933000  0.60726000  0.91352000  1.0
  C  C52  1  0.16344000  0.21180000  0.68302000  1.0
  C  C53  1  0.66344000  0.28820000  0.81698000  1.0
  C  C54  1  0.33657000  0.21180000  0.31698000  1.0
  C  C55  1  0.83656000  0.28820000  0.18302000  1.0
  C  C56  1  0.83656000  0.78820000  0.31698000  1.0
  C  C57  1  0.33656000  0.71180000  0.18302000  1.0
  C  C58  1  0.66344000  0.78820000  0.68302000  1.0
  C  C59  1  0.16344000  0.71180000  0.81698000  1.0
  S  S60  1  0.37649000  0.47651000  0.65398000  1.0
  S  S61  1  0.87648000  0.02348000  0.84602000  1.0
  S  S62  1  0.12351000  0.47651000  0.34601000  1.0
  S  S63  1  0.62351000  0.02349000  0.15398000  1.0
  S  S64  1  0.62351000  0.52349000  0.34601000  1.0
  S  S65  1  0.12351000  0.97652000  0.15399000  1.0
  S  S66  1  0.87649000  0.52348000  0.65398000  1.0
  S  S67  1  0.37649000  0.97651000  0.84601000  1.0
  N  N68  1  0.31926000  0.21228000  0.62849000  1.0
  N  N69  1  0.81926000  0.28772000  0.87151000  1.0
  N  N70  1  0.18075000  0.21228000  0.37152000  1.0
  N  N71  1  0.68074000  0.28772000  0.12849000  1.0
  N  N72  1  0.68074000  0.78772000  0.37151000  1.0
  N  N73  1  0.18074000  0.71228000  0.12849000  1.0
  N  N74  1  0.81926000  0.78772000  0.62849000  1.0
  N  N75  1  0.31926000  0.71228000  0.87151000  1.0
  N  N76  1  0.54933000  0.27842000  0.55894000  1.0
  N  N77  1  0.04933000  0.22157000  0.94106000  1.0
  N  N78  1  0.95067000  0.27842000  0.44106000  1.0
  N  N79  1  0.45067000  0.22157000  0.05894000  1.0
  N  N80  1  0.45067000  0.72158000  0.44106000  1.0
  N  N81  1  0.95067000  0.77842000  0.05894000  1.0
  N  N82  1  0.04933000  0.72158000  0.55894000  1.0
  N  N83  1  0.54933000  0.77842000  0.94106000  1.0
  N  N84  1  0.53858000  0.14470000  0.54369000  1.0
  N  N85  1  0.03859000  0.35529000  0.95630000  1.0
  N  N86  1  0.96142000  0.14470000  0.45631000  1.0
  N  N87  1  0.46141000  0.35529000  0.04370000  1.0
  N  N88  1  0.46141000  0.85529000  0.45630000  1.0
  N  N89  1  0.96141000  0.64471000  0.04370000  1.0
  N  N90  1  0.03859000  0.85529000  0.54370000  1.0
  N  N91  1  0.53859000  0.64471000  0.95630000  1.0
