# generated using pymatgen
data_CdH16C24(NO2)2
_symmetry_space_group_name_H-M   'P 1'
_cell_length_a   10.36880000
_cell_length_b   15.05300000
_cell_length_c   15.54900000
_cell_angle_alpha   89.99990000
_cell_angle_beta   90.00000000
_cell_angle_gamma   102.00500000
_symmetry_Int_Tables_number   1
_chemical_formula_structural   CdH16C24(NO2)2
_chemical_formula_sum   'Cd4 H64 C96 N8 O16'
_cell_volume   2373.83407348
_cell_formula_units_Z   4
loop_
 _symmetry_equiv_pos_site_id
 _symmetry_equiv_pos_as_xyz
  1  'x, y, z'
loop_
 _atom_site_type_symbol
 _atom_site_label
 _atom_site_symmetry_multiplicity
 _atom_site_fract_x
 _atom_site_fract_y
 _atom_site_fract_z
 _atom_site_occupancy
  Cd  Cd0  1  0.12962000  0.46945000  0.42181000  1.0
  Cd  Cd1  1  0.87038000  0.03055000  0.92181000  1.0
  Cd  Cd2  1  0.87038000  0.53055000  0.57819000  1.0
  Cd  Cd3  1  0.12962000  0.96945000  0.07819000  1.0
  H  H4  1  0.07182000  0.73804000  0.61317000  1.0
  H  H5  1  0.92818000  0.76195000  0.11317000  1.0
  H  H6  1  0.92819000  0.26196000  0.38683000  1.0
  H  H7  1  0.07181000  0.23804000  0.88684000  1.0
  H  H8  1  0.37925000  0.98124000  0.62533000  1.0
  H  H9  1  0.62075000  0.51876000  0.12534000  1.0
  H  H10  1  0.62076000  0.01876000  0.37467000  1.0
  H  H11  1  0.37924000  0.48124000  0.87467000  1.0
  H  H12  1  0.51083000  0.91431000  0.52221000  1.0
  H  H13  1  0.48917000  0.58569000  0.02221000  1.0
  H  H14  1  0.48917000  0.08570000  0.47779000  1.0
  H  H15  1  0.51083000  0.41430000  0.97779000  1.0
  H  H16  1  0.42282000  0.75785000  0.46323000  1.0
  H  H17  1  0.57718000  0.74215000  0.96323000  1.0
  H  H18  1  0.57718000  0.24215000  0.53677000  1.0
  H  H19  1  0.42282000  0.25785000  0.03677000  1.0
  H  H20  1  0.84024000  0.87215000  0.79427000  1.0
  H  H21  1  0.15976000  0.62785000  0.29427000  1.0
  H  H22  1  0.15977000  0.12785000  0.20573000  1.0
  H  H23  1  0.84024000  0.37215000  0.70573000  1.0
  H  H24  1  0.95518000  0.80169000  0.68293000  1.0
  H  H25  1  0.04482000  0.69831000  0.18293000  1.0
  H  H26  1  0.04482000  0.19831000  0.31707000  1.0
  H  H27  1  0.95518000  0.30169000  0.81707000  1.0
  H  H28  1  0.29614000  0.01878000  0.72925000  1.0
  H  H29  1  0.70386000  0.48122000  0.22925000  1.0
  H  H30  1  0.70386000  0.98122000  0.27076000  1.0
  H  H31  1  0.29614000  0.51878000  0.77076000  1.0
  H  H32  1  0.16218000  0.08178000  0.83400000  1.0
  H  H33  1  0.83782000  0.41822000  0.33401000  1.0
  H  H34  1  0.83782000  0.91822000  0.16600000  1.0
  H  H35  1  0.16218000  0.58178000  0.66600000  1.0
  H  H36  1  0.47233000  0.43633000  0.21986000  1.0
  H  H37  1  0.52767000  0.06367000  0.71986000  1.0
  H  H38  1  0.52767000  0.56367000  0.78014000  1.0
  H  H39  1  0.47233000  0.93633000  0.28014000  1.0
  H  H40  1  0.62525000  0.35437000  0.14294000  1.0
  H  H41  1  0.37475000  0.14563000  0.64293000  1.0
  H  H42  1  0.37475000  0.64563000  0.85706000  1.0
  H  H43  1  0.62525000  0.85437000  0.35706000  1.0
  H  H44  1  0.42564000  0.10347000  0.25936000  1.0
  H  H45  1  0.57435000  0.39653000  0.75936000  1.0
  H  H46  1  0.57435000  0.89653000  0.74064000  1.0
  H  H47  1  0.42564000  0.60347000  0.24064000  1.0
  H  H48  1  0.27903000  0.18726000  0.33785000  1.0
  H  H49  1  0.72097000  0.31274000  0.83785000  1.0
  H  H50  1  0.72097000  0.81274000  0.66215000  1.0
  H  H51  1  0.27902000  0.68726000  0.16215000  1.0
  H  H52  1  0.92337000  0.19917000  0.05071000  1.0
  H  H53  1  0.07663000  0.30083000  0.55071000  1.0
  H  H54  1  0.07663000  0.80083000  0.94929000  1.0
  H  H55  1  0.92337000  0.69917000  0.44929000  1.0
  H  H56  1  0.79746000  0.28209000  0.14810000  1.0
  H  H57  1  0.20254000  0.21791000  0.64810000  1.0
  H  H58  1  0.20254000  0.71791000  0.85190000  1.0
  H  H59  1  0.79746000  0.78209000  0.35190000  1.0
  H  H60  1  0.47078000  0.05059000  0.13005000  1.0
  H  H61  1  0.52922000  0.44941000  0.63005000  1.0
  H  H62  1  0.52923000  0.94941000  0.86995000  1.0
  H  H63  1  0.47077000  0.55059000  0.36995000  1.0
  H  H64  1  0.61311000  0.97732000  0.03597000  1.0
  H  H65  1  0.38689000  0.52268000  0.53597000  1.0
  H  H66  1  0.38689000  0.02268000  0.96403000  1.0
  H  H67  1  0.61311000  0.47732000  0.46403000  1.0
  C  C68  1  0.19086000  0.64781000  0.49733000  1.0
  C  C69  1  0.80915000  0.85219000  0.99734000  1.0
  C  C70  1  0.80915000  0.35220000  0.50266000  1.0
  C  C71  1  0.19086000  0.14780000  0.00267000  1.0
  C  C72  1  0.24237000  0.74032000  0.53486000  1.0
  C  C73  1  0.75763000  0.75968000  0.03486000  1.0
  C  C74  1  0.75763000  0.25968000  0.46514000  1.0
  C  C75  1  0.24237000  0.24032000  0.96514000  1.0
  C  C76  1  0.16792000  0.77793000  0.59446000  1.0
  C  C77  1  0.83208000  0.72207000  0.09446000  1.0
  C  C78  1  0.83208000  0.22207000  0.40554000  1.0
  C  C79  1  0.16792000  0.27793000  0.90554000  1.0
  C  C80  1  0.21590000  0.86479000  0.62920000  1.0
  C  C81  1  0.78409000  0.63521000  0.12920000  1.0
  C  C82  1  0.78410000  0.13522000  0.37080000  1.0
  C  C83  1  0.21591000  0.36478000  0.87080000  1.0
  C  C84  1  0.33990000  0.91309000  0.60115000  1.0
  C  C85  1  0.66010000  0.58691000  0.10115000  1.0
  C  C86  1  0.66010000  0.08692000  0.39885000  1.0
  C  C87  1  0.33990000  0.41308000  0.89885000  1.0
  C  C88  1  0.41458000  0.87559000  0.54219000  1.0
  C  C89  1  0.58542000  0.62441000  0.04219000  1.0
  C  C90  1  0.58542000  0.12441000  0.45781000  1.0
  C  C91  1  0.41458000  0.37559000  0.95781000  1.0
  C  C92  1  0.36669000  0.78896000  0.50930000  1.0
  C  C93  1  0.63331000  0.71104000  0.00930000  1.0
  C  C94  1  0.63331000  0.21104000  0.49070000  1.0
  C  C95  1  0.36669000  0.28896000  0.99070000  1.0
  C  C96  1  0.94107000  0.90323000  0.77604000  1.0
  C  C97  1  0.05894000  0.59677000  0.27604000  1.0
  C  C98  1  0.05894000  0.09678000  0.22396000  1.0
  C  C99  1  0.94107000  0.40322000  0.72396000  1.0
  C  C100  1  0.00764000  0.86388000  0.71395000  1.0
  C  C101  1  0.99236000  0.63612000  0.21395000  1.0
  C  C102  1  0.99236000  0.13612000  0.28605000  1.0
  C  C103  1  0.00764000  0.36388000  0.78605000  1.0
  C  C104  1  0.13893000  0.90437000  0.69353000  1.0
  C  C105  1  0.86107000  0.59563000  0.19353000  1.0
  C  C106  1  0.86108000  0.09563000  0.30647000  1.0
  C  C107  1  0.13892000  0.40437000  0.80647000  1.0
  C  C108  1  0.19419000  0.98433000  0.73847000  1.0
  C  C109  1  0.80581000  0.51567000  0.23847000  1.0
  C  C110  1  0.80582000  0.01567000  0.26153000  1.0
  C  C111  1  0.19419000  0.48433000  0.76153000  1.0
  C  C112  1  0.12017000  0.02012000  0.79851000  1.0
  C  C113  1  0.87983000  0.47988000  0.29851000  1.0
  C  C114  1  0.87983000  0.97988000  0.20149000  1.0
  C  C115  1  0.12017000  0.52011000  0.70149000  1.0
  C  C116  1  0.27199000  0.36648000  0.32530000  1.0
  C  C117  1  0.72802000  0.13352000  0.82530000  1.0
  C  C118  1  0.72801000  0.63352000  0.67470000  1.0
  C  C119  1  0.27198000  0.86648000  0.17470000  1.0
  C  C120  1  0.36569000  0.31664000  0.28241000  1.0
  C  C121  1  0.63431000  0.18336000  0.78241000  1.0
  C  C122  1  0.63431000  0.68336000  0.71759000  1.0
  C  C123  1  0.36569000  0.81664000  0.21759000  1.0
  C  C124  1  0.46542000  0.36359000  0.22869000  1.0
  C  C125  1  0.53458000  0.13641000  0.72869000  1.0
  C  C126  1  0.53458000  0.63641000  0.77131000  1.0
  C  C127  1  0.46542000  0.86359000  0.27130000  1.0
  C  C128  1  0.55043000  0.31774000  0.18672000  1.0
  C  C129  1  0.44957000  0.18225000  0.68672000  1.0
  C  C130  1  0.44956000  0.68226000  0.81328000  1.0
  C  C131  1  0.55043000  0.81774000  0.31328000  1.0
  C  C132  1  0.53710000  0.22334000  0.19640000  1.0
  C  C133  1  0.46289000  0.27666000  0.69640000  1.0
  C  C134  1  0.46290000  0.77666000  0.80360000  1.0
  C  C135  1  0.53710000  0.72334000  0.30360000  1.0
  C  C136  1  0.43821000  0.17672000  0.25134000  1.0
  C  C137  1  0.56179000  0.32328000  0.75134000  1.0
  C  C138  1  0.56179000  0.82328000  0.74866000  1.0
  C  C139  1  0.43821000  0.67672000  0.24866000  1.0
  C  C140  1  0.35482000  0.22312000  0.29448000  1.0
  C  C141  1  0.64518000  0.27688000  0.79448000  1.0
  C  C142  1  0.64518000  0.77688000  0.70552000  1.0
  C  C143  1  0.35482000  0.72312000  0.20552000  1.0
  C  C144  1  0.82274000  0.16924000  0.07027000  1.0
  C  C145  1  0.17726000  0.33076000  0.57027000  1.0
  C  C146  1  0.17726000  0.83076000  0.92973000  1.0
  C  C147  1  0.82274000  0.66924000  0.42972000  1.0
  C  C148  1  0.75123000  0.21512000  0.12369000  1.0
  C  C149  1  0.24877000  0.28488000  0.62369000  1.0
  C  C150  1  0.24877000  0.78488000  0.87630000  1.0
  C  C151  1  0.75123000  0.71512000  0.37630000  1.0
  C  C152  1  0.62086000  0.17458000  0.14590000  1.0
  C  C153  1  0.37914000  0.32542000  0.64590000  1.0
  C  C154  1  0.37914000  0.82542000  0.85410000  1.0
  C  C155  1  0.62086000  0.67458000  0.35410000  1.0
  C  C156  1  0.57092000  0.08637000  0.11506000  1.0
  C  C157  1  0.42908000  0.41363000  0.61506000  1.0
  C  C158  1  0.42908000  0.91363000  0.88494000  1.0
  C  C159  1  0.57092000  0.58637000  0.38494000  1.0
  C  C160  1  0.64935000  0.04515000  0.06229000  1.0
  C  C161  1  0.35065000  0.45485000  0.56229000  1.0
  C  C162  1  0.35066000  0.95486000  0.93771000  1.0
  C  C163  1  0.64935000  0.54515000  0.43771000  1.0
  N  N164  1  0.99520000  0.98035000  0.81774000  1.0
  N  N165  1  0.00480000  0.51965000  0.31774000  1.0
  N  N166  1  0.00480000  0.01965000  0.18226000  1.0
  N  N167  1  0.99520000  0.48035000  0.68226000  1.0
  N  N168  1  0.77253000  0.08590000  0.03901000  1.0
  N  N169  1  0.22747000  0.41410000  0.53900000  1.0
  N  N170  1  0.22748000  0.91410000  0.96099000  1.0
  N  N171  1  0.77252000  0.58590000  0.46099000  1.0
  O  O172  1  0.26535000  0.61556000  0.44631000  1.0
  O  O173  1  0.73465000  0.88444000  0.94632000  1.0
  O  O174  1  0.73465000  0.38444000  0.55369000  1.0
  O  O175  1  0.26535000  0.11556000  0.05369000  1.0
  O  O176  1  0.30167000  0.45332000  0.32466000  1.0
  O  O177  1  0.69833000  0.04669000  0.82466000  1.0
  O  O178  1  0.69833000  0.54668000  0.67535000  1.0
  O  O179  1  0.30167000  0.95332000  0.17534000  1.0
  O  O180  1  0.16836000  0.32137000  0.36109000  1.0
  O  O181  1  0.83164000  0.17863000  0.86109000  1.0
  O  O182  1  0.83164000  0.67863000  0.63891000  1.0
  O  O183  1  0.16836000  0.82137000  0.13891000  1.0
  O  O184  1  0.07533000  0.60486000  0.51761000  1.0
  O  O185  1  0.92467000  0.89514000  0.01761000  1.0
  O  O186  1  0.92467000  0.39514000  0.48239000  1.0
  O  O187  1  0.07533000  0.10486000  0.98239000  1.0
