# generated using pymatgen
data_FeH24C18(SeN7)2
_symmetry_space_group_name_H-M   'P 1'
_cell_length_a   7.67934000
_cell_length_b   9.16074000
_cell_length_c   10.22770000
_cell_angle_alpha   115.44500000
_cell_angle_beta   91.79730000
_cell_angle_gamma   93.91960000
_symmetry_Int_Tables_number   1
_chemical_formula_structural   FeH24C18(SeN7)2
_chemical_formula_sum   'Fe1 H24 C18 Se2 N14'
_cell_volume   646.71530854
_cell_formula_units_Z   1
loop_
 _symmetry_equiv_pos_site_id
 _symmetry_equiv_pos_as_xyz
  1  'x, y, z'
loop_
 _atom_site_type_symbol
 _atom_site_label
 _atom_site_symmetry_multiplicity
 _atom_site_fract_x
 _atom_site_fract_y
 _atom_site_fract_z
 _atom_site_occupancy
  Fe  Fe0  1  0.48239000  0.99146000  0.49026000  1.0
  H  H1  1  0.74710000  0.36688000  0.64426000  1.0
  H  H2  1  0.26489000  0.63565000  0.35470000  1.0
  H  H3  1  0.89372000  0.92359000  0.62563000  1.0
  H  H4  1  0.11457000  0.08122000  0.37891000  1.0
  H  H5  1  0.30680000  0.79030000  0.66938000  1.0
  H  H6  1  0.67091000  0.20222000  0.32755000  1.0
  H  H7  1  0.47237000  0.28635000  0.82001000  1.0
  H  H8  1  0.52234000  0.70158000  0.16500000  1.0
  H  H9  1  0.01452000  0.54584000  0.78831000  1.0
  H  H10  1  0.99171000  0.45939000  0.21787000  1.0
  H  H11  1  0.20827000  0.44561000  0.76483000  1.0
  H  H12  1  0.79954000  0.56208000  0.24137000  1.0
  H  H13  1  0.16437000  0.40552000  0.98885000  1.0
  H  H14  1  0.84323000  0.59920000  0.01629000  1.0
  H  H15  1  0.17338000  0.61337000  0.02693000  1.0
  H  H16  1  0.83426000  0.39167000  0.97892000  1.0
  H  H17  1  0.29297000  0.99970000  0.08168000  1.0
  H  H18  1  0.70935000  0.00360000  0.91930000  1.0
  H  H19  1  0.28103000  0.80378000  0.93404000  1.0
  H  H20  1  0.71991000  0.19659000  0.07049000  1.0
  H  H21  1  0.98099000  0.84893000  0.85382000  1.0
  H  H22  1  0.01919000  0.15109000  0.14968000  1.0
  H  H23  1  0.99288000  0.84543000  0.02527000  1.0
  H  H24  1  0.00833000  0.15458000  0.97807000  1.0
  C  C25  1  0.33984000  0.29887000  0.49976000  1.0
  C  C26  1  0.64896000  0.70061000  0.49646000  1.0
  C  C27  1  0.81659000  0.27426000  0.65810000  1.0
  C  C28  1  0.19463000  0.72873000  0.34267000  1.0
  C  C29  1  0.89462000  0.05162000  0.65047000  1.0
  C  C30  1  0.11474000  0.95347000  0.35373000  1.0
  C  C31  1  0.33600000  0.91990000  0.73656000  1.0
  C  C32  1  0.64746000  0.07276000  0.25808000  1.0
  C  C33  1  0.42065000  0.17198000  0.81740000  1.0
  C  C34  1  0.57244000  0.81821000  0.17151000  1.0
  C  C35  1  0.07965000  0.45463000  0.81005000  1.0
  C  C36  1  0.92799000  0.55102000  0.19577000  1.0
  C  C37  1  0.09320000  0.49661000  0.97125000  1.0
  C  C38  1  0.91451000  0.50845000  0.03437000  1.0
  C  C39  1  0.23544000  0.92529000  0.97098000  1.0
  C  C40  1  0.76541000  0.07482000  0.03097000  1.0
  C  C41  1  0.03573000  0.91678000  0.96691000  1.0
  C  C42  1  0.96508000  0.08324000  0.03642000  1.0
  Se  Se43  1  0.20284000  0.43552000  0.47266000  1.0
  Se  Se44  1  0.79309000  0.57387000  0.53193000  1.0
  N  N45  1  0.41363000  0.19683000  0.51449000  1.0
  N  N46  1  0.56666000  0.79324000  0.47390000  1.0
  N  N47  1  0.76296000  0.11689000  0.60714000  1.0
  N  N48  1  0.25023000  0.88706000  0.39346000  1.0
  N  N49  1  0.97498000  0.30109000  0.72860000  1.0
  N  N50  1  0.03408000  0.70411000  0.27680000  1.0
  N  N51  1  0.02642000  0.16068000  0.72596000  1.0
  N  N52  1  0.98177000  0.84497000  0.28165000  1.0
  N  N53  1  0.40565000  0.02931000  0.69413000  1.0
  N  N54  1  0.57410000  0.95978000  0.29495000  1.0
  N  N55  1  0.31164000  0.99572000  0.87946000  1.0
  N  N56  1  0.68588000  0.99987000  0.11804000  1.0
  N  N57  1  0.36580000  0.15683000  0.93318000  1.0
  N  N58  1  0.63828000  0.83732000  0.06076000  1.0
