# generated using pymatgen
data_Zn4H12C24S4N4O13
_symmetry_space_group_name_H-M   'P 1'
_cell_length_a   19.73670000
_cell_length_b   19.75460000
_cell_length_c   33.57610000
_cell_angle_alpha   78.48130000
_cell_angle_beta   78.54480000
_cell_angle_gamma   63.53080000
_symmetry_Int_Tables_number   1
_chemical_formula_structural   Zn4H12C24S4N4O13
_chemical_formula_sum   'Zn16 H48 C96 S16 N16 O52'
_cell_volume   11392.72286315
_cell_formula_units_Z   4
loop_
 _symmetry_equiv_pos_site_id
 _symmetry_equiv_pos_as_xyz
  1  'x, y, z'
loop_
 _atom_site_type_symbol
 _atom_site_label
 _atom_site_symmetry_multiplicity
 _atom_site_fract_x
 _atom_site_fract_y
 _atom_site_fract_z
 _atom_site_occupancy
  Zn  Zn0  1  0.05405000  0.40164000  0.47860000  1.0
  Zn  Zn1  1  0.98432000  0.48301000  0.55995000  1.0
  Zn  Zn2  1  0.05934000  0.56048000  0.48362000  1.0
  Zn  Zn3  1  0.90221000  0.55464000  0.47789000  1.0
  Zn  Zn4  1  0.69517000  0.34770000  0.27217000  1.0
  Zn  Zn5  1  0.68938000  0.19067000  0.26634000  1.0
  Zn  Zn6  1  0.76687000  0.26560000  0.19012000  1.0
  Zn  Zn7  1  0.84828000  0.19625000  0.27152000  1.0
  Zn  Zn8  1  0.26671000  0.76568000  0.69013000  1.0
  Zn  Zn9  1  0.34835000  0.69624000  0.77144000  1.0
  Zn  Zn10  1  0.19515000  0.84768000  0.77219000  1.0
  Zn  Zn11  1  0.18935000  0.69066000  0.76637000  1.0
  Zn  Zn12  1  0.55931000  0.06050000  0.98367000  1.0
  Zn  Zn13  1  0.40226000  0.05461000  0.97789000  1.0
  Zn  Zn14  1  0.55404000  0.90162000  0.97863000  1.0
  Zn  Zn15  1  0.48433000  0.98296000  0.05999000  1.0
  H  H16  1  0.28484000  0.51080000  0.40899000  1.0
  H  H17  1  0.46420000  0.23928000  0.34156000  1.0
  H  H18  1  0.77199000  0.54642000  0.64794000  1.0
  H  H19  1  0.47882000  0.70354000  0.60160000  1.0
  H  H20  1  0.04660000  0.27070000  0.64848000  1.0
  H  H21  1  0.20375000  0.97808000  0.60203000  1.0
  H  H22  1  0.80050000  0.78030000  0.40281000  1.0
  H  H23  1  0.94908000  0.97116000  0.34712000  1.0
  H  H24  1  0.70397000  0.47799000  0.10203000  1.0
  H  H25  1  0.54647000  0.77066000  0.14843000  1.0
  H  H26  1  0.08663000  0.10768000  0.20969000  1.0
  H  H27  1  0.16433000  0.14098000  0.04004000  1.0
  H  H28  1  0.44916000  0.47111000  0.84701000  1.0
  H  H29  1  0.30052000  0.28033000  0.90273000  1.0
  H  H30  1  0.96417000  0.73931000  0.84157000  1.0
  H  H31  1  0.78480000  0.01086000  0.90899000  1.0
  H  H32  1  0.79752000  0.53463000  0.42157000  1.0
  H  H33  1  0.72387000  0.52828000  0.40496000  1.0
  H  H34  1  0.94697000  0.21036000  0.33382000  1.0
  H  H35  1  0.99717000  0.19311000  0.37390000  1.0
  H  H36  1  0.71498000  0.45253000  0.32856000  1.0
  H  H37  1  0.72134000  0.52627000  0.34498000  1.0
  H  H38  1  0.04012000  0.30287000  0.41632000  1.0
  H  H39  1  0.05735000  0.25294000  0.37621000  1.0
  H  H40  1  0.14540000  0.63566000  0.52183000  1.0
  H  H41  1  0.21417000  0.65719000  0.53323000  1.0
  H  H42  1  0.11497000  0.60389000  0.72811000  1.0
  H  H43  1  0.09360000  0.53517000  0.71667000  1.0
  H  H44  1  0.22273000  0.73344000  0.60961000  1.0
  H  H45  1  0.18763000  0.74571000  0.56449000  1.0
  H  H46  1  0.01643000  0.52733000  0.64034000  1.0
  H  H47  1  0.00460000  0.56193000  0.68553000  1.0
  H  H48  1  0.72322000  0.23307000  0.10959000  1.0
  H  H49  1  0.68807000  0.24546000  0.06446000  1.0
  H  H50  1  0.51618000  0.02754000  0.14036000  1.0
  H  H51  1  0.50430000  0.06223000  0.18550000  1.0
  H  H52  1  0.64538000  0.13572000  0.02184000  1.0
  H  H53  1  0.71428000  0.15703000  0.03325000  1.0
  H  H54  1  0.61499000  0.10383000  0.22812000  1.0
  H  H55  1  0.59329000  0.03534000  0.21665000  1.0
  H  H56  1  0.21503000  0.95246000  0.82851000  1.0
  H  H57  1  0.22146000  0.02623000  0.84485000  1.0
  H  H58  1  0.54012000  0.80286000  0.91632000  1.0
  H  H59  1  0.55740000  0.75291000  0.87620000  1.0
  H  H60  1  0.29760000  0.03459000  0.92148000  1.0
  H  H61  1  0.22393000  0.02824000  0.90487000  1.0
  H  H62  1  0.44730000  0.71042000  0.83359000  1.0
  H  H63  1  0.49744000  0.69309000  0.87372000  1.0
  C  C64  1  0.06127000  0.31593000  0.56186000  1.0
  C  C65  1  0.06984000  0.56983000  0.56971000  1.0
  C  C66  1  0.18314000  0.43931000  0.43882000  1.0
  C  C67  1  0.93804000  0.68434000  0.43854000  1.0
  C  C68  1  0.93018000  0.43021000  0.43028000  1.0
  C  C69  1  0.81686000  0.56086000  0.56132000  1.0
  C  C70  1  0.56564000  0.31105000  0.31153000  1.0
  C  C71  1  0.68029000  0.17992000  0.18026000  1.0
  C  C72  1  0.68924000  0.43285000  0.18866000  1.0
  C  C73  1  0.93444000  0.18839000  0.18868000  1.0
  C  C74  1  0.81979000  0.32007000  0.31975000  1.0
  C  C75  1  0.81169000  0.06683000  0.31114000  1.0
  C  C76  1  0.43401000  0.68884000  0.68824000  1.0
  C  C77  1  0.31987000  0.82003000  0.81968000  1.0
  C  C78  1  0.18920000  0.93289000  0.68864000  1.0
  C  C79  1  0.06559000  0.81109000  0.81153000  1.0
  C  C80  1  0.18017000  0.68002000  0.68024000  1.0
  C  C81  1  0.31172000  0.56681000  0.81105000  1.0
  C  C82  1  0.43801000  0.18435000  0.93851000  1.0
  C  C83  1  0.43017000  0.93020000  0.93025000  1.0
  C  C84  1  0.68308000  0.93936000  0.93882000  1.0
  C  C85  1  0.56139000  0.81585000  0.06182000  1.0
  C  C86  1  0.56973000  0.06998000  0.06971000  1.0
  C  C87  1  0.31657000  0.06094000  0.06103000  1.0
  C  C88  1  0.90228000  0.40238000  0.40223000  1.0
  C  C89  1  0.84779000  0.34805000  0.34766000  1.0
  C  C90  1  0.82902000  0.44736000  0.38868000  1.0
  C  C91  1  0.92043000  0.30246000  0.36184000  1.0
  C  C92  1  0.80281000  0.42125000  0.36115000  1.0
  C  C93  1  0.94792000  0.32984000  0.38807000  1.0
  C  C94  1  0.09778000  0.59776000  0.59770000  1.0
  C  C95  1  0.15231000  0.65205000  0.65226000  1.0
  C  C96  1  0.14178000  0.64055000  0.58200000  1.0
  C  C97  1  0.10959000  0.60798000  0.66796000  1.0
  C  C98  1  0.16736000  0.66857000  0.60887000  1.0
  C  C99  1  0.08142000  0.58256000  0.64108000  1.0
  C  C100  1  0.30259000  0.45400000  0.40115000  1.0
  C  C101  1  0.44633000  0.29615000  0.34933000  1.0
  C  C102  1  0.25805000  0.41395000  0.41379000  1.0
  C  C103  1  0.49071000  0.33634000  0.33658000  1.0
  C  C104  1  0.37771000  0.33897000  0.37273000  1.0
  C  C105  1  0.37102000  0.41134000  0.37759000  1.0
  C  C106  1  0.72681000  0.57566000  0.62837000  1.0
  C  C107  1  0.52401000  0.67407000  0.62116000  1.0
  C  C108  1  0.74166000  0.58599000  0.58608000  1.0
  C  C109  1  0.50919000  0.66355000  0.66345000  1.0
  C  C110  1  0.60318000  0.64191000  0.60833000  1.0
  C  C111  1  0.64762000  0.60745000  0.64120000  1.0
  C  C112  1  0.07601000  0.22568000  0.62890000  1.0
  C  C113  1  0.17445000  0.02312000  0.62161000  1.0
  C  C114  1  0.08654000  0.24068000  0.58662000  1.0
  C  C115  1  0.16412000  0.00810000  0.66389000  1.0
  C  C116  1  0.14264000  0.10228000  0.60880000  1.0
  C  C117  1  0.10816000  0.14652000  0.64170000  1.0
  C  C118  1  0.84467000  0.80082000  0.39781000  1.0
  C  C119  1  0.90501000  0.95052000  0.35202000  1.0
  C  C120  1  0.91345000  0.75941000  0.41362000  1.0
  C  C121  1  0.83635000  0.99179000  0.33608000  1.0
  C  C122  1  0.90828000  0.88086000  0.37439000  1.0
  C  C123  1  0.84161000  0.87027000  0.37527000  1.0
  C  C124  1  0.65235000  0.15205000  0.15227000  1.0
  C  C125  1  0.59768000  0.09789000  0.09770000  1.0
  C  C126  1  0.66743000  0.16854000  0.10888000  1.0
  C  C127  1  0.58128000  0.08272000  0.14109000  1.0
  C  C128  1  0.64176000  0.14061000  0.08201000  1.0
  C  C129  1  0.60953000  0.10806000  0.16796000  1.0
  C  C130  1  0.67455000  0.52304000  0.12160000  1.0
  C  C131  1  0.57598000  0.72563000  0.12886000  1.0
  C  C132  1  0.66414000  0.50804000  0.16389000  1.0
  C  C133  1  0.58663000  0.74061000  0.08658000  1.0
  C  C134  1  0.60814000  0.64646000  0.14167000  1.0
  C  C135  1  0.64272000  0.60221000  0.10878000  1.0
  C  C136  1  0.08002000  0.12413000  0.17731000  1.0
  C  C137  1  0.17097000  0.12448000  0.07241000  1.0
  C  C138  1  0.00923000  0.16329000  0.16350000  1.0
  C  C139  1  0.24178000  0.08566000  0.08621000  1.0
  C  C140  1  0.11201000  0.13868000  0.10552000  1.0
  C  C141  1  0.13898000  0.11007000  0.14421000  1.0
  C  C142  1  0.34787000  0.84801000  0.84758000  1.0
  C  C143  1  0.40231000  0.90236000  0.90218000  1.0
  C  C144  1  0.30288000  0.92122000  0.86109000  1.0
  C  C145  1  0.44797000  0.82983000  0.88803000  1.0
  C  C146  1  0.32908000  0.94733000  0.88860000  1.0
  C  C147  1  0.42050000  0.80244000  0.86177000  1.0
  C  C148  1  0.40507000  0.45050000  0.85194000  1.0
  C  C149  1  0.34470000  0.30082000  0.89774000  1.0
  C  C150  1  0.33641000  0.49177000  0.83599000  1.0
  C  C151  1  0.41346000  0.25941000  0.91357000  1.0
  C  C152  1  0.34165000  0.37027000  0.87519000  1.0
  C  C153  1  0.40833000  0.38085000  0.87432000  1.0
  C  C154  1  0.94629000  0.79619000  0.84934000  1.0
  C  C155  1  0.80254000  0.95405000  0.90116000  1.0
  C  C156  1  0.99067000  0.83638000  0.83658000  1.0
  C  C157  1  0.75801000  0.91400000  0.91379000  1.0
  C  C158  1  0.87099000  0.91138000  0.87759000  1.0
  C  C159  1  0.87767000  0.83902000  0.87274000  1.0
  S  S160  1  0.29889000  0.32455000  0.39717000  1.0
  S  S161  1  0.44960000  0.42598000  0.35295000  1.0
  S  S162  1  0.65984000  0.63419000  0.56174000  1.0
  S  S163  1  0.59099000  0.61480000  0.68778000  1.0
  S  S164  1  0.13530000  0.15910000  0.56225000  1.0
  S  S165  1  0.11588000  0.08971000  0.68827000  1.0
  S  S166  1  0.97447000  0.80446000  0.40133000  1.0
  S  S167  1  0.77561000  0.94642000  0.34811000  1.0
  S  S168  1  0.61579000  0.58968000  0.18825000  1.0
  S  S169  1  0.63547000  0.65900000  0.06223000  1.0
  S  S170  1  0.01381000  0.18308000  0.11043000  1.0
  S  S171  1  0.23720000  0.06620000  0.13928000  1.0
  S  S172  1  0.27566000  0.44640000  0.84803000  1.0
  S  S173  1  0.47449000  0.30446000  0.90128000  1.0
  S  S174  1  0.94956000  0.92602000  0.85295000  1.0
  S  S175  1  0.79885000  0.82460000  0.89718000  1.0
  N  N176  1  0.77970000  0.51915000  0.39989000  1.0
  N  N177  1  0.96985000  0.23074000  0.35054000  1.0
  N  N178  1  0.73084000  0.47038000  0.35005000  1.0
  N  N179  1  0.01962000  0.28036000  0.39947000  1.0
  N  N180  1  0.16044000  0.66006000  0.54046000  1.0
  N  N181  1  0.09035000  0.58902000  0.70950000  1.0
  N  N182  1  0.20904000  0.71002000  0.58982000  1.0
  N  N183  1  0.04005000  0.54081000  0.66012000  1.0
  N  N184  1  0.70927000  0.20981000  0.08985000  1.0
  N  N185  1  0.53981000  0.04106000  0.16012000  1.0
  N  N186  1  0.66049000  0.16007000  0.04047000  1.0
  N  N187  1  0.59028000  0.08910000  0.20950000  1.0
  N  N188  1  0.23088000  0.97035000  0.84999000  1.0
  N  N189  1  0.51964000  0.78037000  0.89944000  1.0
  N  N190  1  0.27975000  0.01919000  0.89978000  1.0
  N  N191  1  0.46994000  0.73079000  0.85043000  1.0
  O  O192  1  0.99997000  0.49999000  0.50005000  1.0
  O  O193  1  0.07902000  0.31617000  0.52303000  1.0
  O  O194  1  0.03536000  0.52645000  0.58489000  1.0
  O  O195  1  0.15763000  0.50377000  0.45195000  1.0
  O  O196  1  0.02407000  0.37395000  0.58122000  1.0
  O  O197  1  0.15044000  0.39413000  0.44518000  1.0
  O  O198  1  0.08057000  0.58944000  0.53077000  1.0
  O  O199  1  0.00523000  0.65587000  0.44904000  1.0
  O  O200  1  0.89027000  0.49842000  0.43986000  1.0
  O  O201  1  0.89049000  0.65442000  0.44740000  1.0
  O  O202  1  0.99378000  0.38568000  0.44455000  1.0
  O  O203  1  0.87506000  0.52886000  0.58081000  1.0
  O  O204  1  0.81684000  0.57357000  0.52239000  1.0
  O  O205  1  0.74990000  0.25003000  0.25005000  1.0
  O  O206  1  0.59562000  0.35872000  0.30258000  1.0
  O  O207  1  0.66054000  0.16932000  0.21920000  1.0
  O  O208  1  0.72102000  0.37472000  0.16920000  1.0
  O  O209  1  0.59388000  0.24419000  0.30099000  1.0
  O  O210  1  0.67675000  0.43280000  0.22759000  1.0
  O  O211  1  0.72381000  0.21429000  0.16514000  1.0
  O  O212  1  0.87614000  0.22565000  0.16930000  1.0
  O  O213  1  0.86431000  0.25646000  0.30556000  1.0
  O  O214  1  0.93440000  0.17088000  0.22742000  1.0
  O  O215  1  0.75145000  0.35979000  0.31021000  1.0
  O  O216  1  0.74691000  0.09258000  0.29804000  1.0
  O  O217  1  0.85682000  0.09938000  0.30487000  1.0
  O  O218  1  0.24986000  0.75004000  0.75003000  1.0
  O  O219  1  0.37585000  0.72596000  0.66891000  1.0
  O  O220  1  0.36442000  0.75651000  0.80542000  1.0
  O  O221  1  0.17673000  0.93279000  0.72757000  1.0
  O  O222  1  0.43395000  0.67122000  0.72708000  1.0
  O  O223  1  0.22095000  0.87480000  0.66915000  1.0
  O  O224  1  0.25147000  0.85969000  0.81022000  1.0
  O  O225  1  0.09557000  0.85876000  0.80256000  1.0
  O  O226  1  0.16048000  0.66939000  0.71919000  1.0
  O  O227  1  0.09385000  0.74421000  0.80100000  1.0
  O  O228  1  0.22360000  0.71448000  0.66510000  1.0
  O  O229  1  0.35680000  0.59941000  0.80478000  1.0
  O  O230  1  0.24693000  0.59251000  0.79796000  1.0
  O  O231  1  0.49995000  0.99999000  0.00005000  1.0
  O  O232  1  0.50520000  0.15583000  0.94900000  1.0
  O  O233  1  0.39020000  0.99839000  0.93987000  1.0
  O  O234  1  0.65038000  0.89419000  0.94515000  1.0
  O  O235  1  0.39039000  0.15449000  0.94740000  1.0
  O  O236  1  0.65757000  0.00381000  0.95197000  1.0
  O  O237  1  0.49378000  0.88572000  0.94451000  1.0
  O  O238  1  0.57908000  0.81607000  0.02298000  1.0
  O  O239  1  0.53529000  0.02655000  0.08486000  1.0
  O  O240  1  0.52430000  0.87389000  0.08116000  1.0
  O  O241  1  0.58044000  0.08962000  0.03076000  1.0
  O  O242  1  0.31647000  0.07380000  0.02219000  1.0
  O  O243  1  0.37496000  0.02870000  0.08052000  1.0
