# generated using pymatgen
data_AlH4C8O6F
_symmetry_space_group_name_H-M   'P 1'
_cell_length_a   6.64635000
_cell_length_b   8.86876000
_cell_length_c   11.04360000
_cell_angle_alpha   83.39670000
_cell_angle_beta   72.80190000
_cell_angle_gamma   75.50310000
_symmetry_Int_Tables_number   1
_chemical_formula_structural   AlH4C8O6F
_chemical_formula_sum   'Al2 H8 C16 O12 F2'
_cell_volume   601.46746507
_cell_formula_units_Z   2
loop_
 _symmetry_equiv_pos_site_id
 _symmetry_equiv_pos_as_xyz
  1  'x, y, z'
loop_
 _atom_site_type_symbol
 _atom_site_label
 _atom_site_symmetry_multiplicity
 _atom_site_fract_x
 _atom_site_fract_y
 _atom_site_fract_z
 _atom_site_occupancy
  Al  Al0  1  0.48982000  0.51842000  0.50155000  1.0
  Al  Al1  1  0.99009000  0.51690000  0.50383000  1.0
  H  H2  1  0.77700000  0.62754000  0.35701000  1.0
  H  H3  1  0.18655000  0.45000000  0.65918000  1.0
  H  H4  1  0.17916000  0.26288000  0.23169000  1.0
  H  H5  1  0.44359000  0.28211000  0.76118000  1.0
  H  H6  1  0.75207000  0.65197000  0.89133000  1.0
  H  H7  1  0.63124000  0.63423000  0.12768000  1.0
  H  H8  1  0.01778000  0.07409000  0.20621000  1.0
  H  H9  1  0.27042000  0.08820000  0.77203000  1.0
  C  C10  1  0.35490000  0.48596000  0.27714000  1.0
  C  C11  1  0.15334000  0.79780000  0.49904000  1.0
  C  C12  1  0.63623000  0.51898000  0.73034000  1.0
  C  C13  1  0.82451000  0.23679000  0.50578000  1.0
  C  C14  1  0.89170000  0.06340000  0.49907000  1.0
  C  C15  1  0.08541000  0.97131000  0.50622000  1.0
  C  C16  1  0.43437000  0.47321000  0.13703000  1.0
  C  C17  1  0.36611000  0.37703000  0.06850000  1.0
  C  C18  1  0.57812000  0.56514000  0.07298000  1.0
  C  C19  1  0.23747000  0.26911000  0.12850000  1.0
  C  C20  1  0.18495000  0.17109000  0.06027000  1.0
  C  C21  1  0.57409000  0.49063000  0.87018000  1.0
  C  C22  1  0.64678000  0.57459000  0.94060000  1.0
  C  C23  1  0.44027000  0.38457000  0.93167000  1.0
  C  C24  1  0.38494000  0.28131000  0.86424000  1.0
  C  C25  1  0.26189000  0.17624000  0.92507000  1.0
  O  O26  1  0.48232000  0.51915000  0.33164000  1.0
  O  O27  1  0.02054000  0.73002000  0.47816000  1.0
  O  O28  1  0.82051000  0.55036000  0.67677000  1.0
  O  O29  1  0.63945000  0.29856000  0.49028000  1.0
  O  O30  1  0.50022000  0.51106000  0.67191000  1.0
  O  O31  1  0.95712000  0.30414000  0.52706000  1.0
  O  O32  1  0.16370000  0.47021000  0.33444000  1.0
  O  O33  1  0.33885000  0.73665000  0.51386000  1.0
  O  O34  1  0.74992000  0.57974000  0.44189000  1.0
  O  O35  1  0.22946000  0.45610000  0.56699000  1.0
  O  O36  1  0.06358000  0.06479000  0.11446000  1.0
  O  O37  1  0.20904000  0.07364000  0.86339000  1.0
  F  F38  1  0.73827000  0.99841000  0.48421000  1.0
  F  F39  1  0.23773000  0.03633000  0.52232000  1.0
