# generated using pymatgen
data_AgH5C6SN2
_symmetry_space_group_name_H-M   'P 1'
_cell_length_a   3.89517000
_cell_length_b   10.95080000
_cell_length_c   17.56420000
_cell_angle_alpha   90.00000000
_cell_angle_beta   90.00060000
_cell_angle_gamma   89.99970000
_symmetry_Int_Tables_number   1
_chemical_formula_structural   AgH5C6SN2
_chemical_formula_sum   'Ag4 H20 C24 S4 N8'
_cell_volume   749.20494919
_cell_formula_units_Z   4
loop_
 _symmetry_equiv_pos_site_id
 _symmetry_equiv_pos_as_xyz
  1  'x, y, z'
loop_
 _atom_site_type_symbol
 _atom_site_label
 _atom_site_symmetry_multiplicity
 _atom_site_fract_x
 _atom_site_fract_y
 _atom_site_fract_z
 _atom_site_occupancy
  Ag  Ag0  1  0.71630000  0.79010000  0.22827000  1.0
  Ag  Ag1  1  0.78370000  0.20991000  0.72827000  1.0
  Ag  Ag2  1  0.21630000  0.70991000  0.77173000  1.0
  Ag  Ag3  1  0.28370000  0.29010000  0.27173000  1.0
  H  H4  1  0.51813000  0.06566000  0.17232000  1.0
  H  H5  1  0.98188000  0.93434000  0.67232000  1.0
  H  H6  1  0.01811000  0.43435000  0.82768000  1.0
  H  H7  1  0.48188000  0.56565000  0.32768000  1.0
  H  H8  1  0.50804000  0.18950000  0.05300000  1.0
  H  H9  1  0.99195000  0.81050000  0.55300000  1.0
  H  H10  1  0.00806000  0.31050000  0.94700000  1.0
  H  H11  1  0.49196000  0.68950000  0.44700000  1.0
  H  H12  1  0.73632000  0.09625000  0.93194000  1.0
  H  H13  1  0.76368000  0.90375000  0.43194000  1.0
  H  H14  1  0.23634000  0.40375000  0.06806000  1.0
  H  H15  1  0.26368000  0.59624000  0.56806000  1.0
  H  H16  1  0.97153000  0.88368000  0.93675000  1.0
  H  H17  1  0.52847000  0.11632000  0.43675000  1.0
  H  H18  1  0.47153000  0.61632000  0.06325000  1.0
  H  H19  1  0.02847000  0.38368000  0.56325000  1.0
  H  H20  1  0.96275000  0.77160000  0.06152000  1.0
  H  H21  1  0.53724000  0.22839000  0.56152000  1.0
  H  H22  1  0.46275000  0.72840000  0.93848000  1.0
  H  H23  1  0.03725000  0.27160000  0.43848000  1.0
  C  C24  1  0.77236000  0.49228000  0.18966000  1.0
  C  C25  1  0.72761000  0.50773000  0.68966000  1.0
  C  C26  1  0.27237000  0.00772000  0.81034000  1.0
  C  C27  1  0.22763000  0.99228000  0.31034000  1.0
  C  C28  1  0.61682000  0.02864000  0.11895000  1.0
  C  C29  1  0.88318000  0.97136000  0.61896000  1.0
  C  C30  1  0.11680000  0.47136000  0.88104000  1.0
  C  C31  1  0.38319000  0.52864000  0.38104000  1.0
  C  C32  1  0.61139000  0.09712000  0.05205000  1.0
  C  C33  1  0.88861000  0.90288000  0.55205000  1.0
  C  C34  1  0.11140000  0.40288000  0.94795000  1.0
  C  C35  1  0.38862000  0.59712000  0.44795000  1.0
  C  C36  1  0.73871000  0.04542000  0.98527000  1.0
  C  C37  1  0.76129000  0.95458000  0.48527000  1.0
  C  C38  1  0.23872000  0.45458000  0.01472000  1.0
  C  C39  1  0.26129000  0.54542000  0.51472000  1.0
  C  C40  1  0.86791000  0.92667000  0.98775000  1.0
  C  C41  1  0.63209000  0.07333000  0.48775000  1.0
  C  C42  1  0.36792000  0.57332000  0.01225000  1.0
  C  C43  1  0.13210000  0.42667000  0.51225000  1.0
  C  C44  1  0.86399000  0.86453000  0.05685000  1.0
  C  C45  1  0.63600000  0.13546000  0.55685000  1.0
  C  C46  1  0.36401000  0.63546000  0.94314000  1.0
  C  C47  1  0.13601000  0.36454000  0.44315000  1.0
  S  S48  1  0.77206000  0.34268000  0.18166000  1.0
  S  S49  1  0.72791000  0.65732000  0.68166000  1.0
  S  S50  1  0.27208000  0.15732000  0.81835000  1.0
  S  S51  1  0.22793000  0.84268000  0.31834000  1.0
  N  N52  1  0.77322000  0.59997000  0.19308000  1.0
  N  N53  1  0.72675000  0.40004000  0.69308000  1.0
  N  N54  1  0.27325000  0.90004000  0.80693000  1.0
  N  N55  1  0.22677000  0.09997000  0.30692000  1.0
  N  N56  1  0.73969000  0.91376000  0.12155000  1.0
  N  N57  1  0.76030000  0.08623000  0.62155000  1.0
  N  N58  1  0.23969000  0.58624000  0.87846000  1.0
  N  N59  1  0.26031000  0.41377000  0.37845000  1.0
