# generated using pymatgen
data_PrH9C10O9
_symmetry_space_group_name_H-M   'P 1'
_cell_length_a   8.83157000
_cell_length_b   8.87323000
_cell_length_c   9.82779000
_cell_angle_alpha   67.00520000
_cell_angle_beta   75.54230000
_cell_angle_gamma   71.33930000
_symmetry_Int_Tables_number   1
_chemical_formula_structural   PrH9C10O9
_chemical_formula_sum   'Pr2 H18 C20 O18'
_cell_volume   664.78656089
_cell_formula_units_Z   2
loop_
 _symmetry_equiv_pos_site_id
 _symmetry_equiv_pos_as_xyz
  1  'x, y, z'
loop_
 _atom_site_type_symbol
 _atom_site_label
 _atom_site_symmetry_multiplicity
 _atom_site_fract_x
 _atom_site_fract_y
 _atom_site_fract_z
 _atom_site_occupancy
  Pr  Pr0  1  0.46427000  0.77625000  0.46148000  1.0
  Pr  Pr1  1  0.53573000  0.22375000  0.53852000  1.0
  H  H2  1  0.62490000  0.26357000  0.99801000  1.0
  H  H3  1  0.37509000  0.73644000  0.00199000  1.0
  H  H4  1  0.83198000  0.60483000  0.06306000  1.0
  H  H5  1  0.16803000  0.39516000  0.93694000  1.0
  H  H6  1  0.91086000  0.72150000  0.79350000  1.0
  H  H7  1  0.08916000  0.27848000  0.20651000  1.0
  H  H8  1  0.98870000  0.75727000  0.41178000  1.0
  H  H9  1  0.01130000  0.24274000  0.58823000  1.0
  H  H10  1  0.02919000  0.74560000  0.58391000  1.0
  H  H11  1  0.97081000  0.25441000  0.41609000  1.0
  H  H12  1  0.73917000  0.56900000  0.29670000  1.0
  H  H13  1  0.26083000  0.43100000  0.70331000  1.0
  H  H14  1  0.80454000  0.63309000  0.39079000  1.0
  H  H15  1  0.19546000  0.36692000  0.60921000  1.0
  H  H16  1  0.55209000  0.10157000  0.22485000  1.0
  H  H17  1  0.44791000  0.89843000  0.77515000  1.0
  H  H18  1  0.58987000  0.96383000  0.14679000  1.0
  H  H19  1  0.41015000  0.03615000  0.85323000  1.0
  C  C20  1  0.81975000  0.55316000  0.74134000  1.0
  C  C21  1  0.18026000  0.44684000  0.25866000  1.0
  C  C22  1  0.73228000  0.42732000  0.80035000  1.0
  C  C23  1  0.26772000  0.57269000  0.19965000  1.0
  C  C24  1  0.69144000  0.36079000  0.95462000  1.0
  C  C25  1  0.30855000  0.63921000  0.04538000  1.0
  C  C26  1  0.72890000  0.42002000  0.05170000  1.0
  C  C27  1  0.27110000  0.57998000  0.94830000  1.0
  C  C28  1  0.80544000  0.55308000  0.99035000  1.0
  C  C29  1  0.19457000  0.44691000  0.00965000  1.0
  C  C30  1  0.85033000  0.61950000  0.83709000  1.0
  C  C31  1  0.14967000  0.38050000  0.16291000  1.0
  C  C32  1  0.93479000  0.75090000  0.52688000  1.0
  C  C33  1  0.06521000  0.24911000  0.47312000  1.0
  C  C34  1  0.79327000  0.90516000  0.52333000  1.0
  C  C35  1  0.20673000  0.09485000  0.47667000  1.0
  C  C36  1  0.66676000  0.37103000  0.70729000  1.0
  C  C37  1  0.33324000  0.62897000  0.29271000  1.0
  C  C38  1  0.68451000  0.34564000  0.21508000  1.0
  C  C39  1  0.31548000  0.65436000  0.78493000  1.0
  O  O40  1  0.87688000  0.59950000  0.59178000  1.0
  O  O41  1  0.12312000  0.40050000  0.40822000  1.0
  O  O42  1  0.81540000  0.03378000  0.53325000  1.0
  O  O43  1  0.18460000  0.96623000  0.46675000  1.0
  O  O44  1  0.65552000  0.89756000  0.51049000  1.0
  O  O45  1  0.34448000  0.10243000  0.48951000  1.0
  O  O46  1  0.61487000  0.47893000  0.58548000  1.0
  O  O47  1  0.38512000  0.52108000  0.41452000  1.0
  O  O48  1  0.65494000  0.22020000  0.75286000  1.0
  O  O49  1  0.34506000  0.77980000  0.24713000  1.0
  O  O50  1  0.59910000  0.23716000  0.26799000  1.0
  O  O51  1  0.40089000  0.76284000  0.73201000  1.0
  O  O52  1  0.72815000  0.38909000  0.30631000  1.0
  O  O53  1  0.27184000  0.61091000  0.69370000  1.0
  O  O54  1  0.73955000  0.67633000  0.30972000  1.0
  O  O55  1  0.26044000  0.32367000  0.69028000  1.0
  O  O56  1  0.51194000  0.01143000  0.21799000  1.0
  O  O57  1  0.48807000  0.98857000  0.78200000  1.0
