# generated using pymatgen
data_MnH16C8(SO4)2
_symmetry_space_group_name_H-M   'P 1'
_cell_length_a   8.23038000
_cell_length_b   12.14750000
_cell_length_c   15.09400000
_cell_angle_alpha   111.83900000
_cell_angle_beta   90.00000000
_cell_angle_gamma   90.00000000
_symmetry_Int_Tables_number   1
_chemical_formula_structural   MnH16C8(SO4)2
_chemical_formula_sum   'Mn4 H64 C32 S8 O32'
_cell_volume   1400.77397730
_cell_formula_units_Z   4
loop_
 _symmetry_equiv_pos_site_id
 _symmetry_equiv_pos_as_xyz
  1  'x, y, z'
loop_
 _atom_site_type_symbol
 _atom_site_label
 _atom_site_symmetry_multiplicity
 _atom_site_fract_x
 _atom_site_fract_y
 _atom_site_fract_z
 _atom_site_occupancy
  Mn  Mn0  1  0.50000000  0.00000000  0.00000000  1.0
  Mn  Mn1  1  0.00000000  0.50000000  0.00000000  1.0
  Mn  Mn2  1  0.50000000  0.50000000  0.50000000  1.0
  Mn  Mn3  1  0.00000000  0.00000000  0.50000000  1.0
  H  H4  1  0.47223000  0.21401000  0.96597000  1.0
  H  H5  1  0.97223000  0.28600000  0.03404000  1.0
  H  H6  1  0.52777000  0.78599000  0.03403000  1.0
  H  H7  1  0.02777000  0.71401000  0.96596000  1.0
  H  H8  1  0.30265000  0.18532000  0.01059000  1.0
  H  H9  1  0.80265000  0.31469000  0.98942000  1.0
  H  H10  1  0.69735000  0.81468000  0.98942000  1.0
  H  H11  1  0.19735000  0.68532000  0.01058000  1.0
  H  H12  1  0.40948000  0.87389000  0.20577000  1.0
  H  H13  1  0.90948000  0.62611000  0.79423000  1.0
  H  H14  1  0.59052000  0.12611000  0.79423000  1.0
  H  H15  1  0.09052000  0.37389000  0.20577000  1.0
  H  H16  1  0.27770000  0.94665000  0.30652000  1.0
  H  H17  1  0.77771000  0.55335000  0.69348000  1.0
  H  H18  1  0.72230000  0.05335000  0.69348000  1.0
  H  H19  1  0.22229000  0.44665000  0.30652000  1.0
  H  H20  1  0.48302000  0.00051000  0.30556000  1.0
  H  H21  1  0.98302000  0.49949000  0.69444000  1.0
  H  H22  1  0.51698000  0.99949000  0.69444000  1.0
  H  H23  1  0.01697000  0.50051000  0.30556000  1.0
  H  H24  1  0.38018000  0.21508000  0.34474000  1.0
  H  H25  1  0.88019000  0.28493000  0.65526000  1.0
  H  H26  1  0.61982000  0.78492000  0.65526000  1.0
  H  H27  1  0.11981000  0.71507000  0.34473000  1.0
  H  H28  1  0.17536000  0.16361000  0.35255000  1.0
  H  H29  1  0.67536000  0.33640000  0.64745000  1.0
  H  H30  1  0.82464000  0.83639000  0.64745000  1.0
  H  H31  1  0.32464000  0.66360000  0.35255000  1.0
  H  H32  1  0.21582000  0.24969000  0.28090000  1.0
  H  H33  1  0.71582000  0.25032000  0.71910000  1.0
  H  H34  1  0.78419000  0.75031000  0.71910000  1.0
  H  H35  1  0.28419000  0.74968000  0.28090000  1.0
  H  H36  1  0.70348000  0.30594000  0.46296000  1.0
  H  H37  1  0.20347000  0.19405000  0.53704000  1.0
  H  H38  1  0.29652000  0.69406000  0.53704000  1.0
  H  H39  1  0.79653000  0.80595000  0.46296000  1.0
  H  H40  1  0.52440000  0.27237000  0.49015000  1.0
  H  H41  1  0.02440000  0.22763000  0.50985000  1.0
  H  H42  1  0.47560000  0.72763000  0.50985000  1.0
  H  H43  1  0.97560000  0.77237000  0.49015000  1.0
  H  H44  1  0.56242000  0.26208000  0.19386000  1.0
  H  H45  1  0.06242000  0.23791000  0.80614000  1.0
  H  H46  1  0.43758000  0.73792000  0.80614000  1.0
  H  H47  1  0.93758000  0.76209000  0.19386000  1.0
  H  H48  1  0.70070000  0.32266000  0.13182000  1.0
  H  H49  1  0.20070000  0.17735000  0.86819000  1.0
  H  H50  1  0.29930000  0.67734000  0.86818000  1.0
  H  H51  1  0.79930000  0.82265000  0.13181000  1.0
  H  H52  1  0.49166000  0.37223000  0.14939000  1.0
  H  H53  1  0.99166000  0.12777000  0.85061000  1.0
  H  H54  1  0.50834000  0.62777000  0.85061000  1.0
  H  H55  1  0.00834000  0.87223000  0.14939000  1.0
  H  H56  1  0.57154000  0.58642000  0.21424000  1.0
  H  H57  1  0.07154000  0.91357000  0.78576000  1.0
  H  H58  1  0.42846000  0.41357000  0.78576000  1.0
  H  H59  1  0.92846000  0.08643000  0.21423000  1.0
  H  H60  1  0.78685000  0.55418000  0.20204000  1.0
  H  H61  1  0.28685000  0.94581000  0.79797000  1.0
  H  H62  1  0.21315000  0.44582000  0.79796000  1.0
  H  H63  1  0.71315000  0.05419000  0.20203000  1.0
  H  H64  1  0.70636000  0.65385000  0.31423000  1.0
  H  H65  1  0.20637000  0.84615000  0.68578000  1.0
  H  H66  1  0.29364000  0.34615000  0.68577000  1.0
  H  H67  1  0.79363000  0.15385000  0.31422000  1.0
  C  C68  1  0.37688000  0.95856000  0.26221000  1.0
  C  C69  1  0.87688000  0.54145000  0.73779000  1.0
  C  C70  1  0.62312000  0.04144000  0.73779000  1.0
  C  C71  1  0.12312000  0.45855000  0.26221000  1.0
  C  C72  1  0.26517000  0.18380000  0.30707000  1.0
  C  C73  1  0.76517000  0.31621000  0.69294000  1.0
  C  C74  1  0.73483000  0.81620000  0.69293000  1.0
  C  C75  1  0.23483000  0.68379000  0.30706000  1.0
  C  C76  1  0.88205000  0.03534000  0.01061000  1.0
  C  C77  1  0.38205000  0.46465000  0.98939000  1.0
  C  C78  1  0.11795000  0.96466000  0.98939000  1.0
  C  C79  1  0.61795000  0.53535000  0.01061000  1.0
  C  C80  1  0.04798000  0.08575000  0.02477000  1.0
  C  C81  1  0.54798000  0.41425000  0.97523000  1.0
  C  C82  1  0.95202000  0.91425000  0.97523000  1.0
  C  C83  1  0.45202000  0.58576000  0.02477000  1.0
  C  C84  1  0.59531000  0.34152000  0.17978000  1.0
  C  C85  1  0.09531000  0.15848000  0.82022000  1.0
  C  C86  1  0.40469000  0.65848000  0.82022000  1.0
  C  C87  1  0.90469000  0.84152000  0.17978000  1.0
  C  C88  1  0.68193000  0.57467000  0.25053000  1.0
  C  C89  1  0.18193000  0.92533000  0.74947000  1.0
  C  C90  1  0.31807000  0.42533000  0.74947000  1.0
  C  C91  1  0.81807000  0.07467000  0.25053000  1.0
  C  C92  1  0.11881000  0.46814000  0.49594000  1.0
  C  C93  1  0.61882000  0.03187000  0.50406000  1.0
  C  C94  1  0.88118000  0.53186000  0.50406000  1.0
  C  C95  1  0.38118000  0.96814000  0.49594000  1.0
  C  C96  1  0.95572000  0.41448000  0.48494000  1.0
  C  C97  1  0.45572000  0.08552000  0.51506000  1.0
  C  C98  1  0.04428000  0.58552000  0.51506000  1.0
  C  C99  1  0.54428000  0.91448000  0.48494000  1.0
  S  S100  1  0.29911000  0.05232000  0.20410000  1.0
  S  S101  1  0.79910000  0.44769000  0.79590000  1.0
  S  S102  1  0.70089000  0.94768000  0.79590000  1.0
  S  S103  1  0.20089000  0.55231000  0.20410000  1.0
  S  S104  1  0.65056000  0.45453000  0.29066000  1.0
  S  S105  1  0.15056000  0.04547000  0.70934000  1.0
  S  S106  1  0.34944000  0.54547000  0.70934000  1.0
  S  S107  1  0.84944000  0.95453000  0.29066000  1.0
  O  O108  1  0.44414000  0.08179000  0.15320000  1.0
  O  O109  1  0.94414000  0.41822000  0.84680000  1.0
  O  O110  1  0.55586000  0.91821000  0.84680000  1.0
  O  O111  1  0.05586000  0.58178000  0.15320000  1.0
  O  O112  1  0.74229000  0.08110000  0.02440000  1.0
  O  O113  1  0.24227000  0.41889000  0.97560000  1.0
  O  O114  1  0.25771000  0.91890000  0.97560000  1.0
  O  O115  1  0.75773000  0.58111000  0.02440000  1.0
  O  O116  1  0.10421000  0.19028000  0.05408000  1.0
  O  O117  1  0.60422000  0.30972000  0.94591000  1.0
  O  O118  1  0.89579000  0.80972000  0.94592000  1.0
  O  O119  1  0.39578000  0.69028000  0.05409000  1.0
  O  O120  1  0.40251000  0.15065000  0.97346000  1.0
  O  O121  1  0.90250000  0.34935000  0.02654000  1.0
  O  O122  1  0.59749000  0.84935000  0.02654000  1.0
  O  O123  1  0.09750000  0.65065000  0.97346000  1.0
  O  O124  1  0.49327000  0.48491000  0.34939000  1.0
  O  O125  1  0.99327000  0.01509000  0.65061000  1.0
  O  O126  1  0.50673000  0.51510000  0.65061000  1.0
  O  O127  1  0.00673000  0.98491000  0.34939000  1.0
  O  O128  1  0.26013000  0.42614000  0.48956000  1.0
  O  O129  1  0.76014000  0.07385000  0.51044000  1.0
  O  O130  1  0.73987000  0.57386000  0.51045000  1.0
  O  O131  1  0.23986000  0.92615000  0.48956000  1.0
  O  O132  1  0.90411000  0.31046000  0.46742000  1.0
  O  O133  1  0.40411000  0.18954000  0.53257000  1.0
  O  O134  1  0.09589000  0.68954000  0.53258000  1.0
  O  O135  1  0.59589000  0.81046000  0.46743000  1.0
  O  O136  1  0.58376000  0.31630000  0.45580000  1.0
  O  O137  1  0.08376000  0.18370000  0.54420000  1.0
  O  O138  1  0.41624000  0.68370000  0.54420000  1.0
  O  O139  1  0.91624000  0.81630000  0.45580000  1.0
