# generated using pymatgen
data_CdH16C17SN2O7
_symmetry_space_group_name_H-M   'P 1'
_cell_length_a   8.02103000
_cell_length_b   8.43384000
_cell_length_c   14.88550000
_cell_angle_alpha   84.86650000
_cell_angle_beta   74.42030000
_cell_angle_gamma   70.76960000
_symmetry_Int_Tables_number   1
_chemical_formula_structural   CdH16C17SN2O7
_chemical_formula_sum   'Cd2 H32 C34 S2 N4 O14'
_cell_volume   915.85344239
_cell_formula_units_Z   2
loop_
 _symmetry_equiv_pos_site_id
 _symmetry_equiv_pos_as_xyz
  1  'x, y, z'
loop_
 _atom_site_type_symbol
 _atom_site_label
 _atom_site_symmetry_multiplicity
 _atom_site_fract_x
 _atom_site_fract_y
 _atom_site_fract_z
 _atom_site_occupancy
  Cd  Cd0  1  0.09313000  0.00140000  0.78584000  1.0
  Cd  Cd1  1  0.88004000  0.50104000  0.21468000  1.0
  H  H2  1  0.89340000  0.12715000  0.57351000  1.0
  H  H3  1  0.46942000  0.62520000  0.42643000  1.0
  H  H4  1  0.83354000  0.41429000  0.50600000  1.0
  H  H5  1  0.34326000  0.91211000  0.49406000  1.0
  H  H6  1  0.56734000  0.65109000  0.59004000  1.0
  H  H7  1  0.16044000  0.14965000  0.41032000  1.0
  H  H8  1  0.41144000  0.30674000  0.79969000  1.0
  H  H9  1  0.21173000  0.80677000  0.20064000  1.0
  H  H10  1  0.38665000  0.05289000  0.59880000  1.0
  H  H11  1  0.98568000  0.55320000  0.40200000  1.0
  H  H12  1  0.42396000  0.27971000  0.47861000  1.0
  H  H13  1  0.90332000  0.78065000  0.52163000  1.0
  H  H14  1  0.21307000  0.57220000  0.51532000  1.0
  H  H15  1  0.72987000  0.07314000  0.48396000  1.0
  H  H16  1  0.97040000  0.62985000  0.66340000  1.0
  H  H17  1  0.63577000  0.13007000  0.33565000  1.0
  H  H18  1  0.76222000  0.65675000  0.77384000  1.0
  H  H19  1  0.53730000  0.15664000  0.22544000  1.0
  H  H20  1  0.50463000  0.67967000  0.91307000  1.0
  H  H21  1  0.41811000  0.17915000  0.08631000  1.0
  H  H22  1  0.49245000  0.42159000  0.01043000  1.0
  H  H23  1  0.50258000  0.92081000  0.98954000  1.0
  H  H24  1  0.73591000  0.14868000  0.95769000  1.0
  H  H25  1  0.69382000  0.64814000  0.04254000  1.0
  H  H26  1  0.17083000  0.12103000  0.94251000  1.0
  H  H27  1  0.11344000  0.62059000  0.05758000  1.0
  H  H28  1  0.36117000  0.01030000  0.87265000  1.0
  H  H29  1  0.23441000  0.50988000  0.12739000  1.0
  H  H30  1  0.11966000  0.70820000  0.92271000  1.0
  H  H31  1  0.04299000  0.20879000  0.07720000  1.0
  H  H32  1  0.14017000  0.85058000  0.97544000  1.0
  H  H33  1  0.11567000  0.35111000  0.02416000  1.0
  C  C34  1  0.65377000  0.19920000  0.68937000  1.0
  C  C35  1  0.34471000  0.69841000  0.31073000  1.0
  C  C36  1  0.77357000  0.22920000  0.60711000  1.0
  C  C37  1  0.38309000  0.72767000  0.39294000  1.0
  C  C38  1  0.74036000  0.39116000  0.57011000  1.0
  C  C39  1  0.31348000  0.88945000  0.43003000  1.0
  C  C40  1  0.59117000  0.52264000  0.61584000  1.0
  C  C41  1  0.20970000  0.02130000  0.38447000  1.0
  C  C42  1  0.47230000  0.49193000  0.69843000  1.0
  C  C43  1  0.17249000  0.99130000  0.30194000  1.0
  C  C44  1  0.50344000  0.32910000  0.73501000  1.0
  C  C45  1  0.23961000  0.82869000  0.26526000  1.0
  C  C46  1  0.31511000  0.63336000  0.75088000  1.0
  C  C47  1  0.06740000  0.13333000  0.24970000  1.0
  C  C48  1  0.29348000  0.18144000  0.60753000  1.0
  C  C49  1  0.90152000  0.68174000  0.39291000  1.0
  C  C50  1  0.31664000  0.30727000  0.54315000  1.0
  C  C51  1  0.86054000  0.80786000  0.45700000  1.0
  C  C52  1  0.19771000  0.47009000  0.56360000  1.0
  C  C53  1  0.76259000  0.97067000  0.43602000  1.0
  C  C54  1  0.06000000  0.50211000  0.64599000  1.0
  C  C55  1  0.70753000  0.00233000  0.35343000  1.0
  C  C56  1  0.03928000  0.36769000  0.70560000  1.0
  C  C57  1  0.74607000  0.86768000  0.29421000  1.0
  C  C58  1  0.88633000  0.38953000  0.79092000  1.0
  C  C59  1  0.67824000  0.88935000  0.20886000  1.0
  C  C60  1  0.75481000  0.54626000  0.81607000  1.0
  C  C61  1  0.57179000  0.04605000  0.18347000  1.0
  C  C62  1  0.61025000  0.55893000  0.89457000  1.0
  C  C63  1  0.50526000  0.05850000  0.10504000  1.0
  C  C64  1  0.60124000  0.41607000  0.94768000  1.0
  C  C65  1  0.54897000  0.91551000  0.05223000  1.0
  C  C66  1  0.73708000  0.26438000  0.91897000  1.0
  C  C67  1  0.65636000  0.76392000  0.08109000  1.0
  S  S68  1  0.69219000  0.98991000  0.73266000  1.0
  S  S69  1  0.42594000  0.48942000  0.26718000  1.0
  N  N70  1  0.15663000  0.21114000  0.68553000  1.0
  N  N71  1  0.84297000  0.71113000  0.31473000  1.0
  N  N72  1  0.87430000  0.25135000  0.84233000  1.0
  N  N73  1  0.71739000  0.75101000  0.15769000  1.0
  O  O74  1  0.89046000  0.92057000  0.72781000  1.0
  O  O75  1  0.61944000  0.41989000  0.27189000  1.0
  O  O76  1  0.64347000  0.89899000  0.67011000  1.0
  O  O77  1  0.31488000  0.39821000  0.32963000  1.0
  O  O78  1  0.57999000  0.00263000  0.82968000  1.0
  O  O79  1  0.41010000  0.50310000  0.17018000  1.0
  O  O80  1  0.21457000  0.60004000  0.82601000  1.0
  O  O81  1  0.04251000  0.10088000  0.17422000  1.0
  O  O82  1  0.29914000  0.77945000  0.71376000  1.0
  O  O83  1  0.01342000  0.27895000  0.28736000  1.0
  O  O84  1  0.23278000  0.01403000  0.90310000  1.0
  O  O85  1  0.13617000  0.51356000  0.09709000  1.0
  O  O86  1  0.07443000  0.76790000  0.98450000  1.0
  O  O87  1  0.05901000  0.26831000  0.01530000  1.0
