# generated using pymatgen
data_CdH10C10(N2Cl)2
_symmetry_space_group_name_H-M   'P 1'
_cell_length_a   7.04457000
_cell_length_b   9.53275000
_cell_length_c   18.08850000
_cell_angle_alpha   89.99700000
_cell_angle_beta   89.99300000
_cell_angle_gamma   89.99580000
_symmetry_Int_Tables_number   1
_chemical_formula_structural   CdH10C10(N2Cl)2
_chemical_formula_sum   'Cd4 H40 C40 N16 Cl8'
_cell_volume   1214.71737005
_cell_formula_units_Z   4
loop_
 _symmetry_equiv_pos_site_id
 _symmetry_equiv_pos_as_xyz
  1  'x, y, z'
loop_
 _atom_site_type_symbol
 _atom_site_label
 _atom_site_symmetry_multiplicity
 _atom_site_fract_x
 _atom_site_fract_y
 _atom_site_fract_z
 _atom_site_occupancy
  Cd  Cd0  1  0.25000000  0.91290000  0.00000000  1.0
  Cd  Cd1  1  0.25003000  0.41288000  0.50000000  1.0
  Cd  Cd2  1  0.74996000  0.08711000  0.00001000  1.0
  Cd  Cd3  1  0.74999000  0.58711000  0.50000000  1.0
  H  H4  1  0.30031000  0.36039000  0.05404000  1.0
  H  H5  1  0.19968000  0.86040000  0.55402000  1.0
  H  H6  1  0.80031000  0.63961000  0.05400000  1.0
  H  H7  1  0.30027000  0.86037000  0.44595000  1.0
  H  H8  1  0.69970000  0.63962000  0.94595000  1.0
  H  H9  1  0.80032000  0.13961000  0.44599000  1.0
  H  H10  1  0.19969000  0.36040000  0.94599000  1.0
  H  H11  1  0.69975000  0.13960000  0.55404000  1.0
  H  H12  1  0.44476000  0.37468000  0.17620000  1.0
  H  H13  1  0.05518000  0.87464000  0.67618000  1.0
  H  H14  1  0.94477000  0.62533000  0.17617000  1.0
  H  H15  1  0.44477000  0.87467000  0.32378000  1.0
  H  H16  1  0.55523000  0.62534000  0.82380000  1.0
  H  H17  1  0.94483000  0.12535000  0.32382000  1.0
  H  H18  1  0.05523000  0.37467000  0.82383000  1.0
  H  H19  1  0.55524000  0.12532000  0.67622000  1.0
  H  H20  1  0.46355000  0.82587000  0.15076000  1.0
  H  H21  1  0.03640000  0.32585000  0.65078000  1.0
  H  H22  1  0.96353000  0.17413000  0.15077000  1.0
  H  H23  1  0.46373000  0.32586000  0.34925000  1.0
  H  H24  1  0.53638000  0.17413000  0.84925000  1.0
  H  H25  1  0.96363000  0.67414000  0.34922000  1.0
  H  H26  1  0.03644000  0.82589000  0.84923000  1.0
  H  H27  1  0.53629000  0.67413000  0.65076000  1.0
  H  H28  1  0.52278000  0.54923000  0.28492000  1.0
  H  H29  1  0.97716000  0.04919000  0.78492000  1.0
  H  H30  1  0.02277000  0.45076000  0.28490000  1.0
  H  H31  1  0.52291000  0.04928000  0.21507000  1.0
  H  H32  1  0.47720000  0.45078000  0.71509000  1.0
  H  H33  1  0.02284000  0.95080000  0.21508000  1.0
  H  H34  1  0.97722000  0.54923000  0.71510000  1.0
  H  H35  1  0.47710000  0.95073000  0.78493000  1.0
  H  H36  1  0.57377000  0.71489000  0.26202000  1.0
  H  H37  1  0.92621000  0.21488000  0.76205000  1.0
  H  H38  1  0.07376000  0.28508000  0.26202000  1.0
  H  H39  1  0.57397000  0.21491000  0.23797000  1.0
  H  H40  1  0.42622000  0.28511000  0.73798000  1.0
  H  H41  1  0.07382000  0.78512000  0.23796000  1.0
  H  H42  1  0.92624000  0.71491000  0.73797000  1.0
  H  H43  1  0.42605000  0.78509000  0.76203000  1.0
  C  C44  1  0.20355000  0.58667000  0.96345000  1.0
  C  C45  1  0.29646000  0.08666000  0.46344000  1.0
  C  C46  1  0.70353000  0.41334000  0.96344000  1.0
  C  C47  1  0.20354000  0.08667000  0.53654000  1.0
  C  C48  1  0.79645000  0.41334000  0.03654000  1.0
  C  C49  1  0.70355000  0.91332000  0.53656000  1.0
  C  C50  1  0.29646000  0.58667000  0.03655000  1.0
  C  C51  1  0.79647000  0.91332000  0.46345000  1.0
  C  C52  1  0.33410000  0.46333000  0.07656000  1.0
  C  C53  1  0.16589000  0.96333000  0.57655000  1.0
  C  C54  1  0.83410000  0.53667000  0.07654000  1.0
  C  C55  1  0.33411000  0.96332000  0.42344000  1.0
  C  C56  1  0.66590000  0.53667000  0.92343000  1.0
  C  C57  1  0.83410000  0.03667000  0.42346000  1.0
  C  C58  1  0.16590000  0.46334000  0.92345000  1.0
  C  C59  1  0.66591000  0.03666000  0.57657000  1.0
  C  C60  1  0.41667000  0.47107000  0.14582000  1.0
  C  C61  1  0.08330000  0.97105000  0.64582000  1.0
  C  C62  1  0.91667000  0.52893000  0.14580000  1.0
  C  C63  1  0.41668000  0.97106000  0.35416000  1.0
  C  C64  1  0.58333000  0.52894000  0.85417000  1.0
  C  C65  1  0.91670000  0.02894000  0.35418000  1.0
  C  C66  1  0.08333000  0.47109000  0.85419000  1.0
  C  C67  1  0.58333000  0.02892000  0.64584000  1.0
  C  C68  1  0.46543000  0.60223000  0.17616000  1.0
  C  C69  1  0.03450000  0.10220000  0.67617000  1.0
  C  C70  1  0.96542000  0.39777000  0.17616000  1.0
  C  C71  1  0.46551000  0.10222000  0.32383000  1.0
  C  C72  1  0.53455000  0.39778000  0.82384000  1.0
  C  C73  1  0.96551000  0.89780000  0.32384000  1.0
  C  C74  1  0.03455000  0.60224000  0.82384000  1.0
  C  C75  1  0.53450000  0.89777000  0.67618000  1.0
  C  C76  1  0.42635000  0.72028000  0.13217000  1.0
  C  C77  1  0.07362000  0.22026000  0.63218000  1.0
  C  C78  1  0.92633000  0.27972000  0.13217000  1.0
  C  C79  1  0.42649000  0.22027000  0.36784000  1.0
  C  C80  1  0.57361000  0.27973000  0.86783000  1.0
  C  C81  1  0.92640000  0.77973000  0.36782000  1.0
  C  C82  1  0.07365000  0.72029000  0.86783000  1.0
  C  C83  1  0.57352000  0.77972000  0.63217000  1.0
  N  N84  1  0.15522000  0.71181000  0.93424000  1.0
  N  N85  1  0.34489000  0.21179000  0.43424000  1.0
  N  N86  1  0.65519000  0.28821000  0.93424000  1.0
  N  N87  1  0.15523000  0.21180000  0.56577000  1.0
  N  N88  1  0.84475000  0.28820000  0.06576000  1.0
  N  N89  1  0.65514000  0.78819000  0.56576000  1.0
  N  N90  1  0.34478000  0.71180000  0.06576000  1.0
  N  N91  1  0.84479000  0.78819000  0.43423000  1.0
  N  N92  1  0.55800000  0.61554000  0.24286000  1.0
  N  N93  1  0.94197000  0.11552000  0.74288000  1.0
  N  N94  1  0.05799000  0.38444000  0.24286000  1.0
  N  N95  1  0.55814000  0.11555000  0.25713000  1.0
  N  N96  1  0.44199000  0.38447000  0.75714000  1.0
  N  N97  1  0.05805000  0.88448000  0.25713000  1.0
  N  N98  1  0.94201000  0.61556000  0.75714000  1.0
  N  N99  1  0.44188000  0.88445000  0.74287000  1.0
  Cl  Cl100  1  0.42414000  0.08780000  0.08574000  1.0
  Cl  Cl101  1  0.07575000  0.58780000  0.58573000  1.0
  Cl  Cl102  1  0.92417000  0.91220000  0.08573000  1.0
  Cl  Cl103  1  0.42424000  0.58780000  0.41427000  1.0
  Cl  Cl104  1  0.57582000  0.91222000  0.91427000  1.0
  Cl  Cl105  1  0.92427000  0.41219000  0.41427000  1.0
  Cl  Cl106  1  0.07580000  0.08781000  0.91427000  1.0
  Cl  Cl107  1  0.57578000  0.41219000  0.58573000  1.0
