# generated using pymatgen
data_NiH21C21(NO2)2
_symmetry_space_group_name_H-M   'P 1'
_cell_length_a   7.47218000
_cell_length_b   11.36080000
_cell_length_c   12.20580000
_cell_angle_alpha   96.52700000
_cell_angle_beta   106.76700000
_cell_angle_gamma   104.50700000
_symmetry_Int_Tables_number   1
_chemical_formula_structural   NiH21C21(NO2)2
_chemical_formula_sum   'Ni2 H42 C42 N4 O8'
_cell_volume   940.94702930
_cell_formula_units_Z   2
loop_
 _symmetry_equiv_pos_site_id
 _symmetry_equiv_pos_as_xyz
  1  'x, y, z'
loop_
 _atom_site_type_symbol
 _atom_site_label
 _atom_site_symmetry_multiplicity
 _atom_site_fract_x
 _atom_site_fract_y
 _atom_site_fract_z
 _atom_site_occupancy
  Ni  Ni0  1  0.34904000  0.93067000  0.00980000  1.0
  Ni  Ni1  1  0.65096000  0.06933000  0.99021000  1.0
  H  H2  1  0.91199000  0.85317000  0.01169000  1.0
  H  H3  1  0.08801000  0.14684000  0.98830000  1.0
  H  H4  1  0.37416000  0.70396000  0.14437000  1.0
  H  H5  1  0.62584000  0.29605000  0.85564000  1.0
  H  H6  1  0.03483000  0.55632000  0.17063000  1.0
  H  H7  1  0.96516000  0.44368000  0.82937000  1.0
  H  H8  1  0.63945000  0.71542000  0.05395000  1.0
  H  H9  1  0.36054000  0.28459000  0.94604000  1.0
  H  H10  1  0.70904000  0.64539000  0.17503000  1.0
  H  H11  1  0.29095000  0.35463000  0.82496000  1.0
  H  H12  1  0.67607000  0.45071000  0.04282000  1.0
  H  H13  1  0.32392000  0.54929000  0.95718000  1.0
  H  H14  1  0.62767000  0.52301000  0.92108000  1.0
  H  H15  1  0.37232000  0.47698000  0.07892000  1.0
  H  H16  1  0.84757000  0.79986000  0.80074000  1.0
  H  H17  1  0.15244000  0.20014000  0.19926000  1.0
  H  H18  1  0.88297000  0.61626000  0.68912000  1.0
  H  H19  1  0.11704000  0.38374000  0.31088000  1.0
  H  H20  1  0.28563000  0.41406000  0.63952000  1.0
  H  H21  1  0.71437000  0.58595000  0.36048000  1.0
  H  H22  1  0.25321000  0.59806000  0.75624000  1.0
  H  H23  1  0.74680000  0.40195000  0.24376000  1.0
  H  H24  1  0.74421000  0.41278000  0.56763000  1.0
  H  H25  1  0.25578000  0.58721000  0.43237000  1.0
  H  H26  1  0.48629000  0.34543000  0.51325000  1.0
  H  H27  1  0.51371000  0.65457000  0.48675000  1.0
  H  H28  1  0.62610000  0.31801000  0.64700000  1.0
  H  H29  1  0.37390000  0.68199000  0.35300000  1.0
  H  H30  1  0.65878000  0.85184000  0.33718000  1.0
  H  H31  1  0.34121000  0.14817000  0.66282000  1.0
  H  H32  1  0.86547000  0.79044000  0.50758000  1.0
  H  H33  1  0.13453000  0.20956000  0.49243000  1.0
  H  H34  1  0.37236000  0.93905000  0.40907000  1.0
  H  H35  1  0.62763000  0.06093000  0.59092000  1.0
  H  H36  1  0.16871000  0.00656000  0.24379000  1.0
  H  H37  1  0.83128000  0.99343000  0.75621000  1.0
  H  H38  1  0.40074000  0.82366000  0.56509000  1.0
  H  H39  1  0.59925000  0.17634000  0.43491000  1.0
  H  H40  1  0.18642000  0.73170000  0.58503000  1.0
  H  H41  1  0.81358000  0.26829000  0.41496000  1.0
  H  H42  1  0.28768000  0.88960000  0.65448000  1.0
  H  H43  1  0.71232000  0.11040000  0.34552000  1.0
  C  C44  1  0.99300000  0.79273000  0.05043000  1.0
  C  C45  1  0.00700000  0.20727000  0.94957000  1.0
  C  C46  1  0.22723000  0.71179000  0.12048000  1.0
  C  C47  1  0.77276000  0.28821000  0.87952000  1.0
  C  C48  1  0.06148000  0.63955000  0.13492000  1.0
  C  C49  1  0.93852000  0.36046000  0.86508000  1.0
  C  C50  1  0.71201000  0.64718000  0.08570000  1.0
  C  C51  1  0.28798000  0.35282000  0.91430000  1.0
  C  C52  1  0.60839000  0.51969000  0.00683000  1.0
  C  C53  1  0.39161000  0.48032000  0.99317000  1.0
  C  C54  1  0.52896000  0.81666000  0.86225000  1.0
  C  C55  1  0.47105000  0.18334000  0.13775000  1.0
  C  C56  1  0.54784000  0.70987000  0.78716000  1.0
  C  C57  1  0.45217000  0.29014000  0.21285000  1.0
  C  C58  1  0.72447000  0.71520000  0.76637000  1.0
  C  C59  1  0.27554000  0.28481000  0.23364000  1.0
  C  C60  1  0.74371000  0.61123000  0.70351000  1.0
  C  C61  1  0.25629000  0.38878000  0.29649000  1.0
  C  C62  1  0.58842000  0.50077000  0.65824000  1.0
  C  C63  1  0.41158000  0.49923000  0.34176000  1.0
  C  C64  1  0.40984000  0.49814000  0.67611000  1.0
  C  C65  1  0.59017000  0.50187000  0.32389000  1.0
  C  C66  1  0.39035000  0.60069000  0.74037000  1.0
  C  C67  1  0.60966000  0.39931000  0.25963000  1.0
  C  C68  1  0.61223000  0.38864000  0.59298000  1.0
  C  C69  1  0.38777000  0.61136000  0.40702000  1.0
  C  C70  1  0.77402000  0.96837000  0.17772000  1.0
  C  C71  1  0.22598000  0.03163000  0.82228000  1.0
  C  C72  1  0.90010000  0.93385000  0.28034000  1.0
  C  C73  1  0.09989000  0.06615000  0.71966000  1.0
  C  C74  1  0.81586000  0.87111000  0.35433000  1.0
  C  C75  1  0.18413000  0.12888000  0.64568000  1.0
  C  C76  1  0.93163000  0.83590000  0.44853000  1.0
  C  C77  1  0.06837000  0.16410000  0.55147000  1.0
  C  C78  1  0.13378000  0.85998000  0.47024000  1.0
  C  C79  1  0.86622000  0.14001000  0.52976000  1.0
  C  C80  1  0.21598000  0.92122000  0.39471000  1.0
  C  C81  1  0.78401000  0.07877000  0.60528000  1.0
  C  C82  1  0.10223000  0.95960000  0.30180000  1.0
  C  C83  1  0.89777000  0.04039000  0.69820000  1.0
  C  C84  1  0.25859000  0.82403000  0.57333000  1.0
  C  C85  1  0.74141000  0.17596000  0.42667000  1.0
  N  N86  1  0.18164000  0.80604000  0.06743000  1.0
  N  N87  1  0.81836000  0.19397000  0.93257000  1.0
  N  N88  1  0.91518000  0.69234000  0.09053000  1.0
  N  N89  1  0.08482000  0.30766000  0.90946000  1.0
  O  O90  1  0.38165000  0.79634000  0.89805000  1.0
  O  O91  1  0.61836000  0.20367000  0.10195000  1.0
  O  O92  1  0.66451000  0.91979000  0.88851000  1.0
  O  O93  1  0.33550000  0.08022000  0.11149000  1.0
  O  O94  1  0.58887000  0.91826000  0.14701000  1.0
  O  O95  1  0.41113000  0.08174000  0.85300000  1.0
  O  O96  1  0.85737000  0.04411000  0.12474000  1.0
  O  O97  1  0.14264000  0.95589000  0.87526000  1.0
