# generated using pymatgen
data_Zn2H23C33N3O8
_symmetry_space_group_name_H-M   'P 1'
_cell_length_a   7.73844000
_cell_length_b   16.35510000
_cell_length_c   22.49870000
_cell_angle_alpha   90.00000000
_cell_angle_beta   89.99980000
_cell_angle_gamma   97.66630000
_symmetry_Int_Tables_number   1
_chemical_formula_structural   Zn2H23C33N3O8
_chemical_formula_sum   'Zn8 H92 C132 N12 O32'
_cell_volume   2822.05062792
_cell_formula_units_Z   4
loop_
 _symmetry_equiv_pos_site_id
 _symmetry_equiv_pos_as_xyz
  1  'x, y, z'
loop_
 _atom_site_type_symbol
 _atom_site_label
 _atom_site_symmetry_multiplicity
 _atom_site_fract_x
 _atom_site_fract_y
 _atom_site_fract_z
 _atom_site_occupancy
  Zn  Zn0  1  0.68627000  0.88152000  0.46465000  1.0
  Zn  Zn1  1  0.31372000  0.61847000  0.96465000  1.0
  Zn  Zn2  1  0.31372000  0.11848000  0.53535000  1.0
  Zn  Zn3  1  0.68627000  0.38153000  0.03535000  1.0
  Zn  Zn4  1  0.08231000  0.31242000  0.05510000  1.0
  Zn  Zn5  1  0.91767000  0.18758000  0.55510000  1.0
  Zn  Zn6  1  0.91768000  0.68758000  0.94490000  1.0
  Zn  Zn7  1  0.08232000  0.81242000  0.44490000  1.0
  H  H8  1  0.00477000  0.22892000  0.26887000  1.0
  H  H9  1  0.99523000  0.27109000  0.76886000  1.0
  H  H10  1  0.99525000  0.77109000  0.73114000  1.0
  H  H11  1  0.00477000  0.72891000  0.23113000  1.0
  H  H12  1  0.97150000  0.08452000  0.30944000  1.0
  H  H13  1  0.02849000  0.41548000  0.80944000  1.0
  H  H14  1  0.02851000  0.91548000  0.69057000  1.0
  H  H15  1  0.97150000  0.58452000  0.19056000  1.0
  H  H16  1  0.67583000  0.29859000  0.40938000  1.0
  H  H17  1  0.32416000  0.20141000  0.90938000  1.0
  H  H18  1  0.32417000  0.70141000  0.59062000  1.0
  H  H19  1  0.67583000  0.79859000  0.09062000  1.0
  H  H20  1  0.98929000  0.37579000  0.41902000  1.0
  H  H21  1  0.01071000  0.12422000  0.91902000  1.0
  H  H22  1  0.01072000  0.62421000  0.58098000  1.0
  H  H23  1  0.98930000  0.87579000  0.08098000  1.0
  H  H24  1  0.06684000  0.51648000  0.46095000  1.0
  H  H25  1  0.93316000  0.98353000  0.96095000  1.0
  H  H26  1  0.93316000  0.48353000  0.53905000  1.0
  H  H27  1  0.06684000  0.01648000  0.03905000  1.0
  H  H28  1  0.85078000  0.62266000  0.30819000  1.0
  H  H29  1  0.14922000  0.87734000  0.80819000  1.0
  H  H30  1  0.14922000  0.37734000  0.69181000  1.0
  H  H31  1  0.85078000  0.12266000  0.19182000  1.0
  H  H32  1  0.78895000  0.48224000  0.26193000  1.0
  H  H33  1  0.21105000  0.01776000  0.76193000  1.0
  H  H34  1  0.21106000  0.51776000  0.73806000  1.0
  H  H35  1  0.78896000  0.98224000  0.23807000  1.0
  H  H36  1  0.38888000  0.58222000  0.13954000  1.0
  H  H37  1  0.61112000  0.91778000  0.63954000  1.0
  H  H38  1  0.61112000  0.41778000  0.86046000  1.0
  H  H39  1  0.38888000  0.08222000  0.36046000  1.0
  H  H40  1  0.30182000  0.47690000  0.06355000  1.0
  H  H41  1  0.69817000  0.02310000  0.56355000  1.0
  H  H42  1  0.69817000  0.52310000  0.93645000  1.0
  H  H43  1  0.30182000  0.97690000  0.43645000  1.0
  H  H44  1  0.06604000  0.31070000  0.18710000  1.0
  H  H45  1  0.93395000  0.18930000  0.68710000  1.0
  H  H46  1  0.93395000  0.68930000  0.81290000  1.0
  H  H47  1  0.06605000  0.81070000  0.31290000  1.0
  H  H48  1  0.15502000  0.40742000  0.27108000  1.0
  H  H49  1  0.84499000  0.09258000  0.77108000  1.0
  H  H50  1  0.84498000  0.59258000  0.72892000  1.0
  H  H51  1  0.15502000  0.90742000  0.22892000  1.0
  H  H52  1  0.28929000  0.53578000  0.30655000  1.0
  H  H53  1  0.71071000  0.96422000  0.80655000  1.0
  H  H54  1  0.71070000  0.46422000  0.69345000  1.0
  H  H55  1  0.28930000  0.03578000  0.19345000  1.0
  H  H56  1  0.44349000  0.66430000  0.21361000  1.0
  H  H57  1  0.55652000  0.83569000  0.71361000  1.0
  H  H58  1  0.55653000  0.33569000  0.78639000  1.0
  H  H59  1  0.44348000  0.16431000  0.28639000  1.0
  H  H60  1  0.59637000  0.78749000  0.24965000  1.0
  H  H61  1  0.40364000  0.71250000  0.74965000  1.0
  H  H62  1  0.40364000  0.21250000  0.75035000  1.0
  H  H63  1  0.59637000  0.28749000  0.25035000  1.0
  H  H64  1  0.71295000  0.87839000  0.33395000  1.0
  H  H65  1  0.28706000  0.62161000  0.83395000  1.0
  H  H66  1  0.28705000  0.12161000  0.66605000  1.0
  H  H67  1  0.71295000  0.37839000  0.16605000  1.0
  H  H68  1  0.46875000  0.71424000  0.45766000  1.0
  H  H69  1  0.53124000  0.78575000  0.95766000  1.0
  H  H70  1  0.53124000  0.28576000  0.54234000  1.0
  H  H71  1  0.46875000  0.21425000  0.04234000  1.0
  H  H72  1  0.35428000  0.61532000  0.38070000  1.0
  H  H73  1  0.64572000  0.88467000  0.88070000  1.0
  H  H74  1  0.64572000  0.38467000  0.61930000  1.0
  H  H75  1  0.35427000  0.11533000  0.11930000  1.0
  H  H76  1  0.95666000  0.88717000  0.52715000  1.0
  H  H77  1  0.04334000  0.61283000  0.02715000  1.0
  H  H78  1  0.04334000  0.11283000  0.47285000  1.0
  H  H79  1  0.95665000  0.38717000  0.97285000  1.0
  H  H80  1  0.62720000  0.55868000  0.46174000  1.0
  H  H81  1  0.37281000  0.94132000  0.96174000  1.0
  H  H82  1  0.37279000  0.44132000  0.53826000  1.0
  H  H83  1  0.62720000  0.05868000  0.03826000  1.0
  H  H84  1  0.75072000  0.68661000  0.50785000  1.0
  H  H85  1  0.24929000  0.81339000  0.00785000  1.0
  H  H86  1  0.24929000  0.31339000  0.49215000  1.0
  H  H87  1  0.75071000  0.18661000  0.99215000  1.0
  H  H88  1  0.80350000  0.77378000  0.59692000  1.0
  H  H89  1  0.19651000  0.72623000  0.09692000  1.0
  H  H90  1  0.19650000  0.22623000  0.40309000  1.0
  H  H91  1  0.80349000  0.27378000  0.90308000  1.0
  H  H92  1  0.51168000  0.59951000  0.70269000  1.0
  H  H93  1  0.48832000  0.90049000  0.20269000  1.0
  H  H94  1  0.48832000  0.40049000  0.29731000  1.0
  H  H95  1  0.51168000  0.09951000  0.79731000  1.0
  H  H96  1  0.44038000  0.50556000  0.61819000  1.0
  H  H97  1  0.55962000  0.99445000  0.11819000  1.0
  H  H98  1  0.55962000  0.49445000  0.38181000  1.0
  H  H99  1  0.44037000  0.00555000  0.88181000  1.0
  C  C100  1  0.84060000  0.27119000  0.33647000  1.0
  C  C101  1  0.15940000  0.22881000  0.83646000  1.0
  C  C102  1  0.15941000  0.72881000  0.66353000  1.0
  C  C103  1  0.84060000  0.77119000  0.16353000  1.0
  C  C104  1  0.92478000  0.21177000  0.30785000  1.0
  C  C105  1  0.07521000  0.28823000  0.80784000  1.0
  C  C106  1  0.07523000  0.78823000  0.69216000  1.0
  C  C107  1  0.92478000  0.71177000  0.19215000  1.0
  C  C108  1  0.90679000  0.13217000  0.33048000  1.0
  C  C109  1  0.09320000  0.36784000  0.83048000  1.0
  C  C110  1  0.09322000  0.86783000  0.66952000  1.0
  C  C111  1  0.90679000  0.63217000  0.16951000  1.0
  C  C112  1  0.80518000  0.11024000  0.38115000  1.0
  C  C113  1  0.19481000  0.38976000  0.88115000  1.0
  C  C114  1  0.19482000  0.88976000  0.61885000  1.0
  C  C115  1  0.80519000  0.61024000  0.11885000  1.0
  C  C116  1  0.72246000  0.17108000  0.40960000  1.0
  C  C117  1  0.27753000  0.32892000  0.90960000  1.0
  C  C118  1  0.27753000  0.82892000  0.59040000  1.0
  C  C119  1  0.72246000  0.67108000  0.09040000  1.0
  C  C120  1  0.74051000  0.25170000  0.38740000  1.0
  C  C121  1  0.25949000  0.24830000  0.88740000  1.0
  C  C122  1  0.25949000  0.74830000  0.61260000  1.0
  C  C123  1  0.74051000  0.75170000  0.11260000  1.0
  C  C124  1  0.78797000  0.02199000  0.40129000  1.0
  C  C125  1  0.21202000  0.47801000  0.90129000  1.0
  C  C126  1  0.21203000  0.97801000  0.59871000  1.0
  C  C127  1  0.78797000  0.52199000  0.09871000  1.0
  C  C128  1  0.61288000  0.15325000  0.46437000  1.0
  C  C129  1  0.38710000  0.34675000  0.96437000  1.0
  C  C130  1  0.38711000  0.84675000  0.53563000  1.0
  C  C131  1  0.61289000  0.65325000  0.03563000  1.0
  C  C132  1  0.88303000  0.42117000  0.33806000  1.0
  C  C133  1  0.11697000  0.07883000  0.83806000  1.0
  C  C134  1  0.11698000  0.57883000  0.66194000  1.0
  C  C135  1  0.88303000  0.92117000  0.16194000  1.0
  C  C136  1  0.96017000  0.42943000  0.39429000  1.0
  C  C137  1  0.03983000  0.07058000  0.89428000  1.0
  C  C138  1  0.03984000  0.57058000  0.60571000  1.0
  C  C139  1  0.96017000  0.92943000  0.10571000  1.0
  C  C140  1  0.00103000  0.50816000  0.41819000  1.0
  C  C141  1  0.99898000  0.99185000  0.91819000  1.0
  C  C142  1  0.99898000  0.49185000  0.58181000  1.0
  C  C143  1  0.00102000  0.00816000  0.08181000  1.0
  C  C144  1  0.96079000  0.57810000  0.38799000  1.0
  C  C145  1  0.03921000  0.92190000  0.88799000  1.0
  C  C146  1  0.03922000  0.42190000  0.61201000  1.0
  C  C147  1  0.96078000  0.07810000  0.11201000  1.0
  C  C148  1  0.88190000  0.56828000  0.33170000  1.0
  C  C149  1  0.11810000  0.93172000  0.83170000  1.0
  C  C150  1  0.11811000  0.43172000  0.66830000  1.0
  C  C151  1  0.88190000  0.06828000  0.16830000  1.0
  C  C152  1  0.84535000  0.49046000  0.30630000  1.0
  C  C153  1  0.15464000  0.00954000  0.80630000  1.0
  C  C154  1  0.15465000  0.50953000  0.69370000  1.0
  C  C155  1  0.84535000  0.99046000  0.19370000  1.0
  C  C156  1  0.00511000  0.66153000  0.41485000  1.0
  C  C157  1  0.99488000  0.83848000  0.91485000  1.0
  C  C158  1  0.99488000  0.33848000  0.58515000  1.0
  C  C159  1  0.00511000  0.16153000  0.08516000  1.0
  C  C160  1  0.27857000  0.50430000  0.21339000  1.0
  C  C161  1  0.72144000  0.99570000  0.71339000  1.0
  C  C162  1  0.72144000  0.49569000  0.78661000  1.0
  C  C163  1  0.27857000  0.00430000  0.28661000  1.0
  C  C164  1  0.31943000  0.52306000  0.15354000  1.0
  C  C165  1  0.68058000  0.97694000  0.65354000  1.0
  C  C166  1  0.68057000  0.47694000  0.84647000  1.0
  C  C167  1  0.31943000  0.02306000  0.34646000  1.0
  C  C168  1  0.26943000  0.46461000  0.11012000  1.0
  C  C169  1  0.73057000  0.03539000  0.61012000  1.0
  C  C170  1  0.73057000  0.53539000  0.88988000  1.0
  C  C171  1  0.26943000  0.96461000  0.38988000  1.0
  C  C172  1  0.14013000  0.37125000  0.17961000  1.0
  C  C173  1  0.85987000  0.12875000  0.67961000  1.0
  C  C174  1  0.85986000  0.62875000  0.82039000  1.0
  C  C175  1  0.14013000  0.87125000  0.32039000  1.0
  C  C176  1  0.18819000  0.42578000  0.22564000  1.0
  C  C177  1  0.81181000  0.07421000  0.72564000  1.0
  C  C178  1  0.81181000  0.57421000  0.77436000  1.0
  C  C179  1  0.18819000  0.92579000  0.27436000  1.0
  C  C180  1  0.32568000  0.56072000  0.26255000  1.0
  C  C181  1  0.67432000  0.93928000  0.76255000  1.0
  C  C182  1  0.67433000  0.43928000  0.73745000  1.0
  C  C183  1  0.32568000  0.06072000  0.23745000  1.0
  C  C184  1  0.40999000  0.63826000  0.25751000  1.0
  C  C185  1  0.59002000  0.86174000  0.75751000  1.0
  C  C186  1  0.59003000  0.36174000  0.74249000  1.0
  C  C187  1  0.40998000  0.13826000  0.24249000  1.0
  C  C188  1  0.46667000  0.69229000  0.30709000  1.0
  C  C189  1  0.53334000  0.80770000  0.80709000  1.0
  C  C190  1  0.53334000  0.30770000  0.69291000  1.0
  C  C191  1  0.46666000  0.19230000  0.19291000  1.0
  C  C192  1  0.56646000  0.76870000  0.29525000  1.0
  C  C193  1  0.43354000  0.73130000  0.79526000  1.0
  C  C194  1  0.43355000  0.23130000  0.70474000  1.0
  C  C195  1  0.56646000  0.26870000  0.20474000  1.0
  C  C196  1  0.63015000  0.82002000  0.34150000  1.0
  C  C197  1  0.36985000  0.67998000  0.84151000  1.0
  C  C198  1  0.36985000  0.17998000  0.65849000  1.0
  C  C199  1  0.63015000  0.32002000  0.15849000  1.0
  C  C200  1  0.49784000  0.72781000  0.41112000  1.0
  C  C201  1  0.50217000  0.77218000  0.91112000  1.0
  C  C202  1  0.50216000  0.27219000  0.58888000  1.0
  C  C203  1  0.49783000  0.22781000  0.08888000  1.0
  C  C204  1  0.43287000  0.67263000  0.36732000  1.0
  C  C205  1  0.56714000  0.82736000  0.86732000  1.0
  C  C206  1  0.56714000  0.32736000  0.63268000  1.0
  C  C207  1  0.43286000  0.17264000  0.13268000  1.0
  C  C208  1  0.55493000  0.53576000  0.50144000  1.0
  C  C209  1  0.44506000  0.96424000  0.00144000  1.0
  C  C210  1  0.44506000  0.46425000  0.49856000  1.0
  C  C211  1  0.55494000  0.03576000  0.99856000  1.0
  C  C212  1  0.58840000  0.58744000  0.55409000  1.0
  C  C213  1  0.41160000  0.91256000  0.05409000  1.0
  C  C214  1  0.41161000  0.41256000  0.44591000  1.0
  C  C215  1  0.58839000  0.08744000  0.94591000  1.0
  C  C216  1  0.69204000  0.66473000  0.54997000  1.0
  C  C217  1  0.30796000  0.83528000  0.04997000  1.0
  C  C218  1  0.30796000  0.33528000  0.45004000  1.0
  C  C219  1  0.69203000  0.16473000  0.95003000  1.0
  C  C220  1  0.72355000  0.71381000  0.60055000  1.0
  C  C221  1  0.27646000  0.78619000  0.10055000  1.0
  C  C222  1  0.27646000  0.28619000  0.39945000  1.0
  C  C223  1  0.72353000  0.21381000  0.89944000  1.0
  C  C224  1  0.56195000  0.61739000  0.65853000  1.0
  C  C225  1  0.43805000  0.88262000  0.15853000  1.0
  C  C226  1  0.43805000  0.38262000  0.34148000  1.0
  C  C227  1  0.56195000  0.11738000  0.84147000  1.0
  C  C228  1  0.52241000  0.56420000  0.61084000  1.0
  C  C229  1  0.47759000  0.93581000  0.11084000  1.0
  C  C230  1  0.47760000  0.43580000  0.38916000  1.0
  C  C231  1  0.52240000  0.06420000  0.88916000  1.0
  N  N232  1  0.18015000  0.39001000  0.12270000  1.0
  N  N233  1  0.81986000  0.10999000  0.62270000  1.0
  N  N234  1  0.81985000  0.60999000  0.87730000  1.0
  N  N235  1  0.18015000  0.89001000  0.37730000  1.0
  N  N236  1  0.59627000  0.80054000  0.39897000  1.0
  N  N237  1  0.40373000  0.69945000  0.89897000  1.0
  N  N238  1  0.40372000  0.19945000  0.60103000  1.0
  N  N239  1  0.59627000  0.30055000  0.10103000  1.0
  N  N240  1  0.66086000  0.69140000  0.65464000  1.0
  N  N241  1  0.33914000  0.80860000  0.15464000  1.0
  N  N242  1  0.33914000  0.30860000  0.34536000  1.0
  N  N243  1  0.66085000  0.19140000  0.84536000  1.0
  O  O244  1  0.86616000  0.97229000  0.37286000  1.0
  O  O245  1  0.13383000  0.52771000  0.87286000  1.0
  O  O246  1  0.13385000  0.02771000  0.62714000  1.0
  O  O247  1  0.86617000  0.47230000  0.12714000  1.0
  O  O248  1  0.69095000  0.00177000  0.44756000  1.0
  O  O249  1  0.30902000  0.49823000  0.94756000  1.0
  O  O250  1  0.30904000  0.99823000  0.55244000  1.0
  O  O251  1  0.69095000  0.50177000  0.05244000  1.0
  O  O252  1  0.44828000  0.13771000  0.45760000  1.0
  O  O253  1  0.55171000  0.36228000  0.95760000  1.0
  O  O254  1  0.55171000  0.86228000  0.54240000  1.0
  O  O255  1  0.44828000  0.63771000  0.04240000  1.0
  O  O256  1  0.68331000  0.15983000  0.51513000  1.0
  O  O257  1  0.31667000  0.34017000  0.01513000  1.0
  O  O258  1  0.31669000  0.84017000  0.48486000  1.0
  O  O259  1  0.68332000  0.65983000  0.98487000  1.0
  O  O260  1  0.08902000  0.67115000  0.46340000  1.0
  O  O261  1  0.91097000  0.82885000  0.96340000  1.0
  O  O262  1  0.91096000  0.32885000  0.53660000  1.0
  O  O263  1  0.08902000  0.17115000  0.03660000  1.0
  O  O264  1  0.95737000  0.72364000  0.38692000  1.0
  O  O265  1  0.04263000  0.77636000  0.88692000  1.0
  O  O266  1  0.04263000  0.27636000  0.61308000  1.0
  O  O267  1  0.95736000  0.22364000  0.11308000  1.0
  O  O268  1  0.84931000  0.34705000  0.30821000  1.0
  O  O269  1  0.15069000  0.15295000  0.80820000  1.0
  O  O270  1  0.15071000  0.65295000  0.69180000  1.0
  O  O271  1  0.84931000  0.84705000  0.19179000  1.0
  O  O272  1  0.90641000  0.85073000  0.49578000  1.0
  O  O273  1  0.09359000  0.64927000  0.99578000  1.0
  O  O274  1  0.09358000  0.14927000  0.50422000  1.0
  O  O275  1  0.90640000  0.35072000  0.00422000  1.0
