# generated using pymatgen
data_CeH20C21N4O9
_symmetry_space_group_name_H-M   'P 1'
_cell_length_a   10.03030000
_cell_length_b   11.53580000
_cell_length_c   13.67050000
_cell_angle_alpha   67.09770000
_cell_angle_beta   86.05820000
_cell_angle_gamma   75.25020000
_symmetry_Int_Tables_number   1
_chemical_formula_structural   CeH20C21N4O9
_chemical_formula_sum   'Ce2 H40 C42 N8 O18'
_cell_volume   1408.25482302
_cell_formula_units_Z   2
loop_
 _symmetry_equiv_pos_site_id
 _symmetry_equiv_pos_as_xyz
  1  'x, y, z'
loop_
 _atom_site_type_symbol
 _atom_site_label
 _atom_site_symmetry_multiplicity
 _atom_site_fract_x
 _atom_site_fract_y
 _atom_site_fract_z
 _atom_site_occupancy
  Ce  Ce0  1  0.23408000  0.52799000  0.50142000  1.0
  Ce  Ce1  1  0.76405000  0.47158000  0.49938000  1.0
  H  H2  1  0.94796000  0.71759000  0.42047000  1.0
  H  H3  1  0.02466000  0.77847000  0.47957000  1.0
  H  H4  1  0.41733000  0.27934000  0.51072000  1.0
  H  H5  1  0.49821000  0.38162000  0.43641000  1.0
  H  H6  1  0.70623000  0.16686000  0.84011000  1.0
  H  H7  1  0.29230000  0.41313000  0.79069000  1.0
  H  H8  1  0.25935000  0.30360000  0.98582000  1.0
  H  H9  1  0.53984000  0.99382000  0.18217000  1.0
  H  H10  1  0.95913000  0.75940000  0.24350000  1.0
  H  H11  1  0.00692000  0.88482000  0.05576000  1.0
  H  H12  1  0.90092000  0.45407000  0.16437000  1.0
  H  H13  1  0.24236000  0.58326000  0.22661000  1.0
  H  H14  1  0.31097000  0.62043000  0.03934000  1.0
  H  H15  1  0.21763000  0.65117000  0.70181000  1.0
  H  H16  1  0.36971000  0.89532000  0.50941000  1.0
  H  H17  1  0.48719000  0.87149000  0.61224000  1.0
  H  H18  1  0.33010000  0.99377000  0.58765000  1.0
  H  H19  1  0.21339000  0.89145000  0.76772000  1.0
  H  H20  1  0.38698000  0.79936000  0.80432000  1.0
  H  H21  1  0.25163000  0.71784000  0.82196000  1.0
  H  H22  1  0.05193000  0.28196000  0.57990000  1.0
  H  H23  1  0.97335000  0.22019000  0.52281000  1.0
  H  H24  1  0.58430000  0.72100000  0.48976000  1.0
  H  H25  1  0.50223000  0.61946000  0.56348000  1.0
  H  H26  1  0.29385000  0.83403000  0.16012000  1.0
  H  H27  1  0.70659000  0.58546000  0.20982000  1.0
  H  H28  1  0.73966000  0.69402000  0.01452000  1.0
  H  H29  1  0.46072000  0.00583000  0.81820000  1.0
  H  H30  1  0.04151000  0.24047000  0.75627000  1.0
  H  H31  1  0.99320000  0.11506000  0.94384000  1.0
  H  H32  1  0.09889000  0.54612000  0.83514000  1.0
  H  H33  1  0.75667000  0.41779000  0.77291000  1.0
  H  H34  1  0.68848000  0.38036000  0.96019000  1.0
  H  H35  1  0.78437000  0.34827000  0.29766000  1.0
  H  H36  1  0.63130000  0.10508000  0.49037000  1.0
  H  H37  1  0.51253000  0.13034000  0.38791000  1.0
  H  H38  1  0.66880000  0.00719000  0.41163000  1.0
  H  H39  1  0.78597000  0.10870000  0.23182000  1.0
  H  H40  1  0.61248000  0.20117000  0.19553000  1.0
  H  H41  1  0.74827000  0.28231000  0.17737000  1.0
  C  C42  1  0.52833000  0.36919000  0.68578000  1.0
  C  C43  1  0.57672000  0.14128000  0.97659000  1.0
  C  C44  1  0.60584000  0.20001000  0.86915000  1.0
  C  C45  1  0.50326000  0.30031000  0.80086000  1.0
  C  C46  1  0.37542000  0.33765000  0.84244000  1.0
  C  C47  1  0.35712000  0.27527000  0.95070000  1.0
  C  C48  1  0.70811000  0.79502000  0.33977000  1.0
  C  C49  1  0.68048000  0.03267000  0.05278000  1.0
  C  C50  1  0.64444000  0.96682000  0.15701000  1.0
  C  C51  1  0.74454000  0.86695000  0.22765000  1.0
  C  C52  1  0.87731000  0.83553000  0.19115000  1.0
  C  C53  1  0.90354000  0.90565000  0.08587000  1.0
  C  C54  1  0.01615000  0.49379000  0.32036000  1.0
  C  C55  1  0.03819000  0.51337000  0.03727000  1.0
  C  C56  1  0.99285000  0.49036000  0.14056000  1.0
  C  C57  1  0.06571000  0.51498000  0.21062000  1.0
  C  C58  1  0.18322000  0.56198000  0.17460000  1.0
  C  C59  1  0.22037000  0.58278000  0.06996000  1.0
  C  C60  1  0.26698000  0.71764000  0.63758000  1.0
  C  C61  1  0.37776000  0.89660000  0.58842000  1.0
  C  C62  1  0.28921000  0.80247000  0.77055000  1.0
  C  C63  1  0.47085000  0.63121000  0.31461000  1.0
  C  C64  1  0.42319000  0.85835000  0.02362000  1.0
  C  C65  1  0.39402000  0.80021000  0.13112000  1.0
  C  C66  1  0.49621000  0.69957000  0.19941000  1.0
  C  C67  1  0.62379000  0.66128000  0.15798000  1.0
  C  C68  1  0.64220000  0.72317000  0.04963000  1.0
  C  C69  1  0.29310000  0.20465000  0.66044000  1.0
  C  C70  1  0.31968000  0.96706000  0.94731000  1.0
  C  C71  1  0.35602000  0.03281000  0.84317000  1.0
  C  C72  1  0.25611000  0.13273000  0.77241000  1.0
  C  C73  1  0.12323000  0.16427000  0.80868000  1.0
  C  C74  1  0.09668000  0.09417000  0.91390000  1.0
  C  C75  1  0.98356000  0.50626000  0.67939000  1.0
  C  C76  1  0.96157000  0.48702000  0.96220000  1.0
  C  C77  1  0.00687000  0.50998000  0.85898000  1.0
  C  C78  1  0.93383000  0.48562000  0.78876000  1.0
  C  C79  1  0.81611000  0.43879000  0.82493000  1.0
  C  C80  1  0.77915000  0.41790000  0.92957000  1.0
  C  C81  1  0.73470000  0.28218000  0.36192000  1.0
  C  C82  1  0.62223000  0.10432000  0.41130000  1.0
  C  C83  1  0.71054000  0.19787000  0.22900000  1.0
  N  N84  1  0.45455000  0.17961000  0.01705000  1.0
  N  N85  1  0.80848000  0.00235000  0.01761000  1.0
  N  N86  1  0.15087000  0.55993000  0.00180000  1.0
  N  N87  1  0.30965000  0.80225000  0.66398000  1.0
  N  N88  1  0.54507000  0.81910000  0.98324000  1.0
  N  N89  1  0.19158000  0.99744000  0.98229000  1.0
  N  N90  1  0.84875000  0.44062000  0.99782000  1.0
  N  N91  1  0.69073000  0.19823000  0.33558000  1.0
  O  O92  1  0.42481000  0.44858000  0.62579000  1.0
  O  O93  1  0.65085000  0.34994000  0.65372000  1.0
  O  O94  1  0.79960000  0.69199000  0.39700000  1.0
  O  O95  1  0.59304000  0.83602000  0.37300000  1.0
  O  O96  1  0.08893000  0.51053000  0.38434000  1.0
  O  O97  1  0.90249000  0.46152000  0.34478000  1.0
  O  O98  1  0.27910000  0.71131000  0.54731000  1.0
  O  O99  1  0.03863000  0.73354000  0.43119000  1.0
  O  O100  1  0.40708000  0.36321000  0.44612000  1.0
  O  O101  1  0.57468000  0.55220000  0.37463000  1.0
  O  O102  1  0.34857000  0.65021000  0.34653000  1.0
  O  O103  1  0.20153000  0.30744000  0.60288000  1.0
  O  O104  1  0.40855000  0.16401000  0.62760000  1.0
  O  O105  1  0.91171000  0.48859000  0.61535000  1.0
  O  O106  1  0.09737000  0.53884000  0.65482000  1.0
  O  O107  1  0.72351000  0.28834000  0.45231000  1.0
  O  O108  1  0.96084000  0.26624000  0.57029000  1.0
  O  O109  1  0.59378000  0.63706000  0.55427000  1.0
