# generated using pymatgen
data_VCuPH9C10(NO2)3
_symmetry_space_group_name_H-M   'P 1'
_cell_length_a   7.29817000
_cell_length_b   9.90537000
_cell_length_c   9.97699000
_cell_angle_alpha   106.97100000
_cell_angle_beta   102.62900000
_cell_angle_gamma   99.26110000
_symmetry_Int_Tables_number   1
_chemical_formula_structural   VCuPH9C10(NO2)3
_chemical_formula_sum   'V2 Cu2 P2 H18 C20 N6 O12'
_cell_volume   653.33978434
_cell_formula_units_Z   2
loop_
 _symmetry_equiv_pos_site_id
 _symmetry_equiv_pos_as_xyz
  1  'x, y, z'
loop_
 _atom_site_type_symbol
 _atom_site_label
 _atom_site_symmetry_multiplicity
 _atom_site_fract_x
 _atom_site_fract_y
 _atom_site_fract_z
 _atom_site_occupancy
  V  V0  1  0.96302000  0.70349000  0.61222000  1.0
  V  V1  1  0.03697000  0.29651000  0.38777000  1.0
  Cu  Cu2  1  0.39772000  0.50915000  0.23886000  1.0
  Cu  Cu3  1  0.60228000  0.49085000  0.76114000  1.0
  P  P4  1  0.66257000  0.39349000  0.43094000  1.0
  P  P5  1  0.33742000  0.60651000  0.56906000  1.0
  H  H6  1  0.30533000  0.21049000  0.08411000  1.0
  H  H7  1  0.69468000  0.78951000  0.91588000  1.0
  H  H8  1  0.08704000  0.03484000  0.84185000  1.0
  H  H9  1  0.91297000  0.96516000  0.15814000  1.0
  H  H10  1  0.92981000  0.13610000  0.65744000  1.0
  H  H11  1  0.07019000  0.86391000  0.34256000  1.0
  H  H12  1  0.99597000  0.40757000  0.72040000  1.0
  H  H13  1  0.00403000  0.59244000  0.27960000  1.0
  H  H14  1  0.13219000  0.62538000  0.88051000  1.0
  H  H15  1  0.86782000  0.37462000  0.11949000  1.0
  H  H16  1  0.25843000  0.86285000  0.96854000  1.0
  H  H17  1  0.74157000  0.13715000  0.03146000  1.0
  H  H18  1  0.46140000  0.08358000  0.18243000  1.0
  H  H19  1  0.53861000  0.91642000  0.81757000  1.0
  H  H20  1  0.64972000  0.04607000  0.40496000  1.0
  H  H21  1  0.35030000  0.95393000  0.59504000  1.0
  H  H22  1  0.61639000  0.79429000  0.41233000  1.0
  H  H23  1  0.38361000  0.20571000  0.58767000  1.0
  C  C24  1  0.23493000  0.24687000  0.99797000  1.0
  C  C25  1  0.76507000  0.75312000  0.00202000  1.0
  C  C26  1  0.11484000  0.15176000  0.86561000  1.0
  C  C27  1  0.88516000  0.84824000  0.13438000  1.0
  C  C28  1  0.02596000  0.20912000  0.76263000  1.0
  C  C29  1  0.97404000  0.79088000  0.23737000  1.0
  C  C30  1  0.06174000  0.35796000  0.79651000  1.0
  C  C31  1  0.93826000  0.64205000  0.20350000  1.0
  C  C32  1  0.18719000  0.44994000  0.93387000  1.0
  C  C33  1  0.81281000  0.55006000  0.06613000  1.0
  C  C34  1  0.33101000  0.71378000  0.07978000  1.0
  C  C35  1  0.66898000  0.28623000  0.92023000  1.0
  C  C36  1  0.34149000  0.85384000  0.06910000  1.0
  C  C37  1  0.65852000  0.14616000  0.93091000  1.0
  C  C38  1  0.45250000  0.97403000  0.18662000  1.0
  C  C39  1  0.54750000  0.02597000  0.81338000  1.0
  C  C40  1  0.55615000  0.95422000  0.31249000  1.0
  C  C41  1  0.44386000  0.04578000  0.68751000  1.0
  C  C42  1  0.53955000  0.81486000  0.31662000  1.0
  C  C43  1  0.46045000  0.18515000  0.68338000  1.0
  N  N44  1  0.27132000  0.39371000  0.03284000  1.0
  N  N45  1  0.72868000  0.60629000  0.96716000  1.0
  N  N46  1  0.21707000  0.59706000  0.96181000  1.0
  N  N47  1  0.78292000  0.40294000  0.03819000  1.0
  N  N48  1  0.42660000  0.69619000  0.20319000  1.0
  N  N49  1  0.57340000  0.30382000  0.79682000  1.0
  O  O50  1  0.51072000  0.35304000  0.28389000  1.0
  O  O51  1  0.48927000  0.64695000  0.71610000  1.0
  O  O52  1  0.58118000  0.39039000  0.55740000  1.0
  O  O53  1  0.41882000  0.60960000  0.44260000  1.0
  O  O54  1  0.80141000  0.54518000  0.45997000  1.0
  O  O55  1  0.19859000  0.45481000  0.54003000  1.0
  O  O56  1  0.79272000  0.27948000  0.41559000  1.0
  O  O57  1  0.20727000  0.72051000  0.58441000  1.0
  O  O58  1  0.89583000  0.85236000  0.61389000  1.0
  O  O59  1  0.10417000  0.14764000  0.38611000  1.0
  O  O60  1  0.97003000  0.67617000  0.76869000  1.0
  O  O61  1  0.02997000  0.32383000  0.23132000  1.0
