# generated using pymatgen
data_TmH14C14N3O9F4
_symmetry_space_group_name_H-M   'P 1'
_cell_length_a   11.26800000
_cell_length_b   12.29639234
_cell_length_c   20.07210000
_cell_angle_alpha   91.36109583
_cell_angle_beta   106.29280000
_cell_angle_gamma   117.26016353
_symmetry_Int_Tables_number   1
_chemical_formula_structural   TmH14C14N3O9F4
_chemical_formula_sum   'Tm4 H56 C56 N12 O36 F16'
_cell_volume   2334.85660343
_cell_formula_units_Z   4
loop_
 _symmetry_equiv_pos_site_id
 _symmetry_equiv_pos_as_xyz
  1  'x, y, z'
loop_
 _atom_site_type_symbol
 _atom_site_label
 _atom_site_symmetry_multiplicity
 _atom_site_fract_x
 _atom_site_fract_y
 _atom_site_fract_z
 _atom_site_occupancy
  Tm  Tm0  1  0.75546000  0.89083000  0.69643000  1.0
  Tm  Tm1  1  0.66797000  0.60908000  0.80353000  1.0
  Tm  Tm2  1  0.24454000  0.10917000  0.30357000  1.0
  Tm  Tm3  1  0.33203000  0.39092000  0.19647000  1.0
  H  H4  1  0.01433000  0.97145000  0.61440000  1.0
  H  H5  1  0.92839000  0.52864000  0.88551000  1.0
  H  H6  1  0.98569000  0.02856000  0.38560000  1.0
  H  H7  1  0.07161000  0.47136000  0.11449000  1.0
  H  H8  1  0.01923000  0.25794000  0.66096000  1.0
  H  H9  1  0.60049000  0.24207000  0.83910000  1.0
  H  H10  1  0.98077000  0.74206000  0.33904000  1.0
  H  H11  1  0.39950000  0.75792000  0.16090000  1.0
  H  H12  1  0.05145000  0.30772000  0.58160000  1.0
  H  H13  1  0.66235000  0.19234000  0.91848000  1.0
  H  H14  1  0.94856000  0.69228000  0.41840000  1.0
  H  H15  1  0.33765000  0.80765000  0.08152000  1.0
  H  H16  1  0.19681000  0.34293000  0.65888000  1.0
  H  H17  1  0.69535000  0.15723000  0.84122000  1.0
  H  H18  1  0.80319000  0.65707000  0.34112000  1.0
  H  H19  1  0.30465000  0.84277000  0.15878000  1.0
  H  H20  1  0.14553000  0.06317000  0.54896000  1.0
  H  H21  1  0.03340000  0.43714000  0.95116000  1.0
  H  H22  1  0.85447000  0.93683000  0.45104000  1.0
  H  H23  1  0.96659000  0.56285000  0.04883000  1.0
  H  H24  1  0.26268000  0.22594000  0.57696000  1.0
  H  H25  1  0.95996000  0.27435000  0.92330000  1.0
  H  H26  1  0.73732000  0.77406000  0.42304000  1.0
  H  H27  1  0.04004000  0.72565000  0.07670000  1.0
  H  H28  1  0.10126000  0.17255000  0.50713000  1.0
  H  H29  1  0.92156000  0.32783000  0.99301000  1.0
  H  H30  1  0.89875000  0.82746000  0.49287000  1.0
  H  H31  1  0.07844000  0.67217000  0.00699000  1.0
  H  H32  1  0.51145000  0.98848000  0.68100000  1.0
  H  H33  1  0.34164000  0.51153000  0.81898000  1.0
  H  H34  1  0.48855000  0.01152000  0.31899000  1.0
  H  H35  1  0.65836000  0.48847000  0.18102000  1.0
  H  H36  1  0.39657000  0.08853000  0.68121000  1.0
  H  H37  1  0.12658000  0.41154000  0.81888000  1.0
  H  H38  1  0.60343000  0.91147000  0.31879000  1.0
  H  H39  1  0.87341000  0.58845000  0.18112000  1.0
  H  H40  1  0.43827000  0.20788000  0.62856000  1.0
  H  H41  1  0.10176000  0.29220000  0.87154000  1.0
  H  H42  1  0.56173000  0.79212000  0.37143000  1.0
  H  H43  1  0.89824000  0.70780000  0.12846000  1.0
  H  H44  1  0.49956000  0.24986000  0.72196000  1.0
  H  H45  1  0.02746000  0.25022000  0.77814000  1.0
  H  H46  1  0.50044000  0.75014000  0.27804000  1.0
  H  H47  1  0.97254000  0.74978000  0.22186000  1.0
  H  H48  1  0.81979000  0.27997000  0.69397000  1.0
  H  H49  1  0.34533000  0.21984000  0.80583000  1.0
  H  H50  1  0.18021000  0.72003000  0.30603000  1.0
  H  H51  1  0.65467000  0.78016000  0.19417000  1.0
  H  H52  1  0.74029000  0.36714000  0.71669000  1.0
  H  H53  1  0.15595000  0.13284000  0.78313000  1.0
  H  H54  1  0.25971000  0.63286000  0.28330000  1.0
  H  H55  1  0.84406000  0.86716000  0.21687000  1.0
  H  H56  1  0.70688000  0.31498000  0.62633000  1.0
  H  H57  1  0.26508000  0.18485000  0.87348000  1.0
  H  H58  1  0.29312000  0.68502000  0.37367000  1.0
  H  H59  1  0.73492000  0.81515000  0.12652000  1.0
  C  C60  1  0.47546000  0.75024000  0.75006000  1.0
  C  C61  1  0.52454000  0.24976000  0.24994000  1.0
  C  C62  1  0.34123000  0.75025000  0.74996000  1.0
  C  C63  1  0.65877000  0.24975000  0.25004000  1.0
  C  C64  1  0.34298000  0.85582000  0.77863000  1.0
  C  C65  1  0.20893000  0.64455000  0.72131000  1.0
  C  C66  1  0.65702000  0.14418000  0.22137000  1.0
  C  C67  1  0.79107000  0.35545000  0.27869000  1.0
  C  C68  1  0.21918000  0.85597000  0.77811000  1.0
  C  C69  1  0.08537000  0.64400000  0.72193000  1.0
  C  C70  1  0.78082000  0.14403000  0.22189000  1.0
  C  C71  1  0.91463000  0.35600000  0.27807000  1.0
  C  C72  1  0.08722000  0.74990000  0.75005000  1.0
  C  C73  1  0.91278000  0.25010000  0.24995000  1.0
  C  C74  1  0.95257000  0.74978000  0.74999000  1.0
  C  C75  1  0.04742000  0.25021000  0.25001000  1.0
  C  C76  1  0.58179000  0.56377000  0.65286000  1.0
  C  C77  1  0.86563000  0.93615000  0.84711000  1.0
  C  C78  1  0.41821000  0.43623000  0.34713000  1.0
  C  C79  1  0.13437000  0.06385000  0.15290000  1.0
  C  C80  1  0.53963000  0.53094000  0.57405000  1.0
  C  C81  1  0.93509000  0.96912000  0.92593000  1.0
  C  C82  1  0.46037000  0.46906000  0.42595000  1.0
  C  C83  1  0.06491000  0.03088000  0.07408000  1.0
  C  C84  1  0.63917000  0.54558000  0.54170000  1.0
  C  C85  1  0.05235000  0.95462000  0.95842000  1.0
  C  C86  1  0.36083000  0.45442000  0.45830000  1.0
  C  C87  1  0.94765000  0.04538000  0.04158000  1.0
  C  C88  1  0.40010000  0.48529000  0.53115000  1.0
  C  C89  1  0.88371000  0.01459000  0.96871000  1.0
  C  C90  1  0.59990000  0.51471000  0.46885000  1.0
  C  C91  1  0.11629000  0.98541000  0.03129000  1.0
  C  C92  1  0.01253000  0.05510000  0.63397000  1.0
  C  C93  1  0.82344000  0.44495000  0.86598000  1.0
  C  C94  1  0.98748000  0.94490000  0.36603000  1.0
  C  C95  1  0.17656000  0.55505000  0.13402000  1.0
  C  C96  1  0.08760000  0.27328000  0.62887000  1.0
  C  C97  1  0.68565000  0.22682000  0.87120000  1.0
  C  C98  1  0.91240000  0.72672000  0.37113000  1.0
  C  C99  1  0.31435000  0.77317000  0.12879000  1.0
  C  C100  1  0.15127000  0.15400000  0.55770000  1.0
  C  C101  1  0.93963000  0.34631000  0.94245000  1.0
  C  C102  1  0.84874000  0.84600000  0.44230000  1.0
  C  C103  1  0.06037000  0.65369000  0.05755000  1.0
  C  C104  1  0.60973000  0.07006000  0.68141000  1.0
  C  C105  1  0.35792000  0.42992000  0.81852000  1.0
  C  C106  1  0.39027000  0.92994000  0.31859000  1.0
  C  C107  1  0.64208000  0.57008000  0.18148000  1.0
  C  C108  1  0.47716000  0.18063000  0.67813000  1.0
  C  C109  1  0.11818000  0.31944000  0.82194000  1.0
  C  C110  1  0.52284000  0.81937000  0.32187000  1.0
  C  C111  1  0.88182000  0.68056000  0.17806000  1.0
  C  C112  1  0.72592000  0.29193000  0.67954000  1.0
  C  C113  1  0.25397000  0.20797000  0.82028000  1.0
  C  C114  1  0.27407000  0.70806000  0.32045000  1.0
  C  C115  1  0.74603000  0.79203000  0.17972000  1.0
  N  N116  1  0.08157000  0.15604000  0.60830000  1.0
  N  N117  1  0.81731000  0.34411000  0.89175000  1.0
  N  N118  1  0.91843000  0.84396000  0.39170000  1.0
  N  N119  1  0.18268000  0.65588000  0.10825000  1.0
  N  N120  1  0.60538000  0.17636000  0.68093000  1.0
  N  N121  1  0.24775000  0.32362000  0.81900000  1.0
  N  N122  1  0.39462000  0.82364000  0.31907000  1.0
  N  N123  1  0.75224000  0.67637000  0.18100000  1.0
  N  N124  1  0.60912000  0.81195000  0.54777000  1.0
  N  N125  1  0.74940000  0.68790000  0.95220000  1.0
  N  N126  1  0.39088000  0.18805000  0.45223000  1.0
  N  N127  1  0.25060000  0.31210000  0.04780000  1.0
  O  O128  1  0.56167000  0.84257000  0.73111000  1.0
  O  O129  1  0.48826000  0.65793000  0.76909000  1.0
  O  O130  1  0.43833000  0.15744000  0.26890000  1.0
  O  O131  1  0.51174000  0.34208000  0.23091000  1.0
  O  O132  1  0.93231000  0.83388000  0.72238000  1.0
  O  O133  1  0.87577000  0.66563000  0.77754000  1.0
  O  O134  1  0.06769000  0.16612000  0.27762000  1.0
  O  O135  1  0.12423000  0.33437000  0.22246000  1.0
  O  O136  1  0.64628000  0.67805000  0.68111000  1.0
  O  O137  1  0.78740000  0.82187000  0.81895000  1.0
  O  O138  1  0.35371000  0.32195000  0.31889000  1.0
  O  O139  1  0.21261000  0.17813000  0.18105000  1.0
  O  O140  1  0.55385000  0.47848000  0.68900000  1.0
  O  O141  1  0.88697000  0.02138000  0.81091000  1.0
  O  O142  1  0.44615000  0.52153000  0.31100000  1.0
  O  O143  1  0.11303000  0.97862000  0.18909000  1.0
  O  O144  1  0.95032000  0.05344000  0.67716000  1.0
  O  O145  1  0.71964000  0.44646000  0.82277000  1.0
  O  O146  1  0.04968000  0.94656000  0.32285000  1.0
  O  O147  1  0.28036000  0.55354000  0.17723000  1.0
  O  O148  1  0.71717000  0.06045000  0.68340000  1.0
  O  O149  1  0.47293000  0.43950000  0.81647000  1.0
  O  O150  1  0.28283000  0.93955000  0.31660000  1.0
  O  O151  1  0.52707000  0.56050000  0.18353000  1.0
  O  O152  1  0.54838000  0.82285000  0.59058000  1.0
  O  O153  1  0.63494000  0.67704000  0.90945000  1.0
  O  O154  1  0.45162000  0.17715000  0.40942000  1.0
  O  O155  1  0.36506000  0.32296000  0.09055000  1.0
  O  O156  1  0.54769000  0.77611000  0.48358000  1.0
  O  O157  1  0.78816000  0.72385000  0.01639000  1.0
  O  O158  1  0.45230000  0.22388000  0.51642000  1.0
  O  O159  1  0.21185000  0.27615000  0.98361000  1.0
  O  O160  1  0.74028000  0.84011000  0.57622000  1.0
  O  O161  1  0.82378000  0.65955000  0.92369000  1.0
  O  O162  1  0.25971000  0.15989000  0.42378000  1.0
  O  O163  1  0.17622000  0.34045000  0.07630000  1.0
  F  F164  1  0.46720000  0.96129000  0.80951000  1.0
  F  F165  1  0.19715000  0.53925000  0.69040000  1.0
  F  F166  1  0.53280000  0.03872000  0.19049000  1.0
  F  F167  1  0.80286000  0.46076000  0.30960000  1.0
  F  F168  1  0.23044000  0.96200000  0.80734000  1.0
  F  F169  1  0.96159000  0.53784000  0.69269000  1.0
  F  F170  1  0.76955000  0.03800000  0.19266000  1.0
  F  F171  1  0.03841000  0.46216000  0.30731000  1.0
  F  F172  1  0.77600000  0.58915000  0.58136000  1.0
  F  F173  1  0.10630000  0.91113000  0.91892000  1.0
  F  F174  1  0.22399000  0.41085000  0.41864000  1.0
  F  F175  1  0.89370000  0.08887000  0.08108000  1.0
  F  F176  1  0.30050000  0.47182000  0.56048000  1.0
  F  F177  1  0.76815000  0.02784000  0.93921000  1.0
  F  F178  1  0.69950000  0.52818000  0.43952000  1.0
  F  F179  1  0.23185000  0.97216000  0.06079000  1.0
