# generated using pymatgen
data_Al3H7C42(Br3O13)2
_symmetry_space_group_name_H-M   'P 1'
_cell_length_a   11.98550000
_cell_length_b   12.10660000
_cell_length_c   28.67560000
_cell_angle_alpha   90.08160000
_cell_angle_beta   90.02040000
_cell_angle_gamma   61.99000000
_symmetry_Int_Tables_number   1
_chemical_formula_structural   Al3H7C42(Br3O13)2
_chemical_formula_sum   'Al6 H14 C84 Br12 O52'
_cell_volume   3673.54201599
_cell_formula_units_Z   2
loop_
 _symmetry_equiv_pos_site_id
 _symmetry_equiv_pos_as_xyz
  1  'x, y, z'
loop_
 _atom_site_type_symbol
 _atom_site_label
 _atom_site_symmetry_multiplicity
 _atom_site_fract_x
 _atom_site_fract_y
 _atom_site_fract_z
 _atom_site_occupancy
  Al  Al0  1  0.21060000  0.25108000  0.75140000  1.0
  Al  Al1  1  0.47574000  0.25754000  0.74982000  1.0
  Al  Al2  1  0.23774000  0.50215000  0.74983000  1.0
  Al  Al3  1  0.46734000  0.74916000  0.24888000  1.0
  Al  Al4  1  0.73746000  0.74653000  0.24992000  1.0
  Al  Al5  1  0.73624000  0.49977000  0.24977000  1.0
  H  H6  1  0.58502000  0.16416000  0.60105000  1.0
  H  H7  1  0.11695000  0.73317000  0.39372000  1.0
  H  H8  1  0.73517000  0.15518000  0.09060000  1.0
  H  H9  1  0.23167000  0.26449000  0.39015000  1.0
  H  H10  1  0.22414000  0.66242000  0.91350000  1.0
  H  H11  1  0.13614000  0.22887000  0.58575000  1.0
  H  H12  1  0.58011000  0.16425000  0.89946000  1.0
  H  H13  1  0.22077000  0.66471000  0.58660000  1.0
  H  H14  1  0.13900000  0.20100000  0.91366000  1.0
  H  H15  1  0.11927000  0.72910000  0.10746000  1.0
  H  H16  1  0.73617000  0.15589000  0.40804000  1.0
  H  H17  1  0.22229000  0.24936000  0.10967000  1.0
  H  H18  1  0.11651000  0.13076000  0.72483000  1.0
  H  H19  1  0.26030000  0.86220000  0.27673000  1.0
  C  C20  1  0.43374000  0.11105000  0.68494000  1.0
  C  C21  1  0.55558000  0.88717000  0.31577000  1.0
  C  C22  1  0.89183000  0.55058000  0.18681000  1.0
  C  C23  1  0.55733000  0.53183000  0.31667000  1.0
  C  C24  1  0.47572000  0.48533000  0.64332000  1.0
  C  C25  1  0.03960000  0.50234000  0.86309000  1.0
  C  C26  1  0.46411000  0.05223000  0.63971000  1.0
  C  C27  1  0.47729000  0.48406000  0.85639000  1.0
  C  C28  1  0.04120000  0.49838000  0.63624000  1.0
  C  C29  1  0.46903000  0.05237000  0.86033000  1.0
  C  C30  1  0.95574000  0.52000000  0.14270000  1.0
  C  C31  1  0.44236000  0.45284000  0.81257000  1.0
  C  C32  1  0.53771000  0.50231000  0.36346000  1.0
  C  C33  1  0.53517000  0.94183000  0.13817000  1.0
  C  C34  1  0.95725000  0.51961000  0.35659000  1.0
  C  C35  1  0.53693000  0.50311000  0.13633000  1.0
  C  C36  1  0.53061000  0.94268000  0.36142000  1.0
  C  C37  1  0.55809000  0.37618000  0.52733000  1.0
  C  C38  1  0.07727000  0.56661000  0.98359000  1.0
  C  C39  1  0.38495000  0.08823000  0.52171000  1.0
  C  C40  1  0.55525000  0.37662000  0.97291000  1.0
  C  C41  1  0.07504000  0.56809000  0.51615000  1.0
  C  C42  1  0.09113000  0.46550000  0.68270000  1.0
  C  C43  1  0.38915000  0.08233000  0.97766000  1.0
  C  C44  1  0.06827000  0.56052000  0.03206000  1.0
  C  C45  1  0.56580000  0.37817000  0.47879000  1.0
  C  C46  1  0.39575000  0.07665000  0.02628000  1.0
  C  C47  1  0.06669000  0.56188000  0.46766000  1.0
  C  C48  1  0.56254000  0.38030000  0.02141000  1.0
  C  C49  1  0.39280000  0.08074000  0.47312000  1.0
  C  C50  1  0.46843000  0.60645000  0.47992000  1.0
  C  C51  1  0.93951000  0.45403000  0.02332000  1.0
  C  C52  1  0.60734000  0.90773000  0.47951000  1.0
  C  C53  1  0.43279000  0.11334000  0.81569000  1.0
  C  C54  1  0.46915000  0.60825000  0.01956000  1.0
  C  C55  1  0.93810000  0.45519000  0.47581000  1.0
  C  C56  1  0.61642000  0.91462000  0.02074000  1.0
  C  C57  1  0.94811000  0.45998000  0.97496000  1.0
  C  C58  1  0.46428000  0.60478000  0.52853000  1.0
  C  C59  1  0.60913000  0.92068000  0.97216000  1.0
  C  C60  1  0.94556000  0.46174000  0.52421000  1.0
  C  C61  1  0.46510000  0.60516000  0.97094000  1.0
  C  C62  1  0.59934000  0.91610000  0.52804000  1.0
  C  C63  1  0.50650000  0.49014000  0.55281000  1.0
  C  C64  1  0.43883000  0.45644000  0.68716000  1.0
  C  C65  1  0.01688000  0.51577000  0.95430000  1.0
  C  C66  1  0.48763000  0.00649000  0.54964000  1.0
  C  C67  1  0.50592000  0.48996000  0.94703000  1.0
  C  C68  1  0.01459000  0.51690000  0.54519000  1.0
  C  C69  1  0.49521000  0.00490000  0.95016000  1.0
  C  C70  1  0.99884000  0.50581000  0.05238000  1.0
  C  C71  1  0.52008000  0.49251000  0.45445000  1.0
  C  C72  1  0.50934000  0.99058000  0.04846000  1.0
  C  C73  1  0.99823000  0.50650000  0.44702000  1.0
  C  C74  1  0.51881000  0.49518000  0.04528000  1.0
  C  C75  1  0.08891000  0.47162000  0.81656000  1.0
  C  C76  1  0.50378000  0.98885000  0.45137000  1.0
  C  C77  1  0.52742000  0.49558000  0.40544000  1.0
  C  C78  1  0.98107000  0.50887000  0.10120000  1.0
  C  C79  1  0.51454000  0.97040000  0.40261000  1.0
  C  C80  1  0.52620000  0.49842000  0.09428000  1.0
  C  C81  1  0.98174000  0.50894000  0.39816000  1.0
  C  C82  1  0.51947000  0.97144000  0.09718000  1.0
  C  C83  1  0.02701000  0.51375000  0.90525000  1.0
  C  C84  1  0.49303000  0.49030000  0.60168000  1.0
  C  C85  1  0.48705000  0.02188000  0.90127000  1.0
  C  C86  1  0.55784000  0.88584000  0.18360000  1.0
  C  C87  1  0.02619000  0.51268000  0.59423000  1.0
  C  C88  1  0.49339000  0.48939000  0.89813000  1.0
  C  C89  1  0.47958000  0.02362000  0.59855000  1.0
  C  C90  1  0.61363000  0.25107000  0.55103000  1.0
  C  C91  1  0.14910000  0.63093000  0.96626000  1.0
  C  C92  1  0.27588000  0.19414000  0.54613000  1.0
  C  C93  1  0.60523000  0.25015000  0.95067000  1.0
  C  C94  1  0.14810000  0.63097000  0.53364000  1.0
  C  C95  1  0.27627000  0.18089000  0.95217000  1.0
  C  C96  1  0.14065000  0.60094000  0.06500000  1.0
  C  C97  1  0.89271000  0.54997000  0.31257000  1.0
  C  C98  1  0.61216000  0.25840000  0.45163000  1.0
  C  C99  1  0.28051000  0.16509000  0.05236000  1.0
  C  C100  1  0.13828000  0.60293000  0.43470000  1.0
  C  C101  1  0.60502000  0.26333000  0.05012000  1.0
  C  C102  1  0.28118000  0.17284000  0.44633000  1.0
  C  C103  1  0.55705000  0.53109000  0.18325000  1.0
  Br  Br104  1  0.40723000  0.75715000  0.44668000  1.0
  Br  Br105  1  0.86585000  0.39377000  0.56299000  1.0
  Br  Br106  1  0.40234000  0.75382000  0.93570000  1.0
  Br  Br107  1  0.73407000  0.80963000  0.56664000  1.0
  Br  Br108  1  0.85175000  0.37794000  0.05100000  1.0
  Br  Br109  1  0.75629000  0.79030000  0.45025000  1.0
  Br  Br110  1  0.41050000  0.75925000  0.05254000  1.0
  Br  Br111  1  0.85076000  0.37924000  0.44766000  1.0
  Br  Br112  1  0.76923000  0.80821000  0.05054000  1.0
  Br  Br113  1  0.87009000  0.39101000  0.93572000  1.0
  Br  Br114  1  0.40033000  0.75417000  0.56353000  1.0
  Br  Br115  1  0.74753000  0.81922000  0.93409000  1.0
  O  O116  1  0.11479000  0.35830000  0.69740000  1.0
  O  O117  1  0.47662000  0.63591000  0.30065000  1.0
  O  O118  1  0.66115000  0.86735000  0.20418000  1.0
  O  O119  1  0.86193000  0.47030000  0.29562000  1.0
  O  O120  1  0.32863000  0.13452000  0.70262000  1.0
  O  O121  1  0.51552000  0.34358000  0.79642000  1.0
  O  O122  1  0.11331000  0.54649000  0.70443000  1.0
  O  O123  1  0.32095000  0.14779000  0.80258000  1.0
  O  O124  1  0.51366000  0.35069000  0.70527000  1.0
  O  O125  1  0.11813000  0.55037000  0.79682000  1.0
  O  O126  1  0.47761000  0.85499000  0.19878000  1.0
  O  O127  1  0.51698000  0.13237000  0.79422000  1.0
  O  O128  1  0.86461000  0.65711000  0.29518000  1.0
  O  O129  1  0.66042000  0.45166000  0.20318000  1.0
  O  O130  1  0.47384000  0.86079000  0.29866000  1.0
  O  O131  1  0.86267000  0.65842000  0.20392000  1.0
  O  O132  1  0.65942000  0.45186000  0.29608000  1.0
  O  O133  1  0.30912000  0.33701000  0.74993000  1.0
  O  O134  1  0.64894000  0.66442000  0.24984000  1.0
  O  O135  1  0.71322000  0.16282000  0.53869000  1.0
  O  O136  1  0.54235000  0.24751000  0.58666000  1.0
  O  O137  1  0.17892000  0.69346000  0.99209000  1.0
  O  O138  1  0.33078000  0.53490000  0.70334000  1.0
  O  O139  1  0.17874000  0.61466000  0.92056000  1.0
  O  O140  1  0.26515000  0.29932000  0.54746000  1.0
  O  O141  1  0.20097000  0.15667000  0.56869000  1.0
  O  O142  1  0.69280000  0.15658000  0.96731000  1.0
  O  O143  1  0.54300000  0.25021000  0.91164000  1.0
  O  O144  1  0.18270000  0.68908000  0.50754000  1.0
  O  O145  1  0.17331000  0.61886000  0.57968000  1.0
  O  O146  1  0.26005000  0.28754000  0.94767000  1.0
  O  O147  1  0.20603000  0.13408000  0.93200000  1.0
  O  O148  1  0.25026000  0.53183000  0.07549000  1.0
  O  O149  1  0.10560000  0.36845000  0.79969000  1.0
  O  O150  1  0.06662000  0.71299000  0.08505000  1.0
  O  O151  1  0.55917000  0.19392000  0.45214000  1.0
  O  O152  1  0.71531000  0.23299000  0.42547000  1.0
  O  O153  1  0.17479000  0.21278000  0.03500000  1.0
  O  O154  1  0.30365000  0.18936000  0.09618000  1.0
  O  O155  1  0.24618000  0.53260000  0.42244000  1.0
  O  O156  1  0.06470000  0.71724000  0.41633000  1.0
  O  O157  1  0.54068000  0.21104000  0.05547000  1.0
  O  O158  1  0.71714000  0.22885000  0.07148000  1.0
  O  O159  1  0.17331000  0.21873000  0.46167000  1.0
  O  O160  1  0.51624000  0.14009000  0.70207000  1.0
  O  O161  1  0.31072000  0.20202000  0.40434000  1.0
  O  O162  1  0.33797000  0.53237000  0.79432000  1.0
  O  O163  1  0.47533000  0.63361000  0.20013000  1.0
  O  O164  1  0.66232000  0.86421000  0.29716000  1.0
  O  O165  1  0.86273000  0.47039000  0.20437000  1.0
  O  O166  1  0.11969000  0.17302000  0.75302000  1.0
  O  O167  1  0.30181000  0.82435000  0.24773000  1.0
