# generated using pymatgen
data_HgH8C10S2(IN)2
_symmetry_space_group_name_H-M   'P 1'
_cell_length_a   8.61544000
_cell_length_b   8.61537000
_cell_length_c   10.99530000
_cell_angle_alpha   85.48410000
_cell_angle_beta   85.48390000
_cell_angle_gamma   72.13090000
_symmetry_Int_Tables_number   1
_chemical_formula_structural   HgH8C10S2(IN)2
_chemical_formula_sum   'Hg2 H16 C20 S4 I4 N4'
_cell_volume   773.06468522
_cell_formula_units_Z   2
loop_
 _symmetry_equiv_pos_site_id
 _symmetry_equiv_pos_as_xyz
  1  'x, y, z'
loop_
 _atom_site_type_symbol
 _atom_site_label
 _atom_site_symmetry_multiplicity
 _atom_site_fract_x
 _atom_site_fract_y
 _atom_site_fract_z
 _atom_site_occupancy
  Hg  Hg0  1  0.01850000  0.98150000  0.25000000  1.0
  Hg  Hg1  1  0.98150000  0.01850000  0.75000000  1.0
  H  H2  1  0.25823000  0.96577000  0.46797000  1.0
  H  H3  1  0.03422000  0.74178000  0.03202000  1.0
  H  H4  1  0.74178000  0.03422000  0.53203000  1.0
  H  H5  1  0.96576000  0.25824000  0.96798000  1.0
  H  H6  1  0.41510000  0.78594000  0.63365000  1.0
  H  H7  1  0.21405000  0.58491000  0.86634000  1.0
  H  H8  1  0.58491000  0.21404000  0.36634000  1.0
  H  H9  1  0.78593000  0.41511000  0.13366000  1.0
  H  H10  1  0.07454000  0.60331000  0.37257000  1.0
  H  H11  1  0.39669000  0.92547000  0.12742000  1.0
  H  H12  1  0.92547000  0.39669000  0.62742000  1.0
  H  H13  1  0.60332000  0.07453000  0.87258000  1.0
  H  H14  1  0.22825000  0.40352000  0.53091000  1.0
  H  H15  1  0.59648000  0.77174000  0.96909000  1.0
  H  H16  1  0.77173000  0.59648000  0.46909000  1.0
  H  H17  1  0.40352000  0.22825000  0.03091000  1.0
  C  C18  1  0.25447000  0.84032000  0.48547000  1.0
  C  C19  1  0.15967000  0.74554000  0.01452000  1.0
  C  C20  1  0.74553000  0.15966000  0.51452000  1.0
  C  C21  1  0.84032000  0.25448000  0.98548000  1.0
  C  C22  1  0.34274000  0.73930000  0.57728000  1.0
  C  C23  1  0.26070000  0.65726000  0.92272000  1.0
  C  C24  1  0.65726000  0.26070000  0.42272000  1.0
  C  C25  1  0.73929000  0.34274000  0.07729000  1.0
  C  C26  1  0.33534000  0.57925000  0.59502000  1.0
  C  C27  1  0.42074000  0.66466000  0.90498000  1.0
  C  C28  1  0.66466000  0.42074000  0.40498000  1.0
  C  C29  1  0.57925000  0.33534000  0.09502000  1.0
  C  C30  1  0.15269000  0.63809000  0.43200000  1.0
  C  C31  1  0.36191000  0.84732000  0.06800000  1.0
  C  C32  1  0.84732000  0.36191000  0.56800000  1.0
  C  C33  1  0.63809000  0.15268000  0.93200000  1.0
  C  C34  1  0.23814000  0.52723000  0.52028000  1.0
  C  C35  1  0.47276000  0.76186000  0.97972000  1.0
  C  C36  1  0.76186000  0.47276000  0.47972000  1.0
  C  C37  1  0.52723000  0.23814000  0.02029000  1.0
  S  S38  1  0.44149000  0.43577000  0.70712000  1.0
  S  S39  1  0.56423000  0.55850000  0.79288000  1.0
  S  S40  1  0.55850000  0.56423000  0.29289000  1.0
  S  S41  1  0.43576000  0.44149000  0.20712000  1.0
  I  I42  1  0.13778000  0.23555000  0.26313000  1.0
  I  I43  1  0.76444000  0.86222000  0.23687000  1.0
  I  I44  1  0.86222000  0.76444000  0.73687000  1.0
  I  I45  1  0.23555000  0.13778000  0.76313000  1.0
  N  N46  1  0.16095000  0.79160000  0.41416000  1.0
  N  N47  1  0.20839000  0.83906000  0.08583000  1.0
  N  N48  1  0.83906000  0.20839000  0.58583000  1.0
  N  N49  1  0.79160000  0.16095000  0.91417000  1.0
