# generated using pymatgen
data_HgH10C11(IN2)2
_symmetry_space_group_name_H-M   'P 1'
_cell_length_a   5.37423000
_cell_length_b   16.10910000
_cell_length_c   19.83630000
_cell_angle_alpha   90.00050000
_cell_angle_beta   90.00090000
_cell_angle_gamma   81.32620000
_symmetry_Int_Tables_number   1
_chemical_formula_structural   HgH10C11(IN2)2
_chemical_formula_sum   'Hg4 H40 C44 I8 N16'
_cell_volume   1697.66706939
_cell_formula_units_Z   4
loop_
 _symmetry_equiv_pos_site_id
 _symmetry_equiv_pos_as_xyz
  1  'x, y, z'
loop_
 _atom_site_type_symbol
 _atom_site_label
 _atom_site_symmetry_multiplicity
 _atom_site_fract_x
 _atom_site_fract_y
 _atom_site_fract_z
 _atom_site_occupancy
  Hg  Hg0  1  0.02579000  0.21892000  0.29351000  1.0
  Hg  Hg1  1  0.97423000  0.28108000  0.79352000  1.0
  Hg  Hg2  1  0.97421000  0.78109000  0.70648000  1.0
  Hg  Hg3  1  0.02578000  0.71891000  0.20648000  1.0
  H  H4  1  0.83165000  0.47120000  0.46561000  1.0
  H  H5  1  0.16835000  0.02880000  0.96561000  1.0
  H  H6  1  0.16835000  0.52881000  0.53439000  1.0
  H  H7  1  0.83163000  0.97120000  0.03439000  1.0
  H  H8  1  0.49599000  0.17561000  0.40526000  1.0
  H  H9  1  0.50402000  0.32439000  0.90527000  1.0
  H  H10  1  0.50398000  0.82440000  0.59473000  1.0
  H  H11  1  0.49600000  0.67561000  0.09473000  1.0
  H  H12  1  0.82016000  0.23766000  0.46737000  1.0
  H  H13  1  0.17985000  0.26233000  0.96737000  1.0
  H  H14  1  0.17980000  0.76234000  0.53263000  1.0
  H  H15  1  0.82017000  0.73767000  0.03263000  1.0
  H  H16  1  0.43748000  0.48265000  0.40600000  1.0
  H  H17  1  0.56252000  0.01734000  0.90600000  1.0
  H  H18  1  0.56254000  0.51735000  0.59400000  1.0
  H  H19  1  0.43745000  0.98266000  0.09400000  1.0
  H  H20  1  0.14756000  0.40797000  0.33894000  1.0
  H  H21  1  0.85244000  0.09202000  0.83894000  1.0
  H  H22  1  0.85245000  0.59204000  0.66106000  1.0
  H  H23  1  0.14754000  0.90797000  0.16106000  1.0
  H  H24  1  0.96348000  0.31097000  0.54378000  1.0
  H  H25  1  0.03653000  0.18902000  0.04378000  1.0
  H  H26  1  0.03652000  0.68902000  0.45622000  1.0
  H  H27  1  0.96346000  0.81098000  0.95622000  1.0
  H  H28  1  0.50901000  0.43470000  0.76378000  1.0
  H  H29  1  0.49101000  0.06529000  0.26378000  1.0
  H  H30  1  0.49103000  0.56530000  0.23621000  1.0
  H  H31  1  0.50898000  0.93471000  0.73622000  1.0
  H  H32  1  0.18904000  0.49182000  0.67892000  1.0
  H  H33  1  0.81097000  0.00817000  0.17891000  1.0
  H  H34  1  0.81098000  0.50817000  0.32108000  1.0
  H  H35  1  0.18902000  0.99183000  0.82109000  1.0
  H  H36  1  0.42213000  0.26846000  0.55956000  1.0
  H  H37  1  0.57793000  0.23154000  0.05955000  1.0
  H  H38  1  0.57787000  0.73153000  0.44045000  1.0
  H  H39  1  0.42209000  0.76846000  0.94045000  1.0
  H  H40  1  0.73086000  0.21976000  0.65107000  1.0
  H  H41  1  0.26920000  0.28024000  0.15106000  1.0
  H  H42  1  0.26916000  0.78023000  0.34894000  1.0
  H  H43  1  0.73082000  0.71976000  0.84894000  1.0
  C  C44  1  0.48879000  0.24375000  0.40683000  1.0
  C  C45  1  0.51123000  0.25624000  0.90684000  1.0
  C  C46  1  0.51120000  0.75625000  0.59316000  1.0
  C  C47  1  0.48878000  0.74375000  0.09317000  1.0
  C  C48  1  0.66814000  0.27922000  0.44297000  1.0
  C  C49  1  0.33186000  0.22078000  0.94297000  1.0
  C  C50  1  0.33184000  0.72079000  0.55703000  1.0
  C  C51  1  0.66813000  0.77922000  0.05703000  1.0
  C  C52  1  0.65226000  0.36704000  0.44411000  1.0
  C  C53  1  0.34774000  0.13295000  0.94411000  1.0
  C  C54  1  0.34772000  0.63296000  0.55589000  1.0
  C  C55  1  0.65225000  0.86705000  0.05589000  1.0
  C  C56  1  0.45819000  0.41445000  0.40707000  1.0
  C  C57  1  0.54182000  0.08555000  0.90707000  1.0
  C  C58  1  0.54181000  0.58556000  0.59293000  1.0
  C  C59  1  0.45816000  0.91445000  0.09293000  1.0
  C  C60  1  0.29418000  0.37317000  0.37050000  1.0
  C  C61  1  0.70582000  0.12683000  0.87050000  1.0
  C  C62  1  0.70581000  0.62683000  0.62950000  1.0
  C  C63  1  0.29417000  0.87317000  0.12949000  1.0
  C  C64  1  0.97394000  0.37614000  0.52945000  1.0
  C  C65  1  0.02606000  0.12386000  0.02945000  1.0
  C  C66  1  0.02606000  0.62386000  0.47055000  1.0
  C  C67  1  0.97391000  0.87614000  0.97056000  1.0
  C  C68  1  0.48343000  0.39957000  0.71784000  1.0
  C  C69  1  0.51659000  0.10043000  0.21783000  1.0
  C  C70  1  0.51659000  0.60043000  0.28216000  1.0
  C  C71  1  0.48339000  0.89957000  0.78217000  1.0
  C  C72  1  0.30541000  0.43133000  0.67020000  1.0
  C  C73  1  0.69461000  0.06867000  0.17020000  1.0
  C  C74  1  0.69460000  0.56867000  0.32980000  1.0
  C  C75  1  0.30537000  0.93133000  0.82981000  1.0
  C  C76  1  0.28031000  0.38529000  0.61111000  1.0
  C  C77  1  0.71971000  0.11471000  0.11111000  1.0
  C  C78  1  0.71971000  0.61470000  0.38889000  1.0
  C  C79  1  0.28028000  0.88529000  0.88890000  1.0
  C  C80  1  0.43359000  0.30693000  0.60428000  1.0
  C  C81  1  0.56644000  0.19307000  0.10428000  1.0
  C  C82  1  0.56643000  0.69306000  0.39573000  1.0
  C  C83  1  0.43355000  0.80693000  0.89572000  1.0
  C  C84  1  0.60670000  0.27994000  0.65473000  1.0
  C  C85  1  0.39334000  0.22006000  0.15472000  1.0
  C  C86  1  0.39332000  0.72006000  0.34527000  1.0
  C  C87  1  0.60667000  0.77995000  0.84528000  1.0
  I  I88  1  0.04634000  0.07284000  0.36170000  1.0
  I  I89  1  0.95366000  0.42715000  0.86171000  1.0
  I  I90  1  0.95364000  0.92716000  0.63830000  1.0
  I  I91  1  0.04635000  0.57284000  0.13829000  1.0
  I  I92  1  0.79676000  0.35673000  0.22870000  1.0
  I  I93  1  0.20327000  0.14328000  0.72871000  1.0
  I  I94  1  0.20323000  0.64328000  0.77129000  1.0
  I  I95  1  0.79673000  0.85672000  0.27130000  1.0
  N  N96  1  0.30495000  0.28938000  0.37099000  1.0
  N  N97  1  0.69507000  0.21062000  0.87099000  1.0
  N  N98  1  0.69504000  0.71062000  0.62901000  1.0
  N  N99  1  0.30494000  0.78938000  0.12901000  1.0
  N  N100  1  0.82024000  0.40897000  0.47910000  1.0
  N  N101  1  0.17978000  0.09103000  0.97910000  1.0
  N  N102  1  0.17977000  0.59103000  0.52090000  1.0
  N  N103  1  0.82021000  0.90897000  0.02090000  1.0
  N  N104  1  0.11704000  0.42149000  0.56087000  1.0
  N  N105  1  0.88299000  0.07850000  0.06086000  1.0
  N  N106  1  0.88296000  0.57850000  0.43913000  1.0
  N  N107  1  0.11702000  0.92150000  0.93914000  1.0
  N  N108  1  0.63471000  0.32584000  0.70990000  1.0
  N  N109  1  0.36534000  0.17416000  0.20989000  1.0
  N  N110  1  0.36534000  0.67416000  0.29010000  1.0
  N  N111  1  0.63467000  0.82585000  0.79011000  1.0
