# generated using pymatgen
data_SrCoH10C14(NO5)2
_symmetry_space_group_name_H-M   'P 1'
_cell_length_a   5.21063000
_cell_length_b   7.76652000
_cell_length_c   10.37460000
_cell_angle_alpha   80.75780000
_cell_angle_beta   82.92290000
_cell_angle_gamma   77.22140000
_symmetry_Int_Tables_number   1
_chemical_formula_structural   SrCoH10C14(NO5)2
_chemical_formula_sum   'Sr1 Co1 H10 C14 N2 O10'
_cell_volume   402.44998920
_cell_formula_units_Z   1
loop_
 _symmetry_equiv_pos_site_id
 _symmetry_equiv_pos_as_xyz
  1  'x, y, z'
loop_
 _atom_site_type_symbol
 _atom_site_label
 _atom_site_symmetry_multiplicity
 _atom_site_fract_x
 _atom_site_fract_y
 _atom_site_fract_z
 _atom_site_occupancy
  Sr  Sr0  1  0.50000000  0.00000000  0.50000000  1.0
  Co  Co1  1  0.00000000  0.00000000  0.00000000  1.0
  H  H2  1  0.29471000  0.83146000  0.79966000  1.0
  H  H3  1  0.70528000  0.16854000  0.20034000  1.0
  H  H4  1  0.49170000  0.90645000  0.87203000  1.0
  H  H5  1  0.50830000  0.09355000  0.12797000  1.0
  H  H6  1  0.77753000  0.45393000  0.62269000  1.0
  H  H7  1  0.22247000  0.54607000  0.37731000  1.0
  H  H8  1  0.33458000  0.56926000  0.85570000  1.0
  H  H9  1  0.66542000  0.43074000  0.14431000  1.0
  H  H10  1  0.30890000  0.28733000  0.00104000  1.0
  H  H11  1  0.69110000  0.71267000  0.99896000  1.0
  C  C12  1  0.05388000  0.71254000  0.63855000  1.0
  C  C13  1  0.94612000  0.28746000  0.36145000  1.0
  C  C14  1  0.05571000  0.53719000  0.72673000  1.0
  C  C15  1  0.94429000  0.46281000  0.27327000  1.0
  C  C16  1  0.89991000  0.42119000  0.70438000  1.0
  C  C17  1  0.10009000  0.57881000  0.29562000  1.0
  C  C18  1  0.90219000  0.26240000  0.78798000  1.0
  C  C19  1  0.09781000  0.73761000  0.21202000  1.0
  C  C20  1  0.20820000  0.48549000  0.83369000  1.0
  C  C21  1  0.79180000  0.51451000  0.16631000  1.0
  C  C22  1  0.19545000  0.32714000  0.91607000  1.0
  C  C23  1  0.80455000  0.67285000  0.08392000  1.0
  C  C24  1  0.74782000  0.12783000  0.77358000  1.0
  C  C25  1  0.25218000  0.87216000  0.22643000  1.0
  N  N26  1  0.04502000  0.21638000  0.89438000  1.0
  N  N27  1  0.95497000  0.78362000  0.10562000  1.0
  O  O28  1  0.22653000  0.80131000  0.65195000  1.0
  O  O29  1  0.77346000  0.19869000  0.34805000  1.0
  O  O30  1  0.34063000  0.84468000  0.88782000  1.0
  O  O31  1  0.65937000  0.15532000  0.11218000  1.0
  O  O32  1  0.88182000  0.75991000  0.55729000  1.0
  O  O33  1  0.11817000  0.24010000  0.44271000  1.0
  O  O34  1  0.76861000  0.99424000  0.86815000  1.0
  O  O35  1  0.23138000  0.00576000  0.13185000  1.0
  O  O36  1  0.60905000  0.14392000  0.68055000  1.0
  O  O37  1  0.39095000  0.85608000  0.31945000  1.0
