# generated using pymatgen
data_AgHC3NO2
_symmetry_space_group_name_H-M   'P 1'
_cell_length_a   7.75824000
_cell_length_b   7.75942000
_cell_length_c   11.71790000
_cell_angle_alpha   90.00020000
_cell_angle_beta   90.00000000
_cell_angle_gamma   89.96490000
_symmetry_Int_Tables_number   1
_chemical_formula_structural   AgHC3NO2
_chemical_formula_sum   'Ag8 H8 C24 N8 O16'
_cell_volume   705.41091631
_cell_formula_units_Z   8
loop_
 _symmetry_equiv_pos_site_id
 _symmetry_equiv_pos_as_xyz
  1  'x, y, z'
loop_
 _atom_site_type_symbol
 _atom_site_label
 _atom_site_symmetry_multiplicity
 _atom_site_fract_x
 _atom_site_fract_y
 _atom_site_fract_z
 _atom_site_occupancy
  Ag  Ag0  1  0.12034000  0.91403000  0.10840000  1.0
  Ag  Ag1  1  0.87965000  0.08597000  0.60841000  1.0
  Ag  Ag2  1  0.08724000  0.11960000  0.85896000  1.0
  Ag  Ag3  1  0.91276000  0.88040000  0.35897000  1.0
  Ag  Ag4  1  0.47189000  0.57220000  0.19971000  1.0
  Ag  Ag5  1  0.52810000  0.42779000  0.69971000  1.0
  Ag  Ag6  1  0.42922000  0.47154000  0.94970000  1.0
  Ag  Ag7  1  0.57078000  0.52846000  0.44970000  1.0
  H  H8  1  0.93286000  0.27751000  0.39526000  1.0
  H  H9  1  0.06714000  0.72249000  0.89526000  1.0
  H  H10  1  0.72348000  0.93425000  0.14552000  1.0
  H  H11  1  0.27652000  0.06575000  0.64553000  1.0
  H  H12  1  0.16089000  0.50601000  0.42315000  1.0
  H  H13  1  0.83912000  0.49399000  0.92315000  1.0
  H  H14  1  0.49487000  0.16229000  0.17387000  1.0
  H  H15  1  0.50513000  0.83771000  0.67386000  1.0
  C  C16  1  0.32896000  0.85592000  0.34120000  1.0
  C  C17  1  0.67105000  0.14408000  0.84121000  1.0
  C  C18  1  0.14478000  0.33008000  0.09107000  1.0
  C  C19  1  0.85522000  0.66993000  0.59107000  1.0
  C  C20  1  0.28214000  0.03843000  0.37564000  1.0
  C  C21  1  0.71786000  0.96158000  0.87564000  1.0
  C  C22  1  0.96225000  0.28345000  0.12557000  1.0
  C  C23  1  0.03776000  0.71655000  0.62557000  1.0
  C  C24  1  0.06958000  0.24540000  0.39398000  1.0
  C  C25  1  0.93042000  0.75460000  0.89398000  1.0
  C  C26  1  0.75546000  0.07095000  0.14425000  1.0
  C  C27  1  0.24454000  0.92905000  0.64425000  1.0
  C  C28  1  0.19414000  0.37034000  0.41473000  1.0
  C  C29  1  0.80586000  0.62966000  0.91473000  1.0
  C  C30  1  0.63048000  0.19553000  0.16520000  1.0
  C  C31  1  0.36952000  0.80447000  0.66520000  1.0
  C  C32  1  0.40524000  0.16112000  0.41010000  1.0
  C  C33  1  0.59476000  0.83888000  0.91011000  1.0
  C  C34  1  0.83949000  0.40659000  0.16014000  1.0
  C  C35  1  0.16051000  0.59341000  0.66013000  1.0
  C  C36  1  0.58762000  0.10517000  0.43586000  1.0
  C  C37  1  0.41238000  0.89483000  0.93587000  1.0
  C  C38  1  0.89509000  0.58905000  0.18567000  1.0
  C  C39  1  0.10491000  0.41096000  0.68566000  1.0
  N  N40  1  0.11337000  0.08051000  0.37357000  1.0
  N  N41  1  0.88664000  0.91949000  0.87357000  1.0
  N  N42  1  0.92025000  0.11471000  0.12354000  1.0
  N  N43  1  0.07975000  0.88530000  0.62353000  1.0
  N  N44  1  0.36018000  0.32666000  0.42672000  1.0
  N  N45  1  0.63982000  0.67334000  0.92672000  1.0
  N  N46  1  0.67400000  0.36155000  0.17695000  1.0
  N  N47  1  0.32600000  0.63845000  0.67695000  1.0
  O  O48  1  0.37075000  0.83896000  0.23582000  1.0
  O  O49  1  0.62925000  0.16104000  0.73582000  1.0
  O  O50  1  0.16189000  0.37138000  0.98562000  1.0
  O  O51  1  0.83811000  0.62863000  0.48562000  1.0
  O  O52  1  0.31355000  0.73874000  0.41399000  1.0
  O  O53  1  0.68645000  0.26127000  0.91400000  1.0
  O  O54  1  0.26185000  0.31483000  0.16397000  1.0
  O  O55  1  0.73815000  0.68518000  0.66397000  1.0
  O  O56  1  0.62322000  0.95072000  0.41214000  1.0
  O  O57  1  0.37678000  0.04928000  0.91214000  1.0
  O  O58  1  0.04952000  0.62463000  0.16198000  1.0
  O  O59  1  0.95048000  0.37537000  0.66198000  1.0
  O  O60  1  0.68788000  0.21547000  0.48154000  1.0
  O  O61  1  0.31212000  0.78453000  0.98154000  1.0
  O  O62  1  0.78454000  0.68934000  0.23119000  1.0
  O  O63  1  0.21546000  0.31066000  0.73119000  1.0
