# generated using pymatgen
data_Zn2H14C29N4O9
_symmetry_space_group_name_H-M   'P 1'
_cell_length_a   10.34550000
_cell_length_b   11.83730000
_cell_length_c   12.35000000
_cell_angle_alpha   92.37250000
_cell_angle_beta   106.74700000
_cell_angle_gamma   99.44870000
_symmetry_Int_Tables_number   1
_chemical_formula_structural   Zn2H14C29N4O9
_chemical_formula_sum   'Zn4 H28 C58 N8 O18'
_cell_volume   1422.30737772
_cell_formula_units_Z   2
loop_
 _symmetry_equiv_pos_site_id
 _symmetry_equiv_pos_as_xyz
  1  'x, y, z'
loop_
 _atom_site_type_symbol
 _atom_site_label
 _atom_site_symmetry_multiplicity
 _atom_site_fract_x
 _atom_site_fract_y
 _atom_site_fract_z
 _atom_site_occupancy
  Zn  Zn0  1  0.87769000  0.91752000  0.59608000  1.0
  Zn  Zn1  1  0.12231000  0.08248000  0.40392000  1.0
  Zn  Zn2  1  0.10985000  0.53859000  0.44551000  1.0
  Zn  Zn3  1  0.89015000  0.46141000  0.55449000  1.0
  H  H4  1  0.18536000  0.85396000  0.20733000  1.0
  H  H5  1  0.81464000  0.14604000  0.79267000  1.0
  H  H6  1  0.04469000  0.66864000  0.23485000  1.0
  H  H7  1  0.95531000  0.33136000  0.76515000  1.0
  H  H8  1  0.39353000  0.55203000  0.55810000  1.0
  H  H9  1  0.60647000  0.44797000  0.44190000  1.0
  H  H10  1  0.61350000  0.55589000  0.71255000  1.0
  H  H11  1  0.38650000  0.44411000  0.28745000  1.0
  H  H12  1  0.81153000  0.71774000  0.73438000  1.0
  H  H13  1  0.18847000  0.28226000  0.26562000  1.0
  H  H14  1  0.38618000  0.01735000  0.23061000  1.0
  H  H15  1  0.61382000  0.98265000  0.76939000  1.0
  H  H16  1  0.60435000  0.16146000  0.28152000  1.0
  H  H17  1  0.39565000  0.83854000  0.71848000  1.0
  H  H18  1  0.80904000  0.12574000  0.43428000  1.0
  H  H19  1  0.19096000  0.87426000  0.56572000  1.0
  H  H20  1  0.73124000  0.07656000  0.01043000  1.0
  H  H21  1  0.26877000  0.92345000  0.98957000  1.0
  H  H22  1  0.45490000  0.30175000  0.04615000  1.0
  H  H23  1  0.54510000  0.69825000  0.95385000  1.0
  H  H24  1  0.63549000  0.40713000  0.21667000  1.0
  H  H25  1  0.36451000  0.59287000  0.78333000  1.0
  H  H26  1  0.22680000  0.05216000  0.81237000  1.0
  H  H27  1  0.77320000  0.94784000  0.18763000  1.0
  H  H28  1  0.43998000  0.42329000  0.70918000  1.0
  H  H29  1  0.56002000  0.57672000  0.29083000  1.0
  H  H30  1  0.57926000  0.32157000  0.86079000  1.0
  H  H31  1  0.42074000  0.67843000  0.13922000  1.0
  C  C32  1  0.15156000  0.70020000  0.28159000  1.0
  C  C33  1  0.84844000  0.29980000  0.71841000  1.0
  C  C34  1  0.35281000  0.72247000  0.40715000  1.0
  C  C35  1  0.64719000  0.27753000  0.59284000  1.0
  C  C36  1  0.35416000  0.81592000  0.34138000  1.0
  C  C37  1  0.64584000  0.18408000  0.65862000  1.0
  C  C38  1  0.46952000  0.90674000  0.35955000  1.0
  C  C39  1  0.53048000  0.09326000  0.64045000  1.0
  C  C40  1  0.58886000  0.89600000  0.44803000  1.0
  C  C41  1  0.41114000  0.10400000  0.55197000  1.0
  C  C42  1  0.58923000  0.79938000  0.51687000  1.0
  C  C43  1  0.41077000  0.20062000  0.48313000  1.0
  C  C44  1  0.47152000  0.71154000  0.49814000  1.0
  C  C45  1  0.52848000  0.28846000  0.50186000  1.0
  C  C46  1  0.48080000  0.62196000  0.57013000  1.0
  C  C47  1  0.51921000  0.37804000  0.42987000  1.0
  C  C48  1  0.60208000  0.62392000  0.65570000  1.0
  C  C49  1  0.39792000  0.37608000  0.34430000  1.0
  C  C50  1  0.71397000  0.71335000  0.66875000  1.0
  C  C51  1  0.28603000  0.28665000  0.33125000  1.0
  C  C52  1  0.47530000  0.00479000  0.29884000  1.0
  C  C53  1  0.52469000  0.99521000  0.70116000  1.0
  C  C54  1  0.59594000  0.08481000  0.32649000  1.0
  C  C55  1  0.40406000  0.91519000  0.67351000  1.0
  C  C56  1  0.71076000  0.06652000  0.41336000  1.0
  C  C57  1  0.28924000  0.93348000  0.58664000  1.0
  C  C58  1  0.05909000  0.12679000  0.63321000  1.0
  C  C59  1  0.94091000  0.87321000  0.36679000  1.0
  C  C60  1  0.94431000  0.16354000  0.19678000  1.0
  C  C61  1  0.05569000  0.83646000  0.80322000  1.0
  C  C62  1  0.88130000  0.36533000  0.31717000  1.0
  C  C63  1  0.11870000  0.63467000  0.68283000  1.0
  C  C64  1  0.78344000  0.30071000  0.21002000  1.0
  C  C65  1  0.21655000  0.69928000  0.78998000  1.0
  C  C66  1  0.81137000  0.20762000  0.15193000  1.0
  C  C67  1  0.18863000  0.79238000  0.84807000  1.0
  C  C68  1  0.71083000  0.14977000  0.05525000  1.0
  C  C69  1  0.28917000  0.85023000  0.94475000  1.0
  C  C70  1  0.58378000  0.18351000  0.01907000  1.0
  C  C71  1  0.41622000  0.81649000  0.98093000  1.0
  C  C72  1  0.55491000  0.27639000  0.07592000  1.0
  C  C73  1  0.44509000  0.72361000  0.92408000  1.0
  C  C74  1  0.65586000  0.33485000  0.17063000  1.0
  C  C75  1  0.34414000  0.66515000  0.82937000  1.0
  C  C76  1  0.41012000  0.18207000  0.84650000  1.0
  C  C77  1  0.58988000  0.81793000  0.15350000  1.0
  C  C78  1  0.27323000  0.13409000  0.79069000  1.0
  C  C79  1  0.72677000  0.86591000  0.20931000  1.0
  C  C80  1  0.19698000  0.19027000  0.70446000  1.0
  C  C81  1  0.80302000  0.80973000  0.29554000  1.0
  C  C82  1  0.25621000  0.29644000  0.67638000  1.0
  C  C83  1  0.74379000  0.70356000  0.32362000  1.0
  C  C84  1  0.39391000  0.34222000  0.73267000  1.0
  C  C85  1  0.60609000  0.65778000  0.26733000  1.0
  C  C86  1  0.47179000  0.28584000  0.81725000  1.0
  C  C87  1  0.52821000  0.71416000  0.18275000  1.0
  C  C88  1  0.17047000  0.36656000  0.59728000  1.0
  C  C89  1  0.82953000  0.63344000  0.40272000  1.0
  N  N90  1  0.22449000  0.65149000  0.36840000  1.0
  N  N91  1  0.77551000  0.34851000  0.63160000  1.0
  N  N92  1  0.22602000  0.79822000  0.26205000  1.0
  N  N93  1  0.77397000  0.20178000  0.73795000  1.0
  N  N94  1  0.70644000  0.97475000  0.47228000  1.0
  N  N95  1  0.29356000  0.02525000  0.52772000  1.0
  N  N96  1  0.70680000  0.79806000  0.60074000  1.0
  N  N97  1  0.29320000  0.20194000  0.39926000  1.0
  O  O98  1  0.97713000  0.07484000  0.68286000  1.0
  O  O99  1  0.02288000  0.92516000  0.31714000  1.0
  O  O100  1  0.03378000  0.12192000  0.52628000  1.0
  O  O101  1  0.96622000  0.87808000  0.47372000  1.0
  O  O102  1  0.97643000  0.15778000  0.30543000  1.0
  O  O103  1  0.02357000  0.84223000  0.69457000  1.0
  O  O104  1  0.00795000  0.13673000  0.13102000  1.0
  O  O105  1  0.99205000  0.86327000  0.86897000  1.0
  O  O106  1  0.99730000  0.41925000  0.31480000  1.0
  O  O107  1  0.00270000  0.58075000  0.68520000  1.0
  O  O108  1  0.83224000  0.36594000  0.40061000  1.0
  O  O109  1  0.16776000  0.63406000  0.59939000  1.0
  O  O110  1  0.48364000  0.11998000  0.92664000  1.0
  O  O111  1  0.51635000  0.88002000  0.07336000  1.0
  O  O112  1  0.22289000  0.42207000  0.52885000  1.0
  O  O113  1  0.77711000  0.57793000  0.47115000  1.0
  O  O114  1  0.05368000  0.36960000  0.60948000  1.0
  O  O115  1  0.94632000  0.63040000  0.39052000  1.0
