# generated using pymatgen
data_ZnH26C36S2(N3O)4
_symmetry_space_group_name_H-M   'P 1'
_cell_length_a   8.80784000
_cell_length_b   8.85059000
_cell_length_c   11.66510000
_cell_angle_alpha   76.35840000
_cell_angle_beta   78.00280000
_cell_angle_gamma   87.49260000
_symmetry_Int_Tables_number   1
_chemical_formula_structural   ZnH26C36S2(N3O)4
_chemical_formula_sum   'Zn1 H26 C36 S2 N12 O4'
_cell_volume   864.38008991
_cell_formula_units_Z   1
loop_
 _symmetry_equiv_pos_site_id
 _symmetry_equiv_pos_as_xyz
  1  'x, y, z'
loop_
 _atom_site_type_symbol
 _atom_site_label
 _atom_site_symmetry_multiplicity
 _atom_site_fract_x
 _atom_site_fract_y
 _atom_site_fract_z
 _atom_site_occupancy
  Zn  Zn0  1  0.00000000  0.00000000  0.00000000  1.0
  H  H1  1  0.19235000  0.44302000  0.58948000  1.0
  H  H2  1  0.80765000  0.55698000  0.41052000  1.0
  H  H3  1  0.28059000  0.69974000  0.63561000  1.0
  H  H4  1  0.71940000  0.30027000  0.36439000  1.0
  H  H5  1  0.81196000  0.90829000  0.81978000  1.0
  H  H6  1  0.18804000  0.09171000  0.18022000  1.0
  H  H7  1  0.79846000  0.97738000  0.60096000  1.0
  H  H8  1  0.20154000  0.02262000  0.39904000  1.0
  H  H9  1  0.96072000  0.20314000  0.46395000  1.0
  H  H10  1  0.03928000  0.79686000  0.53605000  1.0
  H  H11  1  0.09730000  0.28266000  0.78003000  1.0
  H  H12  1  0.90270000  0.71734000  0.21997000  1.0
  H  H13  1  0.35464000  0.54652000  0.19651000  1.0
  H  H14  1  0.64538000  0.45349000  0.80348000  1.0
  H  H15  1  0.57223000  0.74334000  0.14326000  1.0
  H  H16  1  0.42778000  0.25667000  0.85674000  1.0
  H  H17  1  0.63365000  0.85674000  0.30745000  1.0
  H  H18  1  0.36635000  0.14326000  0.69255000  1.0
  H  H19  1  0.61478000  0.75713000  0.75696000  1.0
  H  H20  1  0.38521000  0.24287000  0.24305000  1.0
  H  H21  1  0.58664000  0.83431000  0.95299000  1.0
  H  H22  1  0.41336000  0.16571000  0.04701000  1.0
  H  H23  1  0.32726000  0.92392000  0.04908000  1.0
  H  H24  1  0.67273000  0.07608000  0.95093000  1.0
  H  H25  1  0.12595000  0.85235000  0.77582000  1.0
  H  H26  1  0.87404000  0.14765000  0.22418000  1.0
  C  C27  1  0.87179000  0.01015000  0.75845000  1.0
  C  C28  1  0.12821000  0.98985000  0.24155000  1.0
  C  C29  1  0.86819000  0.04732000  0.63627000  1.0
  C  C30  1  0.13181000  0.95268000  0.36373000  1.0
  C  C31  1  0.95594000  0.17249000  0.56038000  1.0
  C  C32  1  0.04406000  0.82751000  0.43961000  1.0
  C  C33  1  0.04253000  0.25927000  0.61082000  1.0
  C  C34  1  0.95748000  0.74073000  0.38917000  1.0
  C  C35  1  0.03432000  0.21724000  0.73597000  1.0
  C  C36  1  0.96568000  0.78276000  0.26403000  1.0
  C  C37  1  0.18651000  0.42819000  0.42155000  1.0
  C  C38  1  0.81350000  0.57180000  0.57844000  1.0
  C  C39  1  0.31048000  0.55237000  0.38460000  1.0
  C  C40  1  0.68952000  0.44763000  0.61539000  1.0
  C  C41  1  0.38759000  0.59779000  0.26426000  1.0
  C  C42  1  0.61242000  0.40221000  0.73574000  1.0
  C  C43  1  0.50651000  0.70791000  0.23521000  1.0
  C  C44  1  0.49350000  0.29210000  0.76479000  1.0
  C  C45  1  0.54242000  0.77019000  0.32549000  1.0
  C  C46  1  0.45758000  0.22982000  0.67451000  1.0
  C  C47  1  0.45672000  0.71990000  0.44285000  1.0
  C  C48  1  0.54328000  0.28009000  0.55715000  1.0
  C  C49  1  0.49017000  0.78683000  0.54225000  1.0
  C  C50  1  0.50983000  0.21316000  0.45775000  1.0
  C  C51  1  0.37243000  0.80302000  0.75023000  1.0
  C  C52  1  0.62757000  0.19697000  0.24977000  1.0
  C  C53  1  0.50423000  0.79822000  0.80017000  1.0
  C  C54  1  0.49577000  0.20178000  0.19983000  1.0
  C  C55  1  0.48781000  0.84113000  0.90943000  1.0
  C  C56  1  0.51219000  0.15887000  0.09057000  1.0
  C  C57  1  0.34396000  0.88946000  0.96370000  1.0
  C  C58  1  0.65604000  0.11055000  0.03631000  1.0
  C  C59  1  0.23118000  0.85052000  0.81167000  1.0
  C  C60  1  0.76882000  0.14948000  0.18834000  1.0
  C  C61  1  0.17118000  0.31805000  0.98965000  1.0
  C  C62  1  0.82881000  0.68196000  0.01035000  1.0
  S  S63  1  0.24362000  0.48083000  0.99134000  1.0
  S  S64  1  0.75638000  0.51917000  0.00866000  1.0
  N  N65  1  0.95313000  0.09427000  0.80765000  1.0
  N  N66  1  0.04687000  0.90573000  0.19235000  1.0
  N  N67  1  0.13774000  0.38394000  0.54403000  1.0
  N  N68  1  0.86227000  0.61606000  0.45597000  1.0
  N  N69  1  0.34401000  0.61253000  0.47203000  1.0
  N  N70  1  0.65599000  0.38746000  0.52796000  1.0
  N  N71  1  0.37487000  0.75669000  0.64310000  1.0
  N  N72  1  0.62512000  0.24331000  0.35691000  1.0
  N  N73  1  0.21761000  0.89485000  0.91519000  1.0
  N  N74  1  0.78239000  0.10515000  0.08482000  1.0
  N  N75  1  0.12455000  0.19478000  0.98656000  1.0
  N  N76  1  0.87544000  0.80522000  0.01344000  1.0
  O  O77  1  0.13880000  0.37435000  0.34685000  1.0
  O  O78  1  0.86121000  0.62565000  0.65314000  1.0
  O  O79  1  0.61017000  0.86129000  0.53066000  1.0
  O  O80  1  0.38984000  0.13869000  0.46935000  1.0
