# generated using pymatgen
data_MgH9C3SNO7
_symmetry_space_group_name_H-M   'P 1'
_cell_length_a   6.02369000
_cell_length_b   11.23230000
_cell_length_c   13.17520000
_cell_angle_alpha   89.99990000
_cell_angle_beta   89.99980000
_cell_angle_gamma   89.99990000
_symmetry_Int_Tables_number   1
_chemical_formula_structural   MgH9C3SNO7
_chemical_formula_sum   'Mg4 H36 C12 S4 N4 O28'
_cell_volume   891.43262471
_cell_formula_units_Z   4
loop_
 _symmetry_equiv_pos_site_id
 _symmetry_equiv_pos_as_xyz
  1  'x, y, z'
loop_
 _atom_site_type_symbol
 _atom_site_label
 _atom_site_symmetry_multiplicity
 _atom_site_fract_x
 _atom_site_fract_y
 _atom_site_fract_z
 _atom_site_occupancy
  Mg  Mg0  1  0.47132000  0.83557000  0.03934000  1.0
  Mg  Mg1  1  0.02869000  0.16443000  0.53934000  1.0
  Mg  Mg2  1  0.52869000  0.33557000  0.46066000  1.0
  Mg  Mg3  1  0.97131000  0.66442000  0.96066000  1.0
  H  H4  1  0.57529000  0.75804000  0.23065000  1.0
  H  H5  1  0.92471000  0.24196000  0.73065000  1.0
  H  H6  1  0.42471000  0.25804000  0.26935000  1.0
  H  H7  1  0.07529000  0.74196000  0.76935000  1.0
  H  H8  1  0.31931000  0.74122000  0.21140000  1.0
  H  H9  1  0.18069000  0.25878000  0.71141000  1.0
  H  H10  1  0.68069000  0.24122000  0.28859000  1.0
  H  H11  1  0.81931000  0.75878000  0.78859000  1.0
  H  H12  1  0.48695000  0.86914000  0.83589000  1.0
  H  H13  1  0.01305000  0.13086000  0.33589000  1.0
  H  H14  1  0.51305000  0.36914000  0.66411000  1.0
  H  H15  1  0.98695000  0.63086000  0.16411000  1.0
  H  H16  1  0.46077000  0.99934000  0.88912000  1.0
  H  H17  1  0.03924000  0.00067000  0.38912000  1.0
  H  H18  1  0.53923000  0.49933000  0.61088000  1.0
  H  H19  1  0.96076000  0.50067000  0.11088000  1.0
  H  H20  1  0.41927000  0.01598000  0.17487000  1.0
  H  H21  1  0.08073000  0.98402000  0.67487000  1.0
  H  H22  1  0.58074000  0.51598000  0.32513000  1.0
  H  H23  1  0.91926000  0.48402000  0.82513000  1.0
  H  H24  1  0.40643000  0.07176000  0.06062000  1.0
  H  H25  1  0.09357000  0.92824000  0.56062000  1.0
  H  H26  1  0.59358000  0.57176000  0.43938000  1.0
  H  H27  1  0.90642000  0.42824000  0.93938000  1.0
  H  H28  1  0.05491000  0.00755000  0.19232000  1.0
  H  H29  1  0.44509000  0.99244000  0.69232000  1.0
  H  H30  1  0.94510000  0.50755000  0.30768000  1.0
  H  H31  1  0.55491000  0.49244000  0.80768000  1.0
  H  H32  1  0.82989000  0.11435000  0.05263000  1.0
  H  H33  1  0.67011000  0.88565000  0.55263000  1.0
  H  H34  1  0.17011000  0.61435000  0.44737000  1.0
  H  H35  1  0.32989000  0.38565000  0.94737000  1.0
  H  H36  1  0.08709000  0.14213000  0.99009000  1.0
  H  H37  1  0.41291000  0.85787000  0.49009000  1.0
  H  H38  1  0.91290000  0.64213000  0.50991000  1.0
  H  H39  1  0.58709000  0.35787000  0.00991000  1.0
  C  C40  1  0.99075000  0.89961000  0.06654000  1.0
  C  C41  1  0.50925000  0.10039000  0.56654000  1.0
  C  C42  1  0.00925000  0.39961000  0.43346000  1.0
  C  C43  1  0.49074000  0.60039000  0.93346000  1.0
  C  C44  1  0.10547000  0.01017000  0.11199000  1.0
  C  C45  1  0.39453000  0.98983000  0.61200000  1.0
  C  C46  1  0.89453000  0.51017000  0.38801000  1.0
  C  C47  1  0.60547000  0.48982000  0.88800000  1.0
  C  C48  1  0.00940000  0.12289000  0.06371000  1.0
  C  C49  1  0.49060000  0.87711000  0.56371000  1.0
  C  C50  1  0.99060000  0.62289000  0.43629000  1.0
  C  C51  1  0.50940000  0.37711000  0.93629000  1.0
  S  S52  1  0.04920000  0.25148000  0.14170000  1.0
  S  S53  1  0.45079000  0.74852000  0.64170000  1.0
  S  S54  1  0.95080000  0.75148000  0.35830000  1.0
  S  S55  1  0.54920000  0.24852000  0.85830000  1.0
  N  N56  1  0.34921000  0.00351000  0.10517000  1.0
  N  N57  1  0.15080000  0.99648000  0.60517000  1.0
  N  N58  1  0.65080000  0.50352000  0.39483000  1.0
  N  N59  1  0.84920000  0.49648000  0.89483000  1.0
  O  O60  1  0.11202000  0.81426000  0.03381000  1.0
  O  O61  1  0.38798000  0.18574000  0.53381000  1.0
  O  O62  1  0.88798000  0.31426000  0.46619000  1.0
  O  O63  1  0.61202000  0.68574000  0.96619000  1.0
  O  O64  1  0.78264000  0.89955000  0.06773000  1.0
  O  O65  1  0.71737000  0.10044000  0.56774000  1.0
  O  O66  1  0.21737000  0.39955000  0.43226000  1.0
  O  O67  1  0.28263000  0.60045000  0.93226000  1.0
  O  O68  1  0.93881000  0.22388000  0.23970000  1.0
  O  O69  1  0.56120000  0.77612000  0.73970000  1.0
  O  O70  1  0.06120000  0.72388000  0.26030000  1.0
  O  O71  1  0.43881000  0.27612000  0.76030000  1.0
  O  O72  1  0.28887000  0.26942000  0.15440000  1.0
  O  O73  1  0.21113000  0.73058000  0.65440000  1.0
  O  O74  1  0.71113000  0.76943000  0.34560000  1.0
  O  O75  1  0.78887000  0.23057000  0.84560000  1.0
  O  O76  1  0.93837000  0.34984000  0.08804000  1.0
  O  O77  1  0.56163000  0.65016000  0.58804000  1.0
  O  O78  1  0.06164000  0.84984000  0.41196000  1.0
  O  O79  1  0.43837000  0.15016000  0.91196000  1.0
  O  O80  1  0.46374000  0.74826000  0.17602000  1.0
  O  O81  1  0.03627000  0.25174000  0.67602000  1.0
  O  O82  1  0.53627000  0.24826000  0.32398000  1.0
  O  O83  1  0.96373000  0.75174000  0.82398000  1.0
  O  O84  1  0.44911000  0.91238000  0.89887000  1.0
  O  O85  1  0.05089000  0.08762000  0.39887000  1.0
  O  O86  1  0.55089000  0.41238000  0.60113000  1.0
  O  O87  1  0.94911000  0.58762000  0.10113000  1.0
