# generated using pymatgen
data_SnH26C27S(NO2)2
_symmetry_space_group_name_H-M   'P 1'
_cell_length_a   9.44420000
_cell_length_b   10.48010000
_cell_length_c   13.01270000
_cell_angle_alpha   90.00000000
_cell_angle_beta   106.48300000
_cell_angle_gamma   90.00000000
_symmetry_Int_Tables_number   1
_chemical_formula_structural   SnH26C27S(NO2)2
_chemical_formula_sum   'Sn2 H52 C54 S2 N4 O8'
_cell_volume   1235.01756007
_cell_formula_units_Z   2
loop_
 _symmetry_equiv_pos_site_id
 _symmetry_equiv_pos_as_xyz
  1  'x, y, z'
loop_
 _atom_site_type_symbol
 _atom_site_label
 _atom_site_symmetry_multiplicity
 _atom_site_fract_x
 _atom_site_fract_y
 _atom_site_fract_z
 _atom_site_occupancy
  Sn  Sn0  1  0.80753000  0.89757000  0.25952000  1.0
  Sn  Sn1  1  0.19247000  0.39757000  0.74048000  1.0
  H  H2  1  0.84419000  0.20674000  0.53582000  1.0
  H  H3  1  0.15580000  0.70673000  0.46417000  1.0
  H  H4  1  0.85518000  0.60933000  0.19528000  1.0
  H  H5  1  0.14482000  0.10934000  0.80472000  1.0
  H  H6  1  0.70129000  0.43897000  0.08398000  1.0
  H  H7  1  0.29871000  0.93897000  0.91602000  1.0
  H  H8  1  0.43726000  0.48199000  0.98874000  1.0
  H  H9  1  0.56274000  0.98200000  0.01126000  1.0
  H  H10  1  0.32696000  0.69212000  0.00752000  1.0
  H  H11  1  0.67304000  0.19212000  0.99248000  1.0
  H  H12  1  0.47699000  0.85801000  0.12562000  1.0
  H  H13  1  0.52301000  0.35802000  0.87438000  1.0
  H  H14  1  0.72894000  0.78630000  0.46348000  1.0
  H  H15  1  0.27107000  0.28631000  0.53651000  1.0
  H  H16  1  0.82929000  0.80369000  0.65991000  1.0
  H  H17  1  0.17071000  0.30368000  0.34008000  1.0
  H  H18  1  0.05757000  0.92955000  0.73981000  1.0
  H  H19  1  0.94242000  0.42954000  0.26018000  1.0
  H  H20  1  0.18505000  0.03887000  0.62149000  1.0
  H  H21  1  0.81495000  0.53886000  0.37850000  1.0
  H  H22  1  0.08586000  0.02337000  0.42505000  1.0
  H  H23  1  0.91416000  0.52338000  0.57494000  1.0
  H  H24  1  0.84099000  0.87570000  0.03081000  1.0
  H  H25  1  0.15901000  0.37570000  0.96919000  1.0
  H  H26  1  0.92310000  0.00837000  0.90167000  1.0
  H  H27  1  0.07689000  0.50836000  0.09834000  1.0
  H  H28  1  0.01047000  0.22930000  0.94884000  1.0
  H  H29  1  0.98953000  0.72930000  0.05117000  1.0
  H  H30  1  0.01088000  0.31967000  0.12604000  1.0
  H  H31  1  0.98911000  0.81966000  0.87396000  1.0
  H  H32  1  0.92254000  0.18851000  0.25539000  1.0
  H  H33  1  0.07745000  0.68851000  0.74461000  1.0
  H  H34  1  0.44208000  0.09172000  0.38515000  1.0
  H  H35  1  0.55792000  0.59172000  0.61485000  1.0
  H  H36  1  0.24202000  0.15864000  0.23594000  1.0
  H  H37  1  0.75798000  0.65864000  0.76406000  1.0
  H  H38  1  0.36128000  0.07843000  0.17211000  1.0
  H  H39  1  0.63873000  0.57843000  0.82789000  1.0
  H  H40  1  0.53538000  0.45035000  0.28717000  1.0
  H  H41  1  0.46462000  0.95035000  0.71283000  1.0
  H  H42  1  0.35292000  0.44385000  0.30182000  1.0
  H  H43  1  0.64707000  0.94385000  0.69818000  1.0
  H  H44  1  0.58741000  0.12653000  0.52337000  1.0
  H  H45  1  0.41259000  0.62653000  0.47663000  1.0
  H  H46  1  0.50078000  0.32633000  0.64758000  1.0
  H  H47  1  0.49922000  0.82633000  0.35242000  1.0
  H  H48  1  0.52984000  0.16285000  0.68116000  1.0
  H  H49  1  0.47016000  0.66285000  0.31884000  1.0
  H  H50  1  0.73082000  0.38329000  0.76819000  1.0
  H  H51  1  0.26918000  0.88329000  0.23181000  1.0
  H  H52  1  0.74511000  0.22584000  0.81748000  1.0
  H  H53  1  0.25490000  0.72585000  0.18252000  1.0
  C  C54  1  0.67687000  0.74486000  0.16943000  1.0
  C  C55  1  0.32313000  0.24486000  0.83057000  1.0
  C  C56  1  0.73872000  0.62654000  0.15588000  1.0
  C  C57  1  0.26128000  0.12655000  0.84412000  1.0
  C  C58  1  0.65279000  0.53173000  0.09189000  1.0
  C  C59  1  0.34722000  0.03174000  0.90811000  1.0
  C  C60  1  0.50460000  0.55534000  0.03873000  1.0
  C  C61  1  0.49541000  0.05535000  0.96127000  1.0
  C  C62  1  0.44233000  0.67337000  0.05010000  1.0
  C  C63  1  0.55768000  0.17337000  0.94990000  1.0
  C  C64  1  0.52753000  0.76706000  0.11575000  1.0
  C  C65  1  0.47247000  0.26707000  0.88425000  1.0
  C  C66  1  0.89963000  0.90391000  0.42985000  1.0
  C  C67  1  0.10039000  0.40392000  0.57015000  1.0
  C  C68  1  0.82863000  0.84250000  0.49706000  1.0
  C  C69  1  0.17139000  0.34251000  0.50293000  1.0
  C  C70  1  0.88488000  0.85248000  0.60830000  1.0
  C  C71  1  0.11513000  0.35247000  0.39169000  1.0
  C  C72  1  0.01251000  0.92333000  0.65305000  1.0
  C  C73  1  0.98749000  0.42332000  0.34694000  1.0
  C  C74  1  0.08444000  0.98437000  0.58671000  1.0
  C  C75  1  0.91556000  0.48437000  0.41329000  1.0
  C  C76  1  0.02817000  0.97474000  0.47554000  1.0
  C  C77  1  0.97185000  0.47473000  0.52445000  1.0
  C  C78  1  0.88175000  0.02122000  0.15407000  1.0
  C  C79  1  0.11823000  0.52123000  0.84593000  1.0
  C  C80  1  0.88130000  0.97196000  0.05384000  1.0
  C  C81  1  0.11869000  0.47197000  0.94616000  1.0
  C  C82  1  0.92719000  0.04677000  0.98043000  1.0
  C  C83  1  0.07280000  0.54676000  0.01957000  1.0
  C  C84  1  0.97521000  0.17157000  0.00667000  1.0
  C  C85  1  0.02478000  0.67156000  0.99333000  1.0
  C  C86  1  0.97400000  0.22187000  0.10587000  1.0
  C  C87  1  0.02599000  0.72186000  0.89413000  1.0
  C  C88  1  0.92689000  0.14763000  0.17930000  1.0
  C  C89  1  0.07310000  0.64763000  0.82070000  1.0
  C  C90  1  0.62232000  0.10566000  0.31589000  1.0
  C  C91  1  0.37768000  0.60566000  0.68412000  1.0
  C  C92  1  0.47457000  0.15637000  0.32900000  1.0
  C  C93  1  0.52544000  0.65637000  0.67101000  1.0
  C  C94  1  0.35220000  0.15900000  0.22339000  1.0
  C  C95  1  0.64781000  0.65900000  0.77662000  1.0
  C  C96  1  0.44267000  0.38681000  0.28660000  1.0
  C  C97  1  0.55733000  0.88681000  0.71341000  1.0
  C  C98  1  0.56506000  0.32565000  0.46941000  1.0
  C  C99  1  0.43493000  0.82565000  0.53059000  1.0
  C  C100  1  0.62441000  0.22179000  0.55421000  1.0
  C  C101  1  0.37559000  0.72179000  0.44579000  1.0
  C  C102  1  0.58076000  0.24834000  0.65874000  1.0
  C  C103  1  0.41924000  0.74834000  0.34127000  1.0
  C  C104  1  0.72490000  0.28251000  0.74384000  1.0
  C  C105  1  0.27511000  0.78251000  0.25616000  1.0
  C  C106  1  0.84586000  0.25802000  0.69145000  1.0
  C  C107  1  0.15414000  0.75801000  0.30854000  1.0
  S  S108  1  0.38524000  0.30469000  0.15886000  1.0
  S  S109  1  0.61476000  0.80469000  0.84114000  1.0
  N  N110  1  0.48877000  0.28770000  0.36927000  1.0
  N  N111  1  0.51123000  0.78770000  0.63073000  1.0
  N  N112  1  0.78535000  0.22507000  0.58889000  1.0
  N  N113  1  0.21465000  0.72507000  0.41111000  1.0
  O  O114  1  0.60656000  0.99871000  0.26270000  1.0
  O  O115  1  0.39345000  0.49872000  0.73731000  1.0
  O  O116  1  0.74027000  0.16174000  0.35704000  1.0
  O  O117  1  0.25973000  0.66174000  0.64296000  1.0
  O  O118  1  0.58456000  0.44070000  0.49352000  1.0
  O  O119  1  0.41543000  0.94070000  0.50648000  1.0
  O  O120  1  0.98140000  0.26535000  0.73853000  1.0
  O  O121  1  0.01860000  0.76534000  0.26146000  1.0
