# generated using pymatgen
data_CdH7C4Br2NO
_symmetry_space_group_name_H-M   'P 1'
_cell_length_a   4.05794000
_cell_length_b   10.34292269
_cell_length_c   10.82856492
_cell_angle_alpha   63.90060149
_cell_angle_beta   79.23554640
_cell_angle_gamma   78.73268067
_symmetry_Int_Tables_number   1
_chemical_formula_structural   CdH7C4Br2NO
_chemical_formula_sum   'Cd2 H14 C8 Br4 N2 O2'
_cell_volume   397.64489072
_cell_formula_units_Z   2
loop_
 _symmetry_equiv_pos_site_id
 _symmetry_equiv_pos_as_xyz
  1  'x, y, z'
loop_
 _atom_site_type_symbol
 _atom_site_label
 _atom_site_symmetry_multiplicity
 _atom_site_fract_x
 _atom_site_fract_y
 _atom_site_fract_z
 _atom_site_occupancy
  Cd  Cd0  1  0.15080000  0.06391000  0.63500000  1.0
  Cd  Cd1  1  0.84922000  0.93609000  0.36499000  1.0
  H  H2  1  0.92397000  0.56973000  0.58264000  1.0
  H  H3  1  0.07603000  0.43027000  0.41736000  1.0
  H  H4  1  0.58688000  0.58278000  0.80469000  1.0
  H  H5  1  0.97947000  0.41634000  0.19509000  1.0
  H  H6  1  0.41311000  0.41721000  0.19532000  1.0
  H  H7  1  0.02054000  0.58366000  0.80492000  1.0
  H  H8  1  0.61233000  0.34918000  0.99411000  1.0
  H  H9  1  0.95535000  0.65032000  0.00652000  1.0
  H  H10  1  0.38766000  0.65082000  0.00589000  1.0
  H  H11  1  0.04466000  0.34967000  0.99348000  1.0
  H  H12  1  0.17766000  0.18416000  0.88866000  1.0
  H  H13  1  0.25216000  0.81577000  0.11162000  1.0
  H  H14  1  0.82233000  0.81584000  0.11133000  1.0
  H  H15  1  0.74784000  0.18423000  0.88838000  1.0
  C  C16  1  0.97187000  0.34912000  0.70694000  1.0
  C  C17  1  0.02810000  0.65089000  0.29304000  1.0
  C  C18  1  0.83672000  0.51818000  0.80544000  1.0
  C  C19  1  0.16329000  0.48182000  0.19456000  1.0
  C  C20  1  0.85324000  0.36529000  0.92725000  1.0
  C  C21  1  0.14675000  0.63471000  0.07276000  1.0
  C  C22  1  0.94057000  0.25674000  0.86065000  1.0
  C  C23  1  0.05941000  0.74327000  0.13935000  1.0
  Br  Br24  1  0.61090000  0.95678000  0.82286000  1.0
  Br  Br25  1  0.38909000  0.04322000  0.17714000  1.0
  Br  Br26  1  0.30382000  0.82277000  0.57048000  1.0
  Br  Br27  1  0.69622000  0.17723000  0.42951000  1.0
  N  N28  1  0.91411000  0.48934000  0.68214000  1.0
  N  N29  1  0.08589000  0.51065000  0.31787000  1.0
  O  O30  1  0.04262000  0.30368000  0.61276000  1.0
  O  O31  1  0.95737000  0.69633000  0.38724000  1.0
