# generated using pymatgen
data_CdH16C26N2(OF)6
_symmetry_space_group_name_H-M   'P 1'
_cell_length_a   7.78859000
_cell_length_b   7.80113000
_cell_length_c   21.58300000
_cell_angle_alpha   93.16080000
_cell_angle_beta   93.16590000
_cell_angle_gamma   98.32850000
_symmetry_Int_Tables_number   1
_chemical_formula_structural   CdH16C26N2(OF)6
_chemical_formula_sum   'Cd2 H32 C52 N4 O12 F12'
_cell_volume   1292.92009393
_cell_formula_units_Z   2
loop_
 _symmetry_equiv_pos_site_id
 _symmetry_equiv_pos_as_xyz
  1  'x, y, z'
loop_
 _atom_site_type_symbol
 _atom_site_label
 _atom_site_symmetry_multiplicity
 _atom_site_fract_x
 _atom_site_fract_y
 _atom_site_fract_z
 _atom_site_occupancy
  Cd  Cd0  1  0.36661000  0.63342000  0.25000000  1.0
  Cd  Cd1  1  0.63339000  0.36658000  0.75000000  1.0
  H  H2  1  0.24375000  0.54284000  0.03520000  1.0
  H  H3  1  0.45706000  0.75624000  0.46480000  1.0
  H  H4  1  0.75624000  0.45716000  0.96479000  1.0
  H  H5  1  0.54294000  0.24375000  0.53520000  1.0
  H  H6  1  0.55879000  0.80503000  0.90976000  1.0
  H  H7  1  0.19495000  0.44117000  0.59023000  1.0
  H  H8  1  0.44121000  0.19497000  0.09024000  1.0
  H  H9  1  0.80505000  0.55883000  0.40977000  1.0
  H  H10  1  0.82608000  0.00543000  0.98215000  1.0
  H  H11  1  0.99466000  0.17402000  0.51784000  1.0
  H  H12  1  0.17392000  0.99456000  0.01785000  1.0
  H  H13  1  0.00534000  0.82598000  0.48216000  1.0
  H  H14  1  0.75590000  0.93286000  0.10130000  1.0
  H  H15  1  0.06722000  0.24420000  0.39870000  1.0
  H  H16  1  0.24410000  0.06713000  0.89870000  1.0
  H  H17  1  0.93279000  0.75579000  0.60130000  1.0
  H  H18  1  0.34816000  0.02911000  0.29383000  1.0
  H  H19  1  0.97076000  0.65237000  0.20621000  1.0
  H  H20  1  0.65184000  0.97089000  0.70617000  1.0
  H  H21  1  0.02924000  0.34763000  0.79379000  1.0
  H  H22  1  0.15124000  0.25030000  0.29292000  1.0
  H  H23  1  0.74936000  0.84906000  0.20706000  1.0
  H  H24  1  0.84876000  0.74970000  0.70708000  1.0
  H  H25  1  0.25064000  0.15094000  0.79294000  1.0
  H  H26  1  0.74874000  0.60115000  0.30545000  1.0
  H  H27  1  0.39839000  0.25140000  0.19449000  1.0
  H  H28  1  0.25127000  0.39885000  0.69455000  1.0
  H  H29  1  0.60161000  0.74860000  0.80551000  1.0
  H  H30  1  0.96954000  0.40126000  0.30761000  1.0
  H  H31  1  0.59850000  0.03078000  0.19241000  1.0
  H  H32  1  0.03046000  0.59874000  0.69239000  1.0
  H  H33  1  0.40150000  0.96922000  0.80759000  1.0
  C  C34  1  0.16818000  0.46363000  0.12315000  1.0
  C  C35  1  0.53633000  0.83180000  0.37686000  1.0
  C  C36  1  0.83182000  0.53637000  0.87685000  1.0
  C  C37  1  0.46367000  0.16820000  0.62314000  1.0
  C  C38  1  0.27630000  0.56139000  0.08496000  1.0
  C  C39  1  0.43853000  0.72372000  0.41505000  1.0
  C  C40  1  0.72370000  0.43860000  0.91504000  1.0
  C  C41  1  0.56147000  0.27628000  0.58495000  1.0
  C  C42  1  0.42806000  0.68260000  0.10406000  1.0
  C  C43  1  0.31741000  0.57198000  0.39595000  1.0
  C  C44  1  0.57194000  0.31740000  0.89594000  1.0
  C  C45  1  0.68259000  0.42802000  0.60406000  1.0
  C  C46  1  0.52973000  0.76216000  0.05567000  1.0
  C  C47  1  0.23788000  0.47029000  0.44433000  1.0
  C  C48  1  0.47027000  0.23784000  0.94433000  1.0
  C  C49  1  0.76212000  0.52971000  0.55567000  1.0
  C  C50  1  0.58728000  0.82031000  0.95958000  1.0
  C  C51  1  0.17971000  0.41271000  0.54041000  1.0
  C  C52  1  0.41272000  0.17970000  0.04042000  1.0
  C  C53  1  0.82028000  0.58729000  0.45959000  1.0
  C  C54  1  0.71767000  0.91747000  0.99714000  1.0
  C  C55  1  0.08260000  0.28239000  0.50285000  1.0
  C  C56  1  0.28233000  0.08253000  0.00286000  1.0
  C  C57  1  0.91740000  0.71761000  0.49715000  1.0
  C  C58  1  0.68084000  0.87987000  0.05909000  1.0
  C  C59  1  0.12021000  0.31924000  0.44091000  1.0
  C  C60  1  0.31916000  0.12013000  0.94091000  1.0
  C  C61  1  0.87979000  0.68076000  0.55909000  1.0
  C  C62  1  0.00665000  0.34589000  0.09200000  1.0
  C  C63  1  0.65407000  0.99325000  0.40800000  1.0
  C  C64  1  0.99335000  0.65411000  0.90800000  1.0
  C  C65  1  0.34593000  0.00675000  0.59200000  1.0
  C  C66  1  0.21463000  0.99616000  0.27421000  1.0
  C  C67  1  0.00379000  0.78570000  0.22582000  1.0
  C  C68  1  0.78537000  0.00384000  0.72578000  1.0
  C  C69  1  0.99621000  0.21430000  0.77418000  1.0
  C  C70  1  0.10190000  0.11872000  0.27418000  1.0
  C  C71  1  0.88112000  0.89835000  0.22584000  1.0
  C  C72  1  0.89810000  0.88128000  0.72582000  1.0
  C  C73  1  0.11888000  0.10165000  0.77416000  1.0
  C  C74  1  0.92952000  0.07048000  0.25000000  1.0
  C  C75  1  0.07048000  0.92952000  0.75000000  1.0
  C  C76  1  0.72219000  0.47274000  0.28112000  1.0
  C  C77  1  0.52698000  0.27788000  0.21883000  1.0
  C  C78  1  0.27781000  0.52726000  0.71888000  1.0
  C  C79  1  0.47302000  0.72212000  0.78117000  1.0
  C  C80  1  0.84440000  0.35956000  0.28203000  1.0
  C  C81  1  0.64023000  0.15577000  0.21796000  1.0
  C  C82  1  0.15561000  0.64044000  0.71797000  1.0
  C  C83  1  0.35977000  0.84423000  0.78204000  1.0
  C  C84  1  0.80437000  0.19564000  0.25001000  1.0
  C  C85  1  0.19563000  0.80436000  0.75000000  1.0
  N  N86  1  0.16793000  0.83227000  0.25003000  1.0
  N  N87  1  0.83207000  0.16773000  0.74997000  1.0
  N  N88  1  0.56597000  0.43388000  0.24996000  1.0
  N  N89  1  0.43404000  0.56612000  0.75004000  1.0
  O  O90  1  0.17709000  0.45190000  0.18206000  1.0
  O  O91  1  0.54819000  0.82286000  0.31796000  1.0
  O  O92  1  0.82291000  0.54810000  0.81794000  1.0
  O  O93  1  0.45180000  0.17714000  0.68204000  1.0
  O  O94  1  0.48466000  0.73120000  0.16001000  1.0
  O  O95  1  0.26885000  0.51539000  0.34000000  1.0
  O  O96  1  0.51534000  0.26880000  0.83999000  1.0
  O  O97  1  0.73115000  0.48461000  0.66000000  1.0
  O  O98  1  0.47237000  0.72473000  0.99401000  1.0
  O  O99  1  0.27526000  0.52758000  0.50599000  1.0
  O  O100  1  0.52763000  0.27527000  0.00599000  1.0
  O  O101  1  0.72473000  0.47242000  0.49401000  1.0
  F  F102  1  0.85807000  0.40163000  0.11120000  1.0
  F  F103  1  0.59814000  0.14155000  0.38879000  1.0
  F  F104  1  0.14193000  0.59837000  0.88880000  1.0
  F  F105  1  0.40186000  0.85846000  0.61122000  1.0
  F  F106  1  0.00229000  0.17895000  0.10948000  1.0
  F  F107  1  0.82129000  0.99773000  0.39052000  1.0
  F  F108  1  0.99771000  0.82105000  0.89051000  1.0
  F  F109  1  0.17871000  0.00227000  0.60948000  1.0
  F  F110  1  0.99501000  0.33716000  0.02880000  1.0
  F  F111  1  0.66283000  0.00492000  0.47121000  1.0
  F  F112  1  0.00499000  0.66284000  0.97120000  1.0
  F  F113  1  0.33717000  0.99508000  0.52880000  1.0
