# generated using pymatgen
data_NiH18C17N2O5
_symmetry_space_group_name_H-M   'P 1'
_cell_length_a   8.51271000
_cell_length_b   9.31242000
_cell_length_c   11.61950000
_cell_angle_alpha   91.60110000
_cell_angle_beta   101.73000000
_cell_angle_gamma   109.78100000
_symmetry_Int_Tables_number   1
_chemical_formula_structural   NiH18C17N2O5
_chemical_formula_sum   'Ni2 H36 C34 N4 O10'
_cell_volume   843.97809904
_cell_formula_units_Z   2
loop_
 _symmetry_equiv_pos_site_id
 _symmetry_equiv_pos_as_xyz
  1  'x, y, z'
loop_
 _atom_site_type_symbol
 _atom_site_label
 _atom_site_symmetry_multiplicity
 _atom_site_fract_x
 _atom_site_fract_y
 _atom_site_fract_z
 _atom_site_occupancy
  Ni  Ni0  1  0.74531000  0.67585000  0.41895000  1.0
  Ni  Ni1  1  0.25469000  0.32415000  0.58105000  1.0
  H  H2  1  0.67953000  0.41781000  0.32860000  1.0
  H  H3  1  0.32047000  0.58219000  0.67140000  1.0
  H  H4  1  0.63971000  0.39600000  0.45863000  1.0
  H  H5  1  0.36029000  0.60400000  0.54137000  1.0
  H  H6  1  0.36875000  0.86481000  0.54187000  1.0
  H  H7  1  0.63124000  0.13519000  0.45813000  1.0
  H  H8  1  0.51179000  0.66617000  0.02882000  1.0
  H  H9  1  0.48821000  0.33383000  0.97118000  1.0
  H  H10  1  0.87433000  0.92525000  0.29221000  1.0
  H  H11  1  0.12567000  0.07475000  0.70779000  1.0
  H  H12  1  0.09882000  0.02763000  0.17764000  1.0
  H  H13  1  0.90117000  0.97237000  0.82236000  1.0
  H  H14  1  0.27453000  0.65496000  0.27511000  1.0
  H  H15  1  0.72547000  0.34504000  0.72489000  1.0
  H  H16  1  0.04330000  0.56940000  0.38854000  1.0
  H  H17  1  0.95670000  0.43060000  0.61146000  1.0
  H  H18  1  0.64801000  0.59871000  0.65030000  1.0
  H  H19  1  0.35199000  0.40129000  0.34971000  1.0
  H  H20  1  0.79496000  0.61294000  0.86061000  1.0
  H  H21  1  0.20504000  0.38706000  0.13939000  1.0
  H  H22  1  0.27433000  0.83818000  0.76119000  1.0
  H  H23  1  0.72568000  0.16182000  0.23881000  1.0
  H  H24  1  0.10728000  0.82719000  0.55817000  1.0
  H  H25  1  0.89272000  0.17281000  0.44183000  1.0
  H  H26  1  0.42215000  0.83321000  0.15541000  1.0
  H  H27  1  0.57785000  0.16679000  0.84459000  1.0
  H  H28  1  0.41883000  0.02184000  0.17439000  1.0
  H  H29  1  0.58117000  0.97816000  0.82561000  1.0
  H  H30  1  0.22830000  0.66167000  0.95359000  1.0
  H  H31  1  0.77171000  0.33833000  0.04641000  1.0
  H  H32  1  0.05294000  0.67491000  0.00826000  1.0
  H  H33  1  0.94706000  0.32509000  0.99174000  1.0
  H  H34  1  0.17613000  0.96662000  0.00008000  1.0
  H  H35  1  0.82387000  0.03338000  0.99992000  1.0
  H  H36  1  0.35646000  0.94312000  0.96246000  1.0
  H  H37  1  0.64355000  0.05688000  0.03754000  1.0
  C  C38  1  0.57579000  0.83268000  0.47023000  1.0
  C  C39  1  0.42421000  0.16733000  0.52977000  1.0
  C  C40  1  0.47885000  0.92479000  0.50563000  1.0
  C  C41  1  0.52115000  0.07521000  0.49437000  1.0
  C  C42  1  0.51992000  0.55385000  0.04540000  1.0
  C  C43  1  0.48008000  0.44614000  0.95460000  1.0
  C  C44  1  0.57711000  0.52864000  0.17082000  1.0
  C  C45  1  0.42289000  0.47135000  0.82917000  1.0
  C  C46  1  0.96628000  0.86962000  0.28589000  1.0
  C  C47  1  0.03373000  0.13038000  0.71412000  1.0
  C  C48  1  0.09121000  0.92455000  0.22185000  1.0
  C  C49  1  0.90879000  0.07545000  0.77815000  1.0
  C  C50  1  0.20541000  0.84763000  0.21509000  1.0
  C  C51  1  0.79459000  0.15237000  0.78490000  1.0
  C  C52  1  0.18737000  0.71756000  0.27589000  1.0
  C  C53  1  0.81263000  0.28244000  0.72411000  1.0
  C  C54  1  0.05964000  0.66939000  0.33935000  1.0
  C  C55  1  0.94036000  0.33061000  0.66065000  1.0
  C  C56  1  0.78663000  0.65285000  0.67872000  1.0
  C  C57  1  0.21337000  0.34715000  0.32128000  1.0
  C  C58  1  0.87022000  0.66021000  0.79601000  1.0
  C  C59  1  0.12978000  0.33979000  0.20399000  1.0
  C  C60  1  0.04924000  0.72516000  0.82988000  1.0
  C  C61  1  0.95076000  0.27484000  0.17012000  1.0
  C  C62  1  0.13511000  0.78567000  0.74165000  1.0
  C  C63  1  0.86489000  0.21433000  0.25835000  1.0
  C  C64  1  0.04289000  0.77716000  0.62691000  1.0
  C  C65  1  0.95711000  0.22283000  0.37309000  1.0
  C  C66  1  0.33803000  0.90161000  0.14253000  1.0
  C  C67  1  0.66197000  0.09839000  0.85747000  1.0
  C  C68  1  0.14488000  0.72986000  0.95455000  1.0
  C  C69  1  0.85513000  0.27014000  0.04545000  1.0
  C  C70  1  0.25539000  0.89367000  0.01062000  1.0
  C  C71  1  0.74461000  0.10633000  0.98937000  1.0
  N  N72  1  0.95020000  0.74408000  0.34429000  1.0
  N  N73  1  0.04981000  0.25592000  0.65572000  1.0
  N  N74  1  0.87132000  0.70970000  0.59435000  1.0
  N  N75  1  0.12868000  0.29030000  0.40565000  1.0
  O  O76  1  0.73160000  0.45043000  0.41685000  1.0
  O  O77  1  0.26840000  0.54957000  0.58315000  1.0
  O  O78  1  0.52074000  0.68712000  0.47839000  1.0
  O  O79  1  0.47925000  0.31288000  0.52161000  1.0
  O  O80  1  0.71150000  0.89413000  0.43330000  1.0
  O  O81  1  0.28849000  0.10587000  0.56670000  1.0
  O  O82  1  0.59517000  0.63843000  0.24759000  1.0
  O  O83  1  0.40483000  0.36157000  0.75241000  1.0
  O  O84  1  0.60362000  0.40478000  0.19278000  1.0
  O  O85  1  0.39639000  0.59522000  0.80722000  1.0
