# generated using pymatgen
data_ZnH22C22(NO)4
_symmetry_space_group_name_H-M   'P 1'
_cell_length_a   5.40158226
_cell_length_b   5.57748000
_cell_length_c   20.32231223
_cell_angle_alpha   88.10621008
_cell_angle_beta   82.36356919
_cell_angle_gamma   61.04247670
_symmetry_Int_Tables_number   1
_chemical_formula_structural   ZnH22C22(NO)4
_chemical_formula_sum   'Zn1 H22 C22 N4 O4'
_cell_volume   530.61310643
_cell_formula_units_Z   1
loop_
 _symmetry_equiv_pos_site_id
 _symmetry_equiv_pos_as_xyz
  1  'x, y, z'
loop_
 _atom_site_type_symbol
 _atom_site_label
 _atom_site_symmetry_multiplicity
 _atom_site_fract_x
 _atom_site_fract_y
 _atom_site_fract_z
 _atom_site_occupancy
  Zn  Zn0  1  0.89831000  0.50009000  0.49999000  1.0
  H  H1  1  0.08075000  0.56754000  0.60152000  1.0
  H  H2  1  0.24989000  0.43243000  0.39848000  1.0
  H  H3  1  0.05516000  0.81796000  0.55165000  1.0
  H  H4  1  0.42470000  0.18207000  0.44837000  1.0
  H  H5  1  0.04971000  0.13671000  0.80201000  1.0
  H  H6  1  0.98835000  0.86327000  0.19799000  1.0
  H  H7  1  0.65490000  0.10418000  0.61685000  1.0
  H  H8  1  0.37588000  0.89583000  0.38315000  1.0
  H  H9  1  0.39709000  0.86672000  0.69217000  1.0
  H  H10  1  0.95592000  0.13334000  0.30783000  1.0
  H  H11  1  0.71761000  0.56401000  0.67088000  1.0
  H  H12  1  0.95250000  0.43602000  0.32912000  1.0
  H  H13  1  0.95215000  0.09753000  0.68624000  1.0
  H  H14  1  0.73585000  0.90247000  0.31376000  1.0
  H  H15  1  0.96687000  0.95635000  0.93051000  1.0
  H  H16  1  0.85369000  0.04360000  0.06949000  1.0
  H  H17  1  0.73249000  0.70625000  0.99108000  1.0
  H  H18  1  0.42978000  0.29369000  0.00892000  1.0
  H  H19  1  0.50265000  0.50473000  0.93111000  1.0
  H  H20  1  0.93849000  0.49521000  0.06889000  1.0
  H  H21  1  0.48875000  0.55337000  0.81014000  1.0
  H  H22  1  0.85227000  0.44662000  0.18986000  1.0
  C  C23  1  0.42472000  0.95325000  0.57074000  1.0
  C  C24  1  0.94868000  0.04677000  0.42927000  1.0
  C  C25  1  0.67079000  0.90258000  0.60958000  1.0
  C  C26  1  0.18292000  0.09743000  0.39042000  1.0
  C  C27  1  0.62691000  0.78797000  0.67739000  1.0
  C  C28  1  0.09225000  0.21206000  0.32261000  1.0
  C  C29  1  0.89047000  0.00446000  0.72853000  1.0
  C  C30  1  0.62339000  0.99557000  0.27148000  1.0
  C  C31  1  0.74769000  0.85432000  0.73192000  1.0
  C  C32  1  0.33387000  0.14570000  0.26808000  1.0
  C  C33  1  0.72247000  0.78213000  0.80035000  1.0
  C  C34  1  0.30492000  0.21784000  0.19965000  1.0
  C  C35  1  0.85597000  0.89495000  0.83589000  1.0
  C  C36  1  0.58677000  0.10501000  0.16410000  1.0
  C  C37  1  0.86390000  0.86882000  0.90439000  1.0
  C  C38  1  0.63707000  0.13116000  0.09561000  1.0
  C  C39  1  0.73528000  0.72658000  0.93755000  1.0
  C  C40  1  0.39938000  0.27340000  0.06245000  1.0
  C  C41  1  0.60272000  0.61333000  0.90357000  1.0
  C  C42  1  0.11961000  0.38664000  0.09643000  1.0
  C  C43  1  0.59465000  0.63984000  0.83548000  1.0
  C  C44  1  0.06996000  0.36014000  0.16452000  1.0
  N  N45  1  0.95099000  0.71499000  0.57198000  1.0
  N  N46  1  0.23795000  0.28503000  0.42802000  1.0
  N  N47  1  0.95847000  0.02485000  0.79056000  1.0
  N  N48  1  0.77380000  0.97516000  0.20945000  1.0
  O  O49  1  0.18222000  0.15261000  0.59006000  1.0
  O  O50  1  0.92485000  0.84739000  0.40995000  1.0
  O  O51  1  0.47447000  0.78640000  0.52243000  1.0
  O  O52  1  0.78328000  0.21366000  0.47756000  1.0
