# generated using pymatgen
data_Sr2CuH26(C9O11)2
_symmetry_space_group_name_H-M   'P 1'
_cell_length_a   7.09002000
_cell_length_b   10.00870000
_cell_length_c   10.39190000
_cell_angle_alpha   66.03950000
_cell_angle_beta   72.73070000
_cell_angle_gamma   80.42160000
_symmetry_Int_Tables_number   1
_chemical_formula_structural   Sr2CuH26(C9O11)2
_chemical_formula_sum   'Sr2 Cu1 H26 C18 O22'
_cell_volume   642.61433583
_cell_formula_units_Z   1
loop_
 _symmetry_equiv_pos_site_id
 _symmetry_equiv_pos_as_xyz
  1  'x, y, z'
loop_
 _atom_site_type_symbol
 _atom_site_label
 _atom_site_symmetry_multiplicity
 _atom_site_fract_x
 _atom_site_fract_y
 _atom_site_fract_z
 _atom_site_occupancy
  Sr  Sr0  1  0.97458000  0.46472000  0.26227000  1.0
  Sr  Sr1  1  0.02542000  0.53528000  0.73773000  1.0
  Cu  Cu2  1  0.49999000  0.00000000  0.50000000  1.0
  H  H3  1  0.38354000  0.70616000  0.06666000  1.0
  H  H4  1  0.61646000  0.29383000  0.93334000  1.0
  H  H5  1  0.08570000  0.96775000  0.31689000  1.0
  H  H6  1  0.91431000  0.03224000  0.68311000  1.0
  H  H7  1  0.22732000  0.16326000  0.85161000  1.0
  H  H8  1  0.77270000  0.83675000  0.14839000  1.0
  H  H9  1  0.16670000  0.87744000  0.63686000  1.0
  H  H10  1  0.83328000  0.12256000  0.36314000  1.0
  H  H11  1  0.24934000  0.84976000  0.48717000  1.0
  H  H12  1  0.75064000  0.15024000  0.51283000  1.0
  H  H13  1  0.72886000  0.73391000  0.38118000  1.0
  H  H14  1  0.27113000  0.26609000  0.61882000  1.0
  H  H15  1  0.74134000  0.57197000  0.49167000  1.0
  H  H16  1  0.25866000  0.42803000  0.50833000  1.0
  H  H17  1  0.31103000  0.22229000  0.33436000  1.0
  H  H18  1  0.68897000  0.77771000  0.66564000  1.0
  H  H19  1  0.13151000  0.15299000  0.46001000  1.0
  H  H20  1  0.86849000  0.84701000  0.53999000  1.0
  H  H21  1  0.30949000  0.48099000  0.97179000  1.0
  H  H22  1  0.69051000  0.51901000  0.02821000  1.0
  H  H23  1  0.38878000  0.36091000  0.09975000  1.0
  H  H24  1  0.61122000  0.63909000  0.90025000  1.0
  H  H25  1  0.60551000  0.35149000  0.23401000  1.0
  H  H26  1  0.39449000  0.64852000  0.76599000  1.0
  H  H27  1  0.49951000  0.49117000  0.26520000  1.0
  H  H28  1  0.50049000  0.50883000  0.73480000  1.0
  C  C29  1  0.32230000  0.93460000  0.94241000  1.0
  C  C30  1  0.67771000  0.06540000  0.05759000  1.0
  C  C31  1  0.32253000  0.81188000  0.07114000  1.0
  C  C32  1  0.67747000  0.18812000  0.92886000  1.0
  C  C33  1  0.24041000  0.82339000  0.20662000  1.0
  C  C34  1  0.75960000  0.17661000  0.79339000  1.0
  C  C35  1  0.15197000  0.95757000  0.21229000  1.0
  C  C36  1  0.84803000  0.04243000  0.78771000  1.0
  C  C37  1  0.14314000  0.07879000  0.08464000  1.0
  C  C38  1  0.85687000  0.92121000  0.91536000  1.0
  C  C39  1  0.23252000  0.06743000  0.94998000  1.0
  C  C40  1  0.76748000  0.93257000  0.05002000  1.0
  C  C41  1  0.40940000  0.92092000  0.79866000  1.0
  C  C42  1  0.59060000  0.07908000  0.20133000  1.0
  C  C43  1  0.23812000  0.69089000  0.34445000  1.0
  C  C44  1  0.76190000  0.30911000  0.65555000  1.0
  C  C45  1  0.03516000  0.22071000  0.08819000  1.0
  C  C46  1  0.96484000  0.77928000  0.91181000  1.0
  O  O47  1  0.39723000  0.03452000  0.68316000  1.0
  O  O48  1  0.60276000  0.96548000  0.31684000  1.0
  O  O49  1  0.48925000  0.79894000  0.79413000  1.0
  O  O50  1  0.51075000  0.20105000  0.20587000  1.0
  O  O51  1  0.25400000  0.56471000  0.33673000  1.0
  O  O52  1  0.74600000  0.43529000  0.66327000  1.0
  O  O53  1  0.21542000  0.70849000  0.46278000  1.0
  O  O54  1  0.78457000  0.29151000  0.53722000  1.0
  O  O55  1  0.94927000  0.22838000  0.21300000  1.0
  O  O56  1  0.05074000  0.77162000  0.78700000  1.0
  O  O57  1  0.03421000  0.32476000  0.96877000  1.0
  O  O58  1  0.96579000  0.67524000  0.03125000  1.0
  O  O59  1  0.24332000  0.92580000  0.53040000  1.0
  O  O60  1  0.75666000  0.07420000  0.46960000  1.0
  O  O61  1  0.75677000  0.63337000  0.38627000  1.0
  O  O62  1  0.24323000  0.36663000  0.61373000  1.0
  O  O63  1  0.19598000  0.24574000  0.40563000  1.0
  O  O64  1  0.80402000  0.75426000  0.59437000  1.0
  O  O65  1  0.29502000  0.44619000  0.07762000  1.0
  O  O66  1  0.70498000  0.55381000  0.92238000  1.0
  O  O67  1  0.62947000  0.44834000  0.22715000  1.0
  O  O68  1  0.37053000  0.55166000  0.77285000  1.0
