# generated using pymatgen
data_AgH5C5N3O2
_symmetry_space_group_name_H-M   'P 1'
_cell_length_a   7.61979912
_cell_length_b   7.62876000
_cell_length_c   13.60645825
_cell_angle_alpha   81.97757515
_cell_angle_beta   73.77262155
_cell_angle_gamma   60.03945601
_symmetry_Int_Tables_number   1
_chemical_formula_structural   AgH5C5N3O2
_chemical_formula_sum   'Ag4 H20 C20 N12 O8'
_cell_volume   657.94480014
_cell_formula_units_Z   4
loop_
 _symmetry_equiv_pos_site_id
 _symmetry_equiv_pos_as_xyz
  1  'x, y, z'
loop_
 _atom_site_type_symbol
 _atom_site_label
 _atom_site_symmetry_multiplicity
 _atom_site_fract_x
 _atom_site_fract_y
 _atom_site_fract_z
 _atom_site_occupancy
  Ag  Ag0  1  0.22858000  0.07029000  0.49137000  1.0
  Ag  Ag1  1  0.79059000  0.92898000  0.50860000  1.0
  Ag  Ag2  1  0.46958000  0.57102000  0.00860000  1.0
  Ag  Ag3  1  0.04886000  0.42971000  0.99137000  1.0
  H  H4  1  0.13705000  0.94198000  0.72495000  1.0
  H  H5  1  0.80421000  0.05824000  0.27508000  1.0
  H  H6  1  0.61244000  0.44177000  0.77509000  1.0
  H  H7  1  0.82903000  0.55802000  0.22495000  1.0
  H  H8  1  0.08149000  0.07093000  0.89524000  1.0
  H  H9  1  0.04727000  0.92913000  0.10479000  1.0
  H  H10  1  0.72640000  0.57087000  0.60479000  1.0
  H  H11  1  0.90241000  0.42908000  0.39524000  1.0
  H  H12  1  0.21925000  0.42440000  0.58327000  1.0
  H  H13  1  0.22730000  0.57565000  0.41673000  1.0
  H  H14  1  0.55294000  0.92437000  0.91673000  1.0
  H  H15  1  0.39365000  0.07562000  0.08327000  1.0
  H  H16  1  0.12777000  0.65774000  0.82233000  1.0
  H  H17  1  0.60774000  0.34246000  0.17760000  1.0
  H  H18  1  0.70021000  0.15754000  0.67760000  1.0
  H  H19  1  0.53550000  0.84226000  0.32233000  1.0
  H  H20  1  0.20783000  0.65240000  0.68453000  1.0
  H  H21  1  0.54493000  0.34756000  0.31541000  1.0
  H  H22  1  0.64250000  0.15246000  0.81540000  1.0
  H  H23  1  0.61022000  0.84761000  0.18453000  1.0
  C  C24  1  0.48501000  0.61663000  0.49749000  1.0
  C  C25  1  0.59942000  0.38318000  0.50255000  1.0
  C  C26  1  0.73261000  0.11682000  0.00255000  1.0
  C  C27  1  0.85163000  0.88336000  0.99750000  1.0
  C  C28  1  0.14239000  0.07878000  0.73192000  1.0
  C  C29  1  0.95322000  0.92129000  0.26810000  1.0
  C  C30  1  0.62450000  0.57872000  0.76811000  1.0
  C  C31  1  0.97117000  0.42121000  0.23192000  1.0
  C  C32  1  0.10967000  0.15331000  0.82613000  1.0
  C  C33  1  0.08887000  0.84668000  0.17388000  1.0
  C  C34  1  0.68554000  0.65332000  0.67389000  1.0
  C  C35  1  0.01298000  0.34669000  0.32613000  1.0
  C  C36  1  0.15492000  0.42268000  0.74951000  1.0
  C  C37  1  0.32701000  0.57726000  0.25050000  1.0
  C  C38  1  0.65426000  0.92275000  0.75050000  1.0
  C  C39  1  0.32761000  0.07731000  0.24951000  1.0
  C  C40  1  0.18796000  0.34429000  0.65279000  1.0
  C  C41  1  0.18521000  0.65571000  0.34725000  1.0
  C  C42  1  0.59091000  0.84431000  0.84725000  1.0
  C  C43  1  0.28226000  0.15572000  0.15278000  1.0
  N  N44  1  0.11397000  0.32436000  0.83677000  1.0
  N  N45  1  0.27480000  0.67558000  0.16323000  1.0
  N  N46  1  0.70038000  0.82443000  0.66323000  1.0
  N  N47  1  0.18833000  0.17564000  0.33677000  1.0
  N  N48  1  0.18250000  0.17627000  0.64451000  1.0
  N  N49  1  0.00360000  0.82382000  0.35552000  1.0
  N  N50  1  0.57741000  0.67619000  0.85552000  1.0
  N  N51  1  0.10880000  0.32372000  0.14450000  1.0
  N  N52  1  0.16448000  0.59161000  0.75333000  1.0
  N  N53  1  0.50938000  0.40834000  0.24664000  1.0
  N  N54  1  0.66773000  0.09167000  0.74663000  1.0
  N  N55  1  0.50609000  0.90839000  0.25333000  1.0
  O  O56  1  0.29961000  0.71177000  0.55286000  1.0
  O  O57  1  0.56463000  0.28802000  0.44708000  1.0
  O  O58  1  0.60267000  0.21197000  0.94708000  1.0
  O  O59  1  0.76137000  0.78824000  0.05286000  1.0
  O  O60  1  0.58482000  0.69852000  0.43850000  1.0
  O  O61  1  0.72223000  0.30140000  0.56154000  1.0
  O  O62  1  0.77364000  0.19859000  0.06154000  1.0
  O  O63  1  0.03332000  0.80148000  0.93851000  1.0
