# generated using pymatgen
data_MnH12C6(N2O)4
_symmetry_space_group_name_H-M   'P 1'
_cell_length_a   5.39116000
_cell_length_b   7.54577000
_cell_length_c   8.29674075
_cell_angle_alpha   116.18999114
_cell_angle_beta   92.58953693
_cell_angle_gamma   90.05510000
_symmetry_Int_Tables_number   1
_chemical_formula_structural   MnH12C6(N2O)4
_chemical_formula_sum   'Mn1 H12 C6 N8 O4'
_cell_volume   302.47280842
_cell_formula_units_Z   1
loop_
 _symmetry_equiv_pos_site_id
 _symmetry_equiv_pos_as_xyz
  1  'x, y, z'
loop_
 _atom_site_type_symbol
 _atom_site_label
 _atom_site_symmetry_multiplicity
 _atom_site_fract_x
 _atom_site_fract_y
 _atom_site_fract_z
 _atom_site_occupancy
  Mn  Mn0  1  0.00000000  0.00000000  0.00000000  1.0
  H  H1  1  0.62370000  0.90501000  0.30517000  1.0
  H  H2  1  0.37630000  0.09500000  0.69484000  1.0
  H  H3  1  0.37088000  0.25958000  0.35220000  1.0
  H  H4  1  0.62912000  0.74042000  0.64780000  1.0
  H  H5  1  0.47511000  0.33382000  0.58145000  1.0
  H  H6  1  0.52490000  0.66618000  0.41855000  1.0
  H  H7  1  0.20484000  0.43949000  0.52911000  1.0
  H  H8  1  0.79516000  0.56052000  0.47089000  1.0
  H  H9  1  0.76477000  0.25106000  0.87875000  1.0
  H  H10  1  0.23523000  0.74895000  0.12124000  1.0
  H  H11  1  0.55454000  0.17729000  0.96873000  1.0
  H  H12  1  0.44543000  0.82272000  0.03128000  1.0
  C  C13  1  0.78950000  0.94395000  0.39422000  1.0
  C  C14  1  0.21050000  0.05606000  0.60579000  1.0
  C  C15  1  0.15506000  0.14510000  0.49524000  1.0
  C  C16  1  0.84494000  0.85490000  0.50476000  1.0
  C  C17  1  0.31132000  0.30344000  0.48931000  1.0
  C  C18  1  0.68868000  0.69657000  0.51070000  1.0
  N  N19  1  0.94092000  0.08476000  0.38712000  1.0
  N  N20  1  0.05909000  0.91524000  0.61288000  1.0
  N  N21  1  0.78316000  0.59176000  0.87984000  1.0
  N  N22  1  0.21684000  0.40825000  0.12016000  1.0
  N  N23  1  0.74124000  0.76386000  0.95919000  1.0
  N  N24  1  0.25876000  0.23615000  0.04081000  1.0
  N  N25  1  0.82315000  0.42298000  0.79940000  1.0
  N  N26  1  0.17685000  0.57701000  0.20059000  1.0
  O  O27  1  0.88373000  0.16063000  0.27513000  1.0
  O  O28  1  0.11627000  0.83936000  0.72487000  1.0
  O  O29  1  0.71719000  0.14152000  0.90897000  1.0
  O  O30  1  0.28283000  0.85845000  0.09102000  1.0
