# generated using pymatgen
data_Zn4H48C54O13
_symmetry_space_group_name_H-M   'P 1'
_cell_length_a   22.74763797
_cell_length_b   22.75290000
_cell_length_c   25.72923946
_cell_angle_alpha   63.77100169
_cell_angle_beta   63.76482942
_cell_angle_gamma   60.00765000
_symmetry_Int_Tables_number   1
_chemical_formula_structural   Zn4H48C54O13
_chemical_formula_sum   'Zn16 H192 C216 O52'
_cell_volume   9918.10650303
_cell_formula_units_Z   4
loop_
 _symmetry_equiv_pos_site_id
 _symmetry_equiv_pos_as_xyz
  1  'x, y, z'
loop_
 _atom_site_type_symbol
 _atom_site_label
 _atom_site_symmetry_multiplicity
 _atom_site_fract_x
 _atom_site_fract_y
 _atom_site_fract_z
 _atom_site_occupancy
  Zn  Zn0  1  0.54324000  0.54334000  0.37012000  1.0
  Zn  Zn1  1  0.95670000  0.95666000  0.12988000  1.0
  Zn  Zn2  1  0.45676000  0.45665000  0.62988000  1.0
  Zn  Zn3  1  0.04329000  0.04335000  0.87012000  1.0
  Zn  Zn4  1  0.17621000  0.04002000  0.75603000  1.0
  Zn  Zn5  1  0.03989000  0.02779000  0.75613000  1.0
  Zn  Zn6  1  0.02774000  0.17622000  0.75610000  1.0
  Zn  Zn7  1  0.46006000  0.32378000  0.74390000  1.0
  Zn  Zn8  1  0.47226000  0.45998000  0.74397000  1.0
  Zn  Zn9  1  0.32382000  0.47220000  0.74387000  1.0
  Zn  Zn10  1  0.82379000  0.95997000  0.24397000  1.0
  Zn  Zn11  1  0.96011000  0.97221000  0.24387000  1.0
  Zn  Zn12  1  0.97226000  0.82378000  0.24390000  1.0
  Zn  Zn13  1  0.53994000  0.67622000  0.25610000  1.0
  Zn  Zn14  1  0.52774000  0.54003000  0.25603000  1.0
  Zn  Zn15  1  0.67619000  0.52779000  0.25613000  1.0
  H  H16  1  0.11392000  0.32720000  0.63313000  1.0
  H  H17  1  0.32703000  0.92585000  0.63314000  1.0
  H  H18  1  0.92583000  0.11399000  0.63310000  1.0
  H  H19  1  0.17292000  0.38601000  0.86690000  1.0
  H  H20  1  0.57425000  0.17280000  0.86687000  1.0
  H  H21  1  0.38602000  0.57415000  0.86686000  1.0
  H  H22  1  0.88608000  0.67280000  0.36687000  1.0
  H  H23  1  0.67297000  0.07415000  0.36686000  1.0
  H  H24  1  0.07417000  0.88601000  0.36690000  1.0
  H  H25  1  0.82708000  0.61399000  0.13310000  1.0
  H  H26  1  0.42576000  0.82719000  0.13313000  1.0
  H  H27  1  0.61398000  0.42585000  0.13314000  1.0
  H  H28  1  0.30926000  0.14706000  0.63905000  1.0
  H  H29  1  0.14688000  0.90463000  0.63913000  1.0
  H  H30  1  0.90471000  0.30926000  0.63912000  1.0
  H  H31  1  0.35308000  0.19075000  0.86088000  1.0
  H  H32  1  0.59537000  0.35294000  0.86095000  1.0
  H  H33  1  0.19064000  0.59537000  0.86087000  1.0
  H  H34  1  0.69074000  0.85294000  0.36095000  1.0
  H  H35  1  0.85312000  0.09537000  0.36087000  1.0
  H  H36  1  0.09529000  0.69075000  0.36088000  1.0
  H  H37  1  0.64692000  0.80925000  0.13912000  1.0
  H  H38  1  0.40463000  0.64706000  0.13905000  1.0
  H  H39  1  0.80936000  0.40463000  0.13913000  1.0
  H  H40  1  0.39805000  0.41913000  0.35586000  1.0
  H  H41  1  0.41905000  0.82693000  0.35595000  1.0
  H  H42  1  0.82688000  0.39812000  0.35592000  1.0
  H  H43  1  0.08092000  0.10188000  0.14408000  1.0
  H  H44  1  0.67305000  0.08086000  0.14414000  1.0
  H  H45  1  0.10193000  0.67306000  0.14406000  1.0
  H  H46  1  0.60195000  0.58087000  0.64414000  1.0
  H  H47  1  0.58095000  0.17307000  0.64405000  1.0
  H  H48  1  0.17313000  0.60187000  0.64408000  1.0
  H  H49  1  0.91908000  0.89812000  0.85592000  1.0
  H  H50  1  0.32696000  0.91913000  0.85586000  1.0
  H  H51  1  0.89807000  0.32693000  0.85595000  1.0
  H  H52  1  0.39737000  0.46614000  0.50049000  1.0
  H  H53  1  0.46614000  0.63605000  0.50053000  1.0
  H  H54  1  0.63599000  0.39727000  0.50060000  1.0
  H  H55  1  0.03387000  0.10273000  0.99939000  1.0
  H  H56  1  0.86400000  0.03387000  0.99950000  1.0
  H  H57  1  0.10271000  0.86395000  0.99947000  1.0
  H  H58  1  0.60263000  0.53387000  0.49950000  1.0
  H  H59  1  0.53386000  0.36395000  0.49947000  1.0
  H  H60  1  0.36401000  0.60273000  0.49939000  1.0
  H  H61  1  0.96613000  0.89728000  0.00060000  1.0
  H  H62  1  0.13600000  0.96614000  0.00049000  1.0
  H  H63  1  0.89728000  0.13606000  0.00053000  1.0
  H  H64  1  0.34554000  0.27669000  0.44132000  1.0
  H  H65  1  0.27656000  0.93636000  0.44148000  1.0
  H  H66  1  0.93645000  0.34559000  0.44137000  1.0
  H  H67  1  0.22341000  0.15440000  0.05863000  1.0
  H  H68  1  0.56355000  0.22331000  0.05868000  1.0
  H  H69  1  0.15440000  0.56363000  0.05852000  1.0
  H  H70  1  0.65446000  0.72331000  0.55868000  1.0
  H  H71  1  0.72345000  0.06363000  0.55852000  1.0
  H  H72  1  0.06356000  0.65440000  0.55863000  1.0
  H  H73  1  0.77659000  0.84559000  0.94137000  1.0
  H  H74  1  0.43645000  0.77669000  0.94132000  1.0
  H  H75  1  0.84560000  0.43637000  0.94148000  1.0
  H  H76  1  0.33808000  0.34871000  0.37439000  1.0
  H  H77  1  0.34856000  0.93879000  0.37451000  1.0
  H  H78  1  0.93879000  0.33817000  0.37442000  1.0
  H  H79  1  0.15138000  0.16182000  0.12558000  1.0
  H  H80  1  0.56118000  0.15129000  0.12561000  1.0
  H  H81  1  0.16186000  0.56121000  0.12549000  1.0
  H  H82  1  0.66192000  0.65129000  0.62561000  1.0
  H  H83  1  0.65144000  0.06121000  0.62549000  1.0
  H  H84  1  0.06122000  0.66182000  0.62558000  1.0
  H  H85  1  0.84862000  0.83817000  0.87442000  1.0
  H  H86  1  0.43882000  0.84871000  0.87439000  1.0
  H  H87  1  0.83814000  0.43879000  0.87451000  1.0
  H  H88  1  0.26379000  0.34849000  0.43983000  1.0
  H  H89  1  0.34837000  0.94784000  0.43996000  1.0
  H  H90  1  0.94787000  0.26388000  0.43983000  1.0
  H  H91  1  0.15158000  0.23612000  0.06017000  1.0
  H  H92  1  0.55211000  0.15150000  0.06017000  1.0
  H  H93  1  0.23616000  0.55216000  0.06004000  1.0
  H  H94  1  0.73622000  0.65151000  0.56017000  1.0
  H  H95  1  0.65163000  0.05216000  0.56004000  1.0
  H  H96  1  0.05214000  0.73611000  0.56017000  1.0
  H  H97  1  0.84842000  0.76388000  0.93983000  1.0
  H  H98  1  0.44789000  0.84850000  0.93983000  1.0
  H  H99  1  0.76384000  0.44784000  0.93996000  1.0
  H  H100  1  0.26489000  0.41727000  0.61240000  1.0
  H  H101  1  0.41724000  0.70538000  0.61250000  1.0
  H  H102  1  0.70539000  0.26482000  0.61249000  1.0
  H  H103  1  0.08270000  0.23519000  0.88750000  1.0
  H  H104  1  0.79456000  0.08273000  0.88760000  1.0
  H  H105  1  0.23512000  0.79461000  0.88751000  1.0
  H  H106  1  0.73511000  0.58273000  0.38760000  1.0
  H  H107  1  0.58276000  0.29462000  0.38750000  1.0
  H  H108  1  0.29461000  0.73517000  0.38751000  1.0
  H  H109  1  0.91730000  0.76482000  0.11249000  1.0
  H  H110  1  0.20544000  0.91727000  0.11240000  1.0
  H  H111  1  0.76488000  0.20538000  0.11250000  1.0
  H  H112  1  0.35033000  0.41064000  0.60246000  1.0
  H  H113  1  0.41058000  0.63658000  0.60251000  1.0
  H  H114  1  0.63659000  0.35027000  0.60252000  1.0
  H  H115  1  0.08938000  0.14973000  0.89748000  1.0
  H  H116  1  0.86344000  0.08935000  0.89754000  1.0
  H  H117  1  0.14967000  0.86341000  0.89750000  1.0
  H  H118  1  0.64967000  0.58935000  0.39754000  1.0
  H  H119  1  0.58942000  0.36342000  0.39749000  1.0
  H  H120  1  0.36341000  0.64973000  0.39748000  1.0
  H  H121  1  0.91062000  0.85027000  0.10252000  1.0
  H  H122  1  0.13656000  0.91065000  0.10246000  1.0
  H  H123  1  0.85033000  0.13659000  0.10250000  1.0
  H  H124  1  0.33460000  0.33359000  0.62095000  1.0
  H  H125  1  0.33352000  0.71087000  0.62101000  1.0
  H  H126  1  0.71095000  0.33450000  0.62098000  1.0
  H  H127  1  0.16643000  0.16550000  0.87902000  1.0
  H  H128  1  0.78914000  0.16642000  0.87905000  1.0
  H  H129  1  0.16540000  0.78912000  0.87900000  1.0
  H  H130  1  0.66540000  0.66641000  0.37905000  1.0
  H  H131  1  0.66648000  0.28913000  0.37899000  1.0
  H  H132  1  0.28905000  0.66550000  0.37902000  1.0
  H  H133  1  0.83357000  0.83450000  0.12098000  1.0
  H  H134  1  0.21086000  0.83359000  0.12095000  1.0
  H  H135  1  0.83460000  0.21088000  0.12100000  1.0
  H  H136  1  0.18701000  0.45859000  0.55369000  1.0
  H  H137  1  0.45849000  0.80073000  0.55375000  1.0
  H  H138  1  0.80075000  0.18704000  0.55369000  1.0
  H  H139  1  0.04148000  0.31296000  0.94631000  1.0
  H  H140  1  0.69929000  0.04140000  0.94631000  1.0
  H  H141  1  0.31297000  0.69927000  0.94625000  1.0
  H  H142  1  0.81299000  0.54141000  0.44631000  1.0
  H  H143  1  0.54151000  0.19926000  0.44625000  1.0
  H  H144  1  0.19925000  0.81296000  0.44631000  1.0
  H  H145  1  0.95852000  0.68704000  0.05369000  1.0
  H  H146  1  0.30071000  0.95859000  0.05369000  1.0
  H  H147  1  0.68703000  0.30073000  0.05375000  1.0
  H  H148  1  0.11204000  0.44125000  0.56852000  1.0
  H  H149  1  0.44118000  0.87819000  0.56857000  1.0
  H  H150  1  0.87824000  0.11210000  0.56849000  1.0
  H  H151  1  0.05883000  0.38789000  0.93151000  1.0
  H  H152  1  0.62180000  0.05876000  0.93148000  1.0
  H  H153  1  0.38794000  0.62181000  0.93143000  1.0
  H  H154  1  0.88796000  0.55875000  0.43148000  1.0
  H  H155  1  0.55882000  0.12181000  0.43143000  1.0
  H  H156  1  0.12177000  0.88789000  0.43151000  1.0
  H  H157  1  0.94117000  0.61210000  0.06849000  1.0
  H  H158  1  0.37820000  0.94124000  0.06852000  1.0
  H  H159  1  0.61206000  0.37819000  0.06857000  1.0
  H  H160  1  0.17912000  0.44000000  0.49810000  1.0
  H  H161  1  0.43996000  0.88276000  0.49815000  1.0
  H  H162  1  0.88281000  0.17917000  0.49809000  1.0
  H  H163  1  0.06007000  0.32083000  0.00191000  1.0
  H  H164  1  0.61722000  0.06000000  0.00190000  1.0
  H  H165  1  0.32087000  0.61724000  0.00185000  1.0
  H  H166  1  0.82088000  0.56000000  0.50190000  1.0
  H  H167  1  0.56004000  0.11724000  0.50185000  1.0
  H  H168  1  0.11719000  0.82084000  0.50191000  1.0
  H  H169  1  0.93993000  0.67917000  0.99809000  1.0
  H  H170  1  0.38278000  0.94000000  0.99810000  1.0
  H  H171  1  0.67913000  0.38276000  0.99815000  1.0
  H  H172  1  0.41845000  0.22044000  0.50566000  1.0
  H  H173  1  0.22043000  0.85532000  0.50573000  1.0
  H  H174  1  0.85546000  0.41842000  0.50567000  1.0
  H  H175  1  0.27955000  0.08158000  0.99433000  1.0
  H  H176  1  0.64455000  0.27956000  0.99434000  1.0
  H  H177  1  0.08147000  0.64469000  0.99427000  1.0
  H  H178  1  0.58155000  0.77956000  0.49434000  1.0
  H  H179  1  0.77957000  0.14469000  0.49427000  1.0
  H  H180  1  0.14454000  0.58158000  0.49433000  1.0
  H  H181  1  0.72045000  0.91842000  0.00567000  1.0
  H  H182  1  0.35545000  0.72044000  0.00566000  1.0
  H  H183  1  0.91852000  0.35532000  0.00573000  1.0
  H  H184  1  0.41983000  0.15665000  0.57753000  1.0
  H  H185  1  0.15655000  0.84590000  0.57759000  1.0
  H  H186  1  0.84605000  0.41988000  0.57751000  1.0
  H  H187  1  0.34344000  0.08012000  0.92249000  1.0
  H  H188  1  0.65400000  0.34336000  0.92247000  1.0
  H  H189  1  0.08004000  0.65410000  0.92241000  1.0
  H  H190  1  0.58017000  0.84336000  0.42247000  1.0
  H  H191  1  0.84345000  0.15410000  0.42241000  1.0
  H  H192  1  0.15395000  0.58012000  0.42249000  1.0
  H  H193  1  0.65656000  0.91988000  0.07751000  1.0
  H  H194  1  0.34600000  0.65664000  0.07753000  1.0
  H  H195  1  0.91996000  0.34590000  0.07759000  1.0
  H  H196  1  0.42418000  0.23888000  0.56248000  1.0
  H  H197  1  0.23888000  0.77440000  0.56259000  1.0
  H  H198  1  0.77449000  0.42411000  0.56253000  1.0
  H  H199  1  0.26113000  0.07590000  0.93747000  1.0
  H  H200  1  0.72554000  0.26112000  0.93752000  1.0
  H  H201  1  0.07587000  0.72560000  0.93741000  1.0
  H  H202  1  0.57582000  0.76112000  0.43752000  1.0
  H  H203  1  0.76112000  0.22560000  0.43741000  1.0
  H  H204  1  0.22551000  0.57589000  0.43747000  1.0
  H  H205  1  0.73887000  0.92411000  0.06253000  1.0
  H  H206  1  0.27446000  0.73888000  0.06248000  1.0
  H  H207  1  0.92413000  0.27440000  0.06259000  1.0
  C  C208  1  0.28284000  0.31805000  0.55281000  1.0
  C  C209  1  0.31796000  0.84630000  0.55287000  1.0
  C  C210  1  0.84634000  0.28285000  0.55283000  1.0
  C  C211  1  0.18202000  0.21715000  0.94717000  1.0
  C  C212  1  0.65370000  0.18195000  0.94719000  1.0
  C  C213  1  0.21713000  0.65371000  0.94712000  1.0
  C  C214  1  0.71716000  0.68195000  0.44719000  1.0
  C  C215  1  0.68204000  0.15371000  0.44712000  1.0
  C  C216  1  0.15366000  0.71715000  0.44717000  1.0
  C  C217  1  0.81798000  0.78285000  0.05283000  1.0
  C  C218  1  0.34630000  0.81805000  0.05281000  1.0
  C  C219  1  0.78287000  0.34630000  0.05287000  1.0
  C  C220  1  0.20781000  0.23287000  0.64070000  1.0
  C  C221  1  0.23269000  0.91870000  0.64073000  1.0
  C  C222  1  0.91870000  0.20786000  0.64071000  1.0
  C  C223  1  0.26727000  0.29214000  0.85929000  1.0
  C  C224  1  0.58138000  0.26713000  0.85930000  1.0
  C  C225  1  0.29212000  0.58129000  0.85928000  1.0
  C  C226  1  0.79219000  0.76713000  0.35930000  1.0
  C  C227  1  0.76730000  0.08130000  0.35928000  1.0
  C  C228  1  0.08130000  0.79214000  0.35929000  1.0
  C  C229  1  0.73273000  0.70786000  0.14071000  1.0
  C  C230  1  0.41862000  0.73287000  0.14070000  1.0
  C  C231  1  0.70788000  0.41871000  0.14072000  1.0
  C  C232  1  0.32305000  0.36373000  0.50756000  1.0
  C  C233  1  0.36365000  0.80565000  0.50764000  1.0
  C  C234  1  0.80567000  0.32302000  0.50760000  1.0
  C  C235  1  0.13629000  0.17698000  0.99240000  1.0
  C  C236  1  0.69434000  0.13626000  0.99245000  1.0
  C  C237  1  0.17694000  0.69435000  0.99236000  1.0
  C  C238  1  0.67695000  0.63627000  0.49244000  1.0
  C  C239  1  0.63635000  0.19435000  0.49236000  1.0
  C  C240  1  0.19433000  0.67698000  0.49240000  1.0
  C  C241  1  0.86371000  0.82302000  0.00760000  1.0
  C  C242  1  0.30566000  0.86374000  0.00755000  1.0
  C  C243  1  0.82306000  0.30565000  0.00764000  1.0
  C  C244  1  0.20828000  0.34829000  0.57284000  1.0
  C  C245  1  0.34818000  0.87065000  0.57287000  1.0
  C  C246  1  0.87067000  0.20830000  0.57283000  1.0
  C  C247  1  0.15180000  0.29170000  0.92717000  1.0
  C  C248  1  0.62941000  0.15170000  0.92716000  1.0
  C  C249  1  0.29170000  0.62935000  0.92713000  1.0
  C  C250  1  0.79173000  0.65170000  0.42716000  1.0
  C  C251  1  0.65182000  0.12935000  0.42713000  1.0
  C  C252  1  0.12933000  0.79170000  0.42717000  1.0
  C  C253  1  0.84820000  0.70830000  0.07283000  1.0
  C  C254  1  0.37059000  0.84830000  0.07284000  1.0
  C  C255  1  0.70830000  0.37065000  0.07287000  1.0
  C  C256  1  0.17152000  0.30508000  0.61680000  1.0
  C  C257  1  0.30491000  0.90670000  0.61680000  1.0
  C  C258  1  0.90671000  0.17158000  0.61677000  1.0
  C  C259  1  0.19506000  0.32842000  0.88323000  1.0
  C  C260  1  0.59340000  0.19492000  0.88320000  1.0
  C  C261  1  0.32841000  0.59330000  0.88320000  1.0
  C  C262  1  0.82848000  0.69492000  0.38320000  1.0
  C  C263  1  0.69509000  0.09330000  0.38320000  1.0
  C  C264  1  0.09329000  0.82842000  0.38323000  1.0
  C  C265  1  0.80494000  0.67158000  0.11677000  1.0
  C  C266  1  0.40660000  0.80508000  0.11680000  1.0
  C  C267  1  0.67158000  0.40671000  0.11680000  1.0
  C  C268  1  0.28178000  0.20343000  0.62016000  1.0
  C  C269  1  0.20326000  0.89468000  0.62021000  1.0
  C  C270  1  0.89471000  0.28182000  0.62017000  1.0
  C  C271  1  0.29670000  0.21818000  0.87983000  1.0
  C  C272  1  0.60537000  0.29656000  0.87984000  1.0
  C  C273  1  0.21815000  0.60532000  0.87979000  1.0
  C  C274  1  0.71823000  0.79656000  0.37984000  1.0
  C  C275  1  0.79674000  0.10532000  0.37979000  1.0
  C  C276  1  0.10529000  0.71818000  0.37983000  1.0
  C  C277  1  0.70330000  0.78182000  0.12017000  1.0
  C  C278  1  0.39463000  0.70344000  0.12016000  1.0
  C  C279  1  0.78185000  0.39468000  0.12021000  1.0
  C  C280  1  0.32007000  0.24526000  0.57630000  1.0
  C  C281  1  0.24513000  0.85838000  0.57638000  1.0
  C  C282  1  0.85842000  0.32008000  0.57633000  1.0
  C  C283  1  0.25484000  0.17991000  0.92367000  1.0
  C  C284  1  0.64163000  0.25474000  0.92370000  1.0
  C  C285  1  0.17989000  0.64162000  0.92362000  1.0
  C  C286  1  0.67993000  0.75474000  0.42370000  1.0
  C  C287  1  0.75487000  0.14162000  0.42362000  1.0
  C  C288  1  0.14158000  0.67992000  0.42367000  1.0
  C  C289  1  0.74516000  0.82009000  0.07633000  1.0
  C  C290  1  0.35837000  0.74526000  0.07630000  1.0
  C  C291  1  0.82011000  0.35838000  0.07638000  1.0
  C  C292  1  0.16782000  0.18716000  0.68728000  1.0
  C  C293  1  0.18703000  0.95778000  0.68734000  1.0
  C  C294  1  0.95769000  0.16788000  0.68738000  1.0
  C  C295  1  0.31295000  0.33212000  0.81262000  1.0
  C  C296  1  0.54226000  0.31284000  0.81272000  1.0
  C  C297  1  0.33215000  0.54221000  0.81266000  1.0
  C  C298  1  0.83218000  0.81284000  0.31272000  1.0
  C  C299  1  0.81297000  0.04222000  0.31266000  1.0
  C  C300  1  0.04231000  0.83212000  0.31262000  1.0
  C  C301  1  0.68705000  0.66788000  0.18738000  1.0
  C  C302  1  0.45774000  0.68716000  0.18728000  1.0
  C  C303  1  0.66785000  0.45778000  0.18734000  1.0
  C  C304  1  0.40146000  0.44702000  0.42389000  1.0
  C  C305  1  0.44698000  0.72765000  0.42394000  1.0
  C  C306  1  0.72758000  0.40147000  0.42397000  1.0
  C  C307  1  0.05302000  0.09853000  0.07603000  1.0
  C  C308  1  0.77237000  0.05297000  0.07611000  1.0
  C  C309  1  0.09857000  0.77235000  0.07606000  1.0
  C  C310  1  0.59855000  0.55297000  0.57611000  1.0
  C  C311  1  0.55302000  0.27235000  0.57606000  1.0
  C  C312  1  0.27242000  0.59853000  0.57603000  1.0
  C  C313  1  0.94698000  0.90147000  0.92397000  1.0
  C  C314  1  0.22763000  0.94702000  0.92389000  1.0
  C  C315  1  0.90143000  0.22765000  0.92394000  1.0
  C  C316  1  0.38160000  0.41310000  0.40408000  1.0
  C  C317  1  0.41303000  0.80122000  0.40415000  1.0
  C  C318  1  0.80117000  0.38167000  0.40415000  1.0
  C  C319  1  0.08699000  0.11833000  0.09585000  1.0
  C  C320  1  0.69878000  0.08690000  0.09592000  1.0
  C  C321  1  0.11840000  0.69878000  0.09585000  1.0
  C  C322  1  0.61840000  0.58690000  0.59592000  1.0
  C  C323  1  0.58697000  0.19878000  0.59585000  1.0
  C  C324  1  0.19883000  0.61833000  0.59585000  1.0
  C  C325  1  0.91301000  0.88167000  0.90415000  1.0
  C  C326  1  0.30122000  0.91310000  0.90408000  1.0
  C  C327  1  0.88160000  0.30122000  0.90415000  1.0
  C  C328  1  0.34220000  0.37144000  0.44536000  1.0
  C  C329  1  0.37134000  0.84097000  0.44546000  1.0
  C  C330  1  0.84097000  0.34226000  0.44541000  1.0
  C  C331  1  0.12863000  0.15775000  0.05459000  1.0
  C  C332  1  0.65900000  0.12856000  0.05464000  1.0
  C  C333  1  0.15777000  0.65903000  0.05454000  1.0
  C  C334  1  0.65780000  0.62856000  0.55464000  1.0
  C  C335  1  0.62866000  0.15903000  0.55454000  1.0
  C  C336  1  0.15903000  0.65774000  0.55459000  1.0
  C  C337  1  0.87136000  0.84226000  0.94541000  1.0
  C  C338  1  0.34100000  0.87144000  0.94536000  1.0
  C  C339  1  0.84223000  0.34097000  0.94546000  1.0
  C  C340  1  0.34231000  0.39809000  0.52805000  1.0
  C  C341  1  0.39806000  0.73155000  0.52812000  1.0
  C  C342  1  0.73156000  0.34222000  0.52811000  1.0
  C  C343  1  0.10189000  0.15778000  0.97189000  1.0
  C  C344  1  0.76845000  0.10191000  0.97195000  1.0
  C  C345  1  0.15773000  0.76845000  0.97188000  1.0
  C  C346  1  0.65769000  0.60192000  0.47194000  1.0
  C  C347  1  0.60194000  0.26845000  0.47188000  1.0
  C  C348  1  0.26844000  0.65777000  0.47189000  1.0
  C  C349  1  0.89810000  0.84223000  0.02811000  1.0
  C  C350  1  0.23155000  0.89809000  0.02805000  1.0
  C  C351  1  0.84226000  0.23156000  0.02812000  1.0
  C  C352  1  0.38127000  0.43977000  0.48563000  1.0
  C  C353  1  0.43976000  0.69335000  0.48568000  1.0
  C  C354  1  0.69332000  0.38120000  0.48570000  1.0
  C  C355  1  0.06023000  0.11879000  0.01429000  1.0
  C  C356  1  0.80667000  0.06022000  0.01437000  1.0
  C  C357  1  0.11879000  0.80665000  0.01432000  1.0
  C  C358  1  0.61873000  0.56023000  0.51437000  1.0
  C  C359  1  0.56024000  0.30665000  0.51432000  1.0
  C  C360  1  0.30669000  0.61878000  0.51430000  1.0
  C  C361  1  0.93978000  0.88120000  0.98570000  1.0
  C  C362  1  0.19333000  0.93977000  0.98563000  1.0
  C  C363  1  0.88120000  0.19336000  0.98568000  1.0
  C  C364  1  0.44681000  0.48803000  0.38024000  1.0
  C  C365  1  0.48792000  0.68496000  0.38028000  1.0
  C  C366  1  0.68487000  0.44688000  0.38032000  1.0
  C  C367  1  0.01206000  0.05312000  0.11968000  1.0
  C  C368  1  0.81508000  0.01197000  0.11976000  1.0
  C  C369  1  0.05316000  0.81503000  0.11972000  1.0
  C  C370  1  0.55319000  0.51197000  0.61976000  1.0
  C  C371  1  0.51208000  0.31504000  0.61972000  1.0
  C  C372  1  0.31514000  0.55311000  0.61968000  1.0
  C  C373  1  0.98793000  0.94688000  0.88032000  1.0
  C  C374  1  0.18492000  0.98803000  0.88024000  1.0
  C  C375  1  0.94684000  0.18497000  0.88028000  1.0
  C  C376  1  0.32137000  0.33463000  0.42392000  1.0
  C  C377  1  0.33449000  0.92004000  0.42405000  1.0
  C  C378  1  0.92005000  0.32146000  0.42395000  1.0
  C  C379  1  0.16546000  0.17854000  0.07605000  1.0
  C  C380  1  0.57992000  0.16537000  0.07608000  1.0
  C  C381  1  0.17858000  0.57996000  0.07595000  1.0
  C  C382  1  0.67863000  0.66537000  0.57608000  1.0
  C  C383  1  0.66551000  0.07996000  0.57595000  1.0
  C  C384  1  0.07995000  0.67854000  0.57605000  1.0
  C  C385  1  0.83454000  0.82145000  0.92395000  1.0
  C  C386  1  0.42008000  0.83463000  0.92392000  1.0
  C  C387  1  0.82142000  0.42004000  0.92405000  1.0
  C  C388  1  0.32214000  0.38950000  0.59439000  1.0
  C  C389  1  0.38946000  0.69397000  0.59445000  1.0
  C  C390  1  0.69399000  0.32204000  0.59445000  1.0
  C  C391  1  0.11048000  0.17796000  0.90555000  1.0
  C  C392  1  0.80603000  0.11049000  0.90562000  1.0
  C  C393  1  0.17788000  0.80603000  0.90555000  1.0
  C  C394  1  0.67786000  0.61050000  0.40561000  1.0
  C  C395  1  0.61053000  0.30603000  0.40556000  1.0
  C  C396  1  0.30601000  0.67796000  0.40555000  1.0
  C  C397  1  0.88952000  0.82204000  0.09445000  1.0
  C  C398  1  0.19397000  0.88951000  0.09439000  1.0
  C  C399  1  0.82212000  0.19398000  0.09444000  1.0
  C  C400  1  0.16931000  0.42597000  0.54717000  1.0
  C  C401  1  0.42588000  0.85757000  0.54722000  1.0
  C  C402  1  0.85760000  0.16935000  0.54716000  1.0
  C  C403  1  0.07411000  0.33065000  0.95284000  1.0
  C  C404  1  0.64245000  0.07403000  0.95283000  1.0
  C  C405  1  0.33067000  0.64243000  0.95278000  1.0
  C  C406  1  0.83069000  0.57403000  0.45283000  1.0
  C  C407  1  0.57412000  0.14243000  0.45278000  1.0
  C  C408  1  0.14240000  0.83065000  0.45284000  1.0
  C  C409  1  0.92589000  0.66935000  0.04716000  1.0
  C  C410  1  0.35755000  0.92597000  0.04717000  1.0
  C  C411  1  0.66933000  0.35757000  0.04722000  1.0
  C  C412  1  0.39963000  0.21350000  0.55462000  1.0
  C  C413  1  0.21343000  0.83220000  0.55470000  1.0
  C  C414  1  0.83230000  0.39962000  0.55464000  1.0
  C  C415  1  0.28655000  0.10039000  0.94536000  1.0
  C  C416  1  0.66775000  0.28650000  0.94538000  1.0
  C  C417  1  0.10032000  0.66781000  0.94530000  1.0
  C  C418  1  0.60037000  0.78650000  0.44538000  1.0
  C  C419  1  0.78657000  0.16782000  0.44529000  1.0
  C  C420  1  0.16770000  0.60038000  0.44536000  1.0
  C  C421  1  0.71345000  0.89961000  0.05464000  1.0
  C  C422  1  0.33225000  0.71350000  0.05462000  1.0
  C  C423  1  0.89967000  0.33220000  0.05470000  1.0
  O  O424  1  0.20437000  0.12168000  0.70697000  1.0
  O  O425  1  0.12153000  0.96707000  0.70703000  1.0
  O  O426  1  0.96688000  0.20445000  0.70710000  1.0
  O  O427  1  0.37843000  0.29556000  0.79290000  1.0
  O  O428  1  0.53302000  0.37832000  0.79303000  1.0
  O  O429  1  0.29563000  0.53292000  0.79297000  1.0
  O  O430  1  0.79563000  0.87831000  0.29304000  1.0
  O  O431  1  0.87847000  0.03293000  0.29297000  1.0
  O  O432  1  0.03311000  0.79555000  0.29290000  1.0
  O  O433  1  0.62157000  0.70445000  0.20710000  1.0
  O  O434  1  0.46698000  0.62169000  0.20696000  1.0
  O  O435  1  0.70437000  0.46708000  0.20702000  1.0
  O  O436  1  0.47047000  0.48777000  0.32503000  1.0
  O  O437  1  0.48765000  0.71680000  0.32508000  1.0
  O  O438  1  0.71673000  0.47047000  0.32511000  1.0
  O  O439  1  0.01231000  0.02954000  0.17488000  1.0
  O  O440  1  0.78327000  0.01223000  0.17497000  1.0
  O  O441  1  0.02953000  0.78320000  0.17492000  1.0
  O  O442  1  0.52953000  0.51223000  0.67497000  1.0
  O  O443  1  0.51234000  0.28320000  0.67493000  1.0
  O  O444  1  0.28328000  0.52953000  0.67488000  1.0
  O  O445  1  0.98769000  0.97047000  0.82511000  1.0
  O  O446  1  0.21673000  0.98777000  0.82503000  1.0
  O  O447  1  0.97047000  0.21680000  0.82508000  1.0
  O  O448  1  0.45982000  0.52004000  0.40178000  1.0
  O  O449  1  0.51985000  0.61841000  0.40180000  1.0
  O  O450  1  0.61829000  0.46000000  0.40184000  1.0
  O  O451  1  0.98013000  0.04000000  0.09816000  1.0
  O  O452  1  0.88163000  0.97997000  0.09822000  1.0
  O  O453  1  0.04005000  0.88159000  0.09820000  1.0
  O  O454  1  0.54018000  0.47996000  0.59822000  1.0
  O  O455  1  0.48016000  0.38158000  0.59820000  1.0
  O  O456  1  0.38171000  0.54000000  0.59816000  1.0
  O  O457  1  0.01987000  0.96000000  0.90184000  1.0
  O  O458  1  0.11837000  0.02004000  0.90178000  1.0
  O  O459  1  0.95995000  0.11841000  0.90180000  1.0
  O  O460  1  0.10031000  0.21704000  0.70369000  1.0
  O  O461  1  0.21700000  0.97889000  0.70376000  1.0
  O  O462  1  0.97883000  0.10040000  0.70382000  1.0
  O  O463  1  0.28305000  0.39960000  0.79618000  1.0
  O  O464  1  0.52104000  0.28296000  0.79631000  1.0
  O  O465  1  0.39966000  0.52109000  0.79624000  1.0
  O  O466  1  0.89969000  0.78296000  0.29631000  1.0
  O  O467  1  0.78300000  0.02111000  0.29624000  1.0
  O  O468  1  0.02117000  0.89960000  0.29618000  1.0
  O  O469  1  0.71695000  0.60040000  0.20382000  1.0
  O  O470  1  0.47896000  0.71704000  0.20369000  1.0
  O  O471  1  0.60034000  0.47891000  0.20376000  1.0
  O  O472  1  0.57264000  0.57270000  0.28200000  1.0
  O  O473  1  0.92734000  0.92730000  0.21800000  1.0
  O  O474  1  0.42736000  0.42730000  0.71800000  1.0
  O  O475  1  0.07266000  0.07270000  0.78200000  1.0
