# generated using pymatgen
data_CuH4C6N5
_symmetry_space_group_name_H-M   'P 1'
_cell_length_a   7.25366000
_cell_length_b   15.10020000
_cell_length_c   15.58560000
_cell_angle_alpha   97.66470000
_cell_angle_beta   95.06890000
_cell_angle_gamma   95.74340000
_symmetry_Int_Tables_number   1
_chemical_formula_structural   CuH4C6N5
_chemical_formula_sum   'Cu8 H32 C48 N40'
_cell_volume   1674.39540698
_cell_formula_units_Z   8
loop_
 _symmetry_equiv_pos_site_id
 _symmetry_equiv_pos_as_xyz
  1  'x, y, z'
loop_
 _atom_site_type_symbol
 _atom_site_label
 _atom_site_symmetry_multiplicity
 _atom_site_fract_x
 _atom_site_fract_y
 _atom_site_fract_z
 _atom_site_occupancy
  Cu  Cu0  1  0.25335000  0.79045000  0.71453000  1.0
  Cu  Cu1  1  0.74665000  0.20955000  0.28547000  1.0
  Cu  Cu2  1  0.09554000  0.14332000  0.21613000  1.0
  Cu  Cu3  1  0.90445000  0.85668000  0.78388000  1.0
  Cu  Cu4  1  0.24655000  0.64122000  0.85213000  1.0
  Cu  Cu5  1  0.75346000  0.35879000  0.14787000  1.0
  Cu  Cu6  1  0.40649000  0.28800000  0.34993000  1.0
  Cu  Cu7  1  0.59350000  0.71200000  0.65006000  1.0
  H  H8  1  0.71855000  0.04350000  0.92666000  1.0
  H  H9  1  0.28146000  0.95651000  0.07333000  1.0
  H  H10  1  0.08844000  0.45516000  0.85142000  1.0
  H  H11  1  0.91159000  0.54484000  0.14858000  1.0
  H  H12  1  0.40468000  0.65075000  0.03141000  1.0
  H  H13  1  0.59533000  0.34925000  0.96859000  1.0
  H  H14  1  0.78504000  0.38668000  0.64022000  1.0
  H  H15  1  0.21494000  0.61332000  0.35979000  1.0
  H  H16  1  0.91570000  0.96041000  0.21239000  1.0
  H  H17  1  0.08429000  0.03959000  0.78761000  1.0
  H  H18  1  0.92600000  0.14869000  0.04188000  1.0
  H  H19  1  0.07401000  0.85132000  0.95812000  1.0
  H  H20  1  0.57648000  0.28133000  0.52484000  1.0
  H  H21  1  0.42350000  0.71867000  0.47516000  1.0
  H  H22  1  0.41017000  0.54771000  0.14563000  1.0
  H  H23  1  0.58984000  0.45229000  0.85437000  1.0
  H  H24  1  0.58483000  0.47040000  0.35513000  1.0
  H  H25  1  0.41517000  0.52960000  0.64488000  1.0
  H  H26  1  0.79072000  0.58369000  0.46366000  1.0
  H  H27  1  0.20927000  0.41631000  0.53635000  1.0
  H  H28  1  0.08214000  0.88539000  0.42273000  1.0
  H  H29  1  0.91788000  0.11461000  0.57727000  1.0
  H  H30  1  0.08312000  0.34383000  0.95791000  1.0
  H  H31  1  0.91690000  0.65617000  0.04208000  1.0
  H  H32  1  0.70728000  0.84727000  0.10400000  1.0
  H  H33  1  0.29271000  0.15273000  0.89600000  1.0
  H  H34  1  0.41983000  0.08749000  0.60852000  1.0
  H  H35  1  0.58018000  0.91251000  0.39149000  1.0
  H  H36  1  0.41637000  0.97602000  0.71458000  1.0
  H  H37  1  0.58362000  0.02397000  0.28542000  1.0
  H  H38  1  0.08602000  0.78304000  0.53722000  1.0
  H  H39  1  0.91398000  0.21695000  0.46277000  1.0
  C  C40  1  0.25120000  0.05707000  0.44292000  1.0
  C  C41  1  0.74880000  0.94293000  0.55708000  1.0
  C  C42  1  0.75972000  0.02273000  0.98914000  1.0
  C  C43  1  0.24027000  0.97727000  0.01086000  1.0
  C  C44  1  0.69598000  0.93670000  0.00641000  1.0
  C  C45  1  0.30402000  0.06331000  0.99359000  1.0
  C  C46  1  0.57216000  0.87417000  0.94250000  1.0
  C  C47  1  0.42783000  0.12584000  0.05750000  1.0
  C  C48  1  0.15888000  0.47242000  0.91726000  1.0
  C  C49  1  0.84115000  0.52758000  0.08273000  1.0
  C  C50  1  0.33469000  0.58218000  0.01835000  1.0
  C  C51  1  0.66532000  0.41782000  0.98165000  1.0
  C  C52  1  0.92739000  0.55695000  0.62479000  1.0
  C  C53  1  0.07261000  0.44305000  0.37522000  1.0
  C  C54  1  0.74291000  0.40745000  0.57780000  1.0
  C  C55  1  0.25708000  0.59255000  0.42220000  1.0
  C  C56  1  0.86804000  0.97568000  0.14816000  1.0
  C  C57  1  0.13194000  0.02433000  0.85185000  1.0
  C  C58  1  0.80442000  0.49399000  0.56090000  1.0
  C  C59  1  0.19558000  0.50601000  0.43910000  1.0
  C  C60  1  0.87448000  0.08106000  0.05252000  1.0
  C  C61  1  0.12551000  0.91894000  0.94748000  1.0
  C  C62  1  0.62852000  0.34899000  0.51432000  1.0
  C  C63  1  0.37147000  0.65100000  0.48569000  1.0
  C  C64  1  0.25104000  0.99501000  0.50675000  1.0
  C  C65  1  0.74897000  0.00499000  0.49326000  1.0
  C  C66  1  0.33758000  0.52518000  0.08108000  1.0
  C  C67  1  0.66242000  0.47482000  0.91892000  1.0
  C  C68  1  0.63180000  0.45502000  0.41936000  1.0
  C  C69  1  0.36820000  0.54498000  0.58064000  1.0
  C  C70  1  0.74588000  0.51735000  0.47947000  1.0
  C  C71  1  0.25412000  0.48265000  0.52054000  1.0
  C  C72  1  0.15781000  0.90766000  0.48671000  1.0
  C  C73  1  0.84219000  0.09234000  0.51329000  1.0
  C  C74  1  0.15601000  0.41127000  0.97619000  1.0
  C  C75  1  0.84401000  0.58873000  0.02381000  1.0
  C  C76  1  0.75321000  0.91348000  0.08814000  1.0
  C  C77  1  0.24677000  0.08652000  0.91186000  1.0
  C  C78  1  0.34427000  0.02058000  0.59059000  1.0
  C  C79  1  0.65574000  0.97942000  0.40941000  1.0
  C  C80  1  0.24700000  0.43728000  0.06045000  1.0
  C  C81  1  0.75301000  0.56272000  0.93955000  1.0
  C  C82  1  0.34203000  0.95937000  0.64950000  1.0
  C  C83  1  0.65796000  0.04062000  0.35050000  1.0
  C  C84  1  0.24751000  0.37524000  0.12397000  1.0
  C  C85  1  0.75249000  0.62476000  0.87603000  1.0
  C  C86  1  0.16026000  0.85075000  0.54955000  1.0
  C  C87  1  0.83974000  0.14925000  0.45044000  1.0
  N  N88  1  0.10869000  0.61140000  0.73787000  1.0
  N  N89  1  0.89131000  0.38860000  0.26213000  1.0
  N  N90  1  0.09933000  0.67481000  0.68440000  1.0
  N  N91  1  0.90066000  0.32520000  0.31560000  1.0
  N  N92  1  0.31378000  0.31741000  0.23788000  1.0
  N  N93  1  0.68620000  0.68259000  0.76212000  1.0
  N  N94  1  0.38737000  0.75966000  0.88498000  1.0
  N  N95  1  0.61264000  0.24034000  0.11501000  1.0
  N  N96  1  0.18398000  0.26003000  0.18483000  1.0
  N  N97  1  0.81601000  0.73996000  0.81516000  1.0
  N  N98  1  0.40304000  0.81779000  0.82635000  1.0
  N  N99  1  0.59696000  0.18222000  0.17364000  1.0
  N  N100  1  0.30641000  0.17437000  0.38399000  1.0
  N  N101  1  0.69359000  0.82563000  0.61601000  1.0
  N  N102  1  0.98597000  0.64209000  0.61326000  1.0
  N  N103  1  0.01403000  0.35790000  0.38674000  1.0
  N  N104  1  0.24691000  0.55704000  0.93712000  1.0
  N  N105  1  0.75310000  0.44296000  0.06288000  1.0
  N  N106  1  0.57312000  0.37160000  0.43569000  1.0
  N  N107  1  0.42688000  0.62840000  0.56431000  1.0
  N  N108  1  0.34119000  0.14139000  0.45786000  1.0
  N  N109  1  0.65881000  0.85861000  0.54214000  1.0
  N  N110  1  0.19696000  0.11201000  0.32614000  1.0
  N  N111  1  0.80304000  0.88799000  0.67386000  1.0
  N  N112  1  0.92857000  0.05873000  0.13143000  1.0
  N  N113  1  0.07142000  0.94127000  0.86857000  1.0
  N  N114  1  0.16153000  0.03765000  0.36167000  1.0
  N  N115  1  0.83847000  0.96235000  0.63833000  1.0
  N  N116  1  0.00175000  0.53686000  0.70157000  1.0
  N  N117  1  0.99825000  0.46314000  0.29844000  1.0
  N  N118  1  0.49233000  0.79390000  0.95835000  1.0
  N  N119  1  0.50767000  0.20611000  0.04165000  1.0
  N  N120  1  0.51878000  0.88997000  0.86104000  1.0
  N  N121  1  0.48123000  0.11004000  0.13896000  1.0
  N  N122  1  0.35563000  0.39019000  0.20088000  1.0
  N  N123  1  0.64436000  0.60980000  0.79912000  1.0
  N  N124  1  0.14042000  0.29512000  0.11298000  1.0
  N  N125  1  0.85958000  0.70487000  0.88701000  1.0
  N  N126  1  0.25136000  0.87539000  0.63005000  1.0
  N  N127  1  0.74864000  0.12461000  0.36995000  1.0
