# generated using pymatgen
data_AlH36C33(NO2)3
_symmetry_space_group_name_H-M   'P 1'
_cell_length_a   3.93295000
_cell_length_b   28.15640000
_cell_length_c   28.16340000
_cell_angle_alpha   60.01100000
_cell_angle_beta   89.69680000
_cell_angle_gamma   89.78200000
_symmetry_Int_Tables_number   1
_chemical_formula_structural   AlH36C33(NO2)3
_chemical_formula_sum   'Al2 H72 C66 N6 O12'
_cell_volume   2701.17626107
_cell_formula_units_Z   2
loop_
 _symmetry_equiv_pos_site_id
 _symmetry_equiv_pos_as_xyz
  1  'x, y, z'
loop_
 _atom_site_type_symbol
 _atom_site_label
 _atom_site_symmetry_multiplicity
 _atom_site_fract_x
 _atom_site_fract_y
 _atom_site_fract_z
 _atom_site_occupancy
  Al  Al0  1  0.01699000  0.50006000  0.49975000  1.0
  Al  Al1  1  0.98176000  0.83334000  0.83318000  1.0
  H  H2  1  0.67810000  0.87970000  0.65364000  1.0
  H  H3  1  0.31249000  0.87028000  0.69417000  1.0
  H  H4  1  0.27581000  0.87032000  0.63151000  1.0
  H  H5  1  0.30087000  0.80920000  0.58679000  1.0
  H  H6  1  0.69509000  0.77706000  0.59143000  1.0
  H  H7  1  0.67843000  0.83993000  0.59260000  1.0
  H  H8  1  0.33201000  0.66056000  0.86678000  1.0
  H  H9  1  0.67622000  0.70396000  0.85925000  1.0
  H  H10  1  0.75013000  0.64287000  0.85751000  1.0
  H  H11  1  0.77959000  0.60099000  0.79349000  1.0
  H  H12  1  0.37815000  0.60095000  0.76521000  1.0
  H  H13  1  0.40248000  0.60287000  0.82718000  1.0
  H  H14  1  0.23083000  0.52166000  0.74616000  1.0
  H  H15  1  0.63447000  0.54941000  0.74531000  1.0
  H  H16  1  0.60450000  0.48850000  0.74189000  1.0
  H  H17  1  0.69156000  0.45367000  0.67596000  1.0
  H  H18  1  0.33321000  0.46250000  0.63479000  1.0
  H  H19  1  0.27995000  0.45896000  0.69888000  1.0
  H  H20  1  0.67352000  0.73608000  0.54305000  1.0
  H  H21  1  0.28012000  0.72630000  0.57665000  1.0
  H  H22  1  0.30094000  0.72743000  0.51289000  1.0
  H  H23  1  0.31359000  0.67320000  0.46813000  1.0
  H  H24  1  0.68444000  0.63507000  0.47398000  1.0
  H  H25  1  0.71357000  0.69564000  0.47809000  1.0
  H  H26  1  0.66975000  0.65381000  0.96601000  1.0
  H  H27  1  0.30545000  0.69447000  0.93532000  1.0
  H  H28  1  0.26690000  0.63181000  0.99797000  1.0
  H  H29  1  0.29636000  0.58666000  0.10359000  1.0
  H  H30  1  0.69002000  0.59153000  0.13061000  1.0
  H  H31  1  0.67449000  0.59285000  0.06653000  1.0
  H  H32  1  0.32930000  0.86692000  0.97257000  1.0
  H  H33  1  0.67474000  0.85937000  0.93648000  1.0
  H  H34  1  0.74664000  0.85765000  0.99923000  1.0
  H  H35  1  0.77349000  0.79132000  0.10731000  1.0
  H  H36  1  0.36283000  0.76559000  0.13304000  1.0
  H  H37  1  0.40978000  0.82764000  0.06954000  1.0
  H  H38  1  0.23643000  0.74632000  0.23193000  1.0
  H  H39  1  0.63926000  0.74544000  0.20440000  1.0
  H  H40  1  0.61043000  0.74233000  0.26868000  1.0
  H  H41  1  0.69681000  0.67624000  0.36971000  1.0
  H  H42  1  0.33664000  0.63531000  0.40231000  1.0
  H  H43  1  0.28616000  0.69942000  0.34177000  1.0
  H  H44  1  0.67615000  0.54316000  0.22041000  1.0
  H  H45  1  0.28177000  0.57635000  0.19737000  1.0
  H  H46  1  0.30481000  0.51266000  0.26004000  1.0
  H  H47  1  0.31648000  0.46812000  0.35869000  1.0
  H  H48  1  0.68677000  0.47417000  0.39051000  1.0
  H  H49  1  0.71676000  0.47835000  0.32578000  1.0
  H  H50  1  0.67249000  0.96561000  0.88020000  1.0
  H  H51  1  0.30757000  0.93486000  0.87078000  1.0
  H  H52  1  0.26981000  0.99735000  0.87122000  1.0
  H  H53  1  0.29764000  0.10274000  0.81136000  1.0
  H  H54  1  0.68991000  0.13038000  0.77865000  1.0
  H  H55  1  0.67701000  0.06600000  0.84112000  1.0
  H  H56  1  0.32101000  0.97252000  0.66124000  1.0
  H  H57  1  0.66982000  0.93712000  0.70372000  1.0
  H  H58  1  0.73713000  0.99989000  0.64245000  1.0
  H  H59  1  0.74182000  0.11488000  0.60000000  1.0
  H  H60  1  0.31215000  0.13038000  0.60343000  1.0
  H  H61  1  0.42194000  0.06910000  0.60314000  1.0
  H  H62  1  0.24115000  0.23416000  0.52014000  1.0
  H  H63  1  0.63259000  0.20363000  0.55075000  1.0
  H  H64  1  0.62730000  0.26835000  0.48962000  1.0
  H  H65  1  0.69627000  0.36982000  0.45364000  1.0
  H  H66  1  0.33526000  0.40209000  0.46258000  1.0
  H  H67  1  0.28672000  0.34128000  0.45944000  1.0
  H  H68  1  0.68301000  0.22025000  0.73599000  1.0
  H  H69  1  0.28547000  0.19794000  0.72673000  1.0
  H  H70  1  0.31624000  0.26060000  0.72775000  1.0
  H  H71  1  0.31855000  0.35915000  0.67314000  1.0
  H  H72  1  0.68785000  0.39122000  0.63443000  1.0
  H  H73  1  0.71985000  0.32668000  0.69509000  1.0
  C  C74  1  0.51697000  0.41481000  0.54033000  1.0
  C  C75  1  0.51406000  0.54058000  0.54448000  1.0
  C  C76  1  0.51749000  0.54482000  0.41455000  1.0
  C  C77  1  0.48659000  0.79487000  0.78665000  1.0
  C  C78  1  0.48260000  0.78691000  0.91817000  1.0
  C  C79  1  0.48275000  0.91834000  0.79479000  1.0
  C  C80  1  0.50041000  0.76547000  0.75486000  1.0
  C  C81  1  0.52728000  0.70794000  0.78348000  1.0
  C  C82  1  0.51969000  0.67939000  0.75443000  1.0
  C  C83  1  0.52766000  0.70996000  0.69618000  1.0
  C  C84  1  0.52549000  0.76814000  0.66790000  1.0
  C  C85  1  0.49010000  0.79592000  0.69738000  1.0
  C  C86  1  0.47901000  0.56226000  0.66646000  1.0
  C  C87  1  0.47521000  0.62034000  0.63988000  1.0
  C  C88  1  0.48070000  0.65265000  0.58190000  1.0
  C  C89  1  0.51116000  0.62601000  0.55106000  1.0
  C  C90  1  0.50430000  0.56846000  0.57781000  1.0
  C  C91  1  0.48085000  0.53614000  0.63526000  1.0
  C  C92  1  0.49518000  0.75506000  0.97936000  1.0
  C  C93  1  0.52328000  0.78360000  0.00833000  1.0
  C  C94  1  0.51603000  0.75440000  0.06593000  1.0
  C  C95  1  0.52425000  0.69614000  0.09346000  1.0
  C  C96  1  0.52032000  0.66799000  0.06345000  1.0
  C  C97  1  0.48362000  0.69757000  0.00629000  1.0
  C  C98  1  0.48367000  0.66666667  0.27088000  1.0
  C  C99  1  0.47927000  0.63998000  0.23947000  1.0
  C  C100  1  0.48358000  0.58195000  0.26525000  1.0
  C  C101  1  0.51406000  0.55120000  0.32268000  1.0
  C  C102  1  0.50798000  0.57808000  0.35338000  1.0
  C  C103  1  0.48520000  0.63556000  0.32818000  1.0
  C  C104  1  0.49409000  0.97953000  0.76569000  1.0
  C  C105  1  0.51781000  0.00876000  0.70809000  1.0
  C  C106  1  0.50850000  0.06638000  0.67999000  1.0
  C  C107  1  0.52199000  0.09366000  0.71099000  1.0
  C  C108  1  0.52037000  0.06333000  0.76918000  1.0
  C  C109  1  0.48412000  0.00616000  0.79657000  1.0
  C  C110  1  0.48900000  0.27096000  0.56256000  1.0
  C  C111  1  0.48640000  0.23953000  0.62069000  1.0
  C  C112  1  0.48857000  0.26550000  0.65282000  1.0
  C  C113  1  0.51633000  0.32298000  0.62597000  1.0
  C  C114  1  0.50881000  0.35360000  0.56840000  1.0
  C  C115  1  0.48696000  0.32828000  0.53627000  1.0
  C  C116  1  0.43664000  0.85711000  0.66776000  1.0
  C  C117  1  0.55253000  0.80043000  0.60640000  1.0
  C  C118  1  0.57336000  0.67734000  0.84483000  1.0
  C  C119  1  0.51892000  0.61763000  0.78676000  1.0
  C  C120  1  0.48769000  0.52871000  0.72812000  1.0
  C  C121  1  0.44491000  0.47474000  0.66259000  1.0
  C  C122  1  0.43120000  0.71377000  0.55201000  1.0
  C  C123  1  0.55774000  0.65914000  0.48972000  1.0
  C  C124  1  0.42875000  0.66800000  0.97476000  1.0
  C  C125  1  0.54777000  0.60650000  0.09245000  1.0
  C  C126  1  0.57048000  0.84497000  0.97756000  1.0
  C  C127  1  0.51422000  0.78646000  0.09563000  1.0
  C  C128  1  0.49321000  0.72834000  0.24257000  1.0
  C  C129  1  0.44975000  0.66303000  0.36219000  1.0
  C  C130  1  0.43384000  0.55191000  0.23422000  1.0
  C  C131  1  0.56046000  0.48985000  0.35087000  1.0
  C  C132  1  0.43093000  0.97432000  0.85776000  1.0
  C  C133  1  0.54899000  0.09203000  0.80192000  1.0
  C  C134  1  0.56305000  0.97802000  0.67732000  1.0
  C  C135  1  0.49395000  0.09662000  0.61835000  1.0
  C  C136  1  0.49873000  0.24282000  0.52904000  1.0
  C  C137  1  0.44972000  0.36208000  0.47489000  1.0
  C  C138  1  0.44052000  0.23460000  0.71398000  1.0
  C  C139  1  0.56245000  0.35146000  0.65881000  1.0
  N  N140  1  0.56842000  0.68758000  0.66114000  1.0
  N  N141  1  0.43480000  0.64139000  0.67586000  1.0
  N  N142  1  0.56587000  0.66092000  0.15073000  1.0
  N  N143  1  0.43940000  0.67599000  0.18255000  1.0
  N  N144  1  0.56092000  0.15083000  0.68939000  1.0
  N  N145  1  0.45219000  0.18264000  0.64133000  1.0
  O  O146  1  0.75525000  0.55411000  0.43953000  1.0
  O  O147  1  0.75585000  0.43984000  0.50593000  1.0
  O  O148  1  0.75275000  0.50617000  0.55372000  1.0
  O  O149  1  0.28511000  0.50890000  0.43882000  1.0
  O  O150  1  0.28173000  0.55226000  0.50873000  1.0
  O  O151  1  0.28284000  0.43900000  0.55194000  1.0
  O  O152  1  0.71380000  0.89184000  0.83010000  1.0
  O  O153  1  0.71762000  0.83023000  0.77771000  1.0
  O  O154  1  0.71478000  0.77797000  0.89163000  1.0
  O  O155  1  0.24407000  0.89564000  0.78276000  1.0
  O  O156  1  0.24218000  0.82154000  0.89553000  1.0
  O  O157  1  0.24601000  0.78289000  0.82140000  1.0
