# generated using pymatgen
data_AgH9C6N3ClO5
_symmetry_space_group_name_H-M   'P 1'
_cell_length_a   8.10972000
_cell_length_b   10.75090000
_cell_length_c   12.07560000
_cell_angle_alpha   90.00000000
_cell_angle_beta   103.04800000
_cell_angle_gamma   90.00000000
_symmetry_Int_Tables_number   1
_chemical_formula_structural   AgH9C6N3ClO5
_chemical_formula_sum   'Ag4 H36 C24 N12 Cl4 O20'
_cell_volume   1025.64997900
_cell_formula_units_Z   4
loop_
 _symmetry_equiv_pos_site_id
 _symmetry_equiv_pos_as_xyz
  1  'x, y, z'
loop_
 _atom_site_type_symbol
 _atom_site_label
 _atom_site_symmetry_multiplicity
 _atom_site_fract_x
 _atom_site_fract_y
 _atom_site_fract_z
 _atom_site_occupancy
  Ag  Ag0  1  0.50925000  0.26444000  0.20747000  1.0
  Ag  Ag1  1  0.99075000  0.76444000  0.29254000  1.0
  Ag  Ag2  1  0.49075000  0.73556000  0.79253000  1.0
  Ag  Ag3  1  0.00925000  0.23556000  0.70747000  1.0
  H  H4  1  0.04306000  0.32106000  0.93394000  1.0
  H  H5  1  0.45694000  0.82106000  0.56606000  1.0
  H  H6  1  0.95694000  0.67894000  0.06606000  1.0
  H  H7  1  0.54306000  0.17894000  0.43394000  1.0
  H  H8  1  0.18993000  0.34468000  0.06222000  1.0
  H  H9  1  0.31007000  0.84468000  0.43778000  1.0
  H  H10  1  0.81007000  0.65532000  0.93778000  1.0
  H  H11  1  0.68993000  0.15532000  0.56222000  1.0
  H  H12  1  0.93954000  0.09420000  0.09702000  1.0
  H  H13  1  0.56046000  0.59420000  0.40298000  1.0
  H  H14  1  0.06045000  0.90580000  0.90298000  1.0
  H  H15  1  0.43955000  0.40580000  0.59702000  1.0
  H  H16  1  0.86310000  0.14437000  0.95236000  1.0
  H  H17  1  0.63689000  0.64438000  0.54764000  1.0
  H  H18  1  0.13690000  0.85563000  0.04764000  1.0
  H  H19  1  0.36311000  0.35563000  0.45236000  1.0
  H  H20  1  0.80511000  0.99411000  0.99560000  1.0
  H  H21  1  0.69489000  0.49411000  0.50439000  1.0
  H  H22  1  0.19489000  0.00589000  0.00439000  1.0
  H  H23  1  0.30511000  0.50589000  0.49561000  1.0
  H  H24  1  0.19018000  0.08955000  0.63960000  1.0
  H  H25  1  0.30982000  0.58955000  0.86040000  1.0
  H  H26  1  0.80982000  0.91045000  0.36040000  1.0
  H  H27  1  0.69018000  0.41045000  0.13960000  1.0
  H  H28  1  0.40832000  0.10551000  0.63873000  1.0
  H  H29  1  0.09168000  0.60551000  0.86127000  1.0
  H  H30  1  0.59168000  0.89449000  0.36127000  1.0
  H  H31  1  0.90833000  0.39449000  0.13873000  1.0
  H  H32  1  0.33485000  0.96835000  0.69323000  1.0
  H  H33  1  0.16515000  0.46835000  0.80677000  1.0
  H  H34  1  0.66515000  0.03165000  0.30677000  1.0
  H  H35  1  0.83485000  0.53165000  0.19323000  1.0
  H  H36  1  0.61248000  0.05635000  0.84213000  1.0
  H  H37  1  0.88752000  0.55635000  0.65786000  1.0
  H  H38  1  0.38752000  0.94366000  0.15786000  1.0
  H  H39  1  0.11248000  0.44365000  0.34214000  1.0
  C  C40  1  0.83408000  0.09060000  0.02274000  1.0
  C  C41  1  0.66592000  0.59060000  0.47726000  1.0
  C  C42  1  0.16592000  0.90940000  0.97726000  1.0
  C  C43  1  0.33408000  0.40940000  0.52274000  1.0
  C  C44  1  0.54630000  0.15612000  0.98253000  1.0
  C  C45  1  0.95370000  0.65612000  0.51747000  1.0
  C  C46  1  0.45370000  0.84388000  0.01747000  1.0
  C  C47  1  0.04630000  0.34388000  0.48253000  1.0
  C  C48  1  0.31926000  0.06990000  0.68728000  1.0
  C  C49  1  0.18073000  0.56990000  0.81272000  1.0
  C  C50  1  0.68073000  0.93010000  0.31272000  1.0
  C  C51  1  0.81927000  0.43010000  0.18728000  1.0
  C  C52  1  0.27540000  0.23627000  0.94778000  1.0
  C  C53  1  0.22460000  0.73627000  0.55222000  1.0
  C  C54  1  0.72460000  0.76373000  0.05222000  1.0
  C  C55  1  0.77540000  0.26373000  0.44778000  1.0
  C  C56  1  0.35698000  0.12467000  0.80375000  1.0
  C  C57  1  0.14302000  0.62467000  0.69625000  1.0
  C  C58  1  0.64302000  0.87533000  0.19625000  1.0
  C  C59  1  0.85698000  0.37533000  0.30375000  1.0
  C  C60  1  0.51656000  0.10667000  0.87345000  1.0
  C  C61  1  0.98344000  0.60666000  0.62655000  1.0
  C  C62  1  0.48344000  0.89333000  0.12655000  1.0
  C  C63  1  0.01656000  0.39333000  0.37345000  1.0
  N  N64  1  0.42621000  0.21715000  0.02146000  1.0
  N  N65  1  0.07379000  0.71715000  0.47854000  1.0
  N  N66  1  0.57379000  0.78285000  0.97854000  1.0
  N  N67  1  0.92621000  0.28285000  0.52146000  1.0
  N  N68  1  0.23628000  0.19073000  0.83929000  1.0
  N  N69  1  0.26372000  0.69072000  0.66071000  1.0
  N  N70  1  0.76372000  0.80928000  0.16071000  1.0
  N  N71  1  0.73628000  0.30927000  0.33929000  1.0
  N  N72  1  0.15864000  0.30224000  0.98469000  1.0
  N  N73  1  0.34136000  0.80224000  0.51531000  1.0
  N  N74  1  0.84136000  0.69776000  0.01531000  1.0
  N  N75  1  0.65864000  0.19776000  0.48469000  1.0
  Cl  Cl76  1  0.30386000  0.57260000  0.18918000  1.0
  Cl  Cl77  1  0.19614000  0.07260000  0.31082000  1.0
  Cl  Cl78  1  0.69614000  0.42739000  0.81082000  1.0
  Cl  Cl79  1  0.80386000  0.92740000  0.68918000  1.0
  O  O80  1  0.27038000  0.43803000  0.19927000  1.0
  O  O81  1  0.22962000  0.93803000  0.30073000  1.0
  O  O82  1  0.72962000  0.56197000  0.80073000  1.0
  O  O83  1  0.77038000  0.06197000  0.69927000  1.0
  O  O84  1  0.47969000  0.59120000  0.18677000  1.0
  O  O85  1  0.02031000  0.09120000  0.31323000  1.0
  O  O86  1  0.52031000  0.40880000  0.81323000  1.0
  O  O87  1  0.97969000  0.90880000  0.68677000  1.0
  O  O88  1  0.26477000  0.63564000  0.28813000  1.0
  O  O89  1  0.23523000  0.13564000  0.21187000  1.0
  O  O90  1  0.73523000  0.36436000  0.71187000  1.0
  O  O91  1  0.76477000  0.86436000  0.78813000  1.0
  O  O92  1  0.19340000  0.62023000  0.08510000  1.0
  O  O93  1  0.30660000  0.12023000  0.41490000  1.0
  O  O94  1  0.80660000  0.37977000  0.91490000  1.0
  O  O95  1  0.69340000  0.87977000  0.58510000  1.0
  O  O96  1  0.69347000  0.14664000  0.05933000  1.0
  O  O97  1  0.80653000  0.64664000  0.44067000  1.0
  O  O98  1  0.30653000  0.85336000  0.94067000  1.0
  O  O99  1  0.19347000  0.35336000  0.55933000  1.0
