# generated using pymatgen
data_Zr3H14C39N3O16
_symmetry_space_group_name_H-M   'P 1'
_cell_length_a   15.11390000
_cell_length_b   15.12750000
_cell_length_c   15.13080000
_cell_angle_alpha   90.42960000
_cell_angle_beta   90.66410000
_cell_angle_gamma   90.60470000
_symmetry_Int_Tables_number   1
_chemical_formula_structural   Zr3H14C39N3O16
_chemical_formula_sum   'Zr6 H28 C78 N6 O32'
_cell_volume   3458.91287601
_cell_formula_units_Z   2
loop_
 _symmetry_equiv_pos_site_id
 _symmetry_equiv_pos_as_xyz
  1  'x, y, z'
loop_
 _atom_site_type_symbol
 _atom_site_label
 _atom_site_symmetry_multiplicity
 _atom_site_fract_x
 _atom_site_fract_y
 _atom_site_fract_z
 _atom_site_occupancy
  Zr  Zr0  1  0.97584000  0.83633000  0.77991000  1.0
  Zr  Zr1  1  0.82919000  0.01996000  0.74318000  1.0
  Zr  Zr2  1  0.00993000  0.90983000  0.99913000  1.0
  Zr  Zr3  1  0.79221000  0.87249000  0.92623000  1.0
  Zr  Zr4  1  0.04859000  0.05388000  0.81797000  1.0
  Zr  Zr5  1  0.86662000  0.09174000  0.96098000  1.0
  H  H6  1  0.14283000  0.58507000  0.14394000  1.0
  H  H7  1  0.12061000  0.40685000  0.15694000  1.0
  H  H8  1  0.69676000  0.38430000  0.63789000  1.0
  H  H9  1  0.68705000  0.56356000  0.63657000  1.0
  H  H10  1  0.54325000  0.23448000  0.09002000  1.0
  H  H11  1  0.36499000  0.24863000  0.06763000  1.0
  H  H12  1  0.33982000  0.73294000  0.64914000  1.0
  H  H13  1  0.51928000  0.73182000  0.63977000  1.0
  H  H14  1  0.19323000  0.18510000  0.49189000  1.0
  H  H15  1  0.20513000  0.16384000  0.31361000  1.0
  H  H16  1  0.68801000  0.74222000  0.29100000  1.0
  H  H17  1  0.68705000  0.73276000  0.47030000  1.0
  H  H18  1  0.78664000  0.83078000  0.73704000  1.0
  H  H19  1  0.13677000  0.90007000  0.86186000  1.0
  H  H20  1  0.85652000  0.95354000  0.08747000  1.0
  H  H21  1  0.91083000  0.18043000  0.80747000  1.0
  H  H22  1  0.05332000  0.42904000  0.48964000  1.0
  H  H23  1  0.92303000  0.34412000  0.24770000  1.0
  H  H24  1  0.83567000  0.48116000  0.24885000  1.0
  H  H25  1  0.96670000  0.56511000  0.49038000  1.0
  H  H26  1  0.53674000  0.09967000  0.33669000  1.0
  H  H27  1  0.29752000  0.96582000  0.24890000  1.0
  H  H28  1  0.29833000  0.87909000  0.38661000  1.0
  H  H29  1  0.53712000  0.01366000  0.47364000  1.0
  H  H30  1  0.29808000  0.34214000  0.87222000  1.0
  H  H31  1  0.38791000  0.57969000  0.00687000  1.0
  H  H32  1  0.52420000  0.58025000  0.92009000  1.0
  H  H33  1  0.43521000  0.34310000  0.78487000  1.0
  C  C34  1  0.22696000  0.54985000  0.03141000  1.0
  C  C35  1  0.17624000  0.53397000  0.10679000  1.0
  C  C36  1  0.16446000  0.44247000  0.11310000  1.0
  C  C37  1  0.20838000  0.40236000  0.04231000  1.0
  C  C38  1  0.60410000  0.39510000  0.74863000  1.0
  C  C39  1  0.65462000  0.42582000  0.67780000  1.0
  C  C40  1  0.64979000  0.51813000  0.67740000  1.0
  C  C41  1  0.59473000  0.54377000  0.74665000  1.0
  C  C42  1  0.50686000  0.12324000  0.17589000  1.0
  C  C43  1  0.49173000  0.19812000  0.12394000  1.0
  C  C44  1  0.40023000  0.20501000  0.11210000  1.0
  C  C45  1  0.35937000  0.13516000  0.15727000  1.0
  C  C46  1  0.35082000  0.84294000  0.55534000  1.0
  C  C47  1  0.38153000  0.77261000  0.60672000  1.0
  C  C48  1  0.47391000  0.77238000  0.60207000  1.0
  C  C49  1  0.49963000  0.84125000  0.54629000  1.0
  C  C50  1  0.08076000  0.27000000  0.45705000  1.0
  C  C51  1  0.15586000  0.21894000  0.44094000  1.0
  C  C52  1  0.16162000  0.20765000  0.34943000  1.0
  C  C53  1  0.09081000  0.25226000  0.30952000  1.0
  C  C54  1  0.79792000  0.64841000  0.30240000  1.0
  C  C55  1  0.72768000  0.69980000  0.33282000  1.0
  C  C56  1  0.72748000  0.69508000  0.42511000  1.0
  C  C57  1  0.79630000  0.63930000  0.45107000  1.0
  C  C58  1  0.11030000  0.74264000  0.91429000  1.0
  C  C59  1  0.90383000  0.71454000  0.67414000  1.0
  C  C60  1  0.67017000  0.76671000  0.85401000  1.0
  C  C61  1  0.13956000  0.92653000  0.67668000  1.0
  C  C62  1  0.72555000  0.18340000  0.83289000  1.0
  C  C63  1  0.98194000  0.09854000  0.12761000  1.0
  C  C64  1  0.72308000  0.94852000  0.62111000  1.0
  C  C65  1  0.96370000  0.15441000  0.65021000  1.0
  C  C66  1  0.17605000  0.02613000  0.00495000  1.0
  C  C67  1  0.88210000  0.76855000  0.09020000  1.0
  C  C68  1  0.69903000  0.00581000  0.06064000  1.0
  C  C69  1  0.05427000  0.22017000  0.93338000  1.0
  C  C70  1  0.86550000  0.70201000  0.15534000  1.0
  C  C71  1  0.83867000  0.66507000  0.22163000  1.0
  C  C72  1  0.86043000  0.65619000  0.61053000  1.0
  C  C73  1  0.83123000  0.63642000  0.53705000  1.0
  C  C74  1  0.02507000  0.16977000  0.17478000  1.0
  C  C75  1  0.05239000  0.22362000  0.22978000  1.0
  C  C76  1  0.98719000  0.22445000  0.59134000  1.0
  C  C77  1  0.02860000  0.25923000  0.53164000  1.0
  C  C78  1  0.00411000  0.43913000  0.43769000  1.0
  C  C79  1  0.99260000  0.37515000  0.37046000  1.0
  C  C80  1  0.93306000  0.39216000  0.30104000  1.0
  C  C81  1  0.88398000  0.47002000  0.30153000  1.0
  C  C82  1  0.89349000  0.53214000  0.37066000  1.0
  C  C83  1  0.95554000  0.51655000  0.43795000  1.0
  C  C84  1  0.26999000  0.88357000  0.57221000  1.0
  C  C85  1  0.20407000  0.91036000  0.60965000  1.0
  C  C86  1  0.58569000  0.87601000  0.54310000  1.0
  C  C87  1  0.65931000  0.90520000  0.56269000  1.0
  C  C88  1  0.22375000  0.07007000  0.07525000  1.0
  C  C89  1  0.27917000  0.09760000  0.12870000  1.0
  C  C90  1  0.58097000  0.07017000  0.16577000  1.0
  C  C91  1  0.64057000  0.02876000  0.13101000  1.0
  C  C92  1  0.48536000  0.04983000  0.34646000  1.0
  C  C93  1  0.41905000  0.03708000  0.28148000  1.0
  C  C94  1  0.35014000  0.97679000  0.29777000  1.0
  C  C95  1  0.35047000  0.92806000  0.37596000  1.0
  C  C96  1  0.41884000  0.93868000  0.43906000  1.0
  C  C97  1  0.48545000  0.00162000  0.42424000  1.0
  C  C98  1  0.65881000  0.24835000  0.81637000  1.0
  C  C99  1  0.62141000  0.31442000  0.78953000  1.0
  C  C100  1  0.61167000  0.70313000  0.81058000  1.0
  C  C101  1  0.59192000  0.62965000  0.78148000  1.0
  C  C102  1  0.17896000  0.32285000  0.00420000  1.0
  C  C103  1  0.12507000  0.26784000  0.97676000  1.0
  C  C104  1  0.21593000  0.62427000  0.97878000  1.0
  C  C105  1  0.18047000  0.68380000  0.93754000  1.0
  C  C106  1  0.34723000  0.39446000  0.88317000  1.0
  C  C107  1  0.33164000  0.46287000  0.94387000  1.0
  C  C108  1  0.39703000  0.52875000  0.95671000  1.0
  C  C109  1  0.47444000  0.52895000  0.90809000  1.0
  C  C110  1  0.48850000  0.46286000  0.84476000  1.0
  C  C111  1  0.42507000  0.39485000  0.83410000  1.0
  N  N112  1  0.25407000  0.46877000  0.99626000  1.0
  N  N113  1  0.56319000  0.46741000  0.78835000  1.0
  N  N114  1  0.42538000  0.08906000  0.20352000  1.0
  N  N115  1  0.42324000  0.88259000  0.51417000  1.0
  N  N116  1  0.04522000  0.29770000  0.37609000  1.0
  N  N117  1  0.83746000  0.60713000  0.37491000  1.0
  O  O118  1  0.08390000  0.78799000  0.98043000  1.0
  O  O119  1  0.92703000  0.79087000  0.64479000  1.0
  O  O120  1  0.74655000  0.73742000  0.87725000  1.0
  O  O121  1  0.08615000  0.86215000  0.69010000  1.0
  O  O122  1  0.14292000  0.99934000  0.72037000  1.0
  O  O123  1  0.65177000  0.84783000  0.86726000  1.0
  O  O124  1  0.91696000  0.69612000  0.75536000  1.0
  O  O125  1  0.07822000  0.74513000  0.83580000  1.0
  O  O126  1  0.95511000  0.97040000  0.75544000  1.0
  O  O127  1  0.92632000  0.84795000  0.90572000  1.0
  O  O128  1  0.82406000  0.86807000  0.77462000  1.0
  O  O129  1  0.07492000  0.91672000  0.86218000  1.0
  O  O130  1  0.73898000  0.13021000  0.76860000  1.0
  O  O131  1  0.01775000  0.02355000  0.12301000  1.0
  O  O132  1  0.69381000  0.97138000  0.69737000  1.0
  O  O133  1  0.02980000  0.12777000  0.69590000  1.0
  O  O134  1  0.17085000  0.06111000  0.92939000  1.0
  O  O135  1  0.81793000  0.78184000  0.03645000  1.0
  O  O136  1  0.74418000  0.07215000  0.03393000  1.0
  O  O137  1  0.97904000  0.21473000  0.96879000  1.0
  O  O138  1  0.70131000  0.92737000  0.02870000  1.0
  O  O139  1  0.07458000  0.18685000  0.85724000  1.0
  O  O140  1  0.80430000  0.96190000  0.60286000  1.0
  O  O141  1  0.95525000  0.81207000  0.09342000  1.0
  O  O142  1  0.14257000  0.95005000  0.02589000  1.0
  O  O143  1  0.88505000  0.12256000  0.65234000  1.0
  O  O144  1  0.76901000  0.18616000  0.90606000  1.0
  O  O145  1  0.90546000  0.11823000  0.09387000  1.0
  O  O146  1  0.98792000  0.03133000  0.93902000  1.0
  O  O147  1  0.80443000  0.99853000  0.87706000  1.0
  O  O148  1  0.87316000  0.95424000  0.02571000  1.0
  O  O149  1  0.91118000  0.11861000  0.82419000  1.0
