# generated using pymatgen
data_CuH7C8IN3
_symmetry_space_group_name_H-M   'P 1'
_cell_length_a   8.03279000
_cell_length_b   8.09640000
_cell_length_c   8.68292000
_cell_angle_alpha   114.28100000
_cell_angle_beta   101.11500000
_cell_angle_gamma   109.39200000
_symmetry_Int_Tables_number   1
_chemical_formula_structural   CuH7C8IN3
_chemical_formula_sum   'Cu2 H14 C16 I2 N6'
_cell_volume   448.52751902
_cell_formula_units_Z   2
loop_
 _symmetry_equiv_pos_site_id
 _symmetry_equiv_pos_as_xyz
  1  'x, y, z'
loop_
 _atom_site_type_symbol
 _atom_site_label
 _atom_site_symmetry_multiplicity
 _atom_site_fract_x
 _atom_site_fract_y
 _atom_site_fract_z
 _atom_site_occupancy
  Cu  Cu0  1  0.72359000  0.59457000  0.96083000  1.0
  Cu  Cu1  1  0.27641000  0.40543000  0.03917000  1.0
  H  H2  1  0.21254000  0.29774000  0.48330000  1.0
  H  H3  1  0.78746000  0.70226000  0.51669000  1.0
  H  H4  1  0.24581000  0.08825000  0.61686000  1.0
  H  H5  1  0.75419000  0.91175000  0.38314000  1.0
  H  H6  1  0.40780000  0.89908000  0.69230000  1.0
  H  H7  1  0.59219000  0.10092000  0.30771000  1.0
  H  H8  1  0.41432000  0.60943000  0.43965000  1.0
  H  H9  1  0.58569000  0.39058000  0.56035000  1.0
  H  H10  1  0.71342000  0.99694000  0.01030000  1.0
  H  H11  1  0.28658000  0.00305000  0.98970000  1.0
  H  H12  1  0.98461000  0.37440000  0.31005000  1.0
  H  H13  1  0.01538000  0.62559000  0.68994000  1.0
  H  H14  1  0.11134000  0.68040000  0.04687000  1.0
  H  H15  1  0.88866000  0.31961000  0.95313000  1.0
  C  C16  1  0.24846000  0.95922000  0.50854000  1.0
  C  C17  1  0.75154000  0.04078000  0.49146000  1.0
  C  C18  1  0.34004000  0.85579000  0.55115000  1.0
  C  C19  1  0.65996000  0.14422000  0.44885000  1.0
  C  C20  1  0.34353000  0.69349000  0.41116000  1.0
  C  C21  1  0.65647000  0.30651000  0.58884000  1.0
  C  C22  1  0.05206000  0.98554000  0.26600000  1.0
  C  C23  1  0.94794000  0.01446000  0.73399000  1.0
  C  C24  1  0.84187000  0.03628000  0.11494000  1.0
  C  C25  1  0.15813000  0.96371000  0.88505000  1.0
  C  C26  1  0.97484000  0.22394000  0.26325000  1.0
  C  C27  1  0.02516000  0.77605000  0.73675000  1.0
  C  C28  1  0.15771000  0.89189000  0.32372000  1.0
  C  C29  1  0.84230000  0.10811000  0.67628000  1.0
  C  C30  1  0.17177000  0.72995000  0.19111000  1.0
  C  C31  1  0.82823000  0.27005000  0.80889000  1.0
  I  I32  1  0.37161000  0.56410000  0.81905000  1.0
  I  I33  1  0.62839000  0.43589000  0.18095000  1.0
  N  N34  1  0.88962000  0.88837000  0.11779000  1.0
  N  N35  1  0.11038000  0.11163000  0.88221000  1.0
  N  N36  1  0.10515000  0.18943000  0.35620000  1.0
  N  N37  1  0.89485000  0.81057000  0.64380000  1.0
  N  N38  1  0.26333000  0.63213000  0.23257000  1.0
  N  N39  1  0.73667000  0.36787000  0.76743000  1.0
