# generated using pymatgen
data_ZnH4C9N(ClO2)2
_symmetry_space_group_name_H-M   'P 1'
_cell_length_a   8.48050000
_cell_length_b   9.29750000
_cell_length_c   16.01740000
_cell_angle_alpha   89.99850000
_cell_angle_beta   88.11430000
_cell_angle_gamma   89.99750000
_symmetry_Int_Tables_number   1
_chemical_formula_structural   ZnH4C9N(ClO2)2
_chemical_formula_sum   'Zn2 H8 C18 N2 Cl4 O8'
_cell_volume   1262.24719598
_cell_formula_units_Z   2
loop_
 _symmetry_equiv_pos_site_id
 _symmetry_equiv_pos_as_xyz
  1  'x, y, z'
loop_
 _atom_site_type_symbol
 _atom_site_label
 _atom_site_symmetry_multiplicity
 _atom_site_fract_x
 _atom_site_fract_y
 _atom_site_fract_z
 _atom_site_occupancy
  Zn  Zn0  1  0.34297000  0.49975000  0.50123000  1.0
  Zn  Zn1  1  0.65702000  0.49974000  0.49877000  1.0
  H  H2  1  0.43874000  0.27443000  0.92061000  1.0
  H  H3  1  0.63973000  0.31363000  0.93785000  1.0
  H  H4  1  0.36029000  0.31362000  0.06215000  1.0
  H  H5  1  0.56127000  0.27441000  0.07938000  1.0
  H  H6  1  0.40607000  0.71222000  0.05523000  1.0
  H  H7  1  0.68394000  0.66949000  0.07585000  1.0
  H  H8  1  0.31604000  0.66951000  0.92416000  1.0
  H  H9  1  0.59391000  0.71223000  0.94477000  1.0
  C  C10  1  0.50001000  0.77885000  0.50000000  1.0
  C  C11  1  0.63236000  0.59974000  0.94979000  1.0
  C  C12  1  0.36763000  0.59974000  0.05021000  1.0
  C  C13  1  0.65785000  0.56840000  0.04385000  1.0
  C  C14  1  0.51071000  0.49987000  0.24823000  1.0
  C  C15  1  0.48929000  0.49990000  0.75178000  1.0
  C  C16  1  0.49719000  0.50175000  0.91778000  1.0
  C  C17  1  0.50281000  0.50174000  0.08223000  1.0
  C  C18  1  0.48201000  0.34757000  0.04741000  1.0
  C  C19  1  0.51800000  0.34758000  0.95258000  1.0
  C  C20  1  0.50721000  0.50126000  0.17256000  1.0
  C  C21  1  0.49278000  0.50129000  0.82744000  1.0
  C  C22  1  0.49089000  0.49961000  0.66180000  1.0
  C  C23  1  0.50907000  0.49960000  0.33821000  1.0
  C  C24  1  0.50001000  0.06504000  0.50000000  1.0
  C  C25  1  0.50001000  0.93447000  0.50000000  1.0
  C  C26  1  0.50001000  0.22066000  0.50000000  1.0
  C  C27  1  0.34214000  0.56841000  0.95616000  1.0
  N  N28  1  0.93463000  0.49951000  0.49973000  1.0
  N  N29  1  0.06536000  0.49952000  0.50027000  1.0
  Cl  Cl30  1  0.80771000  0.59092000  0.88674000  1.0
  Cl  Cl31  1  0.17943000  0.45386000  0.93591000  1.0
  Cl  Cl32  1  0.82058000  0.45385000  0.06409000  1.0
  Cl  Cl33  1  0.19228000  0.59092000  0.11326000  1.0
  O  O34  1  0.36527000  0.71793000  0.50053000  1.0
  O  O35  1  0.63479000  0.71792000  0.49947000  1.0
  O  O36  1  0.35728000  0.50077000  0.62729000  1.0
  O  O37  1  0.62673000  0.49847000  0.62483000  1.0
  O  O38  1  0.37326000  0.49847000  0.37517000  1.0
  O  O39  1  0.64271000  0.50078000  0.37272000  1.0
  O  O40  1  0.36519000  0.28158000  0.50163000  1.0
  O  O41  1  0.63479000  0.28158000  0.49838000  1.0
