# generated using pymatgen
data_TbH7C6(NO4)2
_symmetry_space_group_name_H-M   'P 1'
_cell_length_a   7.28347000
_cell_length_b   9.78354000
_cell_length_c   14.10130000
_cell_angle_alpha   103.25900000
_cell_angle_beta   89.99990000
_cell_angle_gamma   89.99990000
_symmetry_Int_Tables_number   1
_chemical_formula_structural   TbH7C6(NO4)2
_chemical_formula_sum   'Tb4 H28 C24 N8 O32'
_cell_volume   978.04656359
_cell_formula_units_Z   4
loop_
 _symmetry_equiv_pos_site_id
 _symmetry_equiv_pos_as_xyz
  1  'x, y, z'
loop_
 _atom_site_type_symbol
 _atom_site_label
 _atom_site_symmetry_multiplicity
 _atom_site_fract_x
 _atom_site_fract_y
 _atom_site_fract_z
 _atom_site_occupancy
  Tb  Tb0  1  0.88119000  0.21657000  0.68350000  1.0
  Tb  Tb1  1  0.38119000  0.78343000  0.81650000  1.0
  Tb  Tb2  1  0.11881000  0.78343000  0.31650000  1.0
  Tb  Tb3  1  0.61881000  0.21657000  0.18350000  1.0
  H  H4  1  0.72521000  0.56105000  0.42503000  1.0
  H  H5  1  0.22521000  0.43895000  0.07497000  1.0
  H  H6  1  0.27479000  0.43895000  0.57497000  1.0
  H  H7  1  0.77479000  0.56105000  0.92503000  1.0
  H  H8  1  0.41946000  0.07575000  0.70583000  1.0
  H  H9  1  0.91946000  0.92425000  0.79417000  1.0
  H  H10  1  0.58054000  0.92425000  0.29417000  1.0
  H  H11  1  0.08054000  0.07575000  0.20583000  1.0
  H  H12  1  0.83215000  0.32097000  0.43605000  1.0
  H  H13  1  0.33215000  0.67903000  0.06395000  1.0
  H  H14  1  0.16785000  0.67903000  0.56395000  1.0
  H  H15  1  0.66785000  0.32097000  0.93605000  1.0
  H  H16  1  0.16740000  0.18514000  0.52620000  1.0
  H  H17  1  0.66740000  0.81486000  0.97380000  1.0
  H  H18  1  0.83260000  0.81486000  0.47380000  1.0
  H  H19  1  0.33260000  0.18514000  0.02620000  1.0
  H  H20  1  0.00408000  0.10044000  0.46773000  1.0
  H  H21  1  0.50408000  0.89956000  0.03227000  1.0
  H  H22  1  0.99592000  0.89956000  0.53227000  1.0
  H  H23  1  0.49592000  0.10044000  0.96773000  1.0
  H  H24  1  0.64230000  0.99457000  0.55806000  1.0
  H  H25  1  0.14230000  0.00543000  0.94194000  1.0
  H  H26  1  0.35770000  0.00543000  0.44194000  1.0
  H  H27  1  0.85770000  0.99457000  0.05806000  1.0
  H  H28  1  0.56629000  0.13687000  0.53445000  1.0
  H  H29  1  0.06629000  0.86313000  0.96555000  1.0
  H  H30  1  0.43371000  0.86313000  0.46555000  1.0
  H  H31  1  0.93371000  0.13687000  0.03445000  1.0
  C  C32  1  0.71759000  0.54033000  0.75128000  1.0
  C  C33  1  0.21759000  0.45967000  0.74871000  1.0
  C  C34  1  0.28241000  0.45967000  0.24872000  1.0
  C  C35  1  0.78241000  0.54033000  0.25129000  1.0
  C  C36  1  0.60241000  0.75022000  0.59367000  1.0
  C  C37  1  0.10241000  0.24978000  0.90633000  1.0
  C  C38  1  0.39759000  0.24978000  0.40634000  1.0
  C  C39  1  0.89759000  0.75022000  0.09367000  1.0
  C  C40  1  0.71790000  0.52077000  0.64400000  1.0
  C  C41  1  0.21790000  0.47923000  0.85600000  1.0
  C  C42  1  0.28210000  0.47923000  0.35600000  1.0
  C  C43  1  0.78210000  0.52077000  0.14400000  1.0
  C  C44  1  0.50057000  0.09311000  0.77388000  1.0
  C  C45  1  0.00057000  0.90689000  0.72612000  1.0
  C  C46  1  0.49943000  0.90688000  0.22612000  1.0
  C  C47  1  0.99943000  0.09311000  0.27388000  1.0
  C  C48  1  0.78924000  0.40282000  0.49817000  1.0
  C  C49  1  0.28924000  0.59718000  0.00183000  1.0
  C  C50  1  0.21076000  0.59718000  0.50183000  1.0
  C  C51  1  0.71076000  0.40282000  0.99817000  1.0
  C  C52  1  0.68199000  0.60840000  0.58081000  1.0
  C  C53  1  0.18199000  0.39160000  0.91919000  1.0
  C  C54  1  0.31801000  0.39160000  0.41919000  1.0
  C  C55  1  0.81801000  0.60840000  0.08081000  1.0
  N  N56  1  0.78353000  0.39411000  0.59106000  1.0
  N  N57  1  0.28353000  0.60589000  0.90894000  1.0
  N  N58  1  0.21647000  0.60589000  0.40894000  1.0
  N  N59  1  0.71647000  0.39411000  0.09106000  1.0
  N  N60  1  0.73085000  0.53059000  0.49005000  1.0
  N  N61  1  0.23085000  0.46941000  0.00995000  1.0
  N  N62  1  0.26915000  0.46941000  0.50996000  1.0
  N  N63  1  0.76915000  0.53059000  0.99005000  1.0
  O  O64  1  0.78968000  0.43996000  0.78255000  1.0
  O  O65  1  0.28968000  0.56004000  0.71745000  1.0
  O  O66  1  0.21032000  0.56004000  0.21745000  1.0
  O  O67  1  0.71032000  0.43996000  0.28255000  1.0
  O  O68  1  0.03817000  0.15685000  0.53301000  1.0
  O  O69  1  0.53817000  0.84315000  0.96699000  1.0
  O  O70  1  0.96183000  0.84315000  0.46699000  1.0
  O  O71  1  0.46183000  0.15685000  0.03301000  1.0
  O  O72  1  0.66360000  0.09717000  0.56952000  1.0
  O  O73  1  0.16360000  0.90283000  0.93048000  1.0
  O  O74  1  0.33640000  0.90283000  0.43048000  1.0
  O  O75  1  0.83640000  0.09717000  0.06952000  1.0
  O  O76  1  0.63476000  0.17675000  0.78387000  1.0
  O  O77  1  0.13476000  0.82325000  0.71613000  1.0
  O  O78  1  0.36524000  0.82325000  0.21613000  1.0
  O  O79  1  0.86524000  0.17675000  0.28386000  1.0
  O  O80  1  0.52372000  0.80653000  0.67235000  1.0
  O  O81  1  0.02372000  0.19347000  0.82765000  1.0
  O  O82  1  0.47628000  0.19347000  0.32765000  1.0
  O  O83  1  0.97628000  0.80653000  0.17235000  1.0
  O  O84  1  0.65473000  0.65046000  0.80789000  1.0
  O  O85  1  0.15473000  0.34954000  0.69211000  1.0
  O  O86  1  0.34527000  0.34954000  0.19211000  1.0
  O  O87  1  0.84527000  0.65046000  0.30789000  1.0
  O  O88  1  0.61685000  0.80832000  0.52076000  1.0
  O  O89  1  0.11685000  0.19168000  0.97924000  1.0
  O  O90  1  0.38315000  0.19168000  0.47924000  1.0
  O  O91  1  0.88315000  0.80832000  0.02076000  1.0
  O  O92  1  0.45042000  0.02729000  0.83793000  1.0
  O  O93  1  0.95042000  0.97271000  0.66207000  1.0
  O  O94  1  0.54958000  0.97271000  0.16207000  1.0
  O  O95  1  0.04958000  0.02729000  0.33793000  1.0
