# generated using pymatgen
data_AgH12C13S2ClO4
_symmetry_space_group_name_H-M   'P 1'
_cell_length_a   9.31123000
_cell_length_b   11.01170000
_cell_length_c   14.56230000
_cell_angle_alpha   90.00000000
_cell_angle_beta   96.68030000
_cell_angle_gamma   90.00000000
_symmetry_Int_Tables_number   1
_chemical_formula_structural   AgH12C13S2ClO4
_chemical_formula_sum   'Ag4 H48 C52 S8 Cl4 O16'
_cell_volume   1482.97145440
_cell_formula_units_Z   4
loop_
 _symmetry_equiv_pos_site_id
 _symmetry_equiv_pos_as_xyz
  1  'x, y, z'
loop_
 _atom_site_type_symbol
 _atom_site_label
 _atom_site_symmetry_multiplicity
 _atom_site_fract_x
 _atom_site_fract_y
 _atom_site_fract_z
 _atom_site_occupancy
  Ag  Ag0  1  0.84692000  0.40653000  0.32763000  1.0
  Ag  Ag1  1  0.65308000  0.90653000  0.17237000  1.0
  Ag  Ag2  1  0.15308000  0.59347000  0.67237000  1.0
  Ag  Ag3  1  0.34692000  0.09347000  0.82763000  1.0
  H  H4  1  0.99821000  0.22027000  0.45802000  1.0
  H  H5  1  0.50180000  0.72027000  0.04198000  1.0
  H  H6  1  0.00179000  0.77973000  0.54198000  1.0
  H  H7  1  0.49820000  0.27973000  0.95802000  1.0
  H  H8  1  0.15044000  0.09089000  0.57072000  1.0
  H  H9  1  0.34956000  0.59089000  0.92928000  1.0
  H  H10  1  0.84956000  0.90911000  0.42928000  1.0
  H  H11  1  0.65044000  0.40911000  0.07072000  1.0
  H  H12  1  0.35953000  0.97733000  0.52129000  1.0
  H  H13  1  0.14047000  0.47733000  0.97871000  1.0
  H  H14  1  0.64047000  0.02267000  0.47871000  1.0
  H  H15  1  0.85953000  0.52267000  0.02129000  1.0
  H  H16  1  0.41226000  0.98866000  0.35737000  1.0
  H  H17  1  0.08774000  0.48865000  0.14263000  1.0
  H  H18  1  0.58774000  0.01134000  0.64263000  1.0
  H  H19  1  0.91226000  0.51134000  0.85737000  1.0
  H  H20  1  0.26113000  0.11771000  0.24526000  1.0
  H  H21  1  0.23887000  0.61771000  0.25474000  1.0
  H  H22  1  0.73887000  0.88229000  0.75474000  1.0
  H  H23  1  0.76113000  0.38229000  0.74526000  1.0
  H  H24  1  0.97895000  0.08116000  0.17177000  1.0
  H  H25  1  0.52105000  0.58116000  0.32823000  1.0
  H  H26  1  0.02105000  0.91884000  0.82823000  1.0
  H  H27  1  0.47895000  0.41884000  0.67177000  1.0
  H  H28  1  0.84672000  0.19353000  0.13645000  1.0
  H  H29  1  0.65328000  0.69353000  0.36355000  1.0
  H  H30  1  0.15328000  0.80647000  0.86355000  1.0
  H  H31  1  0.34672000  0.30647000  0.63645000  1.0
  H  H32  1  0.70054000  0.20571000  0.41770000  1.0
  H  H33  1  0.79947000  0.70571000  0.08230000  1.0
  H  H34  1  0.29947000  0.79429000  0.58230000  1.0
  H  H35  1  0.20053000  0.29429000  0.91770000  1.0
  H  H36  1  0.50737000  0.35897000  0.42963000  1.0
  H  H37  1  0.99263000  0.85897000  0.07038000  1.0
  H  H38  1  0.49262000  0.64103000  0.57038000  1.0
  H  H39  1  0.00737000  0.14103000  0.92962000  1.0
  H  H40  1  0.34646000  0.42049000  0.28873000  1.0
  H  H41  1  0.15354000  0.92049000  0.21128000  1.0
  H  H42  1  0.65354000  0.57951000  0.71127000  1.0
  H  H43  1  0.84646000  0.07950000  0.78872000  1.0
  H  H44  1  0.38317000  0.33449000  0.13555000  1.0
  H  H45  1  0.11683000  0.83449000  0.36445000  1.0
  H  H46  1  0.61683000  0.66551000  0.86445000  1.0
  H  H47  1  0.88317000  0.16551000  0.63555000  1.0
  H  H48  1  0.57302000  0.17845000  0.12318000  1.0
  H  H49  1  0.92698000  0.67845000  0.37682000  1.0
  H  H50  1  0.42698000  0.82155000  0.87682000  1.0
  H  H51  1  0.07302000  0.32155000  0.62318000  1.0
  C  C52  1  0.08842000  0.16901000  0.43625000  1.0
  C  C53  1  0.41159000  0.66901000  0.06375000  1.0
  C  C54  1  0.91158000  0.83099000  0.56375000  1.0
  C  C55  1  0.58841000  0.33100000  0.93625000  1.0
  C  C56  1  0.17521000  0.09740000  0.49956000  1.0
  C  C57  1  0.32479000  0.59740000  0.00044000  1.0
  C  C58  1  0.82478000  0.90260000  0.50044000  1.0
  C  C59  1  0.67521000  0.40260000  0.99956000  1.0
  C  C60  1  0.29192000  0.03301000  0.47165000  1.0
  C  C61  1  0.20808000  0.53301000  0.02834000  1.0
  C  C62  1  0.70808000  0.96699000  0.52835000  1.0
  C  C63  1  0.79192000  0.46699000  0.97165000  1.0
  C  C64  1  0.32237000  0.03961000  0.38007000  1.0
  C  C65  1  0.17763000  0.53961000  0.11993000  1.0
  C  C66  1  0.67763000  0.96039000  0.61994000  1.0
  C  C67  1  0.82237000  0.46039000  0.88007000  1.0
  C  C68  1  0.23701000  0.11139000  0.31646000  1.0
  C  C69  1  0.26299000  0.61139000  0.18354000  1.0
  C  C70  1  0.76299000  0.88861000  0.68354000  1.0
  C  C71  1  0.73701000  0.38861000  0.81646000  1.0
  C  C72  1  0.11986000  0.17527000  0.34481000  1.0
  C  C73  1  0.38014000  0.67527000  0.15519000  1.0
  C  C74  1  0.88014000  0.82473000  0.65519000  1.0
  C  C75  1  0.61986000  0.32473000  0.84481000  1.0
  C  C76  1  0.90709000  0.14949000  0.19648000  1.0
  C  C77  1  0.59291000  0.64949000  0.30352000  1.0
  C  C78  1  0.09291000  0.85051000  0.80352000  1.0
  C  C79  1  0.40709000  0.35051000  0.69648000  1.0
  C  C80  1  0.64815000  0.18282000  0.26958000  1.0
  C  C81  1  0.85185000  0.68282000  0.23042000  1.0
  C  C82  1  0.35185000  0.81718000  0.73042000  1.0
  C  C83  1  0.14815000  0.31718000  0.76958000  1.0
  C  C84  1  0.63160000  0.23462000  0.35595000  1.0
  C  C85  1  0.86840000  0.73462000  0.14406000  1.0
  C  C86  1  0.36840000  0.76538000  0.64406000  1.0
  C  C87  1  0.13160000  0.26538000  0.85594000  1.0
  C  C88  1  0.52241000  0.32065000  0.36249000  1.0
  C  C89  1  0.97759000  0.82065000  0.13751000  1.0
  C  C90  1  0.47759000  0.67935000  0.63751000  1.0
  C  C91  1  0.02241000  0.17935000  0.86249000  1.0
  C  C92  1  0.43348000  0.35584000  0.28320000  1.0
  C  C93  1  0.06652000  0.85584000  0.21680000  1.0
  C  C94  1  0.56652000  0.64416000  0.71680000  1.0
  C  C95  1  0.93348000  0.14416000  0.78320000  1.0
  C  C96  1  0.45365000  0.30690000  0.19705000  1.0
  C  C97  1  0.04635000  0.80690000  0.30295000  1.0
  C  C98  1  0.54635000  0.69310000  0.80295000  1.0
  C  C99  1  0.95365000  0.19310000  0.69705000  1.0
  C  C100  1  0.56020000  0.21962000  0.18980000  1.0
  C  C101  1  0.93980000  0.71962000  0.31021000  1.0
  C  C102  1  0.43980000  0.78038000  0.81021000  1.0
  C  C103  1  0.06019000  0.28038000  0.68979000  1.0
  S  S104  1  0.01504000  0.26523000  0.26009000  1.0
  S  S105  1  0.48496000  0.76523000  0.23991000  1.0
  S  S106  1  0.98496000  0.73477000  0.73991000  1.0
  S  S107  1  0.51504000  0.23477000  0.76009000  1.0
  S  S108  1  0.78335000  0.06976000  0.26365000  1.0
  S  S109  1  0.71665000  0.56976000  0.23635000  1.0
  S  S110  1  0.21665000  0.93024000  0.73635000  1.0
  S  S111  1  0.28335000  0.43024000  0.76365000  1.0
  Cl  Cl112  1  0.78569000  0.47042000  0.54871000  1.0
  Cl  Cl113  1  0.71431000  0.97042000  0.95129000  1.0
  Cl  Cl114  1  0.21431000  0.52958000  0.45129000  1.0
  Cl  Cl115  1  0.28569000  0.02958000  0.04871000  1.0
  O  O116  1  0.87433000  0.38973000  0.49610000  1.0
  O  O117  1  0.62567000  0.88973000  0.00390000  1.0
  O  O118  1  0.12567000  0.61027000  0.50390000  1.0
  O  O119  1  0.37433000  0.11027000  0.99610000  1.0
  O  O120  1  0.87486000  0.51029000  0.63274000  1.0
  O  O121  1  0.62514000  0.01029000  0.86726000  1.0
  O  O122  1  0.12514000  0.48971000  0.36726000  1.0
  O  O123  1  0.37486000  0.98971000  0.13274000  1.0
  O  O124  1  0.66224000  0.40209000  0.57411000  1.0
  O  O125  1  0.83776000  0.90210000  0.92589000  1.0
  O  O126  1  0.33776000  0.59791000  0.42589000  1.0
  O  O127  1  0.16224000  0.09791000  0.07411000  1.0
  O  O128  1  0.73777000  0.57433000  0.49183000  1.0
  O  O129  1  0.76223000  0.07433000  0.00817000  1.0
  O  O130  1  0.26223000  0.42567000  0.50817000  1.0
  O  O131  1  0.23777000  0.92567000  0.99183000  1.0
