# generated using pymatgen
data_BaH3C8NO6
_symmetry_space_group_name_H-M   'P 1'
_cell_length_a   4.97485000
_cell_length_b   7.28873000
_cell_length_c   12.95110000
_cell_angle_alpha   88.78840000
_cell_angle_beta   80.14980000
_cell_angle_gamma   73.70380000
_symmetry_Int_Tables_number   1
_chemical_formula_structural   BaH3C8NO6
_chemical_formula_sum   'Ba2 H6 C16 N2 O12'
_cell_volume   443.92027465
_cell_formula_units_Z   2
loop_
 _symmetry_equiv_pos_site_id
 _symmetry_equiv_pos_as_xyz
  1  'x, y, z'
loop_
 _atom_site_type_symbol
 _atom_site_label
 _atom_site_symmetry_multiplicity
 _atom_site_fract_x
 _atom_site_fract_y
 _atom_site_fract_z
 _atom_site_occupancy
  Ba  Ba0  1  0.18218000  0.21366000  0.57776000  1.0
  Ba  Ba1  1  0.81782000  0.78634000  0.42224000  1.0
  H  H2  1  0.68168000  0.43760000  0.02695000  1.0
  H  H3  1  0.31832000  0.56240000  0.97305000  1.0
  H  H4  1  0.13176000  0.19438000  0.95378000  1.0
  H  H5  1  0.86824000  0.80562000  0.04622000  1.0
  H  H6  1  0.42658000  0.99888000  0.08008000  1.0
  H  H7  1  0.57342000  0.00112000  0.91992000  1.0
  C  C8  1  0.14339000  0.12931000  0.21659000  1.0
  C  C9  1  0.85661000  0.87069000  0.78341000  1.0
  C  C10  1  0.88617000  0.26478000  0.25888000  1.0
  C  C11  1  0.11383000  0.73522000  0.74112000  1.0
  C  C12  1  0.72596000  0.37260000  0.18731000  1.0
  C  C13  1  0.27404000  0.62740000  0.81269000  1.0
  C  C14  1  0.81151000  0.34931000  0.07872000  1.0
  C  C15  1  0.18849000  0.65069000  0.92128000  1.0
  C  C16  1  0.06457000  0.21455000  0.03844000  1.0
  C  C17  1  0.93542000  0.78545000  0.96156000  1.0
  C  C18  1  0.22732000  0.10651000  0.10780000  1.0
  C  C19  1  0.77268000  0.89349000  0.89220000  1.0
  C  C20  1  0.33489000  0.00061000  0.28406000  1.0
  C  C21  1  0.66511000  0.99939000  0.71594000  1.0
  C  C22  1  0.78880000  0.28996000  0.37660000  1.0
  C  C23  1  0.21120000  0.71004000  0.62341000  1.0
  N  N24  1  0.45648000  0.51404000  0.22530000  1.0
  N  N25  1  0.54352000  0.48596000  0.77470000  1.0
  O  O26  1  0.58584000  0.91458000  0.24174000  1.0
  O  O27  1  0.41416000  0.08542000  0.75826000  1.0
  O  O28  1  0.23002000  0.98271000  0.38042000  1.0
  O  O29  1  0.76998000  0.01729000  0.61958000  1.0
  O  O30  1  0.88774000  0.40100000  0.42333000  1.0
  O  O31  1  0.11226000  0.59900000  0.57667000  1.0
  O  O32  1  0.62376000  0.19576000  0.41890000  1.0
  O  O33  1  0.37624000  0.80424000  0.58110000  1.0
  O  O34  1  0.39947000  0.56165000  0.32048000  1.0
  O  O35  1  0.60053000  0.43835000  0.67952000  1.0
  O  O36  1  0.29197000  0.58144000  0.16313000  1.0
  O  O37  1  0.70802000  0.41856000  0.83687000  1.0
