# generated using pymatgen
data_CuH18C18S2N2Cl
_symmetry_space_group_name_H-M   'P 1'
_cell_length_a   6.36243000
_cell_length_b   12.11660000
_cell_length_c   12.57230000
_cell_angle_alpha   111.12400000
_cell_angle_beta   92.68660000
_cell_angle_gamma   100.81000000
_symmetry_Int_Tables_number   1
_chemical_formula_structural   CuH18C18S2N2Cl
_chemical_formula_sum   'Cu2 H36 C36 S4 N4 Cl2'
_cell_volume   881.08263145
_cell_formula_units_Z   2
loop_
 _symmetry_equiv_pos_site_id
 _symmetry_equiv_pos_as_xyz
  1  'x, y, z'
loop_
 _atom_site_type_symbol
 _atom_site_label
 _atom_site_symmetry_multiplicity
 _atom_site_fract_x
 _atom_site_fract_y
 _atom_site_fract_z
 _atom_site_occupancy
  Cu  Cu0  1  0.39793000  0.40159000  0.13279000  1.0
  Cu  Cu1  1  0.60205000  0.59841000  0.86722000  1.0
  H  H2  1  0.92131000  0.06067000  0.00495000  1.0
  H  H3  1  0.07869000  0.93932000  0.99506000  1.0
  H  H4  1  0.63914000  0.05653000  0.98949000  1.0
  H  H5  1  0.36085000  0.94347000  0.01051000  1.0
  H  H6  1  0.64259000  0.11016000  0.19241000  1.0
  H  H7  1  0.35739000  0.88986000  0.80759000  1.0
  H  H8  1  0.92826000  0.11771000  0.20723000  1.0
  H  H9  1  0.07171000  0.88230000  0.79278000  1.0
  H  H10  1  0.05887000  0.20720000  0.90441000  1.0
  H  H11  1  0.94114000  0.79280000  0.09560000  1.0
  H  H12  1  0.92968000  0.33060000  0.92758000  1.0
  H  H13  1  0.07035000  0.66940000  0.07242000  1.0
  H  H14  1  0.50523000  0.27143000  0.87505000  1.0
  H  H15  1  0.49481000  0.72856000  0.12494000  1.0
  H  H16  1  0.22430000  0.14393000  0.70998000  1.0
  H  H17  1  0.77571000  0.85607000  0.29000000  1.0
  H  H18  1  0.29120000  0.95678000  0.56254000  1.0
  H  H19  1  0.70882000  0.04320000  0.43746000  1.0
  H  H20  1  0.64094000  0.89540000  0.58084000  1.0
  H  H21  1  0.35910000  0.10459000  0.41918000  1.0
  H  H22  1  0.92112000  0.02380000  0.74496000  1.0
  H  H23  1  0.07890000  0.97619000  0.25506000  1.0
  H  H24  1  0.64196000  0.32034000  0.34050000  1.0
  H  H25  1  0.35801000  0.67966000  0.65950000  1.0
  H  H26  1  0.83584000  0.44503000  0.33713000  1.0
  H  H27  1  0.16416000  0.55498000  0.66287000  1.0
  H  H28  1  0.70778000  0.26200000  0.49534000  1.0
  H  H29  1  0.29222000  0.73800000  0.50466000  1.0
  H  H30  1  0.95512000  0.24465000  0.64446000  1.0
  H  H31  1  0.04487000  0.75535000  0.35553000  1.0
  H  H32  1  0.35362000  0.31175000  0.65142000  1.0
  H  H33  1  0.64636000  0.68825000  0.34858000  1.0
  H  H34  1  0.49867000  0.39712000  0.51086000  1.0
  H  H35  1  0.50132000  0.60289000  0.48914000  1.0
  H  H36  1  0.24939000  0.40914000  0.35834000  1.0
  H  H37  1  0.75060000  0.59090000  0.64168000  1.0
  C  C38  1  0.86565000  0.31770000  0.12668000  1.0
  C  C39  1  0.13432000  0.68229000  0.87332000  1.0
  C  C40  1  0.79554000  0.10961000  0.03858000  1.0
  C  C41  1  0.20446000  0.89039000  0.96144000  1.0
  C  C42  1  0.79820000  0.14508000  0.16908000  1.0
  C  C43  1  0.20179000  0.85493000  0.83092000  1.0
  C  C44  1  0.91402000  0.44741000  0.14240000  1.0
  C  C45  1  0.08596000  0.55260000  0.85759000  1.0
  C  C46  1  0.90406000  0.23523000  0.91833000  1.0
  C  C47  1  0.09595000  0.76476000  0.08167000  1.0
  C  C48  1  0.73295000  0.15685000  0.81919000  1.0
  C  C49  1  0.26707000  0.84315000  0.18080000  1.0
  C  C50  1  0.53493000  0.18950000  0.80976000  1.0
  C  C51  1  0.46512000  0.81049000  0.19022000  1.0
  C  C52  1  0.37694000  0.11737000  0.71786000  1.0
  C  C53  1  0.62307000  0.88262000  0.28212000  1.0
  C  C54  1  0.41442000  0.01199000  0.63477000  1.0
  C  C55  1  0.58559000  0.98802000  0.36523000  1.0
  C  C56  1  0.60994000  0.97787000  0.64457000  1.0
  C  C57  1  0.39009000  0.02212000  0.35545000  1.0
  C  C58  1  0.76826000  0.05034000  0.73668000  1.0
  C  C59  1  0.23176000  0.94965000  0.26332000  1.0
  C  C60  1  0.81098000  0.34994000  0.32893000  1.0
  C  C61  1  0.18900000  0.65006000  0.67106000  1.0
  C  C62  1  0.96239000  0.33722000  0.41792000  1.0
  C  C63  1  0.03759000  0.66278000  0.58208000  1.0
  C  C64  1  0.88175000  0.29070000  0.49838000  1.0
  C  C65  1  0.11824000  0.70931000  0.50161000  1.0
  C  C66  1  0.02122000  0.28048000  0.58198000  1.0
  C  C67  1  0.97877000  0.71951000  0.41801000  1.0
  C  C68  1  0.24376000  0.31803000  0.58582000  1.0
  C  C69  1  0.75623000  0.68196000  0.41417000  1.0
  C  C70  1  0.32523000  0.36523000  0.50594000  1.0
  C  C71  1  0.67475000  0.63478000  0.49406000  1.0
  C  C72  1  0.18591000  0.37392000  0.42180000  1.0
  C  C73  1  0.81408000  0.62607000  0.57819000  1.0
  S  S74  1  0.70803000  0.50883000  0.11856000  1.0
  S  S75  1  0.29197000  0.49117000  0.88143000  1.0
  S  S76  1  0.17286000  0.52476000  0.18410000  1.0
  S  S77  1  0.82713000  0.47525000  0.81590000  1.0
  N  N78  1  0.84358000  0.22708000  0.02562000  1.0
  N  N79  1  0.15643000  0.77292000  0.97438000  1.0
  N  N80  1  0.84070000  0.27849000  0.21239000  1.0
  N  N81  1  0.15929000  0.72151000  0.78762000  1.0
  Cl  Cl82  1  0.32753000  0.20906000  0.10998000  1.0
  Cl  Cl83  1  0.67248000  0.79093000  0.89003000  1.0
