# generated using pymatgen
data_LiBH22(C2O)4
_symmetry_space_group_name_H-M   'P 1'
_cell_length_a   6.35526000
_cell_length_b   12.59660000
_cell_length_c   14.74500000
_cell_angle_alpha   89.99980000
_cell_angle_beta   89.99990000
_cell_angle_gamma   89.99990000
_symmetry_Int_Tables_number   1
_chemical_formula_structural   LiBH22(C2O)4
_chemical_formula_sum   'Li4 B4 H88 C32 O16'
_cell_volume   1180.40608136
_cell_formula_units_Z   4
loop_
 _symmetry_equiv_pos_site_id
 _symmetry_equiv_pos_as_xyz
  1  'x, y, z'
loop_
 _atom_site_type_symbol
 _atom_site_label
 _atom_site_symmetry_multiplicity
 _atom_site_fract_x
 _atom_site_fract_y
 _atom_site_fract_z
 _atom_site_occupancy
  Li  Li0  1  0.50000000  0.25000000  0.46957000  1.0
  Li  Li1  1  0.00000000  0.75000000  0.03043000  1.0
  Li  Li2  1  0.50000000  0.75000000  0.53043000  1.0
  Li  Li3  1  0.00000000  0.25000000  0.96957000  1.0
  B  B4  1  0.50000000  0.25000000  0.63371000  1.0
  B  B5  1  0.00000000  0.75000000  0.86629000  1.0
  B  B6  1  0.50000000  0.75000000  0.36629000  1.0
  B  B7  1  0.00000000  0.25000000  0.13371000  1.0
  H  H8  1  0.78123000  0.45434000  0.30240000  1.0
  H  H9  1  0.71877000  0.95434000  0.19760000  1.0
  H  H10  1  0.28123000  0.54566000  0.19760000  1.0
  H  H11  1  0.21877000  0.04566000  0.30240000  1.0
  H  H12  1  0.21877000  0.54566000  0.69760000  1.0
  H  H13  1  0.28123000  0.04566000  0.80240000  1.0
  H  H14  1  0.71877000  0.45434000  0.80240000  1.0
  H  H15  1  0.78123000  0.95434000  0.69760000  1.0
  H  H16  1  0.65873000  0.33902000  0.25435000  1.0
  H  H17  1  0.84126000  0.83902000  0.24565000  1.0
  H  H18  1  0.15874000  0.66098000  0.24565000  1.0
  H  H19  1  0.34126000  0.16098000  0.25435000  1.0
  H  H20  1  0.34126000  0.66098000  0.74565000  1.0
  H  H21  1  0.15874000  0.16098000  0.75435000  1.0
  H  H22  1  0.84126000  0.33902000  0.75435000  1.0
  H  H23  1  0.65874000  0.83902000  0.74565000  1.0
  H  H24  1  0.85510000  0.32317000  0.33939000  1.0
  H  H25  1  0.64490000  0.82317000  0.16061000  1.0
  H  H26  1  0.35510000  0.67683000  0.16061000  1.0
  H  H27  1  0.14490000  0.17683000  0.33939000  1.0
  H  H28  1  0.14490000  0.67683000  0.66061000  1.0
  H  H29  1  0.35510000  0.17683000  0.83939000  1.0
  H  H30  1  0.64490000  0.32317000  0.83939000  1.0
  H  H31  1  0.85510000  0.82317000  0.66061000  1.0
  H  H32  1  0.90001000  0.35925000  0.51463000  1.0
  H  H33  1  0.59998000  0.85925000  0.98537000  1.0
  H  H34  1  0.40002000  0.64075000  0.98537000  1.0
  H  H35  1  0.09998000  0.14075000  0.51463000  1.0
  H  H36  1  0.09999000  0.64075000  0.48537000  1.0
  H  H37  1  0.40001000  0.14075000  0.01463000  1.0
  H  H38  1  0.59999000  0.35924000  0.01463000  1.0
  H  H39  1  0.90002000  0.85925000  0.48537000  1.0
  H  H40  1  0.10708000  0.32620000  0.59303000  1.0
  H  H41  1  0.39292000  0.82620000  0.90697000  1.0
  H  H42  1  0.60708000  0.67380000  0.90697000  1.0
  H  H43  1  0.89292000  0.17379000  0.59303000  1.0
  H  H44  1  0.89291000  0.67380000  0.40697000  1.0
  H  H45  1  0.60708000  0.17379000  0.09303000  1.0
  H  H46  1  0.39292000  0.32620000  0.09303000  1.0
  H  H47  1  0.10709000  0.82620000  0.40697000  1.0
  H  H48  1  0.29844000  0.46926000  0.50031000  1.0
  H  H49  1  0.20156000  0.96927000  0.99969000  1.0
  H  H50  1  0.79844000  0.53073000  0.99970000  1.0
  H  H51  1  0.70156000  0.03073000  0.50030000  1.0
  H  H52  1  0.70156000  0.53074000  0.49970000  1.0
  H  H53  1  0.79844000  0.03073000  0.00030000  1.0
  H  H54  1  0.20156000  0.46927000  0.00031000  1.0
  H  H55  1  0.29844000  0.96927000  0.49969000  1.0
  H  H56  1  0.08887000  0.47294000  0.41897000  1.0
  H  H57  1  0.41112000  0.97294000  0.08103000  1.0
  H  H58  1  0.58887000  0.52705000  0.08103000  1.0
  H  H59  1  0.91113000  0.02705000  0.41897000  1.0
  H  H60  1  0.91112000  0.52705000  0.58103000  1.0
  H  H61  1  0.58888000  0.02705000  0.91897000  1.0
  H  H62  1  0.41113000  0.47294000  0.91897000  1.0
  H  H63  1  0.08888000  0.97295000  0.58103000  1.0
  H  H64  1  0.32059000  0.40018000  0.30015000  1.0
  H  H65  1  0.17941000  0.90018000  0.19985000  1.0
  H  H66  1  0.82059000  0.59982000  0.19985000  1.0
  H  H67  1  0.67941000  0.09982000  0.30015000  1.0
  H  H68  1  0.67941000  0.59982000  0.69985000  1.0
  H  H69  1  0.82059000  0.09982000  0.80015000  1.0
  H  H70  1  0.17941000  0.40018000  0.80015000  1.0
  H  H71  1  0.32059000  0.90018000  0.69985000  1.0
  H  H72  1  0.43291000  0.51907000  0.34872000  1.0
  H  H73  1  0.06709000  0.01907000  0.15128000  1.0
  H  H74  1  0.93291000  0.48093000  0.15128000  1.0
  H  H75  1  0.56709000  0.98093000  0.34872000  1.0
  H  H76  1  0.56709000  0.48093000  0.65128000  1.0
  H  H77  1  0.93291000  0.98093000  0.84872000  1.0
  H  H78  1  0.06709000  0.51907000  0.84872000  1.0
  H  H79  1  0.43291000  0.01907000  0.65128000  1.0
  H  H80  1  0.58930000  0.31639000  0.58561000  1.0
  H  H81  1  0.91070000  0.81639000  0.91439000  1.0
  H  H82  1  0.08930000  0.68362000  0.91439000  1.0
  H  H83  1  0.41070000  0.18361000  0.58561000  1.0
  H  H84  1  0.41070000  0.68362000  0.41439000  1.0
  H  H85  1  0.08930000  0.18362000  0.08561000  1.0
  H  H86  1  0.91070000  0.31639000  0.08560000  1.0
  H  H87  1  0.58930000  0.81639000  0.41439000  1.0
  H  H88  1  0.63029000  0.20443000  0.68111000  1.0
  H  H89  1  0.86971000  0.70443000  0.81889000  1.0
  H  H90  1  0.13029000  0.79558000  0.81889000  1.0
  H  H91  1  0.36971000  0.29557000  0.68111000  1.0
  H  H92  1  0.36971000  0.79558000  0.31889000  1.0
  H  H93  1  0.13029000  0.29558000  0.18111000  1.0
  H  H94  1  0.86971000  0.20443000  0.18111000  1.0
  H  H95  1  0.63029000  0.70443000  0.31889000  1.0
  C  C96  1  0.72499000  0.37335000  0.31682000  1.0
  C  C97  1  0.77501000  0.87335000  0.18318000  1.0
  C  C98  1  0.22499000  0.62665000  0.18318000  1.0
  C  C99  1  0.27501000  0.12665000  0.31682000  1.0
  C  C100  1  0.27501000  0.62665000  0.68318000  1.0
  C  C101  1  0.22499000  0.12665000  0.81682000  1.0
  C  C102  1  0.77501000  0.37335000  0.81682000  1.0
  C  C103  1  0.72499000  0.87335000  0.68318000  1.0
  C  C104  1  0.03588000  0.30696000  0.52688000  1.0
  C  C105  1  0.46412000  0.80696000  0.97312000  1.0
  C  C106  1  0.53588000  0.69304000  0.97312000  1.0
  C  C107  1  0.96412000  0.19304000  0.52688000  1.0
  C  C108  1  0.96412000  0.69304000  0.47313000  1.0
  C  C109  1  0.53588000  0.19304000  0.02688000  1.0
  C  C110  1  0.46412000  0.30695000  0.02688000  1.0
  C  C111  1  0.03588000  0.80696000  0.47313000  1.0
  C  C112  1  0.23396000  0.43082000  0.43893000  1.0
  C  C113  1  0.26604000  0.93082000  0.06107000  1.0
  C  C114  1  0.73396000  0.56918000  0.06107000  1.0
  C  C115  1  0.76604000  0.06918000  0.43893000  1.0
  C  C116  1  0.76604000  0.56918000  0.56108000  1.0
  C  C117  1  0.73396000  0.06918000  0.93892000  1.0
  C  C118  1  0.26604000  0.43082000  0.93893000  1.0
  C  C119  1  0.23396000  0.93082000  0.56108000  1.0
  C  C120  1  0.38953000  0.43562000  0.36202000  1.0
  C  C121  1  0.11047000  0.93562000  0.13798000  1.0
  C  C122  1  0.88953000  0.56438000  0.13798000  1.0
  C  C123  1  0.61047000  0.06438000  0.36202000  1.0
  C  C124  1  0.61047000  0.56438000  0.63798000  1.0
  C  C125  1  0.88953000  0.06438000  0.86202000  1.0
  C  C126  1  0.11047000  0.43562000  0.86202000  1.0
  C  C127  1  0.38953000  0.93562000  0.63798000  1.0
  O  O128  1  0.18970000  0.32141000  0.45629000  1.0
  O  O129  1  0.31030000  0.82141000  0.04371000  1.0
  O  O130  1  0.68971000  0.67859000  0.04371000  1.0
  O  O131  1  0.81030000  0.17859000  0.45630000  1.0
  O  O132  1  0.81030000  0.67859000  0.54371000  1.0
  O  O133  1  0.68970000  0.17859000  0.95629000  1.0
  O  O134  1  0.31030000  0.32141000  0.95629000  1.0
  O  O135  1  0.18970000  0.82141000  0.54371000  1.0
  O  O136  1  0.57180000  0.37565000  0.38802000  1.0
  O  O137  1  0.92820000  0.87565000  0.11198000  1.0
  O  O138  1  0.07180000  0.62435000  0.11198000  1.0
  O  O139  1  0.42820000  0.12435000  0.38802000  1.0
  O  O140  1  0.42820000  0.62435000  0.61198000  1.0
  O  O141  1  0.07180000  0.12435000  0.88802000  1.0
  O  O142  1  0.92820000  0.37565000  0.88802000  1.0
  O  O143  1  0.57180000  0.87565000  0.61198000  1.0
