# generated using pymatgen
data_Al3H28C51N7O16
_symmetry_space_group_name_H-M   'P 1'
_cell_length_a   13.56980000
_cell_length_b   13.59010000
_cell_length_c   33.57520000
_cell_angle_alpha   83.44490000
_cell_angle_beta   83.79280000
_cell_angle_gamma   63.41820000
_symmetry_Int_Tables_number   1
_chemical_formula_structural   Al3H28C51N7O16
_chemical_formula_sum   'Al6 H56 C102 N14 O32'
_cell_volume   5489.72712257
_cell_formula_units_Z   2
loop_
 _symmetry_equiv_pos_site_id
 _symmetry_equiv_pos_as_xyz
  1  'x, y, z'
loop_
 _atom_site_type_symbol
 _atom_site_label
 _atom_site_symmetry_multiplicity
 _atom_site_fract_x
 _atom_site_fract_y
 _atom_site_fract_z
 _atom_site_occupancy
  Al  Al0  1  0.58885000  0.58891000  0.49079000  1.0
  Al  Al1  1  0.57281000  0.35945000  0.50308000  1.0
  Al  Al2  1  0.36147000  0.56787000  0.50202000  1.0
  Al  Al3  1  0.06900000  0.08251000  0.01541000  1.0
  Al  Al4  1  0.30428000  0.08637000  0.00437000  1.0
  Al  Al5  1  0.10133000  0.30374000  0.00344000  1.0
  H  H6  1  0.15379000  0.43071000  0.89334000  1.0
  H  H7  1  0.22465000  0.71108000  0.60593000  1.0
  H  H8  1  0.44702000  0.88728000  0.90801000  1.0
  H  H9  1  0.50584000  0.77596000  0.66721000  1.0
  H  H10  1  0.47230000  0.83291000  0.83732000  1.0
  H  H11  1  0.10476000  0.95716000  0.91233000  1.0
  H  H12  1  0.12752000  0.90870000  0.84081000  1.0
  H  H13  1  0.74723000  0.21661000  0.60427000  1.0
  H  H14  1  0.73348000  0.54047000  0.59139000  1.0
  H  H15  1  0.89811000  0.15312000  0.91959000  1.0
  H  H16  1  0.17751000  0.45366000  0.81836000  1.0
  H  H17  1  0.78680000  0.19815000  0.67668000  1.0
  H  H18  1  0.77312000  0.52270000  0.66386000  1.0
  H  H19  1  0.84210000  0.17705000  0.84880000  1.0
  H  H20  1  0.95187000  0.44340000  0.89817000  1.0
  H  H21  1  0.89715000  0.46764000  0.82732000  1.0
  H  H22  1  0.28473000  0.54732000  0.39862000  1.0
  H  H23  1  0.42431000  0.11084000  0.10381000  1.0
  H  H24  1  0.46550000  0.18087000  0.34255000  1.0
  H  H25  1  0.26676000  0.53136000  0.32660000  1.0
  H  H26  1  0.45252000  0.13609000  0.17364000  1.0
  H  H27  1  0.16830000  0.44353000  0.09382000  1.0
  H  H28  1  0.19840000  0.47054000  0.16317000  1.0
  H  H29  1  0.11908000  0.94178000  0.12638000  1.0
  H  H30  1  0.14828000  0.89000000  0.20006000  1.0
  H  H31  1  0.21047000  0.75018000  0.40108000  1.0
  H  H32  1  0.53098000  0.74401000  0.38248000  1.0
  H  H33  1  0.48472000  0.84426000  0.17798000  1.0
  H  H34  1  0.45374000  0.89708000  0.10475000  1.0
  H  H35  1  0.21333000  0.50623000  0.61104000  1.0
  H  H36  1  0.50338000  0.79309000  0.30892000  1.0
  H  H37  1  0.93910000  0.45488000  0.10480000  1.0
  H  H38  1  0.89076000  0.48648000  0.17797000  1.0
  H  H39  1  0.67803000  0.55094000  0.38404000  1.0
  H  H40  1  0.87693000  0.17355000  0.19863000  1.0
  H  H41  1  0.92241000  0.14477000  0.12530000  1.0
  H  H42  1  0.87901000  0.19492000  0.32326000  1.0
  H  H43  1  0.54122000  0.24099000  0.61536000  1.0
  H  H44  1  0.46824000  0.14088000  0.81939000  1.0
  H  H45  1  0.44191000  0.11811000  0.89407000  1.0
  H  H46  1  0.51435000  0.21666000  0.68969000  1.0
  H  H47  1  0.53184000  0.73507000  0.59466000  1.0
  H  H48  1  0.18431000  0.71238000  0.71547000  1.0
  H  H49  1  0.50761000  0.18655000  0.44764000  1.0
  H  H50  1  0.57718000  0.00535000  0.43245000  1.0
  H  H51  1  0.47264000  0.04550000  0.39799000  1.0
  H  H52  1  0.59995000  0.05064000  0.38194000  1.0
  H  H53  1  0.09300000  0.55959000  0.66627000  1.0
  H  H54  1  0.09514000  0.79071000  0.35181000  1.0
  H  H55  1  0.68306000  0.65140000  0.32689000  1.0
  H  H56  1  0.89946000  0.11263000  0.38306000  1.0
  H  H57  1  0.79358000  0.05454000  0.43460000  1.0
  H  H58  1  0.68480000  0.19060000  0.42918000  1.0
  H  H59  1  0.72663000  0.10426000  0.38834000  1.0
  H  H60  1  0.72221000  0.64897000  0.49879000  1.0
  H  H61  1  0.95268000  0.00704000  0.04717000  1.0
  C  C62  1  0.69960000  0.39968000  0.55238000  1.0
  C  C63  1  0.34777000  0.34667000  0.69294000  1.0
  C  C64  1  0.26137000  0.42848000  0.66996000  1.0
  C  C65  1  0.27877000  0.44167000  0.62829000  1.0
  C  C66  1  0.23584000  0.38135000  0.83525000  1.0
  C  C67  1  0.22284000  0.36860000  0.87680000  1.0
  C  C68  1  0.38588000  0.19199000  0.87723000  1.0
  C  C69  1  0.39998000  0.20447000  0.83571000  1.0
  C  C70  1  0.32484000  0.29917000  0.81403000  1.0
  C  C71  1  0.33632000  0.31254000  0.77166000  1.0
  C  C72  1  0.33746000  0.33128000  0.73516000  1.0
  C  C73  1  0.40094000  0.39550000  0.56468000  1.0
  C  C74  1  0.29735000  0.27380000  0.89814000  1.0
  C  C75  1  0.37914000  0.72247000  0.59576000  1.0
  C  C76  1  0.45913000  0.73964000  0.61322000  1.0
  C  C77  1  0.44513000  0.76120000  0.65339000  1.0
  C  C78  1  0.35155000  0.76522000  0.67712000  1.0
  C  C79  1  0.27125000  0.74678000  0.65971000  1.0
  C  C80  1  0.28587000  0.72672000  0.61902000  1.0
  C  C81  1  0.31407000  0.84373000  0.79257000  1.0
  C  C82  1  0.33749000  0.79471000  0.71875000  1.0
  C  C83  1  0.39210000  0.86066000  0.85388000  1.0
  C  C84  1  0.40014000  0.68880000  0.55374000  1.0
  C  C85  1  0.37822000  0.89016000  0.89313000  1.0
  C  C86  1  0.18443000  0.92991000  0.89537000  1.0
  C  C87  1  0.19732000  0.90267000  0.85591000  1.0
  C  C88  1  0.30122000  0.86852000  0.83474000  1.0
  C  C89  1  0.27427000  0.92554000  0.91394000  1.0
  C  C90  1  0.73744000  0.38008000  0.59377000  1.0
  C  C91  1  0.75362000  0.28285000  0.61756000  1.0
  C  C92  1  0.77550000  0.27258000  0.65774000  1.0
  C  C93  1  0.78106000  0.35993000  0.67465000  1.0
  C  C94  1  0.76827000  0.45591000  0.65041000  1.0
  C  C95  1  0.69738000  0.39654000  0.43759000  1.0
  C  C96  1  0.74664000  0.46562000  0.61034000  1.0
  C  C97  1  0.83539000  0.33722000  0.79241000  1.0
  C  C98  1  0.79662000  0.35331000  0.71768000  1.0
  C  C99  1  0.86621000  0.23487000  0.85987000  1.0
  C  C100  1  0.89661000  0.22176000  0.89898000  1.0
  C  C101  1  0.92696000  0.38621000  0.88705000  1.0
  C  C102  1  0.89694000  0.39951000  0.84779000  1.0
  C  C103  1  0.86649000  0.32373000  0.83390000  1.0
  C  C104  1  0.92751000  0.29707000  0.91274000  1.0
  C  C105  1  0.38577000  0.37492000  0.41157000  1.0
  C  C106  1  0.40249000  0.39594000  0.45162000  1.0
  C  C107  1  0.43665000  0.26756000  0.39633000  1.0
  C  C108  1  0.42544000  0.26037000  0.35549000  1.0
  C  C109  1  0.36638000  0.35402000  0.33065000  1.0
  C  C110  1  0.31284000  0.45888000  0.34619000  1.0
  C  C111  1  0.32299000  0.46716000  0.38608000  1.0
  C  C112  1  0.34398000  0.32014000  0.21377000  1.0
  C  C113  1  0.36195000  0.34286000  0.28781000  1.0
  C  C114  1  0.39136000  0.20338000  0.15584000  1.0
  C  C115  1  0.37603000  0.18944000  0.11701000  1.0
  C  C116  1  0.23142000  0.37737000  0.11131000  1.0
  C  C117  1  0.39732000  0.69921000  0.43833000  1.0
  C  C118  1  0.24758000  0.39211000  0.14995000  1.0
  C  C119  1  0.32752000  0.30509000  0.17267000  1.0
  C  C120  1  0.29585000  0.27615000  0.09447000  1.0
  C  C121  1  0.37287000  0.74306000  0.39616000  1.0
  C  C122  1  0.45459000  0.75736000  0.37008000  1.0
  C  C123  1  0.43908000  0.78490000  0.32943000  1.0
  C  C124  1  0.34064000  0.80064000  0.31330000  1.0
  C  C125  1  0.25598000  0.79038000  0.34004000  1.0
  C  C126  1  0.27419000  0.76073000  0.38081000  1.0
  C  C127  1  0.21444000  0.89139000  0.17884000  1.0
  C  C128  1  0.37883000  0.37475000  0.60831000  1.0
  C  C129  1  0.19851000  0.91958000  0.13826000  1.0
  C  C130  1  0.38795000  0.89458000  0.12590000  1.0
  C  C131  1  0.40495000  0.86578000  0.16648000  1.0
  C  C132  1  0.31781000  0.86527000  0.19351000  1.0
  C  C133  1  0.33071000  0.84116000  0.23513000  1.0
  C  C134  1  0.33094000  0.82362000  0.27162000  1.0
  C  C135  1  0.28453000  0.92259000  0.11162000  1.0
  C  C136  1  0.74061000  0.37656000  0.39511000  1.0
  C  C137  1  0.80137000  0.27288000  0.37793000  1.0
  C  C138  1  0.83446000  0.27388000  0.33671000  1.0
  C  C139  1  0.46303000  0.29245000  0.63086000  1.0
  C  C140  1  0.80851000  0.37059000  0.31157000  1.0
  C  C141  1  0.75105000  0.47359000  0.32919000  1.0
  C  C142  1  0.72055000  0.47264000  0.37012000  1.0
  C  C143  1  0.89811000  0.41191000  0.16615000  1.0
  C  C144  1  0.92418000  0.39461000  0.12560000  1.0
  C  C145  1  0.91483000  0.21911000  0.13733000  1.0
  C  C146  1  0.88998000  0.23506000  0.17791000  1.0
  C  C147  1  0.88201000  0.33152000  0.19294000  1.0
  C  C148  1  0.85853000  0.34658000  0.23438000  1.0
  C  C149  1  0.83612000  0.36202000  0.27001000  1.0
  C  C150  1  0.44803000  0.27905000  0.67230000  1.0
  C  C151  1  0.93326000  0.29798000  0.11094000  1.0
  C  C152  1  0.25439000  0.96768000  0.95456000  1.0
  C  C153  1  0.27616000  0.25513000  0.94199000  1.0
  C  C154  1  0.96970000  0.27473000  0.95354000  1.0
  C  C155  1  0.26100000  0.96483000  0.06920000  1.0
  C  C156  1  0.27322000  0.25681000  0.05448000  1.0
  C  C157  1  0.97149000  0.27273000  0.06858000  1.0
  C  C158  1  0.17546000  0.73760000  0.68290000  1.0
  C  C159  1  0.53752000  0.06410000  0.40729000  1.0
  C  C160  1  0.15203000  0.50159000  0.68841000  1.0
  C  C161  1  0.14798000  0.80958000  0.32705000  1.0
  C  C162  1  0.72090000  0.58142000  0.30686000  1.0
  C  C163  1  0.75550000  0.12746000  0.41363000  1.0
  N  N164  1  0.41671000  0.80639000  0.77376000  1.0
  N  N165  1  0.42638000  0.24357000  0.27295000  1.0
  N  N166  1  0.29905000  0.43402000  0.26487000  1.0
  N  N167  1  0.29027000  0.42267000  0.22716000  1.0
  N  N168  1  0.42890000  0.77870000  0.73670000  1.0
  N  N169  1  0.23369000  0.84294000  0.73610000  1.0
  N  N170  1  0.22214000  0.86466000  0.77396000  1.0
  N  N171  1  0.81223000  0.25943000  0.77946000  1.0
  N  N172  1  0.79138000  0.26814000  0.74149000  1.0
  N  N173  1  0.80633000  0.43790000  0.73179000  1.0
  N  N174  1  0.82481000  0.43050000  0.76986000  1.0
  N  N175  1  0.41683000  0.23194000  0.23538000  1.0
  N  N176  1  0.49210000  0.17481000  0.42014000  1.0
  N  N177  1  0.83634000  0.16981000  0.39940000  1.0
  O  O178  1  0.49113000  0.67510000  0.53556000  1.0
  O  O179  1  0.48774000  0.32438000  0.47022000  1.0
  O  O180  1  0.33486000  0.48760000  0.46601000  1.0
  O  O181  1  0.32344000  0.67856000  0.46027000  1.0
  O  O182  1  0.50676000  0.50447000  0.49910000  1.0
  O  O183  1  0.98140000  0.18525000  0.97273000  1.0
  O  O184  1  0.16093000  0.99126000  0.97250000  1.0
  O  O185  1  0.33284000  0.98196000  0.96764000  1.0
  O  O186  1  0.34228000  0.16419000  0.95979000  1.0
  O  O187  1  0.18954000  0.32816000  0.95914000  1.0
  O  O188  1  0.99613000  0.34617000  0.96574000  1.0
  O  O189  1  0.68303000  0.49101000  0.53333000  1.0
  O  O190  1  0.98441000  0.18109000  0.05798000  1.0
  O  O191  1  0.16625000  0.98919000  0.05819000  1.0
  O  O192  1  0.33824000  0.97877000  0.04670000  1.0
  O  O193  1  0.33835000  0.16552000  0.03950000  1.0
  O  O194  1  0.18642000  0.33020000  0.03827000  1.0
  O  O195  1  0.99383000  0.34419000  0.04557000  1.0
  O  O196  1  0.15935000  0.15862000  0.00756000  1.0
  O  O197  1  0.68030000  0.32452000  0.53936000  1.0
  O  O198  1  0.49317000  0.32796000  0.54851000  1.0
  O  O199  1  0.33032000  0.48203000  0.54616000  1.0
  O  O200  1  0.32515000  0.67072000  0.53973000  1.0
  O  O201  1  0.49066000  0.68005000  0.44944000  1.0
  O  O202  1  0.67746000  0.48933000  0.44915000  1.0
  O  O203  1  0.67779000  0.32224000  0.45997000  1.0
  O  O204  1  0.09290000  0.75069000  0.66695000  1.0
  O  O205  1  0.12536000  0.50191000  0.72443000  1.0
  O  O206  1  0.11408000  0.84367000  0.29347000  1.0
  O  O207  1  0.73351000  0.59899000  0.27046000  1.0
  O  O208  1  0.66000000  0.67114000  0.48258000  1.0
  O  O209  1  0.98778000  0.01048000  0.02078000  1.0
