# generated using pymatgen
data_CuP3H19C14NO10
_symmetry_space_group_name_H-M   'P 1'
_cell_length_a   9.54960000
_cell_length_b   9.97271000
_cell_length_c   10.16610000
_cell_angle_alpha   80.43840000
_cell_angle_beta   72.89420000
_cell_angle_gamma   88.83850000
_symmetry_Int_Tables_number   1
_chemical_formula_structural   CuP3H19C14NO10
_chemical_formula_sum   'Cu2 P6 H38 C28 N2 O20'
_cell_volume   912.06857614
_cell_formula_units_Z   2
loop_
 _symmetry_equiv_pos_site_id
 _symmetry_equiv_pos_as_xyz
  1  'x, y, z'
loop_
 _atom_site_type_symbol
 _atom_site_label
 _atom_site_symmetry_multiplicity
 _atom_site_fract_x
 _atom_site_fract_y
 _atom_site_fract_z
 _atom_site_occupancy
  Cu  Cu0  1  0.27414000  0.63983000  0.48590000  1.0
  Cu  Cu1  1  0.72586000  0.36017000  0.51410000  1.0
  P  P2  1  0.81517000  0.10588000  0.33634000  1.0
  P  P3  1  0.18483000  0.89413000  0.66366000  1.0
  P  P4  1  0.11870000  0.46993000  0.79822000  1.0
  P  P5  1  0.88129000  0.53007000  0.20178000  1.0
  P  P6  1  0.40197000  0.35954000  0.38789000  1.0
  P  P7  1  0.59803000  0.64046000  0.61210000  1.0
  H  H8  1  0.80151000  0.28163000  0.17715000  1.0
  H  H9  1  0.19849000  0.71837000  0.82286000  1.0
  H  H10  1  0.17518000  0.27687000  0.51440000  1.0
  H  H11  1  0.82483000  0.72312000  0.48560000  1.0
  H  H12  1  0.91198000  0.41958000  0.96966000  1.0
  H  H13  1  0.08801000  0.58042000  0.03034000  1.0
  H  H14  1  0.70305000  0.89879000  0.44883000  1.0
  H  H15  1  0.29695000  0.10121000  0.55117000  1.0
  H  H16  1  0.95134000  0.59214000  0.42392000  1.0
  H  H17  1  0.04866000  0.40786000  0.57608000  1.0
  H  H18  1  0.00329000  0.65765000  0.53734000  1.0
  H  H19  1  0.99670000  0.34233000  0.46267000  1.0
  H  H20  1  0.60567000  0.01901000  0.18104000  1.0
  H  H21  1  0.39434000  0.98099000  0.81896000  1.0
  H  H22  1  0.52249000  0.36444000  0.14717000  1.0
  H  H23  1  0.47751000  0.63556000  0.85282000  1.0
  H  H24  1  0.50175000  0.20038000  0.24630000  1.0
  H  H25  1  0.49825000  0.79962000  0.75369000  1.0
  H  H26  1  0.03743000  0.14202000  0.99765000  1.0
  H  H27  1  0.96256000  0.85798000  0.00234000  1.0
  H  H28  1  0.20537000  0.11371000  0.34933000  1.0
  H  H29  1  0.79463000  0.88629000  0.65067000  1.0
  H  H30  1  0.30908000  0.85242000  0.99324000  1.0
  H  H31  1  0.69092000  0.14758000  0.00676000  1.0
  H  H32  1  0.48973000  0.85792000  0.39657000  1.0
  H  H33  1  0.51028000  0.14208000  0.60343000  1.0
  H  H34  1  0.41124000  0.39029000  0.97091000  1.0
  H  H35  1  0.58876000  0.60971000  0.02909000  1.0
  H  H36  1  0.21660000  0.68982000  0.21322000  1.0
  H  H37  1  0.78340000  0.31019000  0.78679000  1.0
  H  H38  1  0.01369000  0.95801000  0.35810000  1.0
  H  H39  1  0.98631000  0.04200000  0.64190000  1.0
  H  H40  1  0.96101000  0.94808000  0.20668000  1.0
  H  H41  1  0.03898000  0.05192000  0.79332000  1.0
  H  H42  1  0.21357000  0.25169000  0.76292000  1.0
  H  H43  1  0.78642000  0.74832000  0.23707000  1.0
  H  H44  1  0.35074000  0.36926000  0.76004000  1.0
  H  H45  1  0.64925000  0.63075000  0.23996000  1.0
  C  C46  1  0.31986000  0.25934000  0.16847000  1.0
  C  C47  1  0.68014000  0.74066000  0.83153000  1.0
  C  C48  1  0.51826000  0.95055000  0.18184000  1.0
  C  C49  1  0.48175000  0.04945000  0.81815000  1.0
  C  C50  1  0.44157000  0.29273000  0.22496000  1.0
  C  C51  1  0.55843000  0.70727000  0.77504000  1.0
  C  C52  1  0.11616000  0.17539000  0.04555000  1.0
  C  C53  1  0.88383000  0.82461000  0.95445000  1.0
  C  C54  1  0.20914000  0.16179000  0.24391000  1.0
  C  C55  1  0.79085000  0.83821000  0.75609000  1.0
  C  C56  1  0.10612000  0.12045000  0.18435000  1.0
  C  C57  1  0.89388000  0.87955000  0.81564000  1.0
  C  C58  1  0.22553000  0.27302000  0.96788000  1.0
  C  C59  1  0.77447000  0.72698000  0.03212000  1.0
  C  C60  1  0.35508000  0.85785000  0.07832000  1.0
  C  C61  1  0.64492000  0.14216000  0.92168000  1.0
  C  C62  1  0.46795000  0.95195000  0.06529000  1.0
  C  C63  1  0.53206000  0.04806000  0.93471000  1.0
  C  C64  1  0.45601000  0.85965000  0.30329000  1.0
  C  C65  1  0.54400000  0.14035000  0.69671000  1.0
  C  C66  1  0.32429000  0.31583000  0.03160000  1.0
  C  C67  1  0.67571000  0.68417000  0.96840000  1.0
  C  C68  1  0.30104000  0.76644000  0.20157000  1.0
  C  C69  1  0.69896000  0.23357000  0.79842000  1.0
  C  C70  1  0.98479000  0.01923000  0.26989000  1.0
  C  C71  1  0.01521000  0.98077000  0.73011000  1.0
  C  C72  1  0.23898000  0.32978000  0.81757000  1.0
  C  C73  1  0.76102000  0.67022000  0.18243000  1.0
  N  N74  1  0.35120000  0.76834000  0.31186000  1.0
  N  N75  1  0.64881000  0.23166000  0.68813000  1.0
  O  O76  1  0.77037000  0.17820000  0.20602000  1.0
  O  O77  1  0.22962000  0.82180000  0.79399000  1.0
  O  O78  1  0.15298000  0.57852000  0.87546000  1.0
  O  O79  1  0.84701000  0.42148000  0.12454000  1.0
  O  O80  1  0.32147000  0.49264000  0.37186000  1.0
  O  O81  1  0.67853000  0.50736000  0.62814000  1.0
  O  O82  1  0.83804000  0.20136000  0.42948000  1.0
  O  O83  1  0.16196000  0.79865000  0.57052000  1.0
  O  O84  1  0.28518000  0.24855000  0.50014000  1.0
  O  O85  1  0.71483000  0.75145000  0.49986000  1.0
  O  O86  1  0.95649000  0.41134000  0.86624000  1.0
  O  O87  1  0.04350000  0.58866000  0.13376000  1.0
  O  O88  1  0.68727000  0.99782000  0.40819000  1.0
  O  O89  1  0.31274000  0.00219000  0.59183000  1.0
  O  O90  1  0.54036000  0.35716000  0.42900000  1.0
  O  O91  1  0.45965000  0.64284000  0.57100000  1.0
  O  O92  1  0.13312000  0.51705000  0.64306000  1.0
  O  O93  1  0.86687000  0.48295000  0.35695000  1.0
  O  O94  1  0.97310000  0.67876000  0.45217000  1.0
  O  O95  1  0.02689000  0.32123000  0.54784000  1.0
