# generated using pymatgen
data_CuH14C20N4O5
_symmetry_space_group_name_H-M   'P 1'
_cell_length_a   9.74112000
_cell_length_b   9.90386000
_cell_length_c   11.86474120
_cell_angle_alpha   75.06306900
_cell_angle_beta   66.23902878
_cell_angle_gamma   60.95040000
_symmetry_Int_Tables_number   1
_chemical_formula_structural   CuH14C20N4O5
_chemical_formula_sum   'Cu2 H28 C40 N8 O10'
_cell_volume   913.06582951
_cell_formula_units_Z   2
loop_
 _symmetry_equiv_pos_site_id
 _symmetry_equiv_pos_as_xyz
  1  'x, y, z'
loop_
 _atom_site_type_symbol
 _atom_site_label
 _atom_site_symmetry_multiplicity
 _atom_site_fract_x
 _atom_site_fract_y
 _atom_site_fract_z
 _atom_site_occupancy
  Cu  Cu0  1  0.37594000  0.66089000  0.60258000  1.0
  Cu  Cu1  1  0.62406000  0.33911000  0.39742000  1.0
  H  H2  1  0.88489000  0.27308000  0.08136000  1.0
  H  H3  1  0.11512000  0.72692000  0.91864000  1.0
  H  H4  1  0.30827000  0.40295000  0.81141000  1.0
  H  H5  1  0.69174000  0.59704000  0.18859000  1.0
  H  H6  1  0.03827000  0.50634000  0.82729000  1.0
  H  H7  1  0.96173000  0.49366000  0.17271000  1.0
  H  H8  1  0.29697000  0.14393000  0.58031000  1.0
  H  H9  1  0.70302000  0.85607000  0.41969000  1.0
  H  H10  1  0.97583000  0.08470000  0.94694000  1.0
  H  H11  1  0.02417000  0.91530000  0.05306000  1.0
  H  H12  1  0.18196000  0.36959000  0.01263000  1.0
  H  H13  1  0.81805000  0.63041000  0.98736000  1.0
  H  H14  1  0.45875000  0.91253000  0.40541000  1.0
  H  H15  1  0.54126000  0.08747000  0.59459000  1.0
  H  H16  1  0.64427000  0.59579000  0.72358000  1.0
  H  H17  1  0.35575000  0.40421000  0.27641000  1.0
  H  H18  1  0.10122000  0.19276000  0.18767000  1.0
  H  H19  1  0.89878000  0.80724000  0.81233000  1.0
  H  H20  1  0.67179000  0.38715000  0.93098000  1.0
  H  H21  1  0.32822000  0.61285000  0.06901000  1.0
  H  H22  1  0.68786000  0.12514000  0.01357000  1.0
  H  H23  1  0.31214000  0.87485000  0.98643000  1.0
  H  H24  1  0.60801000  0.94864000  0.18799000  1.0
  H  H25  1  0.39199000  0.05135000  0.81201000  1.0
  H  H26  1  0.12439000  0.93807000  0.24819000  1.0
  H  H27  1  0.87560000  0.06194000  0.75182000  1.0
  H  H28  1  0.13011000  0.72429000  0.45480000  1.0
  H  H29  1  0.86988000  0.27571000  0.54521000  1.0
  C  C30  1  0.40346000  0.42763000  0.81383000  1.0
  C  C31  1  0.59654000  0.57237000  0.18617000  1.0
  C  C32  1  0.17031000  0.33679000  0.69340000  1.0
  C  C33  1  0.82968000  0.66321000  0.30660000  1.0
  C  C34  1  0.19389000  0.93089000  0.74563000  1.0
  C  C35  1  0.80611000  0.06911000  0.25437000  1.0
  C  C36  1  0.06319000  0.39300000  0.80912000  1.0
  C  C37  1  0.93681000  0.60700000  0.19087000  1.0
  C  C38  1  0.99404000  0.30194000  0.90207000  1.0
  C  C39  1  0.00596000  0.69806000  0.09793000  1.0
  C  C40  1  0.43946000  0.25852000  0.00190000  1.0
  C  C41  1  0.56054000  0.74148000  0.99810000  1.0
  C  C42  1  0.26145000  0.42756000  0.60067000  1.0
  C  C43  1  0.73854000  0.57245000  0.39933000  1.0
  C  C44  1  0.14122000  0.09721000  0.76200000  1.0
  C  C45  1  0.85877000  0.90279000  0.23800000  1.0
  C  C46  1  0.20989000  0.18858000  0.66932000  1.0
  C  C47  1  0.79010000  0.81142000  0.33068000  1.0
  C  C48  1  0.03051000  0.15565000  0.87633000  1.0
  C  C49  1  0.96949000  0.84435000  0.12367000  1.0
  C  C50  1  0.27525000  0.27605000  0.05039000  1.0
  C  C51  1  0.72476000  0.72395000  0.94960000  1.0
  C  C52  1  0.37091000  0.88748000  0.39090000  1.0
  C  C53  1  0.62909000  0.11252000  0.60910000  1.0
  C  C54  1  0.34966000  0.06073000  0.19925000  1.0
  C  C55  1  0.65034000  0.93927000  0.80075000  1.0
  C  C56  1  0.57923000  0.52410000  0.77311000  1.0
  C  C57  1  0.42078000  0.47589000  0.22689000  1.0
  C  C58  1  0.22959000  0.17790000  0.14937000  1.0
  C  C59  1  0.77041000  0.82210000  0.85063000  1.0
  C  C60  1  0.59505000  0.42033000  0.87433000  1.0
  C  C61  1  0.40495000  0.57966000  0.12567000  1.0
  C  C62  1  0.55898000  0.14187000  0.05257000  1.0
  C  C63  1  0.44102000  0.85812000  0.94743000  1.0
  C  C64  1  0.51395000  0.04241000  0.15085000  1.0
  C  C65  1  0.48605000  0.95759000  0.84915000  1.0
  C  C66  1  0.19325000  0.89956000  0.31170000  1.0
  C  C67  1  0.80676000  0.10044000  0.68830000  1.0
  C  C68  1  0.19678000  0.79559000  0.41353000  1.0
  C  C69  1  0.80322000  0.20441000  0.58647000  1.0
  N  N70  1  0.45943000  0.52688000  0.73666000  1.0
  N  N71  1  0.54057000  0.47312000  0.26334000  1.0
  N  N72  1  0.48189000  0.36017000  0.89984000  1.0
  N  N73  1  0.51811000  0.63983000  0.10016000  1.0
  N  N74  1  0.30514000  0.95632000  0.29770000  1.0
  N  N75  1  0.69485000  0.04368000  0.70231000  1.0
  N  N76  1  0.30796000  0.78924000  0.46143000  1.0
  N  N77  1  0.69205000  0.21076000  0.53857000  1.0
  O  O78  1  0.33114000  0.86610000  0.66106000  1.0
  O  O79  1  0.66885000  0.13390000  0.33895000  1.0
  O  O80  1  0.22839000  0.55524000  0.63638000  1.0
  O  O81  1  0.77160000  0.44476000  0.36362000  1.0
  O  O82  1  0.36525000  0.36864000  0.50074000  1.0
  O  O83  1  0.63475000  0.63137000  0.49926000  1.0
  O  O84  1  0.09897000  0.86826000  0.81795000  1.0
  O  O85  1  0.90103000  0.13174000  0.18205000  1.0
  O  O86  1  0.89470000  0.35873000  0.01427000  1.0
  O  O87  1  0.10530000  0.64127000  0.98573000  1.0
