# generated using pymatgen
data_AgH7C5N5O2
_symmetry_space_group_name_H-M   'P 1'
_cell_length_a   6.28398000
_cell_length_b   10.47540000
_cell_length_c   11.92640000
_cell_angle_alpha   89.99940000
_cell_angle_beta   90.00000000
_cell_angle_gamma   101.59300000
_symmetry_Int_Tables_number   1
_chemical_formula_structural   AgH7C5N5O2
_chemical_formula_sum   'Ag4 H28 C20 N20 O8'
_cell_volume   769.06575260
_cell_formula_units_Z   4
loop_
 _symmetry_equiv_pos_site_id
 _symmetry_equiv_pos_as_xyz
  1  'x, y, z'
loop_
 _atom_site_type_symbol
 _atom_site_label
 _atom_site_symmetry_multiplicity
 _atom_site_fract_x
 _atom_site_fract_y
 _atom_site_fract_z
 _atom_site_occupancy
  Ag  Ag0  1  0.93129000  0.61311000  0.62379000  1.0
  Ag  Ag1  1  0.06871000  0.88689000  0.12379000  1.0
  Ag  Ag2  1  0.06863000  0.38689000  0.37623000  1.0
  Ag  Ag3  1  0.93136000  0.11312000  0.87623000  1.0
  H  H4  1  0.63112000  0.40610000  0.72811000  1.0
  H  H5  1  0.36890000  0.09390000  0.22812000  1.0
  H  H6  1  0.36890000  0.59387000  0.27189000  1.0
  H  H7  1  0.63109000  0.90613000  0.77190000  1.0
  H  H8  1  0.64147000  0.25437000  0.79218000  1.0
  H  H9  1  0.35854000  0.24563000  0.29219000  1.0
  H  H10  1  0.35857000  0.74561000  0.20782000  1.0
  H  H11  1  0.64143000  0.75439000  0.70782000  1.0
  H  H12  1  0.46499000  0.38177000  0.02305000  1.0
  H  H13  1  0.53502000  0.11823000  0.52307000  1.0
  H  H14  1  0.53507000  0.61825000  0.97693000  1.0
  H  H15  1  0.46494000  0.88175000  0.47694000  1.0
  H  H16  1  0.27469000  0.23262000  0.99544000  1.0
  H  H17  1  0.72531000  0.26738000  0.49545000  1.0
  H  H18  1  0.72537000  0.76740000  0.00455000  1.0
  H  H19  1  0.27463000  0.73261000  0.50456000  1.0
  H  H20  1  0.35405000  0.77309000  0.90538000  1.0
  H  H21  1  0.64594000  0.72691000  0.40538000  1.0
  H  H22  1  0.64594000  0.22692000  0.09462000  1.0
  H  H23  1  0.35404000  0.27308000  0.59460000  1.0
  H  H24  1  0.08023000  0.78258000  0.87346000  1.0
  H  H25  1  0.91977000  0.71741000  0.37347000  1.0
  H  H26  1  0.91976000  0.21742000  0.12653000  1.0
  H  H27  1  0.08023000  0.28258000  0.62653000  1.0
  H  H28  1  0.25990000  0.76489000  0.76327000  1.0
  H  H29  1  0.74010000  0.73511000  0.26327000  1.0
  H  H30  1  0.74009000  0.23511000  0.23672000  1.0
  H  H31  1  0.25992000  0.26489000  0.73672000  1.0
  C  C32  1  0.89983000  0.40526000  0.82158000  1.0
  C  C33  1  0.10018000  0.09475000  0.32158000  1.0
  C  C34  1  0.10020000  0.59474000  0.17842000  1.0
  C  C35  1  0.89981000  0.90526000  0.67842000  1.0
  C  C36  1  0.19481000  0.39852000  0.93369000  1.0
  C  C37  1  0.80518000  0.10148000  0.43370000  1.0
  C  C38  1  0.80523000  0.60150000  0.06630000  1.0
  C  C39  1  0.19477000  0.89851000  0.56631000  1.0
  C  C40  1  0.14934000  0.59215000  0.85918000  1.0
  C  C41  1  0.85066000  0.90785000  0.35919000  1.0
  C  C42  1  0.85067000  0.40786000  0.14081000  1.0
  C  C43  1  0.14933000  0.09214000  0.64081000  1.0
  C  C44  1  0.21658000  0.73676000  0.85015000  1.0
  C  C45  1  0.78342000  0.76324000  0.35014000  1.0
  C  C46  1  0.78341000  0.26324000  0.14985000  1.0
  C  C47  1  0.21658000  0.23676000  0.64985000  1.0
  C  C48  1  0.42991000  0.53399000  0.54158000  1.0
  C  C49  1  0.57009000  0.96601000  0.04157000  1.0
  C  C50  1  0.57002000  0.46602000  0.45842000  1.0
  C  C51  1  0.42997000  0.03398000  0.95841000  1.0
  N  N52  1  0.97315000  0.53437000  0.80078000  1.0
  N  N53  1  0.02685000  0.96563000  0.30078000  1.0
  N  N54  1  0.02685000  0.46562000  0.19923000  1.0
  N  N55  1  0.97314000  0.03438000  0.69923000  1.0
  N  N56  1  0.00763000  0.33333333  0.88627000  1.0
  N  N57  1  0.99238000  0.16664000  0.38628000  1.0
  N  N58  1  0.99242000  0.66666667  0.11373000  1.0
  N  N59  1  0.00758000  0.83336000  0.61373000  1.0
  N  N60  1  0.26445000  0.53013000  0.92604000  1.0
  N  N61  1  0.73555000  0.96986000  0.42604000  1.0
  N  N62  1  0.73559000  0.46988000  0.07395000  1.0
  N  N63  1  0.26442000  0.03012000  0.57396000  1.0
  N  N64  1  0.71224000  0.34844000  0.77345000  1.0
  N  N65  1  0.28777000  0.15156000  0.27346000  1.0
  N  N66  1  0.28778000  0.65154000  0.22655000  1.0
  N  N67  1  0.71220000  0.84846000  0.72656000  1.0
  N  N68  1  0.31676000  0.33240000  0.99198000  1.0
  N  N69  1  0.68325000  0.16760000  0.49199000  1.0
  N  N70  1  0.68330000  0.66761000  0.00801000  1.0
  N  N71  1  0.31671000  0.83238000  0.50802000  1.0
  O  O72  1  0.50593000  0.56764000  0.63727000  1.0
  O  O73  1  0.49407000  0.93236000  0.13727000  1.0
  O  O74  1  0.49404000  0.43240000  0.36271000  1.0
  O  O75  1  0.50595000  0.06759000  0.86270000  1.0
  O  O76  1  0.24699000  0.55101000  0.50394000  1.0
  O  O77  1  0.75300000  0.94899000  0.00393000  1.0
  O  O78  1  0.75290000  0.44895000  0.49607000  1.0
  O  O79  1  0.24709000  0.05104000  0.99607000  1.0
