# generated using pymatgen
data_CoSiH24C20(N4F3)2
_symmetry_space_group_name_H-M   'P 1'
_cell_length_a   7.92907000
_cell_length_b   11.95390000
_cell_length_c   12.59400000
_cell_angle_alpha   90.00000000
_cell_angle_beta   90.00000000
_cell_angle_gamma   90.00000000
_symmetry_Int_Tables_number   1
_chemical_formula_structural   CoSiH24C20(N4F3)2
_chemical_formula_sum   'Co2 Si2 H48 C40 N16 F12'
_cell_volume   1193.70100454
_cell_formula_units_Z   2
loop_
 _symmetry_equiv_pos_site_id
 _symmetry_equiv_pos_as_xyz
  1  'x, y, z'
loop_
 _atom_site_type_symbol
 _atom_site_label
 _atom_site_symmetry_multiplicity
 _atom_site_fract_x
 _atom_site_fract_y
 _atom_site_fract_z
 _atom_site_occupancy
  Co  Co0  1  0.74497000  0.25000000  0.25000000  1.0
  Co  Co1  1  0.25503000  0.75000000  0.75000000  1.0
  Si  Si2  1  0.24663000  0.25000000  0.25000000  1.0
  Si  Si3  1  0.75337000  0.75000000  0.75000000  1.0
  H  H4  1  0.01741000  0.07135000  0.19968000  1.0
  H  H5  1  0.52449000  0.80097000  0.57595000  1.0
  H  H6  1  0.01740000  0.42866000  0.30032000  1.0
  H  H7  1  0.52449000  0.69903000  0.92405000  1.0
  H  H8  1  0.98260000  0.92866000  0.80032000  1.0
  H  H9  1  0.47551000  0.19903000  0.42405000  1.0
  H  H10  1  0.98260000  0.57134000  0.69968000  1.0
  H  H11  1  0.47551000  0.30097000  0.07594000  1.0
  H  H12  1  0.49611000  0.07832000  0.13085000  1.0
  H  H13  1  0.00268000  0.87106000  0.58693000  1.0
  H  H14  1  0.49610000  0.42168000  0.36915000  1.0
  H  H15  1  0.00268000  0.62894000  0.91307000  1.0
  H  H16  1  0.50390000  0.92168000  0.86915000  1.0
  H  H17  1  0.99732000  0.12893000  0.41306000  1.0
  H  H18  1  0.50390000  0.57832000  0.63085000  1.0
  H  H19  1  0.99732000  0.37107000  0.08693000  1.0
  H  H20  1  0.63841000  0.88615000  0.03983000  1.0
  H  H21  1  0.13676000  0.95732000  0.39757000  1.0
  H  H22  1  0.63840000  0.61385000  0.46017000  1.0
  H  H23  1  0.13675000  0.54269000  0.10243000  1.0
  H  H24  1  0.36159000  0.11384000  0.96017000  1.0
  H  H25  1  0.86324000  0.04268000  0.60243000  1.0
  H  H26  1  0.36159000  0.38615000  0.53983000  1.0
  H  H27  1  0.86324000  0.45733000  0.89757000  1.0
  H  H28  1  0.93318000  0.81076000  0.02681000  1.0
  H  H29  1  0.42293000  0.96699000  0.31936000  1.0
  H  H30  1  0.93317000  0.68923000  0.47319000  1.0
  H  H31  1  0.42294000  0.53301000  0.18064000  1.0
  H  H32  1  0.06683000  0.18924000  0.97319000  1.0
  H  H33  1  0.57706000  0.03300000  0.68064000  1.0
  H  H34  1  0.06683000  0.31077000  0.52681000  1.0
  H  H35  1  0.57706000  0.46700000  0.81936000  1.0
  H  H36  1  0.22904000  0.80853000  0.08572000  1.0
  H  H37  1  0.71955000  0.90689000  0.31197000  1.0
  H  H38  1  0.22904000  0.69146000  0.41428000  1.0
  H  H39  1  0.71956000  0.59310000  0.18803000  1.0
  H  H40  1  0.77096000  0.19147000  0.91428000  1.0
  H  H41  1  0.28044000  0.09311000  0.68803000  1.0
  H  H42  1  0.77096000  0.30853000  0.58572000  1.0
  H  H43  1  0.28044000  0.40690000  0.81197000  1.0
  H  H44  1  0.19533000  0.93601000  0.16792000  1.0
  H  H45  1  0.69677000  0.82919000  0.43937000  1.0
  H  H46  1  0.19532000  0.56399000  0.33208000  1.0
  H  H47  1  0.69676000  0.67081000  0.06063000  1.0
  H  H48  1  0.80467000  0.06399000  0.83208000  1.0
  H  H49  1  0.30324000  0.17081000  0.56062000  1.0
  H  H50  1  0.80467000  0.43600000  0.66792000  1.0
  H  H51  1  0.30324000  0.32920000  0.93938000  1.0
  C  C52  1  0.89412000  0.04764000  0.17026000  1.0
  C  C53  1  0.40006000  0.83042000  0.55391000  1.0
  C  C54  1  0.89412000  0.45236000  0.32974000  1.0
  C  C55  1  0.40006000  0.66958000  0.94609000  1.0
  C  C56  1  0.10588000  0.95236000  0.82974000  1.0
  C  C57  1  0.59994000  0.16958000  0.44609000  1.0
  C  C58  1  0.10588000  0.54764000  0.67026000  1.0
  C  C59  1  0.59994000  0.33042000  0.05390000  1.0
  C  C60  1  0.62500000  0.04803000  0.13064000  1.0
  C  C61  1  0.13061000  0.87107000  0.55656000  1.0
  C  C62  1  0.62499000  0.45197000  0.36936000  1.0
  C  C63  1  0.13061000  0.62893000  0.94344000  1.0
  C  C64  1  0.37501000  0.95197000  0.86936000  1.0
  C  C65  1  0.86938000  0.12892000  0.44343000  1.0
  C  C66  1  0.37500000  0.54803000  0.63064000  1.0
  C  C67  1  0.86939000  0.37108000  0.05656000  1.0
  C  C68  1  0.69267000  0.95278000  0.08692000  1.0
  C  C69  1  0.19407000  0.91252000  0.46298000  1.0
  C  C70  1  0.69266000  0.54722000  0.41308000  1.0
  C  C71  1  0.19407000  0.58748000  0.03702000  1.0
  C  C72  1  0.30734000  0.04723000  0.91308000  1.0
  C  C73  1  0.80592000  0.08747000  0.53701000  1.0
  C  C74  1  0.30733000  0.45278000  0.58692000  1.0
  C  C75  1  0.80593000  0.41254000  0.96298000  1.0
  C  C76  1  0.98354000  0.87233000  0.08213000  1.0
  C  C77  1  0.47900000  0.91340000  0.37981000  1.0
  C  C78  1  0.98353000  0.62767000  0.41788000  1.0
  C  C79  1  0.47900000  0.58660000  0.12019000  1.0
  C  C80  1  0.01647000  0.12767000  0.91788000  1.0
  C  C81  1  0.52099000  0.08660000  0.62019000  1.0
  C  C82  1  0.01647000  0.37233000  0.58212000  1.0
  C  C83  1  0.52100000  0.41341000  0.87981000  1.0
  C  C84  1  0.14391000  0.87281000  0.11463000  1.0
  C  C85  1  0.63985000  0.88033000  0.37742000  1.0
  C  C86  1  0.14390000  0.62719000  0.38537000  1.0
  C  C87  1  0.63985000  0.61967000  0.12258000  1.0
  C  C88  1  0.85610000  0.12719000  0.88537000  1.0
  C  C89  1  0.36015000  0.11967000  0.62258000  1.0
  C  C90  1  0.85610000  0.37281000  0.61462000  1.0
  C  C91  1  0.36015000  0.38034000  0.87742000  1.0
  N  N92  1  0.75254000  0.10616000  0.18198000  1.0
  N  N93  1  0.26078000  0.82051000  0.61229000  1.0
  N  N94  1  0.75253000  0.39385000  0.31802000  1.0
  N  N95  1  0.26078000  0.67949000  0.88771000  1.0
  N  N96  1  0.24747000  0.89385000  0.81802000  1.0
  N  N97  1  0.73922000  0.17948000  0.38770000  1.0
  N  N98  1  0.24747000  0.60615000  0.68199000  1.0
  N  N99  1  0.73922000  0.32052000  0.11229000  1.0
  N  N100  1  0.86281000  0.95316000  0.11290000  1.0
  N  N101  1  0.36435000  0.88578000  0.46179000  1.0
  N  N102  1  0.86280000  0.54684000  0.38710000  1.0
  N  N103  1  0.36435000  0.61422000  0.03821000  1.0
  N  N104  1  0.13720000  0.04684000  0.88710000  1.0
  N  N105  1  0.63565000  0.11421000  0.53821000  1.0
  N  N106  1  0.13720000  0.45316000  0.61290000  1.0
  N  N107  1  0.63566000  0.38579000  0.96179000  1.0
  F  F108  1  0.46265000  0.25000000  0.24999000  1.0
  F  F109  1  0.96953000  0.75000000  0.75002000  1.0
  F  F110  1  0.53735000  0.74999000  0.74999000  1.0
  F  F111  1  0.03048000  0.25000000  0.25002000  1.0
  F  F112  1  0.24500000  0.39120000  0.22313000  1.0
  F  F113  1  0.75190000  0.77821000  0.88403000  1.0
  F  F114  1  0.24500000  0.10880000  0.27686000  1.0
  F  F115  1  0.75194000  0.72178000  0.61599000  1.0
  F  F116  1  0.75500000  0.60880000  0.77687000  1.0
  F  F117  1  0.24806000  0.22179000  0.11598000  1.0
  F  F118  1  0.75500000  0.89119000  0.72314000  1.0
  F  F119  1  0.24810000  0.27821000  0.38402000  1.0
