# generated using pymatgen
data_CdH22C32(N2O)4
_symmetry_space_group_name_H-M   'P 1'
_cell_length_a   8.80301000
_cell_length_b   14.01170000
_cell_length_c   14.37000000
_cell_angle_alpha   90.00000000
_cell_angle_beta   90.00000000
_cell_angle_gamma   107.73600000
_symmetry_Int_Tables_number   1
_chemical_formula_structural   CdH22C32(N2O)4
_chemical_formula_sum   'Cd2 H44 C64 N16 O8'
_cell_volume   1688.22458055
_cell_formula_units_Z   2
loop_
 _symmetry_equiv_pos_site_id
 _symmetry_equiv_pos_as_xyz
  1  'x, y, z'
loop_
 _atom_site_type_symbol
 _atom_site_label
 _atom_site_symmetry_multiplicity
 _atom_site_fract_x
 _atom_site_fract_y
 _atom_site_fract_z
 _atom_site_occupancy
  Cd  Cd0  1  0.50000000  0.50000000  0.00000000  1.0
  Cd  Cd1  1  0.00000000  0.50001000  0.50000000  1.0
  H  H2  1  0.88477000  0.59504000  0.31218000  1.0
  H  H3  1  0.61521000  0.40496000  0.81218000  1.0
  H  H4  1  0.11523000  0.40496000  0.68782000  1.0
  H  H5  1  0.38477000  0.59504000  0.18781000  1.0
  H  H6  1  0.97902000  0.75225000  0.21556000  1.0
  H  H7  1  0.52096000  0.24775000  0.71556000  1.0
  H  H8  1  0.02099000  0.24774000  0.78443000  1.0
  H  H9  1  0.47902000  0.75224000  0.28444000  1.0
  H  H10  1  0.22990000  0.88429000  0.26119000  1.0
  H  H11  1  0.27008000  0.11571000  0.76119000  1.0
  H  H12  1  0.77011000  0.11570000  0.73880000  1.0
  H  H13  1  0.72991000  0.88428000  0.23881000  1.0
  H  H14  1  0.62213000  0.89350000  0.50136000  1.0
  H  H15  1  0.87787000  0.10651000  0.00137000  1.0
  H  H16  1  0.37786000  0.10650000  0.49864000  1.0
  H  H17  1  0.12214000  0.89349000  0.99864000  1.0
  H  H18  1  0.51834000  0.73305000  0.58540000  1.0
  H  H19  1  0.98167000  0.26695000  0.08541000  1.0
  H  H20  1  0.48166000  0.26695000  0.41460000  1.0
  H  H21  1  0.01834000  0.73305000  0.91459000  1.0
  H  H22  1  0.62234000  0.00445000  0.39132000  1.0
  H  H23  1  0.87764000  0.99556000  0.89132000  1.0
  H  H24  1  0.37766000  0.99556000  0.60868000  1.0
  H  H25  1  0.12236000  0.00444000  0.10868000  1.0
  H  H26  1  0.77472000  0.26739000  0.29581000  1.0
  H  H27  1  0.72528000  0.73261000  0.79582000  1.0
  H  H28  1  0.22526000  0.73261000  0.70419000  1.0
  H  H29  1  0.27474000  0.26738000  0.20421000  1.0
  H  H30  1  0.93551000  0.43944000  0.24848000  1.0
  H  H31  1  0.56451000  0.56057000  0.74848000  1.0
  H  H32  1  0.06448000  0.56057000  0.75152000  1.0
  H  H33  1  0.43552000  0.43943000  0.25154000  1.0
  H  H34  1  0.83562000  0.52452000  0.11825000  1.0
  H  H35  1  0.66438000  0.47549000  0.61824000  1.0
  H  H36  1  0.16438000  0.47549000  0.88175000  1.0
  H  H37  1  0.33562000  0.52451000  0.38177000  1.0
  H  H38  1  0.44654000  0.27287000  0.07503000  1.0
  H  H39  1  0.05346000  0.72714000  0.57502000  1.0
  H  H40  1  0.55346000  0.72713000  0.92497000  1.0
  H  H41  1  0.94654000  0.27286000  0.42498000  1.0
  H  H42  1  0.65846000  0.11796000  0.29034000  1.0
  H  H43  1  0.84154000  0.88205000  0.79033000  1.0
  H  H44  1  0.34153000  0.88204000  0.70965000  1.0
  H  H45  1  0.15847000  0.11795000  0.20967000  1.0
  C  C46  1  0.99605000  0.65348000  0.32808000  1.0
  C  C47  1  0.50394000  0.34652000  0.82808000  1.0
  C  C48  1  0.00397000  0.34651000  0.67192000  1.0
  C  C49  1  0.49604000  0.65348000  0.17192000  1.0
  C  C50  1  0.04807000  0.74160000  0.27524000  1.0
  C  C51  1  0.45192000  0.25840000  0.77524000  1.0
  C  C52  1  0.95194000  0.25839000  0.72475000  1.0
  C  C53  1  0.54807000  0.74160000  0.22476000  1.0
  C  C54  1  0.18708000  0.81455000  0.30014000  1.0
  C  C55  1  0.31291000  0.18546000  0.80015000  1.0
  C  C56  1  0.81292000  0.18545000  0.69985000  1.0
  C  C57  1  0.68708000  0.81454000  0.19985000  1.0
  C  C58  1  0.27742000  0.79941000  0.37743000  1.0
  C  C59  1  0.22257000  0.20059000  0.87744000  1.0
  C  C60  1  0.72259000  0.20059000  0.62257000  1.0
  C  C61  1  0.77741000  0.79940000  0.12257000  1.0
  C  C62  1  0.21761000  0.70609000  0.42580000  1.0
  C  C63  1  0.28239000  0.29391000  0.92581000  1.0
  C  C64  1  0.78239000  0.29391000  0.57420000  1.0
  C  C65  1  0.71760000  0.70609000  0.07419000  1.0
  C  C66  1  0.42607000  0.86949000  0.40623000  1.0
  C  C67  1  0.07392000  0.13051000  0.90623000  1.0
  C  C68  1  0.57393000  0.13051000  0.59377000  1.0
  C  C69  1  0.92608000  0.86948000  0.09377000  1.0
  C  C70  1  0.50779000  0.84110000  0.48025000  1.0
  C  C71  1  0.99221000  0.15890000  0.98026000  1.0
  C  C72  1  0.49221000  0.15890000  0.51975000  1.0
  C  C73  1  0.00779000  0.84110000  0.01975000  1.0
  C  C74  1  0.45037000  0.75109000  0.52821000  1.0
  C  C75  1  0.04963000  0.24891000  0.02823000  1.0
  C  C76  1  0.54964000  0.24891000  0.47178000  1.0
  C  C77  1  0.95038000  0.75109000  0.97178000  1.0
  C  C78  1  0.30244000  0.68035000  0.50545000  1.0
  C  C79  1  0.19756000  0.31965000  0.00547000  1.0
  C  C80  1  0.69757000  0.31966000  0.49455000  1.0
  C  C81  1  0.80244000  0.68035000  0.99454000  1.0
  C  C82  1  0.50281000  0.96530000  0.36408000  1.0
  C  C83  1  0.99717000  0.03470000  0.86409000  1.0
  C  C84  1  0.49717000  0.03470000  0.63591000  1.0
  C  C85  1  0.00284000  0.96529000  0.13592000  1.0
  C  C86  1  0.48730000  0.15318000  0.20791000  1.0
  C  C87  1  0.01270000  0.84684000  0.70791000  1.0
  C  C88  1  0.51269000  0.84683000  0.79209000  1.0
  C  C89  1  0.98731000  0.15317000  0.29210000  1.0
  C  C90  1  0.59926000  0.25467000  0.18647000  1.0
  C  C91  1  0.90073000  0.74534000  0.68647000  1.0
  C  C92  1  0.40073000  0.74534000  0.81353000  1.0
  C  C93  1  0.09928000  0.25466000  0.31354000  1.0
  C  C94  1  0.73748000  0.30346000  0.23671000  1.0
  C  C95  1  0.76252000  0.69654000  0.73671000  1.0
  C  C96  1  0.26251000  0.69654000  0.76329000  1.0
  C  C97  1  0.23749000  0.30345000  0.26330000  1.0
  C  C98  1  0.82649000  0.40035000  0.21129000  1.0
  C  C99  1  0.67352000  0.59966000  0.71129000  1.0
  C  C100  1  0.17351000  0.59966000  0.78871000  1.0
  C  C101  1  0.32650000  0.40034000  0.28872000  1.0
  C  C102  1  0.77178000  0.44790000  0.13936000  1.0
  C  C103  1  0.72823000  0.55210000  0.63935000  1.0
  C  C104  1  0.22822000  0.55210000  0.86064000  1.0
  C  C105  1  0.27179000  0.44789000  0.36066000  1.0
  C  C106  1  0.55475000  0.30826000  0.11456000  1.0
  C  C107  1  0.94526000  0.69175000  0.61456000  1.0
  C  C108  1  0.44525000  0.69174000  0.88543000  1.0
  C  C109  1  0.05474000  0.30825000  0.38544000  1.0
  N  N110  1  0.07907000  0.63672000  0.40016000  1.0
  N  N111  1  0.42093000  0.36328000  0.90016000  1.0
  N  N112  1  0.92093000  0.36329000  0.59984000  1.0
  N  N113  1  0.57906000  0.63671000  0.09983000  1.0
  N  N114  1  0.63636000  0.40285000  0.09262000  1.0
  N  N115  1  0.86364000  0.59716000  0.59261000  1.0
  N  N116  1  0.36363000  0.59716000  0.90738000  1.0
  N  N117  1  0.13635000  0.40284000  0.40739000  1.0
  N  N118  1  0.44161000  0.00641000  0.29827000  1.0
  N  N119  1  0.05838000  0.99359000  0.79827000  1.0
  N  N120  1  0.55839000  0.99359000  0.70173000  1.0
  N  N121  1  0.94162000  0.00641000  0.20173000  1.0
  N  N122  1  0.54005000  0.09706000  0.26893000  1.0
  N  N123  1  0.95994000  0.90295000  0.76893000  1.0
  N  N124  1  0.45994000  0.90294000  0.73106000  1.0
  N  N125  1  0.04007000  0.09705000  0.23107000  1.0
  O  O126  1  0.24455000  0.59796000  0.55137000  1.0
  O  O127  1  0.25545000  0.40204000  0.05138000  1.0
  O  O128  1  0.75546000  0.40204000  0.44863000  1.0
  O  O129  1  0.74454000  0.59796000  0.94862000  1.0
  O  O130  1  0.35111000  0.12582000  0.17171000  1.0
  O  O131  1  0.14890000  0.87419000  0.67172000  1.0
  O  O132  1  0.64890000  0.87418000  0.82828000  1.0
  O  O133  1  0.85109000  0.12582000  0.32827000  1.0
