# generated using pymatgen
data_MnH6C8O7F4
_symmetry_space_group_name_H-M   'P 1'
_cell_length_a   5.92236000
_cell_length_b   7.40398000
_cell_length_c   13.55620000
_cell_angle_alpha   97.34470000
_cell_angle_beta   95.51280000
_cell_angle_gamma   98.51750000
_symmetry_Int_Tables_number   1
_chemical_formula_structural   MnH6C8O7F4
_chemical_formula_sum   'Mn2 H12 C16 O14 F8'
_cell_volume   579.02529664
_cell_formula_units_Z   2
loop_
 _symmetry_equiv_pos_site_id
 _symmetry_equiv_pos_as_xyz
  1  'x, y, z'
loop_
 _atom_site_type_symbol
 _atom_site_label
 _atom_site_symmetry_multiplicity
 _atom_site_fract_x
 _atom_site_fract_y
 _atom_site_fract_z
 _atom_site_occupancy
  Mn  Mn0  1  0.88627000  0.73005000  0.38287000  1.0
  Mn  Mn1  1  0.11375000  0.26996000  0.61713000  1.0
  H  H2  1  0.55732000  0.94810000  0.36210000  1.0
  H  H3  1  0.44269000  0.05190000  0.63790000  1.0
  H  H4  1  0.43403000  0.74857000  0.38136000  1.0
  H  H5  1  0.56597000  0.25145000  0.61864000  1.0
  H  H6  1  0.20327000  0.50613000  0.43603000  1.0
  H  H7  1  0.79673000  0.49390000  0.56397000  1.0
  H  H8  1  0.26961000  0.70749000  0.50314000  1.0
  H  H9  1  0.73039000  0.29252000  0.49685000  1.0
  H  H10  1  0.99924000  0.57222000  0.19438000  1.0
  H  H11  1  0.00078000  0.42779000  0.80561000  1.0
  H  H12  1  0.20946000  0.72130000  0.24318000  1.0
  H  H13  1  0.79056000  0.27870000  0.75681000  1.0
  C  C14  1  0.59321000  0.31313000  0.33596000  1.0
  C  C15  1  0.40678000  0.68687000  0.66404000  1.0
  C  C16  1  0.38721000  0.28071000  0.25838000  1.0
  C  C17  1  0.61277000  0.71927000  0.74163000  1.0
  C  C18  1  0.40689000  0.32551000  0.16231000  1.0
  C  C19  1  0.59307000  0.67447000  0.83771000  1.0
  C  C20  1  0.22282000  0.27769000  0.08638000  1.0
  C  C21  1  0.77716000  0.72228000  0.91361000  1.0
  C  C22  1  0.01629000  0.18193000  0.10718000  1.0
  C  C23  1  0.98370000  0.81808000  0.89284000  1.0
  C  C24  1  0.99512000  0.13710000  0.20324000  1.0
  C  C25  1  0.00491000  0.86288000  0.79676000  1.0
  C  C26  1  0.17528000  0.18890000  0.28021000  1.0
  C  C27  1  0.82472000  0.81107000  0.71980000  1.0
  C  C28  1  0.14483000  0.14952000  0.38594000  1.0
  C  C29  1  0.85518000  0.85048000  0.61407000  1.0
  O  O30  1  0.74159000  0.45625000  0.33947000  1.0
  O  O31  1  0.25842000  0.54376000  0.66052000  1.0
  O  O32  1  0.60692000  0.19051000  0.39299000  1.0
  O  O33  1  0.39309000  0.80950000  0.60699000  1.0
  O  O34  1  0.17508000  0.28738000  0.45531000  1.0
  O  O35  1  0.82493000  0.71266000  0.54468000  1.0
  O  O36  1  0.09180000  0.98438000  0.39910000  1.0
  O  O37  1  0.90819000  0.01561000  0.60092000  1.0
  O  O38  1  0.55527000  0.81297000  0.34504000  1.0
  O  O39  1  0.44474000  0.18703000  0.65496000  1.0
  O  O40  1  0.21777000  0.64188000  0.43218000  1.0
  O  O41  1  0.78223000  0.35814000  0.56782000  1.0
  O  O42  1  0.04148000  0.69799000  0.22919000  1.0
  O  O43  1  0.95854000  0.30202000  0.77081000  1.0
  F  F44  1  0.60758000  0.40948000  0.13684000  1.0
  F  F45  1  0.39236000  0.59050000  0.86315000  1.0
  F  F46  1  0.24569000  0.31779000  0.99347000  1.0
  F  F47  1  0.75426000  0.68222000  0.00651000  1.0
  F  F48  1  0.83861000  0.13105000  0.03422000  1.0
  F  F49  1  0.16140000  0.86892000  0.96579000  1.0
  F  F50  1  0.79055000  0.04319000  0.21781000  1.0
  F  F51  1  0.20951000  0.95679000  0.78219000  1.0
