# generated using pymatgen
data_FeH22(C5N2)6
_symmetry_space_group_name_H-M   'P 1'
_cell_length_a   9.17462000
_cell_length_b   16.75800000
_cell_length_c   16.75820000
_cell_angle_alpha   116.76200000
_cell_angle_beta   100.50400000
_cell_angle_gamma   100.51400000
_symmetry_Int_Tables_number   1
_chemical_formula_structural   FeH22(C5N2)6
_chemical_formula_sum   'Fe3 H66 C90 N36'
_cell_volume   2156.84983967
_cell_formula_units_Z   3
loop_
 _symmetry_equiv_pos_site_id
 _symmetry_equiv_pos_as_xyz
  1  'x, y, z'
loop_
 _atom_site_type_symbol
 _atom_site_label
 _atom_site_symmetry_multiplicity
 _atom_site_fract_x
 _atom_site_fract_y
 _atom_site_fract_z
 _atom_site_occupancy
  Fe  Fe0  1  0.50000000  0.00000000  0.50000000  1.0
  Fe  Fe1  1  0.00000000  0.50000000  0.50000000  1.0
  Fe  Fe2  1  0.50000000  0.50000000  0.00000000  1.0
  H  H3  1  0.37220000  0.91896000  0.28595000  1.0
  H  H4  1  0.08622000  0.71408000  0.63303000  1.0
  H  H5  1  0.45344000  0.36688000  0.08087000  1.0
  H  H6  1  0.62780000  0.08104000  0.71405000  1.0
  H  H7  1  0.91378000  0.28592000  0.36697000  1.0
  H  H8  1  0.54656000  0.63312000  0.91913000  1.0
  H  H9  1  0.47222000  0.95854000  0.17469000  1.0
  H  H10  1  0.29755000  0.82543000  0.78386000  1.0
  H  H11  1  0.51388000  0.21596000  0.04103000  1.0
  H  H12  1  0.52778000  0.04147000  0.82531000  1.0
  H  H13  1  0.70244000  0.17457000  0.21614000  1.0
  H  H14  1  0.48612000  0.78404000  0.95897000  1.0
  H  H15  1  0.85996000  0.16396000  0.39432000  1.0
  H  H16  1  0.46539000  0.60576000  0.76980000  1.0
  H  H17  1  0.69611000  0.23050000  0.83572000  1.0
  H  H18  1  0.14004000  0.83605000  0.60568000  1.0
  H  H19  1  0.53461000  0.39425000  0.23020000  1.0
  H  H20  1  0.30390000  0.76950000  0.16428000  1.0
  H  H21  1  0.10879000  0.35571000  0.68106000  1.0
  H  H22  1  0.42792000  0.31910000  0.67445000  1.0
  H  H23  1  0.75284000  0.32565000  0.64437000  1.0
  H  H24  1  0.89121000  0.64428000  0.31894000  1.0
  H  H25  1  0.57208000  0.68090000  0.32555000  1.0
  H  H26  1  0.24715000  0.67435000  0.35562000  1.0
  H  H27  1  0.34058000  0.46983000  0.81362000  1.0
  H  H28  1  0.52692000  0.18652000  0.65616000  1.0
  H  H29  1  0.87044000  0.34395000  0.53019000  1.0
  H  H30  1  0.65942000  0.53016000  0.18637000  1.0
  H  H31  1  0.47308000  0.81348000  0.34384000  1.0
  H  H32  1  0.12955000  0.65605000  0.46981000  1.0
  H  H33  1  0.21840000  0.36506000  0.98240000  1.0
  H  H34  1  0.23555000  0.01741000  0.38267000  1.0
  H  H35  1  0.85280000  0.61753000  0.63477000  1.0
  H  H36  1  0.78160000  0.63495000  0.01760000  1.0
  H  H37  1  0.76445000  0.98259000  0.61734000  1.0
  H  H38  1  0.14720000  0.38248000  0.36524000  1.0
  H  H39  1  0.98124000  0.24545000  0.85505000  1.0
  H  H40  1  0.12587000  0.14476000  0.39028000  1.0
  H  H41  1  0.73513000  0.60987000  0.75437000  1.0
  H  H42  1  0.01876000  0.75455000  0.14496000  1.0
  H  H43  1  0.87413000  0.85525000  0.60972000  1.0
  H  H44  1  0.26488000  0.39012000  0.24563000  1.0
  H  H45  1  0.09084000  0.08431000  0.58830000  1.0
  H  H46  1  0.50295000  0.41135000  0.49557000  1.0
  H  H47  1  0.00672000  0.50379000  0.91565000  1.0
  H  H48  1  0.90918000  0.91570000  0.41171000  1.0
  H  H49  1  0.49704000  0.58864000  0.50442000  1.0
  H  H50  1  0.99328000  0.49621000  0.08434000  1.0
  H  H51  1  0.25508000  0.12952000  0.80572000  1.0
  H  H52  1  0.44865000  0.19380000  0.32314000  1.0
  H  H53  1  0.12555000  0.67603000  0.87045000  1.0
  H  H54  1  0.74493000  0.87048000  0.19429000  1.0
  H  H55  1  0.55132000  0.80618000  0.67684000  1.0
  H  H56  1  0.87446000  0.32398000  0.12956000  1.0
  H  H57  1  0.31162000  0.16966000  0.11017000  1.0
  H  H58  1  0.20058000  0.89026000  0.05889000  1.0
  H  H59  1  0.14218000  0.94120000  0.83161000  1.0
  H  H60  1  0.68837000  0.83032000  0.88983000  1.0
  H  H61  1  0.79941000  0.10972000  0.94110000  1.0
  H  H62  1  0.85783000  0.05879000  0.16838000  1.0
  H  H63  1  0.09085000  0.27964000  0.04208000  1.0
  H  H64  1  0.04916000  0.95756000  0.23756000  1.0
  H  H65  1  0.81207000  0.76258000  0.72017000  1.0
  H  H66  1  0.90917000  0.72034000  0.95792000  1.0
  H  H67  1  0.95084000  0.04244000  0.76243000  1.0
  H  H68  1  0.18792000  0.23743000  0.27983000  1.0
  C  C69  1  0.48178000  0.97325000  0.30974000  1.0
  C  C70  1  0.17196000  0.69032000  0.66357000  1.0
  C  C71  1  0.50871000  0.33644000  0.02656000  1.0
  C  C72  1  0.51822000  0.02675000  0.69026000  1.0
  C  C73  1  0.82803000  0.30968000  0.33643000  1.0
  C  C74  1  0.49129000  0.66356000  0.97344000  1.0
  C  C75  1  0.53789000  0.99700000  0.24887000  1.0
  C  C76  1  0.28897000  0.75122000  0.74816000  1.0
  C  C77  1  0.54113000  0.25183000  0.00270000  1.0
  C  C78  1  0.46211000  0.00300000  0.75113000  1.0
  C  C79  1  0.71102000  0.24879000  0.25184000  1.0
  C  C80  1  0.45887000  0.74817000  0.99730000  1.0
  C  C81  1  0.75043000  0.10869000  0.36843000  1.0
  C  C82  1  0.38181000  0.63164000  0.74037000  1.0
  C  C83  1  0.64196000  0.25985000  0.89106000  1.0
  C  C84  1  0.24956000  0.89131000  0.63157000  1.0
  C  C85  1  0.61818000  0.36837000  0.25963000  1.0
  C  C86  1  0.35805000  0.74015000  0.10894000  1.0
  C  C87  1  0.69702000  0.08651000  0.43103000  1.0
  C  C88  1  0.26589000  0.56903000  0.65555000  1.0
  C  C89  1  0.61074000  0.34465000  0.91339000  1.0
  C  C90  1  0.30298000  0.91349000  0.56897000  1.0
  C  C91  1  0.73411000  0.43098000  0.34445000  1.0
  C  C92  1  0.38926000  0.65535000  0.08661000  1.0
  C  C93  1  0.77083000  0.13195000  0.53004000  1.0
  C  C94  1  0.24078000  0.47001000  0.60191000  1.0
  C  C95  1  0.63912000  0.39835000  0.86808000  1.0
  C  C96  1  0.22917000  0.86806000  0.46996000  1.0
  C  C97  1  0.75922000  0.52999000  0.39810000  1.0
  C  C98  1  0.36088000  0.60164000  0.13192000  1.0
  C  C99  1  0.90193000  0.21576000  0.67170000  1.0
  C  C100  1  0.23031000  0.32833000  0.54389000  1.0
  C  C101  1  0.68605000  0.45628000  0.78429000  1.0
  C  C102  1  0.09806000  0.78424000  0.32830000  1.0
  C  C103  1  0.76969000  0.67168000  0.45611000  1.0
  C  C104  1  0.31395000  0.54372000  0.21571000  1.0
  C  C105  1  0.02617000  0.28866000  0.75507000  1.0
  C  C106  1  0.27115000  0.24496000  0.53341000  1.0
  C  C107  1  0.73715000  0.46671000  0.71133000  1.0
  C  C108  1  0.97382000  0.71134000  0.24493000  1.0
  C  C109  1  0.72885000  0.75504000  0.46659000  1.0
  C  C110  1  0.26284000  0.53329000  0.28866000  1.0
  C  C111  1  0.12877000  0.35574000  0.74691000  1.0
  C  C112  1  0.38193000  0.25314000  0.60867000  1.0
  C  C113  1  0.77267000  0.39143000  0.64425000  1.0
  C  C114  1  0.87122000  0.64425000  0.25308000  1.0
  C  C115  1  0.61807000  0.74686000  0.39134000  1.0
  C  C116  1  0.22732000  0.60857000  0.35574000  1.0
  C  C117  1  0.25873000  0.41979000  0.82110000  1.0
  C  C118  1  0.43758000  0.17895000  0.59859000  1.0
  C  C119  1  0.83861000  0.40152000  0.58020000  1.0
  C  C120  1  0.74128000  0.58021000  0.17890000  1.0
  C  C121  1  0.56242000  0.82105000  0.40141000  1.0
  C  C122  1  0.16139000  0.59848000  0.41979000  1.0
  C  C123  1  0.18971000  0.36073000  0.91438000  1.0
  C  C124  1  0.27505000  0.08552000  0.44632000  1.0
  C  C125  1  0.82848000  0.55383000  0.63912000  1.0
  C  C126  1  0.81029000  0.63927000  0.08563000  1.0
  C  C127  1  0.72494000  0.91448000  0.55368000  1.0
  C  C128  1  0.17152000  0.44617000  0.36088000  1.0
  C  C129  1  0.05652000  0.29462000  0.84313000  1.0
  C  C130  1  0.21321000  0.15678000  0.45139000  1.0
  C  C131  1  0.76135000  0.54875000  0.70526000  1.0
  C  C132  1  0.94347000  0.70537000  0.15686000  1.0
  C  C133  1  0.78680000  0.84322000  0.54861000  1.0
  C  C134  1  0.23865000  0.45125000  0.29475000  1.0
  C  C135  1  0.14259000  0.09602000  0.65685000  1.0
  C  C136  1  0.48578000  0.34275000  0.43868000  1.0
  C  C137  1  0.04665000  0.56062000  0.90391000  1.0
  C  C138  1  0.85742000  0.90398000  0.34316000  1.0
  C  C139  1  0.51420000  0.65724000  0.56131000  1.0
  C  C140  1  0.95335000  0.43938000  0.09609000  1.0
  C  C141  1  0.20223000  0.11372000  0.73576000  1.0
  C  C142  1  0.46612000  0.26380000  0.37737000  1.0
  C  C143  1  0.08855000  0.62185000  0.88622000  1.0
  C  C144  1  0.79778000  0.88629000  0.26425000  1.0
  C  C145  1  0.53386000  0.73618000  0.62262000  1.0
  C  C146  1  0.91146000  0.37815000  0.11378000  1.0
  C  C147  1  0.23853000  0.20260000  0.08656000  1.0
  C  C148  1  0.15157000  0.91357000  0.11569000  1.0
  C  C149  1  0.03638000  0.88443000  0.79814000  1.0
  C  C150  1  0.76147000  0.79738000  0.91344000  1.0
  C  C151  1  0.84842000  0.08642000  0.88430000  1.0
  C  C152  1  0.96363000  0.11557000  0.20186000  1.0
  C  C153  1  0.16096000  0.24312000  0.06189000  1.0
  C  C154  1  0.09909000  0.93795000  0.18106000  1.0
  C  C155  1  0.91853000  0.81906000  0.75711000  1.0
  C  C156  1  0.83905000  0.75687000  0.93811000  1.0
  C  C157  1  0.90091000  0.06204000  0.81893000  1.0
  C  C158  1  0.08147000  0.18094000  0.24289000  1.0
  N  N159  1  0.56068000  0.01757000  0.40145000  1.0
  N  N160  1  0.15912000  0.59859000  0.61617000  1.0
  N  N161  1  0.54329000  0.38395000  0.98235000  1.0
  N  N162  1  0.43932000  0.98243000  0.59855000  1.0
  N  N163  1  0.84088000  0.40142000  0.38383000  1.0
  N  N164  1  0.45671000  0.61605000  0.01765000  1.0
  N  N165  1  0.67185000  0.06416000  0.27704000  1.0
  N  N166  1  0.39461000  0.72303000  0.78723000  1.0
  N  N167  1  0.60782000  0.21288000  0.93545000  1.0
  N  N168  1  0.32816000  0.93584000  0.72296000  1.0
  N  N169  1  0.60539000  0.27697000  0.21277000  1.0
  N  N170  1  0.39218000  0.78712000  0.06455000  1.0
  N  N171  1  0.69653000  0.10022000  0.57814000  1.0
  N  N172  1  0.11826000  0.42189000  0.52210000  1.0
  N  N173  1  0.59635000  0.47816000  0.89989000  1.0
  N  N174  1  0.30347000  0.89979000  0.42186000  1.0
  N  N175  1  0.88174000  0.57811000  0.47791000  1.0
  N  N176  1  0.40365000  0.52184000  0.10011000  1.0
  N  N177  1  0.78072000  0.15356000  0.66964000  1.0
  N  N178  1  0.11105000  0.33042000  0.48384000  1.0
  N  N179  1  0.62697000  0.51635000  0.84655000  1.0
  N  N180  1  0.21927000  0.84644000  0.33036000  1.0
  N  N181  1  0.88895000  0.66958000  0.51616000  1.0
  N  N182  1  0.37303000  0.48365000  0.15344000  1.0
  N  N183  1  0.89981000  0.20407000  0.58559000  1.0
  N  N184  1  0.31430000  0.41445000  0.61835000  1.0
  N  N185  1  0.69587000  0.38186000  0.79593000  1.0
  N  N186  1  0.10019000  0.79593000  0.41441000  1.0
  N  N187  1  0.68569000  0.58555000  0.38165000  1.0
  N  N188  1  0.30414000  0.61814000  0.20406000  1.0
  N  N189  1  0.29348000  0.42143000  0.90393000  1.0
  N  N190  1  0.38944000  0.09599000  0.51745000  1.0
  N  N191  1  0.87178000  0.48269000  0.57848000  1.0
  N  N192  1  0.70652000  0.57857000  0.09607000  1.0
  N  N193  1  0.61057000  0.90401000  0.48255000  1.0
  N  N194  1  0.12821000  0.51731000  0.42152000  1.0
