# generated using pymatgen
data_LaH6C5O8
_symmetry_space_group_name_H-M   'P 1'
_cell_length_a   6.93824000
_cell_length_b   6.93809000
_cell_length_c   17.41520000
_cell_angle_alpha   89.99930000
_cell_angle_beta   90.00000000
_cell_angle_gamma   105.10100000
_symmetry_Int_Tables_number   1
_chemical_formula_structural   LaH6C5O8
_chemical_formula_sum   'La4 H24 C20 O32'
_cell_volume   809.38590208
_cell_formula_units_Z   4
loop_
 _symmetry_equiv_pos_site_id
 _symmetry_equiv_pos_as_xyz
  1  'x, y, z'
loop_
 _atom_site_type_symbol
 _atom_site_label
 _atom_site_symmetry_multiplicity
 _atom_site_fract_x
 _atom_site_fract_y
 _atom_site_fract_z
 _atom_site_occupancy
  La  La0  1  0.58225000  0.76449000  0.08274000  1.0
  La  La1  1  0.91775000  0.23551000  0.58274000  1.0
  La  La2  1  0.41775000  0.23551000  0.91726000  1.0
  La  La3  1  0.08225000  0.76449000  0.41726000  1.0
  H  H4  1  0.16254000  0.47720000  0.05244000  1.0
  H  H5  1  0.33746000  0.52280000  0.55244000  1.0
  H  H6  1  0.83746000  0.52280000  0.94756000  1.0
  H  H7  1  0.66254000  0.47720000  0.44756000  1.0
  H  H8  1  0.08948000  0.64049000  0.10038000  1.0
  H  H9  1  0.41052000  0.35951000  0.60038000  1.0
  H  H10  1  0.91052000  0.35951000  0.89962000  1.0
  H  H11  1  0.58948000  0.64049000  0.39962000  1.0
  H  H12  1  0.45184000  0.06230000  0.29885000  1.0
  H  H13  1  0.04816000  0.93771000  0.79884000  1.0
  H  H14  1  0.54816000  0.93770000  0.70115000  1.0
  H  H15  1  0.95184000  0.06229000  0.20115000  1.0
  H  H16  1  0.68617000  0.01052000  0.31393000  1.0
  H  H17  1  0.81383000  0.98948000  0.81393000  1.0
  H  H18  1  0.31383000  0.98948000  0.68607000  1.0
  H  H19  1  0.18617000  0.01052000  0.18607000  1.0
  H  H20  1  0.75857000  0.34027000  0.17985000  1.0
  H  H21  1  0.74144000  0.65973000  0.67985000  1.0
  H  H22  1  0.24143000  0.65973000  0.82015000  1.0
  H  H23  1  0.25856000  0.34027000  0.32015000  1.0
  H  H24  1  0.51466000  0.29796000  0.21791000  1.0
  H  H25  1  0.98534000  0.70204000  0.71791000  1.0
  H  H26  1  0.48534000  0.70204000  0.78209000  1.0
  H  H27  1  0.01466000  0.29796000  0.28209000  1.0
  C  C28  1  0.55463000  0.98019000  0.27569000  1.0
  C  C29  1  0.94537000  0.01981000  0.77569000  1.0
  C  C30  1  0.44537000  0.01981000  0.72431000  1.0
  C  C31  1  0.05463000  0.98019000  0.22431000  1.0
  C  C32  1  0.45459000  0.75737000  0.27781000  1.0
  C  C33  1  0.04541000  0.24264000  0.77780000  1.0
  C  C34  1  0.54541000  0.24263000  0.72219000  1.0
  C  C35  1  0.95459000  0.75736000  0.22220000  1.0
  C  C36  1  0.60831000  0.23753000  0.17828000  1.0
  C  C37  1  0.89169000  0.76248000  0.67828000  1.0
  C  C38  1  0.39169000  0.76247000  0.82172000  1.0
  C  C39  1  0.10831000  0.23753000  0.32172000  1.0
  C  C40  1  0.52455000  0.23446000  0.09796000  1.0
  C  C41  1  0.97545000  0.76554000  0.59796000  1.0
  C  C42  1  0.47545000  0.76554000  0.90204000  1.0
  C  C43  1  0.02455000  0.23446000  0.40204000  1.0
  C  C44  1  0.99700000  0.09573000  0.02254000  1.0
  C  C45  1  0.50301000  0.90428000  0.52254000  1.0
  C  C46  1  0.00301000  0.90428000  0.97746000  1.0
  C  C47  1  0.49700000  0.09573000  0.47746000  1.0
  O  O48  1  0.60999000  0.03833000  0.19856000  1.0
  O  O49  1  0.89001000  0.96167000  0.69856000  1.0
  O  O50  1  0.39001000  0.96167000  0.80144000  1.0
  O  O51  1  0.10999000  0.03833000  0.30144000  1.0
  O  O52  1  0.45785000  0.65470000  0.21826000  1.0
  O  O53  1  0.04215000  0.34530000  0.71826000  1.0
  O  O54  1  0.54215000  0.34530000  0.78174000  1.0
  O  O55  1  0.95785000  0.65470000  0.28174000  1.0
  O  O56  1  0.37659000  0.69025000  0.34217000  1.0
  O  O57  1  0.12341000  0.30975000  0.84216000  1.0
  O  O58  1  0.62341000  0.30975000  0.65784000  1.0
  O  O59  1  0.87659000  0.69024000  0.15784000  1.0
  O  O60  1  0.53944000  0.39875000  0.06337000  1.0
  O  O61  1  0.96056000  0.60125000  0.56337000  1.0
  O  O62  1  0.46056000  0.60125000  0.93663000  1.0
  O  O63  1  0.03944000  0.39875000  0.43663000  1.0
  O  O64  1  0.44126000  0.06810000  0.06661000  1.0
  O  O65  1  0.05874000  0.93190000  0.56661000  1.0
  O  O66  1  0.55873000  0.93189000  0.93339000  1.0
  O  O67  1  0.94126000  0.06811000  0.43339000  1.0
  O  O68  1  0.85829000  0.08195000  0.07047000  1.0
  O  O69  1  0.64171000  0.91806000  0.57047000  1.0
  O  O70  1  0.14171000  0.91806000  0.92953000  1.0
  O  O71  1  0.35829000  0.08194000  0.42953000  1.0
  O  O72  1  0.13416000  0.25224000  0.00778000  1.0
  O  O73  1  0.36585000  0.74776000  0.50777000  1.0
  O  O74  1  0.86585000  0.74776000  0.99223000  1.0
  O  O75  1  0.63415000  0.25224000  0.49223000  1.0
  O  O76  1  0.20732000  0.61294000  0.07585000  1.0
  O  O77  1  0.29268000  0.38706000  0.57585000  1.0
  O  O78  1  0.79268000  0.38706000  0.92415000  1.0
  O  O79  1  0.70732000  0.61294000  0.42415000  1.0
