# generated using pymatgen
data_MnH16C24N2(ClO2)2
_symmetry_space_group_name_H-M   'P 1'
_cell_length_a   6.92978000
_cell_length_b   12.18770000
_cell_length_c   14.49485134
_cell_angle_alpha   114.84187263
_cell_angle_beta   95.67483142
_cell_angle_gamma   90.05540000
_symmetry_Int_Tables_number   1
_chemical_formula_structural   MnH16C24N2(ClO2)2
_chemical_formula_sum   'Mn2 H32 C48 N4 Cl4 O8'
_cell_volume   1104.26214722
_cell_formula_units_Z   2
loop_
 _symmetry_equiv_pos_site_id
 _symmetry_equiv_pos_as_xyz
  1  'x, y, z'
loop_
 _atom_site_type_symbol
 _atom_site_label
 _atom_site_symmetry_multiplicity
 _atom_site_fract_x
 _atom_site_fract_y
 _atom_site_fract_z
 _atom_site_occupancy
  Mn  Mn0  1  0.24983000  0.38556000  0.99997000  1.0
  Mn  Mn1  1  0.75018000  0.61444000  0.00003000  1.0
  H  H2  1  0.63728000  0.35867000  0.69887000  1.0
  H  H3  1  0.86239000  0.65982000  0.30090000  1.0
  H  H4  1  0.36271000  0.64133000  0.30113000  1.0
  H  H5  1  0.13762000  0.34017000  0.69910000  1.0
  H  H6  1  0.73052000  0.99484000  0.48133000  1.0
  H  H7  1  0.76985000  0.51351000  0.51870000  1.0
  H  H8  1  0.26948000  0.00516000  0.51867000  1.0
  H  H9  1  0.23014000  0.48649000  0.48130000  1.0
  H  H10  1  0.94370000  0.96396000  0.61525000  1.0
  H  H11  1  0.55684000  0.34836000  0.38492000  1.0
  H  H12  1  0.05630000  0.03604000  0.38475000  1.0
  H  H13  1  0.44316000  0.65165000  0.61509000  1.0
  H  H14  1  0.99818000  0.13050000  0.79350000  1.0
  H  H15  1  0.50209000  0.33647000  0.20656000  1.0
  H  H16  1  0.00182000  0.86949000  0.20649000  1.0
  H  H17  1  0.49791000  0.66354000  0.79345000  1.0
  H  H18  1  0.26112000  0.92087000  0.91844000  1.0
  H  H19  1  0.23976000  0.00150000  0.08039000  1.0
  H  H20  1  0.73887000  0.07913000  0.08156000  1.0
  H  H21  1  0.76023000  0.99851000  0.91961000  1.0
  H  H22  1  0.38048000  0.85110000  0.74754000  1.0
  H  H23  1  0.11998000  0.10171000  0.25121000  1.0
  H  H24  1  0.61951000  0.14890000  0.25246000  1.0
  H  H25  1  0.88003000  0.89829000  0.74878000  1.0
  H  H26  1  0.47572000  0.00615000  0.68564000  1.0
  H  H27  1  0.02387000  0.31839000  0.31345000  1.0
  H  H28  1  0.52428000  0.99385000  0.31436000  1.0
  H  H29  1  0.97614000  0.68162000  0.68655000  1.0
  H  H30  1  0.43078000  0.22582000  0.79735000  1.0
  H  H31  1  0.06833000  0.42703000  0.20214000  1.0
  H  H32  1  0.56923000  0.77417000  0.20265000  1.0
  H  H33  1  0.93167000  0.57296000  0.79785000  1.0
  C  C34  1  0.82202000  0.25413000  0.75664000  1.0
  C  C35  1  0.67803000  0.49717000  0.24325000  1.0
  C  C36  1  0.17797000  0.74587000  0.24335000  1.0
  C  C37  1  0.32198000  0.50283000  0.75675000  1.0
  C  C38  1  0.70259000  0.27182000  0.68065000  1.0
  C  C39  1  0.79733000  0.59108000  0.31917000  1.0
  C  C40  1  0.29741000  0.72818000  0.31935000  1.0
  C  C41  1  0.20267000  0.40891000  0.68083000  1.0
  C  C42  1  0.67002000  0.17785000  0.58309000  1.0
  C  C43  1  0.83000000  0.59475000  0.41679000  1.0
  C  C44  1  0.32998000  0.82214000  0.41691000  1.0
  C  C45  1  0.16999000  0.40526000  0.58322000  1.0
  C  C46  1  0.75601000  0.06687000  0.55834000  1.0
  C  C47  1  0.74426000  0.50841000  0.44164000  1.0
  C  C48  1  0.24398000  0.93313000  0.44167000  1.0
  C  C49  1  0.25573000  0.49158000  0.55836000  1.0
  C  C50  1  0.87561000  0.05033000  0.63452000  1.0
  C  C51  1  0.62474000  0.41551000  0.36553000  1.0
  C  C52  1  0.12438000  0.94968000  0.36549000  1.0
  C  C53  1  0.37525000  0.58450000  0.63447000  1.0
  C  C54  1  0.90709000  0.14257000  0.73317000  1.0
  C  C55  1  0.59319000  0.40897000  0.26683000  1.0
  C  C56  1  0.09291000  0.85743000  0.26683000  1.0
  C  C57  1  0.40681000  0.59103000  0.73317000  1.0
  C  C58  1  0.85995000  0.35585000  0.86212000  1.0
  C  C59  1  0.63963000  0.49325000  0.13774000  1.0
  C  C60  1  0.14005000  0.64416000  0.13788000  1.0
  C  C61  1  0.36038000  0.50674000  0.86226000  1.0
  C  C62  1  0.28526000  0.11072000  0.94841000  1.0
  C  C63  1  0.21488000  0.16160000  0.05074000  1.0
  C  C64  1  0.71474000  0.88928000  0.05159000  1.0
  C  C65  1  0.78513000  0.83840000  0.94926000  1.0
  C  C66  1  0.30213000  0.98651000  0.89025000  1.0
  C  C67  1  0.19838000  0.09521000  0.10871000  1.0
  C  C68  1  0.69787000  0.01349000  0.10975000  1.0
  C  C69  1  0.80162000  0.90479000  0.89129000  1.0
  C  C70  1  0.36912000  0.94750000  0.79439000  1.0
  C  C71  1  0.13114000  0.15155000  0.20455000  1.0
  C  C72  1  0.63088000  0.05250000  0.20561000  1.0
  C  C73  1  0.86884000  0.84845000  0.79545000  1.0
  C  C74  1  0.41984000  0.03291000  0.75926000  1.0
  C  C75  1  0.07979000  0.27191000  0.23980000  1.0
  C  C76  1  0.58017000  0.96708000  0.24073000  1.0
  C  C77  1  0.92022000  0.72810000  0.76020000  1.0
  C  C78  1  0.39744000  0.15476000  0.82112000  1.0
  C  C79  1  0.10200000  0.33226000  0.17819000  1.0
  C  C80  1  0.60255000  0.84523000  0.17887000  1.0
  C  C81  1  0.89801000  0.66774000  0.82181000  1.0
  N  N82  1  0.33166000  0.19258000  0.91278000  1.0
  N  N83  1  0.16801000  0.27895000  0.08656000  1.0
  N  N84  1  0.66834000  0.80741000  0.08721000  1.0
  N  N85  1  0.83198000  0.72105000  0.91344000  1.0
  Cl  Cl86  1  0.52092000  0.20105000  0.48967000  1.0
  Cl  Cl87  1  0.97878000  0.71162000  0.51023000  1.0
  Cl  Cl88  1  0.47907000  0.79896000  0.51033000  1.0
  Cl  Cl89  1  0.02121000  0.28838000  0.48977000  1.0
  O  O90  1  0.95419000  0.33477000  0.93185000  1.0
  O  O91  1  0.54527000  0.40232000  0.06818000  1.0
  O  O92  1  0.04583000  0.66524000  0.06815000  1.0
  O  O93  1  0.45474000  0.59769000  0.93183000  1.0
  O  O94  1  0.20782000  0.54260000  0.12755000  1.0
  O  O95  1  0.29281000  0.41552000  0.87276000  1.0
  O  O96  1  0.79218000  0.45741000  0.87246000  1.0
  O  O97  1  0.70720000  0.58448000  0.12724000  1.0
