# generated using pymatgen
data_AlH27C45(SO5)3
_symmetry_space_group_name_H-M   'P 1'
_cell_length_a   4.17959000
_cell_length_b   23.45290000
_cell_length_c   23.52396211
_cell_angle_alpha   119.87690494
_cell_angle_beta   90.02960780
_cell_angle_gamma   91.69410000
_symmetry_Int_Tables_number   1
_chemical_formula_structural   AlH27C45(SO5)3
_chemical_formula_sum   'Al1 H27 C45 S3 O15'
_cell_volume   1998.25840731
_cell_formula_units_Z   1
loop_
 _symmetry_equiv_pos_site_id
 _symmetry_equiv_pos_as_xyz
  1  'x, y, z'
loop_
 _atom_site_type_symbol
 _atom_site_label
 _atom_site_symmetry_multiplicity
 _atom_site_fract_x
 _atom_site_fract_y
 _atom_site_fract_z
 _atom_site_occupancy
  Al  Al0  1  0.90700000  0.99866000  0.49984000  1.0
  H  H1  1  0.40867000  0.98988000  0.31901000  1.0
  H  H2  1  0.44867000  0.04052000  0.25024000  1.0
  H  H3  1  0.20846000  0.17849000  0.15427000  1.0
  H  H4  1  0.44029000  0.00559000  0.68886000  1.0
  H  H5  1  0.42427000  0.07433000  0.80904000  1.0
  H  H6  1  0.74096000  0.13288000  0.88596000  1.0
  H  H7  1  0.78066000  0.18389000  0.00490000  1.0
  H  H8  1  0.52460000  0.21060000  0.10020000  1.0
  H  H9  1  0.42739000  0.17974000  0.67155000  1.0
  H  H10  1  0.47237000  0.24852000  0.79058000  1.0
  H  H11  1  0.22209000  0.34292000  0.02312000  1.0
  H  H12  1  0.34632000  0.80944000  0.31846000  1.0
  H  H13  1  0.33061000  0.68838000  0.26653000  1.0
  H  H14  1  0.69525000  0.61697000  0.24749000  1.0
  H  H15  1  0.75001000  0.49808000  0.17923000  1.0
  H  H16  1  0.49600000  0.39865000  0.11008000  1.0
  H  H17  1  0.44233000  0.82550000  0.50818000  1.0
  H  H18  1  0.47142000  0.70572000  0.45628000  1.0
  H  H19  1  0.18586000  0.46962000  0.31639000  1.0
  H  H20  1  0.45525000  0.18125000  0.49228000  1.0
  H  H21  1  0.43704000  0.23281000  0.42330000  1.0
  H  H22  1  0.75351000  0.25221000  0.36621000  1.0
  H  H23  1  0.79692000  0.32084000  0.31534000  1.0
  H  H24  1  0.50333000  0.38817000  0.28744000  1.0
  H  H25  1  0.54804000  0.56659000  0.43845000  1.0
  H  H26  1  0.56588000  0.05613000  0.13075000  1.0
  H  H27  1  0.61127000  0.36777000  0.92507000  1.0
  C  C28  1  0.41726000  0.04892000  0.45024000  1.0
  C  C29  1  0.39231000  0.89868000  0.44990000  1.0
  C  C30  1  0.41762000  0.04809000  0.59931000  1.0
  C  C31  1  0.41967000  0.04330000  0.34176000  1.0
  C  C32  1  0.43392000  0.07225000  0.30273000  1.0
  C  C33  1  0.31099000  0.15529000  0.22942000  1.0
  C  C34  1  0.33407000  0.19494000  0.20066000  1.0
  C  C35  1  0.43940000  0.05901000  0.71157000  1.0
  C  C36  1  0.43593000  0.09830000  0.77949000  1.0
  C  C37  1  0.61900000  0.17862000  0.91587000  1.0
  C  C38  1  0.64224000  0.20759000  0.98360000  1.0
  C  C39  1  0.42940000  0.08203000  0.41008000  1.0
  C  C40  1  0.43819000  0.14095000  0.33056000  1.0
  C  C41  1  0.45322000  0.17511000  0.29177000  1.0
  C  C42  1  0.50311000  0.25533000  0.23034000  1.0
  C  C43  1  0.51561000  0.29501000  0.19752000  1.0
  C  C44  1  0.51998000  0.26414000  0.12886000  1.0
  C  C45  1  0.43180000  0.15675000  0.70196000  1.0
  C  C46  1  0.44857000  0.19577000  0.76973000  1.0
  C  C47  1  0.32461000  0.26853000  0.92542000  1.0
  C  C48  1  0.34248000  0.29703000  0.99357000  1.0
  C  C49  1  0.36768000  0.78637000  0.34861000  1.0
  C  C50  1  0.36303000  0.71815000  0.31960000  1.0
  C  C51  1  0.57728000  0.58456000  0.26238000  1.0
  C  C52  1  0.60796000  0.51708000  0.22352000  1.0
  C  C53  1  0.43103000  0.08822000  0.67228000  1.0
  C  C54  1  0.44341000  0.16766000  0.81032000  1.0
  C  C55  1  0.45798000  0.20649000  0.88304000  1.0
  C  C56  1  0.50062000  0.26790000  0.02439000  1.0
  C  C57  1  0.51237000  0.30077000  0.09666000  1.0
  C  C58  1  0.50340000  0.36956000  0.13451000  1.0
  C  C59  1  0.42031000  0.79524000  0.45502000  1.0
  C  C60  1  0.42998000  0.72721000  0.42560000  1.0
  C  C61  1  0.28020000  0.56955000  0.34085000  1.0
  C  C62  1  0.30450000  0.50153000  0.30106000  1.0
  C  C63  1  0.44632000  0.15058000  0.43904000  1.0
  C  C64  1  0.44125000  0.17932000  0.39965000  1.0
  C  C65  1  0.62585000  0.23620000  0.32005000  1.0
  C  C66  1  0.65163000  0.27527000  0.29118000  1.0
  C  C67  1  0.39282000  0.82534000  0.41685000  1.0
  C  C68  1  0.39682000  0.68706000  0.35731000  1.0
  C  C69  1  0.41323000  0.61430000  0.32246000  1.0
  C  C70  1  0.47061000  0.47370000  0.24224000  1.0
  C  C71  1  0.49766000  0.40163000  0.20307000  1.0
  C  C72  1  0.50737000  0.36375000  0.23405000  1.0
  S  S73  1  0.08285000  0.59124000  0.41592000  1.0
  S  S74  1  0.09929000  0.07910000  0.17746000  1.0
  S  S75  1  0.13328000  0.32074000  0.90145000  1.0
  O  O76  1  0.64132000  0.00801000  0.57095000  1.0
  O  O77  1  0.64995000  0.06048000  0.49016000  1.0
  O  O78  1  0.62644000  0.92757000  0.43852000  1.0
  O  O79  1  0.18256000  0.05825000  0.57123000  1.0
  O  O80  1  0.15860000  0.92628000  0.48760000  1.0
  O  O81  1  0.17408000  0.01067000  0.44017000  1.0
  O  O82  1  0.35350000  0.59363000  0.46279000  1.0
  O  O83  1  0.94374000  0.65453000  0.44512000  1.0
  O  O84  1  0.86193000  0.53580000  0.40312000  1.0
  O  O85  1  0.36176000  0.03193000  0.13375000  1.0
  O  O86  1  0.94540000  0.05086000  0.21246000  1.0
  O  O87  1  0.88766000  0.09058000  0.13422000  1.0
  O  O88  1  0.41134000  0.36442000  0.89770000  1.0
  O  O89  1  0.97704000  0.28573000  0.83851000  1.0
  O  O90  1  0.92838000  0.36428000  0.95611000  1.0
