# generated using pymatgen
data_ZnH16C18S2(NO2)4
_symmetry_space_group_name_H-M   'P 1'
_cell_length_a   7.15246000
_cell_length_b   7.64152000
_cell_length_c   10.57050000
_cell_angle_alpha   106.06600000
_cell_angle_beta   95.62790000
_cell_angle_gamma   108.93600000
_symmetry_Int_Tables_number   1
_chemical_formula_structural   ZnH16C18S2(NO2)4
_chemical_formula_sum   'Zn1 H16 C18 S2 N4 O8'
_cell_volume   513.78819505
_cell_formula_units_Z   1
loop_
 _symmetry_equiv_pos_site_id
 _symmetry_equiv_pos_as_xyz
  1  'x, y, z'
loop_
 _atom_site_type_symbol
 _atom_site_label
 _atom_site_symmetry_multiplicity
 _atom_site_fract_x
 _atom_site_fract_y
 _atom_site_fract_z
 _atom_site_occupancy
  Zn  Zn0  1  0.50000000  0.50000000  0.50000000  1.0
  H  H1  1  0.25736000  0.17834000  0.88695000  1.0
  H  H2  1  0.74265000  0.82166000  0.11305000  1.0
  H  H3  1  0.15162000  0.83546000  0.73207000  1.0
  H  H4  1  0.84839000  0.16454000  0.26793000  1.0
  H  H5  1  0.12370000  0.56202000  0.82223000  1.0
  H  H6  1  0.87630000  0.43798000  0.17777000  1.0
  H  H7  1  0.19755000  0.62559000  0.07006000  1.0
  H  H8  1  0.80245000  0.37441000  0.92994000  1.0
  H  H9  1  0.89983000  0.74917000  0.44388000  1.0
  H  H10  1  0.10016000  0.25083000  0.55612000  1.0
  H  H11  1  0.25289000  0.75595000  0.44875000  1.0
  H  H12  1  0.74711000  0.24405000  0.55125000  1.0
  H  H13  1  0.49648000  0.60948000  0.29065000  1.0
  H  H14  1  0.50351000  0.39052000  0.70935000  1.0
  H  H15  1  0.54808000  0.81934000  0.39951000  1.0
  H  H16  1  0.45191000  0.18066000  0.60049000  1.0
  C  C17  1  0.34784000  0.28315000  0.17530000  1.0
  C  C18  1  0.65216000  0.71685000  0.82469000  1.0
  C  C19  1  0.27915000  0.09191000  0.06397000  1.0
  C  C20  1  0.72086000  0.90809000  0.93603000  1.0
  C  C21  1  0.24091000  0.05752000  0.92598000  1.0
  C  C22  1  0.75910000  0.94248000  0.07402000  1.0
  C  C23  1  0.18198000  0.86440000  0.84016000  1.0
  C  C24  1  0.81803000  0.13559000  0.15984000  1.0
  C  C25  1  0.16549000  0.71052000  0.89128000  1.0
  C  C26  1  0.83451000  0.28948000  0.10872000  1.0
  C  C27  1  0.20444000  0.74419000  0.03018000  1.0
  C  C28  1  0.79557000  0.25581000  0.96982000  1.0
  C  C29  1  0.25859000  0.93624000  0.11296000  1.0
  C  C30  1  0.74141000  0.06376000  0.88704000  1.0
  C  C31  1  0.94436000  0.63758000  0.46876000  1.0
  C  C32  1  0.05564000  0.36242000  0.53124000  1.0
  C  C33  1  0.14026000  0.64041000  0.47120000  1.0
  C  C34  1  0.85973000  0.35959000  0.52879000  1.0
  S  S35  1  0.30906000  0.03418000  0.29056000  1.0
  S  S36  1  0.69094000  0.96582000  0.70944000  1.0
  N  N37  1  0.37252000  0.26459000  0.30005000  1.0
  N  N38  1  0.62749000  0.73542000  0.69995000  1.0
  N  N39  1  0.80368000  0.49628000  0.49735000  1.0
  N  N40  1  0.19631000  0.50372000  0.50265000  1.0
  O  O41  1  0.38249000  0.44326000  0.15414000  1.0
  O  O42  1  0.61752000  0.55674000  0.84586000  1.0
  O  O43  1  0.12634000  0.96647000  0.34082000  1.0
  O  O44  1  0.87366000  0.03353000  0.65917000  1.0
  O  O45  1  0.48374000  0.00555000  0.35246000  1.0
  O  O46  1  0.51626000  0.99446000  0.64754000  1.0
  O  O47  1  0.56812000  0.69486000  0.38687000  1.0
  O  O48  1  0.43187000  0.30514000  0.61313000  1.0
