# generated using pymatgen
data_ZnH5C13NO4
_symmetry_space_group_name_H-M   'P 1'
_cell_length_a   12.73610000
_cell_length_b   13.99380000
_cell_length_c   16.10700000
_cell_angle_alpha   90.00940000
_cell_angle_beta   93.07370000
_cell_angle_gamma   93.10350000
_symmetry_Int_Tables_number   1
_chemical_formula_structural   ZnH5C13NO4
_chemical_formula_sum   'Zn2 H10 C26 N2 O8'
_cell_volume   2862.34565147
_cell_formula_units_Z   2
loop_
 _symmetry_equiv_pos_site_id
 _symmetry_equiv_pos_as_xyz
  1  'x, y, z'
loop_
 _atom_site_type_symbol
 _atom_site_label
 _atom_site_symmetry_multiplicity
 _atom_site_fract_x
 _atom_site_fract_y
 _atom_site_fract_z
 _atom_site_occupancy
  Zn  Zn0  1  0.60832000  0.49264000  0.50566000  1.0
  Zn  Zn1  1  0.39168000  0.50736000  0.49433000  1.0
  H  H2  1  0.42212000  0.64380000  0.05089000  1.0
  H  H3  1  0.00664000  0.42031000  0.56737000  1.0
  H  H4  1  0.57789000  0.35620000  0.94910000  1.0
  H  H5  1  0.59864000  0.64214000  0.95044000  1.0
  H  H6  1  0.40137000  0.35786000  0.04955000  1.0
  H  H7  1  0.31607000  0.50198000  0.94634000  1.0
  H  H8  1  0.68394000  0.49802000  0.05365000  1.0
  H  H9  1  0.62075000  0.01856000  0.50656000  1.0
  H  H10  1  0.37922000  0.98144000  0.49344000  1.0
  H  H11  1  0.99336000  0.57968000  0.43266000  1.0
  C  C12  1  0.53704000  0.68572000  0.50177000  1.0
  C  C13  1  0.85965000  0.47162000  0.51971000  1.0
  C  C14  1  0.50486000  0.49939000  0.33875000  1.0
  C  C15  1  0.49515000  0.50062000  0.66124000  1.0
  C  C16  1  0.55496000  0.57902000  0.97344000  1.0
  C  C17  1  0.44505000  0.42098000  0.02656000  1.0
  C  C18  1  0.45656000  0.57994000  0.02733000  1.0
  C  C19  1  0.54345000  0.42006000  0.97267000  1.0
  C  C20  1  0.50555000  0.49940000  0.24919000  1.0
  C  C21  1  0.49444000  0.50061000  0.75080000  1.0
  C  C22  1  0.60224000  0.49887000  0.02916000  1.0
  C  C23  1  0.46298000  0.31428000  0.49822000  1.0
  C  C24  1  0.39777000  0.50113000  0.97083000  1.0
  C  C25  1  0.50415000  0.49980000  0.08555000  1.0
  C  C26  1  0.49585000  0.50020000  0.91444000  1.0
  C  C27  1  0.50559000  0.49952000  0.17349000  1.0
  C  C28  1  0.49441000  0.50048000  0.82651000  1.0
  C  C29  1  0.45293000  0.21087000  0.49746000  1.0
  C  C30  1  0.54707000  0.78912000  0.50254000  1.0
  C  C31  1  0.45429000  0.02345000  0.49748000  1.0
  C  C32  1  0.54568000  0.97655000  0.50252000  1.0
  C  C33  1  0.54739000  0.87638000  0.50260000  1.0
  C  C34  1  0.45259000  0.12361000  0.49741000  1.0
  C  C35  1  0.97072000  0.47048000  0.52395000  1.0
  C  C36  1  0.02928000  0.52952000  0.47608000  1.0
  C  C37  1  0.14035000  0.52837000  0.48031000  1.0
  N  N38  1  0.76845000  0.47241000  0.51643000  1.0
  N  N39  1  0.23156000  0.52760000  0.48358000  1.0
  O  O40  1  0.62137000  0.64056000  0.50561000  1.0
  O  O41  1  0.37863000  0.35945000  0.49438000  1.0
  O  O42  1  0.44270000  0.64975000  0.49719000  1.0
  O  O43  1  0.55731000  0.35025000  0.50280000  1.0
  O  O44  1  0.59380000  0.49517000  0.37860000  1.0
  O  O45  1  0.40619000  0.50484000  0.62139000  1.0
  O  O46  1  0.41517000  0.50370000  0.36983000  1.0
  O  O47  1  0.58481000  0.49630000  0.63016000  1.0
