# generated using pymatgen
data_Nd2AgH14C24NO16
_symmetry_space_group_name_H-M   'P 1'
_cell_length_a   8.59022000
_cell_length_b   11.72170000
_cell_length_c   13.47690000
_cell_angle_alpha   103.59100000
_cell_angle_beta   98.33020000
_cell_angle_gamma   99.14400000
_symmetry_Int_Tables_number   1
_chemical_formula_structural   Nd2AgH14C24NO16
_chemical_formula_sum   'Nd4 Ag2 H28 C48 N2 O32'
_cell_volume   1278.56199822
_cell_formula_units_Z   2
loop_
 _symmetry_equiv_pos_site_id
 _symmetry_equiv_pos_as_xyz
  1  'x, y, z'
loop_
 _atom_site_type_symbol
 _atom_site_label
 _atom_site_symmetry_multiplicity
 _atom_site_fract_x
 _atom_site_fract_y
 _atom_site_fract_z
 _atom_site_occupancy
  Nd  Nd0  1  0.54778000  0.38409000  0.09974000  1.0
  Nd  Nd1  1  0.45221000  0.61591000  0.90026000  1.0
  Nd  Nd2  1  0.81735000  0.11676000  0.11302000  1.0
  Nd  Nd3  1  0.18265000  0.88324000  0.88698000  1.0
  Ag  Ag4  1  0.06496000  0.45446000  0.18090000  1.0
  Ag  Ag5  1  0.93504000  0.54554000  0.81910000  1.0
  H  H6  1  0.34393000  0.17192000  0.90161000  1.0
  H  H7  1  0.65607000  0.82808000  0.09838000  1.0
  H  H8  1  0.24216000  0.23388000  0.98021000  1.0
  H  H9  1  0.75784000  0.76611000  0.01979000  1.0
  H  H10  1  0.73696000  0.64509000  0.13722000  1.0
  H  H11  1  0.26303000  0.35491000  0.86278000  1.0
  H  H12  1  0.84923000  0.56892000  0.08875000  1.0
  H  H13  1  0.15077000  0.43108000  0.91126000  1.0
  H  H14  1  0.91072000  0.05327000  0.68250000  1.0
  H  H15  1  0.08928000  0.94673000  0.31751000  1.0
  H  H16  1  0.72996000  0.13775000  0.56762000  1.0
  H  H17  1  0.27004000  0.86225000  0.43239000  1.0
  H  H18  1  0.58199000  0.29029000  0.64958000  1.0
  H  H19  1  0.41801000  0.70970000  0.35042000  1.0
  H  H20  1  0.56294000  0.02781000  0.44509000  1.0
  H  H21  1  0.43706000  0.97219000  0.55491000  1.0
  H  H22  1  0.38019000  0.15802000  0.52156000  1.0
  H  H23  1  0.61982000  0.84198000  0.47844000  1.0
  H  H24  1  0.21800000  0.25177000  0.40466000  1.0
  H  H25  1  0.78200000  0.74823000  0.59534000  1.0
  H  H26  1  0.98556000  0.27977000  0.45640000  1.0
  H  H27  1  0.01445000  0.72024000  0.54360000  1.0
  H  H28  1  0.06273000  0.37568000  0.65022000  1.0
  H  H29  1  0.93727000  0.62432000  0.34978000  1.0
  H  H30  1  0.68586000  0.55665000  0.64171000  1.0
  H  H31  1  0.31414000  0.44335000  0.35828000  1.0
  H  H32  1  0.61247000  0.48381000  0.44639000  1.0
  H  H33  1  0.38753000  0.51619000  0.55361000  1.0
  C  C34  1  0.60783000  0.40218000  0.84363000  1.0
  C  C35  1  0.39216000  0.59782000  0.15637000  1.0
  C  C36  1  0.86720000  0.32255000  0.98271000  1.0
  C  C37  1  0.13279000  0.67745000  0.01730000  1.0
  C  C38  1  0.97138000  0.10603000  0.88800000  1.0
  C  C39  1  0.02862000  0.89397000  0.11201000  1.0
  C  C40  1  0.69750000  0.30625000  0.80497000  1.0
  C  C41  1  0.30250000  0.69375000  0.19504000  1.0
  C  C42  1  0.80732000  0.26363000  0.86874000  1.0
  C  C43  1  0.19268000  0.73637000  0.13127000  1.0
  C  C44  1  0.87684000  0.16799000  0.82283000  1.0
  C  C45  1  0.12316000  0.83201000  0.17718000  1.0
  C  C46  1  0.85115000  0.12490000  0.71478000  1.0
  C  C47  1  0.14885000  0.87510000  0.28523000  1.0
  C  C48  1  0.74911000  0.17086000  0.65171000  1.0
  C  C49  1  0.25089000  0.82914000  0.34830000  1.0
  C  C50  1  0.66820000  0.25679000  0.69681000  1.0
  C  C51  1  0.33180000  0.74320000  0.30320000  1.0
  C  C52  1  0.22790000  0.24584000  0.20583000  1.0
  C  C53  1  0.77211000  0.75416000  0.79417000  1.0
  C  C54  1  0.42879000  0.09279000  0.11694000  1.0
  C  C55  1  0.57121000  0.90720000  0.88306000  1.0
  C  C56  1  0.60843000  0.96429000  0.25357000  1.0
  C  C57  1  0.39157000  0.03570000  0.74643000  1.0
  C  C58  1  0.31951000  0.18291000  0.27183000  1.0
  C  C59  1  0.68049000  0.81709000  0.72817000  1.0
  C  C60  1  0.42282000  0.11036000  0.23068000  1.0
  C  C61  1  0.57718000  0.88964000  0.76932000  1.0
  C  C62  1  0.50816000  0.05310000  0.29440000  1.0
  C  C63  1  0.49184000  0.94690000  0.70559000  1.0
  C  C64  1  0.49441000  0.07406000  0.39889000  1.0
  C  C65  1  0.50560000  0.92594000  0.60110000  1.0
  C  C66  1  0.39300000  0.14612000  0.44052000  1.0
  C  C67  1  0.60701000  0.85389000  0.55948000  1.0
  C  C68  1  0.30256000  0.19816000  0.37566000  1.0
  C  C69  1  0.69744000  0.80184000  0.62433000  1.0
  C  C70  1  0.75334000  0.32783000  0.32101000  1.0
  C  C71  1  0.24666000  0.67218000  0.67899000  1.0
  C  C72  1  0.79391000  0.37569000  0.43764000  1.0
  C  C73  1  0.20609000  0.62432000  0.56236000  1.0
  C  C74  1  0.92033000  0.34366000  0.49551000  1.0
  C  C75  1  0.07967000  0.65635000  0.50449000  1.0
  C  C76  1  0.96184000  0.39507000  0.60231000  1.0
  C  C77  1  0.03816000  0.60493000  0.39768000  1.0
  C  C78  1  0.75315000  0.49881000  0.59732000  1.0
  C  C79  1  0.24685000  0.50119000  0.40268000  1.0
  C  C80  1  0.70970000  0.45575000  0.48998000  1.0
  C  C81  1  0.29030000  0.54425000  0.51002000  1.0
  N  N82  1  0.87884000  0.47093000  0.65267000  1.0
  N  N83  1  0.12116000  0.52907000  0.34733000  1.0
  O  O84  1  0.61061000  0.44278000  0.94197000  1.0
  O  O85  1  0.38939000  0.55722000  0.05803000  1.0
  O  O86  1  0.52947000  0.44465000  0.77873000  1.0
  O  O87  1  0.47053000  0.55534000  0.22127000  1.0
  O  O88  1  0.78052000  0.30147000  0.04973000  1.0
  O  O89  1  0.21948000  0.69853000  0.95028000  1.0
  O  O90  1  0.00296000  0.39176000  0.00854000  1.0
  O  O91  1  0.99704000  0.60824000  0.99146000  1.0
  O  O92  1  0.99041000  0.14181000  0.98700000  1.0
  O  O93  1  0.00959000  0.85819000  0.01300000  1.0
  O  O94  1  0.02791000  0.01992000  0.84100000  1.0
  O  O95  1  0.97209000  0.98008000  0.15901000  1.0
  O  O96  1  0.30341000  0.30561000  0.15337000  1.0
  O  O97  1  0.69659000  0.69438000  0.84662000  1.0
  O  O98  1  0.08032000  0.24203000  0.20878000  1.0
  O  O99  1  0.91968000  0.75798000  0.79122000  1.0
  O  O100  1  0.54006000  0.16241000  0.09224000  1.0
  O  O101  1  0.45994000  0.83759000  0.90776000  1.0
  O  O102  1  0.31720000  0.01787000  0.05287000  1.0
  O  O103  1  0.68280000  0.98213000  0.94713000  1.0
  O  O104  1  0.63744000  0.96201000  0.16021000  1.0
  O  O105  1  0.36256000  0.03798000  0.83979000  1.0
  O  O106  1  0.65340000  0.89758000  0.30616000  1.0
  O  O107  1  0.34658000  0.10241000  0.69383000  1.0
  O  O108  1  0.67708000  0.38762000  0.27097000  1.0
  O  O109  1  0.32292000  0.61238000  0.72902000  1.0
  O  O110  1  0.80135000  0.23351000  0.28266000  1.0
  O  O111  1  0.19865000  0.76650000  0.71734000  1.0
  O  O112  1  0.33062000  0.25310000  0.94430000  1.0
  O  O113  1  0.66938000  0.74690000  0.05569000  1.0
  O  O114  1  0.77895000  0.57188000  0.14064000  1.0
  O  O115  1  0.22104000  0.42812000  0.85936000  1.0
