# generated using pymatgen
data_Zn2H17C28N3O10
_symmetry_space_group_name_H-M   'P 1'
_cell_length_a   9.72686000
_cell_length_b   11.12930000
_cell_length_c   14.22830000
_cell_angle_alpha   93.64850000
_cell_angle_beta   98.66180000
_cell_angle_gamma   91.23650000
_symmetry_Int_Tables_number   1
_chemical_formula_structural   Zn2H17C28N3O10
_chemical_formula_sum   'Zn2 H17 C28 N3 O10'
_cell_volume   1518.84639592
_cell_formula_units_Z   1
loop_
 _symmetry_equiv_pos_site_id
 _symmetry_equiv_pos_as_xyz
  1  'x, y, z'
loop_
 _atom_site_type_symbol
 _atom_site_label
 _atom_site_symmetry_multiplicity
 _atom_site_fract_x
 _atom_site_fract_y
 _atom_site_fract_z
 _atom_site_occupancy
  Zn  Zn0  1  0.86355000  0.49378000  0.52586000  1.0
  Zn  Zn1  1  0.13419000  0.49867000  0.48546000  1.0
  H  H2  1  0.24837000  0.25025000  0.08493000  1.0
  H  H3  1  0.07887000  0.51898000  0.17616000  1.0
  H  H4  1  0.79836000  0.51736000  0.87372000  1.0
  H  H5  1  0.04772000  0.27606000  0.96059000  1.0
  H  H6  1  0.94960000  0.35223000  0.80350000  1.0
  H  H7  1  0.34848000  0.49878000  0.77304000  1.0
  H  H8  1  0.48848000  0.29151000  0.15244000  1.0
  H  H9  1  0.55008000  0.48728000  0.81135000  1.0
  H  H10  1  0.98653000  0.52970000  0.00288000  1.0
  H  H11  1  0.19216000  0.11152000  0.50092000  1.0
  H  H12  1  0.87282000  0.08561000  0.47550000  1.0
  H  H13  1  0.18347000  0.88729000  0.47117000  1.0
  H  H14  1  0.90165000  0.90076000  0.54420000  1.0
  H  H15  1  0.61580000  0.33735000  0.43981000  1.0
  H  H16  1  0.60643000  0.58058000  0.52980000  1.0
  H  H17  1  0.36595000  0.38617000  0.37239000  1.0
  H  H18  1  0.39873000  0.53237000  0.55349000  1.0
  C  C19  1  0.99466000  0.72876000  0.51316000  1.0
  C  C20  1  0.08796000  0.47504000  0.68596000  1.0
  C  C21  1  0.98046000  0.26158000  0.49333000  1.0
  C  C22  1  0.93670000  0.48016000  0.31733000  1.0
  C  C23  1  0.14587000  0.43094000  0.78091000  1.0
  C  C24  1  0.88063000  0.46704000  0.21245000  1.0
  C  C25  1  0.11383000  0.32509000  0.91953000  1.0
  C  C26  1  0.05897000  0.36732000  0.83320000  1.0
  C  C27  1  0.28628000  0.44923000  0.81598000  1.0
  C  C28  1  0.34566000  0.40775000  0.90432000  1.0
  C  C29  1  0.25632000  0.34549000  0.95739000  1.0
  C  C30  1  0.49170000  0.42722000  0.94294000  1.0
  C  C31  1  0.54205000  0.39728000  0.03753000  1.0
  C  C32  1  0.45026000  0.32963000  0.08548000  1.0
  C  C33  1  0.31438000  0.30383000  0.04678000  1.0
  C  C34  1  0.58713000  0.47139000  0.88544000  1.0
  C  C35  1  0.72541000  0.48878000  0.91979000  1.0
  C  C36  1  0.77741000  0.47378000  0.01720000  1.0
  C  C37  1  0.68458000  0.43275000  0.07883000  1.0
  C  C38  1  0.91892000  0.50198000  0.05264000  1.0
  C  C39  1  0.97035000  0.49671000  0.14775000  1.0
  C  C40  1  0.74224000  0.43544000  0.17697000  1.0
  C  C41  1  0.09204000  0.06259000  0.49411000  1.0
  C  C42  1  0.97647000  0.12834000  0.48642000  1.0
  C  C43  1  0.09297000  0.93213000  0.49248000  1.0
  C  C44  1  0.99160000  0.86189000  0.51765000  1.0
  C  C45  1  0.56999000  0.42054000  0.46427000  1.0
  C  C46  1  0.41805000  0.43348000  0.43835000  1.0
  N  N47  1  0.65150000  0.50078000  0.51339000  1.0
  N  N48  1  0.34479000  0.49407000  0.49064000  1.0
  N  N49  1  0.65153000  0.40571000  0.24748000  1.0
  O  O50  1  0.89116000  0.67522000  0.54046000  1.0
  O  O51  1  0.09703000  0.67727000  0.48290000  1.0
  O  O52  1  0.95606000  0.46630000  0.66165000  1.0
  O  O53  1  0.17389000  0.51548000  0.63545000  1.0
  O  O54  1  0.86342000  0.31120000  0.49560000  1.0
  O  O55  1  0.09740000  0.31755000  0.49771000  1.0
  O  O56  1  0.85045000  0.50396000  0.37385000  1.0
  O  O57  1  0.06736000  0.46960000  0.34049000  1.0
  O  O58  1  0.56376000  0.47941000  0.26510000  1.0
  O  O59  1  0.66556000  0.30591000  0.28123000  1.0
