# generated using pymatgen
data_FeH16PdC20(SN6)2
_symmetry_space_group_name_H-M   'P 1'
_cell_length_a   7.12071000
_cell_length_b   7.41151000
_cell_length_c   12.39980000
_cell_angle_alpha   76.18600000
_cell_angle_beta   79.94800000
_cell_angle_gamma   87.54870000
_symmetry_Int_Tables_number   1
_chemical_formula_structural   FeH16PdC20(SN6)2
_chemical_formula_sum   'Fe1 H16 Pd1 C20 S2 N12'
_cell_volume   625.71904513
_cell_formula_units_Z   1
loop_
 _symmetry_equiv_pos_site_id
 _symmetry_equiv_pos_as_xyz
  1  'x, y, z'
loop_
 _atom_site_type_symbol
 _atom_site_label
 _atom_site_symmetry_multiplicity
 _atom_site_fract_x
 _atom_site_fract_y
 _atom_site_fract_z
 _atom_site_occupancy
  Fe  Fe0  1  0.01059000  0.50840000  0.00068000  1.0
  H  H1  1  0.86924000  0.40337000  0.43067000  1.0
  H  H2  1  0.13415000  0.59758000  0.57196000  1.0
  H  H3  1  0.76984000  0.14626000  0.54422000  1.0
  H  H4  1  0.22928000  0.85705000  0.45422000  1.0
  H  H5  1  0.88618000  0.10819000  0.17500000  1.0
  H  H6  1  0.11863000  0.90478000  0.82153000  1.0
  H  H7  1  0.53911000  0.60449000  0.85304000  1.0
  H  H8  1  0.46944000  0.39907000  0.14601000  1.0
  H  H9  1  0.65098000  0.94412000  0.74947000  1.0
  H  H10  1  0.35173000  0.06094000  0.24787000  1.0
  H  H11  1  0.64723000  0.25333000  0.75991000  1.0
  H  H12  1  0.36315000  0.75049000  0.23769000  1.0
  H  H13  1  0.52218000  0.28416000  0.64323000  1.0
  H  H14  1  0.47670000  0.71776000  0.35899000  1.0
  H  H15  1  0.40064000  0.30724000  0.77678000  1.0
  H  H16  1  0.60901000  0.69469000  0.22800000  1.0
  Pd  Pd17  1  0.48342000  0.98295000  0.00270000  1.0
  C  C18  1  0.29023000  0.18300000  0.99726000  1.0
  C  C19  1  0.68978000  0.79633000  0.00610000  1.0
  C  C20  1  0.67197000  0.17738000  0.98663000  1.0
  C  C21  1  0.29376000  0.78683000  0.01706000  1.0
  C  C22  1  0.88570000  0.37063000  0.34904000  1.0
  C  C23  1  0.11939000  0.63328000  0.65272000  1.0
  C  C24  1  0.69373000  0.85787000  0.59018000  1.0
  C  C25  1  0.30668000  0.14576000  0.40767000  1.0
  C  C26  1  0.75850000  0.02465000  0.50969000  1.0
  C  C27  1  0.24076000  0.97929000  0.48814000  1.0
  C  C28  1  0.89543000  0.21882000  0.21717000  1.0
  C  C29  1  0.11026000  0.79111000  0.78160000  1.0
  C  C30  1  0.58213000  0.65116000  0.76227000  1.0
  C  C31  1  0.42340000  0.35265000  0.23658000  1.0
  C  C32  1  0.58414000  0.53537000  0.68948000  1.0
  C  C33  1  0.42057000  0.46755000  0.30999000  1.0
  C  C34  1  0.64356000  0.83317000  0.70646000  1.0
  C  C35  1  0.35935000  0.17101000  0.29153000  1.0
  C  C36  1  0.53607000  0.33418000  0.71786000  1.0
  C  C37  1  0.46985000  0.66830000  0.28320000  1.0
  S  S38  1  0.66149000  0.65249000  0.55153000  1.0
  S  S39  1  0.33993000  0.34995000  0.44740000  1.0
  N  N40  1  0.18995000  0.31314000  0.99327000  1.0
  N  N41  1  0.81309000  0.68643000  0.00805000  1.0
  N  N42  1  0.94202000  0.39430000  0.16945000  1.0
  N  N43  1  0.06898000  0.61533000  0.83174000  1.0
  N  N44  1  0.93686000  0.49072000  0.25216000  1.0
  N  N45  1  0.07364000  0.51506000  0.75094000  1.0
  N  N46  1  0.85743000  0.19760000  0.33125000  1.0
  N  N47  1  0.14455000  0.80881000  0.66783000  1.0
  N  N48  1  0.77974000  0.29647000  0.97815000  1.0
  N  N49  1  0.18604000  0.67088000  0.01804000  1.0
  N  N50  1  0.79999000  0.02921000  0.40275000  1.0
  N  N51  1  0.19956000  0.97639000  0.59485000  1.0
