# generated using pymatgen
data_AlH5C8O5
_symmetry_space_group_name_H-M   'P 1'
_cell_length_a   6.69642000
_cell_length_b   12.22200000
_cell_length_c   17.24950000
_cell_angle_alpha   89.99990000
_cell_angle_beta   90.00000000
_cell_angle_gamma   89.99980000
_symmetry_Int_Tables_number   1
_chemical_formula_structural   AlH5C8O5
_chemical_formula_sum   'Al4 H20 C32 O20'
_cell_volume   1411.76195856
_cell_formula_units_Z   4
loop_
 _symmetry_equiv_pos_site_id
 _symmetry_equiv_pos_as_xyz
  1  'x, y, z'
loop_
 _atom_site_type_symbol
 _atom_site_label
 _atom_site_symmetry_multiplicity
 _atom_site_fract_x
 _atom_site_fract_y
 _atom_site_fract_z
 _atom_site_occupancy
  Al  Al0  1  0.00000000  0.00000000  0.00000000  1.0
  Al  Al1  1  0.00000000  0.50000000  0.50000000  1.0
  Al  Al2  1  0.50000000  0.00000000  0.00000000  1.0
  Al  Al3  1  0.50000000  0.50000000  0.50000000  1.0
  H  H4  1  0.92976000  0.67724000  0.69821000  1.0
  H  H5  1  0.92989000  0.78614000  0.82260000  1.0
  H  H6  1  0.07025000  0.17724000  0.80179000  1.0
  H  H7  1  0.07012000  0.28614000  0.67740000  1.0
  H  H8  1  0.42976000  0.32276000  0.30179000  1.0
  H  H9  1  0.42988000  0.21386000  0.17740000  1.0
  H  H10  1  0.57024000  0.82276000  0.19821000  1.0
  H  H11  1  0.57012000  0.71386000  0.32260000  1.0
  H  H12  1  0.07024000  0.32276000  0.30179000  1.0
  H  H13  1  0.07011000  0.21386000  0.17740000  1.0
  H  H14  1  0.92976000  0.82276000  0.19821000  1.0
  H  H15  1  0.92988000  0.71386000  0.32260000  1.0
  H  H16  1  0.57025000  0.67724000  0.69821000  1.0
  H  H17  1  0.57012000  0.78614000  0.82260000  1.0
  H  H18  1  0.42976000  0.17724000  0.80179000  1.0
  H  H19  1  0.42988000  0.28614000  0.67740000  1.0
  H  H20  1  0.25000000  0.14273000  0.98099000  1.0
  H  H21  1  0.75000000  0.64273000  0.51901000  1.0
  H  H22  1  0.75000000  0.85727000  0.01901000  1.0
  H  H23  1  0.25000000  0.35727000  0.48099000  1.0
  C  C24  1  0.06869000  0.70168000  0.72611000  1.0
  C  C25  1  0.06866000  0.76128000  0.79476000  1.0
  C  C26  1  0.93132000  0.20168000  0.77389000  1.0
  C  C27  1  0.93135000  0.26128000  0.70524000  1.0
  C  C28  1  0.56869000  0.29832000  0.27389000  1.0
  C  C29  1  0.56865000  0.23872000  0.20524000  1.0
  C  C30  1  0.43131000  0.79832000  0.22611000  1.0
  C  C31  1  0.43134000  0.73871000  0.29476000  1.0
  C  C32  1  0.93131000  0.29832000  0.27389000  1.0
  C  C33  1  0.93134000  0.23871000  0.20524000  1.0
  C  C34  1  0.06868000  0.79832000  0.22611000  1.0
  C  C35  1  0.06865000  0.73871000  0.29476000  1.0
  C  C36  1  0.43131000  0.70168000  0.72611000  1.0
  C  C37  1  0.43135000  0.76128000  0.79476000  1.0
  C  C38  1  0.56869000  0.20168000  0.77389000  1.0
  C  C39  1  0.56866000  0.26129000  0.70524000  1.0
  C  C40  1  0.25000000  0.61100000  0.61621000  1.0
  C  C41  1  0.25000000  0.67245000  0.69103000  1.0
  C  C42  1  0.24999000  0.86127000  0.90041000  1.0
  C  C43  1  0.25001000  0.79200000  0.82911000  1.0
  C  C44  1  0.75002000  0.11101000  0.88379000  1.0
  C  C45  1  0.75000000  0.17246000  0.80897000  1.0
  C  C46  1  0.75000000  0.36127000  0.59959000  1.0
  C  C47  1  0.75000000  0.29200000  0.67089000  1.0
  C  C48  1  0.74999000  0.38899000  0.38379000  1.0
  C  C49  1  0.75000000  0.32755000  0.30897000  1.0
  C  C50  1  0.75000000  0.13873000  0.09959000  1.0
  C  C51  1  0.75000000  0.20800000  0.17089000  1.0
  C  C52  1  0.24999000  0.88900000  0.11621000  1.0
  C  C53  1  0.25000000  0.82755000  0.19102000  1.0
  C  C54  1  0.25000000  0.63873000  0.40041000  1.0
  C  C55  1  0.25000000  0.70800000  0.32911000  1.0
  O  O56  1  0.08070000  0.88863000  0.92795000  1.0
  O  O57  1  0.08073000  0.58760000  0.58685000  1.0
  O  O58  1  0.91931000  0.38863000  0.57205000  1.0
  O  O59  1  0.91928000  0.08760000  0.91315000  1.0
  O  O60  1  0.58069000  0.11138000  0.07205000  1.0
  O  O61  1  0.58073000  0.41240000  0.41315000  1.0
  O  O62  1  0.41930000  0.61137000  0.42795000  1.0
  O  O63  1  0.41927000  0.91240000  0.08684000  1.0
  O  O64  1  0.91930000  0.11138000  0.07205000  1.0
  O  O65  1  0.91927000  0.41240000  0.41315000  1.0
  O  O66  1  0.08069000  0.61137000  0.42794000  1.0
  O  O67  1  0.08072000  0.91240000  0.08685000  1.0
  O  O68  1  0.41931000  0.88863000  0.92795000  1.0
  O  O69  1  0.41927000  0.58760000  0.58685000  1.0
  O  O70  1  0.58069000  0.38863000  0.57205000  1.0
  O  O71  1  0.58074000  0.08760000  0.91316000  1.0
  O  O72  1  0.25000000  0.06599000  0.99483000  1.0
  O  O73  1  0.75000000  0.56599000  0.50517000  1.0
  O  O74  1  0.75000000  0.93401000  0.00517000  1.0
  O  O75  1  0.25000000  0.43401000  0.49483000  1.0
