# generated using pymatgen
data_CuH6C6(NO2)2
_symmetry_space_group_name_H-M   'P 1'
_cell_length_a   6.84089000
_cell_length_b   6.84062000
_cell_length_c   8.57023000
_cell_angle_alpha   87.76490000
_cell_angle_beta   87.76460000
_cell_angle_gamma   68.84270000
_symmetry_Int_Tables_number   1
_chemical_formula_structural   CuH6C6(NO2)2
_chemical_formula_sum   'Cu2 H12 C12 N4 O8'
_cell_volume   373.59988979
_cell_formula_units_Z   2
loop_
 _symmetry_equiv_pos_site_id
 _symmetry_equiv_pos_as_xyz
  1  'x, y, z'
loop_
 _atom_site_type_symbol
 _atom_site_label
 _atom_site_symmetry_multiplicity
 _atom_site_fract_x
 _atom_site_fract_y
 _atom_site_fract_z
 _atom_site_occupancy
  Cu  Cu0  1  0.00000000  0.50000000  0.00000000  1.0
  Cu  Cu1  1  0.50000000  0.00000000  0.50000000  1.0
  H  H2  1  0.80466000  0.17872000  0.97388000  1.0
  H  H3  1  0.82126000  0.19531000  0.52617000  1.0
  H  H4  1  0.19533000  0.82128000  0.02613000  1.0
  H  H5  1  0.17875000  0.80467000  0.47383000  1.0
  H  H6  1  0.56088000  0.82388000  0.03652000  1.0
  H  H7  1  0.17610000  0.43914000  0.46347000  1.0
  H  H8  1  0.43911000  0.17612000  0.96350000  1.0
  H  H9  1  0.82390000  0.56086000  0.53653000  1.0
  H  H10  1  0.91686000  0.82207000  0.65069000  1.0
  H  H11  1  0.17797000  0.08322000  0.84925000  1.0
  H  H12  1  0.08314000  0.17795000  0.34930000  1.0
  H  H13  1  0.82205000  0.91681000  0.15074000  1.0
  C  C14  1  0.66872000  0.32276000  0.98514000  1.0
  C  C15  1  0.67723000  0.33127000  0.51489000  1.0
  C  C16  1  0.33127000  0.67724000  0.01487000  1.0
  C  C17  1  0.32277000  0.66873000  0.48511000  1.0
  C  C18  1  0.53387000  0.67909000  0.02024000  1.0
  C  C19  1  0.32090000  0.46614000  0.47976000  1.0
  C  C20  1  0.46613000  0.32090000  0.97977000  1.0
  C  C21  1  0.67911000  0.53386000  0.52025000  1.0
  C  C22  1  0.80356000  0.87619000  0.74973000  1.0
  C  C23  1  0.12385000  0.19640000  0.75029000  1.0
  C  C24  1  0.19644000  0.12381000  0.25026000  1.0
  C  C25  1  0.87617000  0.80360000  0.24971000  1.0
  N  N26  1  0.70185000  0.50180000  0.00514000  1.0
  N  N27  1  0.49819000  0.29815000  0.49488000  1.0
  N  N28  1  0.29815000  0.49819000  0.99487000  1.0
  N  N29  1  0.50181000  0.70185000  0.50512000  1.0
  O  O30  1  0.86832000  0.85347000  0.88674000  1.0
  O  O31  1  0.14652000  0.13172000  0.61329000  1.0
  O  O32  1  0.13168000  0.14652000  0.11325000  1.0
  O  O33  1  0.85349000  0.86830000  0.38672000  1.0
  O  O34  1  0.60843000  0.96142000  0.71632000  1.0
  O  O35  1  0.03854000  0.39153000  0.78363000  1.0
  O  O36  1  0.39157000  0.03856000  0.28367000  1.0
  O  O37  1  0.96144000  0.60847000  0.21636000  1.0
