# generated using pymatgen
data_KGaCo4H8(C6O5)3
_symmetry_space_group_name_H-M   'P 1'
_cell_length_a   10.67620000
_cell_length_b   21.73300000
_cell_length_c   21.72970000
_cell_angle_alpha   117.36500000
_cell_angle_beta   99.41580000
_cell_angle_gamma   99.43500000
_symmetry_Int_Tables_number   1
_chemical_formula_structural   KGaCo4H8(C6O5)3
_chemical_formula_sum   'K6 Ga6 Co24 H48 C108 O90'
_cell_volume   4249.60753098
_cell_formula_units_Z   6
loop_
 _symmetry_equiv_pos_site_id
 _symmetry_equiv_pos_as_xyz
  1  'x, y, z'
loop_
 _atom_site_type_symbol
 _atom_site_label
 _atom_site_symmetry_multiplicity
 _atom_site_fract_x
 _atom_site_fract_y
 _atom_site_fract_z
 _atom_site_occupancy
  K  K0  1  0.61782000  0.84316000  0.67790000  1.0
  K  K1  1  0.77520000  0.83481000  0.15705000  1.0
  K  K2  1  0.94104000  0.32219000  0.16524000  1.0
  K  K3  1  0.38218000  0.15683000  0.32210000  1.0
  K  K4  1  0.22481000  0.16520000  0.84295000  1.0
  K  K5  1  0.05896000  0.67781000  0.83476000  1.0
  Ga  Ga6  1  0.52449000  0.62468000  0.75164000  1.0
  Ga  Ga7  1  0.90009000  0.12698000  0.37534000  1.0
  Ga  Ga8  1  0.77322000  0.24836000  0.87312000  1.0
  Ga  Ga9  1  0.47551000  0.37531000  0.24836000  1.0
  Ga  Ga10  1  0.09991000  0.87303000  0.62466000  1.0
  Ga  Ga11  1  0.22678000  0.75163000  0.12688000  1.0
  Co  Co12  1  0.60693000  0.73003000  0.87512000  1.0
  Co  Co13  1  0.87697000  0.14512000  0.27000000  1.0
  Co  Co14  1  0.73201000  0.12480000  0.85486000  1.0
  Co  Co15  1  0.39307000  0.26997000  0.12488000  1.0
  Co  Co16  1  0.12303000  0.85488000  0.73000000  1.0
  Co  Co17  1  0.26799000  0.87520000  0.14514000  1.0
  Co  Co18  1  0.59642000  0.59696000  0.64196000  1.0
  Co  Co19  1  0.99964000  0.04504000  0.40306000  1.0
  Co  Co20  1  0.95465000  0.35812000  0.95501000  1.0
  Co  Co21  1  0.40358000  0.40304000  0.35804000  1.0
  Co  Co22  1  0.00036000  0.95497000  0.59695000  1.0
  Co  Co23  1  0.04534000  0.64187000  0.04499000  1.0
  Co  Co24  1  0.35122000  0.58757000  0.64569000  1.0
  Co  Co25  1  0.76368000  0.05810000  0.41232000  1.0
  Co  Co26  1  0.70578000  0.35432000  0.94194000  1.0
  Co  Co27  1  0.64879000  0.41243000  0.35431000  1.0
  Co  Co28  1  0.23632000  0.94190000  0.58768000  1.0
  Co  Co29  1  0.29422000  0.64568000  0.05806000  1.0
  Co  Co30  1  0.56553000  0.59739000  0.84673000  1.0
  Co  Co31  1  0.96832000  0.24935000  0.40264000  1.0
  Co  Co32  1  0.71914000  0.15329000  0.75072000  1.0
  Co  Co33  1  0.43447000  0.40260000  0.15326000  1.0
  Co  Co34  1  0.03169000  0.75065000  0.59737000  1.0
  Co  Co35  1  0.28086000  0.84671000  0.24928000  1.0
  H  H36  1  0.47414000  0.86822000  0.52201000  1.0
  H  H37  1  0.60584000  0.65376000  0.13174000  1.0
  H  H38  1  0.95229000  0.47800000  0.34630000  1.0
  H  H39  1  0.52586000  0.13177000  0.47799000  1.0
  H  H40  1  0.39416000  0.34624000  0.86825000  1.0
  H  H41  1  0.04771000  0.52200000  0.65370000  1.0
  H  H42  1  0.64328000  0.88207000  0.52197000  1.0
  H  H43  1  0.76115000  0.63994000  0.11792000  1.0
  H  H44  1  0.12147000  0.47812000  0.36021000  1.0
  H  H45  1  0.35672000  0.11793000  0.47803000  1.0
  H  H46  1  0.23885000  0.36006000  0.88208000  1.0
  H  H47  1  0.87853000  0.52188000  0.63979000  1.0
  H  H48  1  0.60235000  0.69898000  0.46786000  1.0
  H  H49  1  0.90333000  0.76887000  0.30099000  1.0
  H  H50  1  0.13470000  0.53222000  0.23117000  1.0
  H  H51  1  0.39765000  0.30102000  0.53213000  1.0
  H  H52  1  0.09667000  0.23113000  0.69901000  1.0
  H  H53  1  0.86530000  0.46777000  0.76882000  1.0
  H  H54  1  0.46137000  0.69200000  0.50117000  1.0
  H  H55  1  0.76934000  0.80916000  0.30800000  1.0
  H  H56  1  0.96041000  0.49887000  0.19088000  1.0
  H  H57  1  0.53862000  0.30800000  0.49882000  1.0
  H  H58  1  0.23066000  0.19084000  0.69199000  1.0
  H  H59  1  0.03959000  0.50113000  0.80912000  1.0
  H  H60  1  0.59298000  0.78463000  0.40035000  1.0
  H  H61  1  0.80819000  0.61569000  0.21536000  1.0
  H  H62  1  0.19274000  0.59960000  0.38420000  1.0
  H  H63  1  0.40702000  0.21537000  0.59964000  1.0
  H  H64  1  0.19181000  0.38431000  0.78464000  1.0
  H  H65  1  0.80726000  0.40040000  0.61580000  1.0
  H  H66  1  0.44311000  0.80970000  0.39376000  1.0
  H  H67  1  0.63317000  0.58409000  0.19033000  1.0
  H  H68  1  0.04961000  0.60633000  0.41603000  1.0
  H  H69  1  0.55689000  0.19030000  0.60624000  1.0
  H  H70  1  0.36683000  0.41591000  0.80967000  1.0
  H  H71  1  0.95039000  0.39367000  0.58397000  1.0
  H  H72  1  0.33366000  0.71853000  0.41818000  1.0
  H  H73  1  0.61501000  0.69965000  0.28143000  1.0
  H  H74  1  0.91559000  0.58188000  0.30037000  1.0
  H  H75  1  0.66634000  0.28147000  0.58181000  1.0
  H  H76  1  0.38499000  0.30035000  0.71857000  1.0
  H  H77  1  0.08441000  0.41812000  0.69963000  1.0
  H  H78  1  0.43144000  0.67167000  0.36379000  1.0
  H  H79  1  0.75964000  0.69215000  0.32837000  1.0
  H  H80  1  0.06786000  0.63625000  0.30790000  1.0
  H  H81  1  0.56855000  0.32833000  0.63620000  1.0
  H  H82  1  0.24037000  0.30785000  0.67163000  1.0
  H  H83  1  0.93214000  0.36375000  0.69209000  1.0
  C  C84  1  0.48242000  0.65506000  0.63894000  1.0
  C  C85  1  0.82747000  0.98390000  0.34494000  1.0
  C  C86  1  0.84376000  0.36107000  0.01616000  1.0
  C  C87  1  0.51757000  0.34494000  0.36105000  1.0
  C  C88  1  0.17253000  0.01610000  0.65506000  1.0
  C  C89  1  0.15623000  0.63893000  0.98384000  1.0
  C  C90  1  0.44573000  0.73317000  0.88519000  1.0
  C  C91  1  0.71268000  0.15211000  0.26687000  1.0
  C  C92  1  0.56078000  0.11478000  0.84792000  1.0
  C  C93  1  0.55427000  0.26683000  0.11481000  1.0
  C  C94  1  0.28732000  0.84790000  0.73313000  1.0
  C  C95  1  0.43923000  0.88522000  0.15209000  1.0
  C  C96  1  0.69329000  0.79643000  0.96417000  1.0
  C  C97  1  0.89714000  0.16772000  0.20358000  1.0
  C  C98  1  0.72938000  0.03576000  0.83221000  1.0
  C  C99  1  0.30670000  0.20357000  0.03583000  1.0
  C  C100  1  0.10286000  0.83228000  0.79642000  1.0
  C  C101  1  0.27062000  0.96423000  0.16779000  1.0
  C  C102  1  0.64960000  0.77120000  0.82538000  1.0
  C  C103  1  0.87844000  0.05424000  0.22889000  1.0
  C  C104  1  0.82439000  0.17460000  0.94573000  1.0
  C  C105  1  0.35040000  0.22880000  0.17462000  1.0
  C  C106  1  0.12156000  0.94576000  0.77112000  1.0
  C  C107  1  0.17561000  0.82541000  0.05427000  1.0
  C  C108  1  0.72474000  0.67212000  0.87546000  1.0
  C  C109  1  0.05282000  0.20334000  0.32790000  1.0
  C  C110  1  0.84963000  0.12452000  0.79665000  1.0
  C  C111  1  0.27526000  0.32788000  0.12455000  1.0
  C  C112  1  0.94718000  0.79666000  0.67210000  1.0
  C  C113  1  0.15037000  0.87548000  0.20336000  1.0
  C  C114  1  0.58796000  0.50566000  0.61836000  1.0
  C  C115  1  0.08242000  0.11271000  0.49438000  1.0
  C  C116  1  0.96980000  0.38179000  0.88729000  1.0
  C  C117  1  0.41204000  0.49434000  0.38164000  1.0
  C  C118  1  0.91758000  0.88729000  0.50562000  1.0
  C  C119  1  0.03020000  0.61821000  0.11271000  1.0
  C  C120  1  0.63705000  0.59549000  0.56602000  1.0
  C  C121  1  0.04155000  0.97056000  0.40452000  1.0
  C  C122  1  0.07120000  0.43404000  0.02949000  1.0
  C  C123  1  0.36296000  0.40451000  0.43398000  1.0
  C  C124  1  0.95844000  0.02944000  0.59548000  1.0
  C  C125  1  0.92879000  0.56596000  0.97050000  1.0
  C  C126  1  0.39009000  0.57083000  0.82619000  1.0
  C  C127  1  0.81941000  0.25539000  0.42917000  1.0
  C  C128  1  0.56421000  0.17378000  0.74463000  1.0
  C  C129  1  0.60991000  0.42917000  0.17381000  1.0
  C  C130  1  0.18059000  0.74462000  0.57084000  1.0
  C  C131  1  0.43578000  0.82622000  0.25538000  1.0
  C  C132  1  0.25309000  0.56149000  0.55915000  1.0
  C  C133  1  0.69154000  0.99768000  0.43843000  1.0
  C  C134  1  0.69431000  0.44085000  0.00240000  1.0
  C  C135  1  0.74691000  0.43851000  0.44085000  1.0
  C  C136  1  0.30847000  0.00233000  0.56158000  1.0
  C  C137  1  0.30568000  0.55915000  0.99760000  1.0
  C  C138  1  0.31206000  0.50310000  0.64353000  1.0
  C  C139  1  0.80900000  0.14037000  0.49680000  1.0
  C  C140  1  0.66881000  0.35648000  0.85966000  1.0
  C  C141  1  0.68794000  0.49690000  0.35646000  1.0
  C  C142  1  0.19100000  0.85963000  0.50321000  1.0
  C  C143  1  0.33119000  0.64352000  0.14034000  1.0
  C  C144  1  0.60316000  0.59925000  0.93006000  1.0
  C  C145  1  0.00421000  0.33078000  0.40073000  1.0
  C  C146  1  0.67361000  0.06996000  0.66930000  1.0
  C  C147  1  0.39683000  0.40075000  0.06994000  1.0
  C  C148  1  0.99579000  0.66922000  0.59928000  1.0
  C  C149  1  0.32639000  0.93004000  0.33070000  1.0
  C  C150  1  0.74412000  0.65280000  0.70783000  1.0
  C  C151  1  0.09152000  0.05499000  0.34716000  1.0
  C  C152  1  0.03650000  0.29225000  0.94501000  1.0
  C  C153  1  0.25588000  0.34720000  0.29216000  1.0
  C  C154  1  0.90848000  0.94502000  0.65284000  1.0
  C  C155  1  0.96350000  0.70775000  0.05499000  1.0
  C  C156  1  0.27810000  0.64708000  0.70442000  1.0
  C  C157  1  0.63107000  0.05736000  0.35283000  1.0
  C  C158  1  0.57400000  0.29558000  0.94273000  1.0
  C  C159  1  0.72190000  0.35292000  0.29558000  1.0
  C  C160  1  0.36893000  0.94264000  0.64717000  1.0
  C  C161  1  0.42600000  0.70443000  0.05727000  1.0
  C  C162  1  0.54981000  0.84080000  0.50315000  1.0
  C  C163  1  0.70892000  0.66235000  0.15918000  1.0
  C  C164  1  0.04680000  0.49691000  0.33772000  1.0
  C  C165  1  0.45019000  0.15920000  0.49684000  1.0
  C  C166  1  0.29109000  0.33765000  0.84081000  1.0
  C  C167  1  0.95320000  0.50310000  0.66227000  1.0
  C  C168  1  0.61101000  0.52211000  0.78738000  1.0
  C  C169  1  0.08905000  0.26523000  0.47791000  1.0
  C  C170  1  0.82392000  0.21268000  0.73481000  1.0
  C  C171  1  0.38898000  0.47788000  0.21261000  1.0
  C  C172  1  0.91095000  0.73477000  0.52210000  1.0
  C  C173  1  0.17608000  0.78732000  0.26519000  1.0
  C  C174  1  0.51773000  0.72064000  0.47981000  1.0
  C  C175  1  0.79705000  0.75916000  0.27932000  1.0
  C  C176  1  0.03813000  0.52021000  0.24088000  1.0
  C  C177  1  0.48227000  0.27936000  0.52019000  1.0
  C  C178  1  0.20295000  0.24084000  0.72068000  1.0
  C  C179  1  0.96187000  0.47979000  0.75912000  1.0
  C  C180  1  0.50656000  0.79021000  0.42174000  1.0
  C  C181  1  0.71623000  0.63153000  0.20981000  1.0
  C  C182  1  0.08496000  0.57831000  0.36851000  1.0
  C  C183  1  0.49344000  0.20979000  0.57826000  1.0
  C  C184  1  0.28378000  0.36847000  0.79019000  1.0
  C  C185  1  0.91504000  0.42169000  0.63149000  1.0
  C  C186  1  0.43529000  0.71898000  0.41452000  1.0
  C  C187  1  0.71623000  0.69557000  0.28104000  1.0
  C  C188  1  0.02090000  0.58551000  0.30447000  1.0
  C  C189  1  0.56471000  0.28102000  0.58547000  1.0
  C  C190  1  0.28378000  0.30443000  0.71896000  1.0
  C  C191  1  0.97911000  0.41449000  0.69553000  1.0
  O  O192  1  0.48685000  0.70828000  0.63517000  1.0
  O  O193  1  0.77868000  0.92689000  0.29175000  1.0
  O  O194  1  0.85197000  0.36480000  0.07314000  1.0
  O  O195  1  0.51315000  0.29172000  0.36482000  1.0
  O  O196  1  0.22132000  0.07311000  0.70825000  1.0
  O  O197  1  0.14803000  0.63520000  0.92686000  1.0
  O  O198  1  0.67667000  0.80730000  0.80035000  1.0
  O  O199  1  0.86936000  0.99312000  0.19273000  1.0
  O  O200  1  0.87643000  0.19970000  0.00689000  1.0
  O  O201  1  0.32333000  0.19269000  0.19965000  1.0
  O  O202  1  0.13064000  0.00689000  0.80728000  1.0
  O  O203  1  0.12356000  0.80031000  0.99312000  1.0
  O  O204  1  0.67323000  0.59857000  0.51969000  1.0
  O  O205  1  0.07443000  0.92110000  0.40141000  1.0
  O  O206  1  0.15362000  0.48030000  0.07898000  1.0
  O  O207  1  0.32677000  0.40143000  0.48031000  1.0
  O  O208  1  0.92556000  0.07890000  0.59859000  1.0
  O  O209  1  0.84637000  0.51970000  0.92101000  1.0
  O  O210  1  0.58701000  0.44629000  0.60003000  1.0
  O  O211  1  0.14077000  0.15374000  0.55376000  1.0
  O  O212  1  0.98709000  0.40011000  0.84622000  1.0
  O  O213  1  0.41300000  0.55371000  0.39997000  1.0
  O  O214  1  0.85923000  0.84626000  0.44624000  1.0
  O  O215  1  0.01291000  0.59990000  0.15378000  1.0
  O  O216  1  0.28357000  0.44837000  0.64191000  1.0
  O  O217  1  0.83533000  0.19345000  0.55156000  1.0
  O  O218  1  0.64185000  0.35813000  0.80656000  1.0
  O  O219  1  0.71643000  0.55163000  0.35809000  1.0
  O  O220  1  0.16467000  0.80656000  0.44844000  1.0
  O  O221  1  0.35815000  0.64187000  0.19344000  1.0
  O  O222  1  0.27585000  0.55171000  0.81259000  1.0
  O  O223  1  0.72428000  0.26096000  0.44827000  1.0
  O  O224  1  0.46355000  0.18732000  0.73900000  1.0
  O  O225  1  0.72414000  0.44829000  0.18741000  1.0
  O  O226  1  0.27572000  0.73905000  0.55174000  1.0
  O  O227  1  0.53644000  0.81268000  0.26101000  1.0
  O  O228  1  0.62577000  0.59749000  0.98322000  1.0
  O  O229  1  0.02867000  0.38566000  0.40242000  1.0
  O  O230  1  0.64317000  0.01677000  0.61443000  1.0
  O  O231  1  0.37423000  0.40251000  0.01678000  1.0
  O  O232  1  0.97133000  0.61434000  0.59758000  1.0
  O  O233  1  0.35684000  0.98323000  0.38557000  1.0
  O  O234  1  0.85242000  0.68488000  0.74356000  1.0
  O  O235  1  0.16772000  0.05857000  0.31504000  1.0
  O  O236  1  0.10890000  0.25645000  0.94142000  1.0
  O  O237  1  0.14758000  0.31512000  0.25644000  1.0
  O  O238  1  0.83228000  0.94143000  0.68496000  1.0
  O  O239  1  0.89110000  0.74355000  0.05858000  1.0
  O  O240  1  0.84019000  0.67783000  0.88666000  1.0
  O  O241  1  0.16253000  0.20878000  0.32214000  1.0
  O  O242  1  0.95391000  0.11335000  0.79118000  1.0
  O  O243  1  0.15980000  0.32217000  0.11334000  1.0
  O  O244  1  0.83747000  0.79123000  0.67787000  1.0
  O  O245  1  0.04609000  0.88665000  0.20883000  1.0
  O  O246  1  0.74790000  0.84288000  0.02257000  1.0
  O  O247  1  0.90557000  0.17963000  0.15712000  1.0
  O  O248  1  0.72569000  0.97739000  0.82030000  1.0
  O  O249  1  0.25209000  0.15712000  0.97743000  1.0
  O  O250  1  0.09444000  0.82038000  0.84288000  1.0
  O  O251  1  0.27430000  0.02261000  0.17971000  1.0
  O  O252  1  0.21775000  0.68295000  0.73880000  1.0
  O  O253  1  0.53476000  0.05593000  0.31706000  1.0
  O  O254  1  0.47920000  0.26119000  0.94420000  1.0
  O  O255  1  0.78226000  0.31704000  0.26120000  1.0
  O  O256  1  0.46524000  0.94408000  0.68294000  1.0
  O  O257  1  0.52080000  0.73881000  0.05581000  1.0
  O  O258  1  0.34376000  0.73850000  0.89633000  1.0
  O  O259  1  0.60542000  0.15797000  0.26154000  1.0
  O  O260  1  0.44768000  0.10374000  0.84215000  1.0
  O  O261  1  0.65623000  0.26149000  0.10366000  1.0
  O  O262  1  0.39459000  0.84204000  0.73847000  1.0
  O  O263  1  0.55232000  0.89626000  0.15786000  1.0
  O  O264  1  0.56685000  0.79623000  0.53552000  1.0
  O  O265  1  0.77052000  0.73929000  0.20372000  1.0
  O  O266  1  0.03156000  0.46450000  0.26079000  1.0
  O  O267  1  0.43315000  0.20377000  0.46448000  1.0
  O  O268  1  0.22949000  0.26071000  0.79627000  1.0
  O  O269  1  0.96844000  0.53550000  0.73921000  1.0
  O  O270  1  0.63423000  0.46869000  0.75090000  1.0
  O  O271  1  0.16575000  0.28217000  0.53131000  1.0
  O  O272  1  0.88360000  0.24913000  0.71782000  1.0
  O  O273  1  0.36576000  0.53130000  0.24910000  1.0
  O  O274  1  0.83425000  0.71784000  0.46870000  1.0
  O  O275  1  0.11640000  0.75086000  0.28219000  1.0
  O  O276  1  0.18621000  0.54695000  0.50396000  1.0
  O  O277  1  0.63921000  0.95708000  0.45303000  1.0
  O  O278  1  0.68268000  0.49606000  0.04303000  1.0
  O  O279  1  0.81379000  0.45305000  0.49603000  1.0
  O  O280  1  0.36080000  0.04293000  0.54698000  1.0
  O  O281  1  0.31730000  0.50394000  0.95697000  1.0
