# generated using pymatgen
data_CuH7C6N2ClO3
_symmetry_space_group_name_H-M   'P 1'
_cell_length_a   3.81116000
_cell_length_b   11.16410000
_cell_length_c   11.38810000
_cell_angle_alpha   111.15400000
_cell_angle_beta   96.55120000
_cell_angle_gamma   96.51970000
_symmetry_Int_Tables_number   1
_chemical_formula_structural   CuH7C6N2ClO3
_chemical_formula_sum   'Cu2 H14 C12 N4 Cl2 O6'
_cell_volume   442.63709476
_cell_formula_units_Z   2
loop_
 _symmetry_equiv_pos_site_id
 _symmetry_equiv_pos_as_xyz
  1  'x, y, z'
loop_
 _atom_site_type_symbol
 _atom_site_label
 _atom_site_symmetry_multiplicity
 _atom_site_fract_x
 _atom_site_fract_y
 _atom_site_fract_z
 _atom_site_occupancy
  Cu  Cu0  1  0.68058000  0.02442000  0.28674000  1.0
  Cu  Cu1  1  0.31943000  0.97558000  0.71326000  1.0
  H  H2  1  0.40853000  0.12935000  0.08098000  1.0
  H  H3  1  0.59141000  0.87066000  0.91903000  1.0
  H  H4  1  0.27025000  0.48168000  0.40707000  1.0
  H  H5  1  0.72979000  0.51832000  0.59292000  1.0
  H  H6  1  0.31360000  0.27736000  0.96955000  1.0
  H  H7  1  0.68638000  0.72265000  0.03046000  1.0
  H  H8  1  0.73291000  0.36796000  0.97390000  1.0
  H  H9  1  0.26707000  0.63204000  0.02610000  1.0
  H  H10  1  0.42430000  0.44809000  0.06747000  1.0
  H  H11  1  0.57569000  0.55192000  0.93254000  1.0
  H  H12  1  0.76624000  0.88174000  0.42858000  1.0
  H  H13  1  0.23373000  0.11827000  0.57142000  1.0
  H  H14  1  0.42027000  0.81858000  0.31909000  1.0
  H  H15  1  0.57969000  0.18142000  0.68092000  1.0
  C  C16  1  0.69305000  0.32961000  0.14248000  1.0
  C  C17  1  0.30693000  0.67039000  0.85753000  1.0
  C  C18  1  0.60167000  0.20854000  0.15300000  1.0
  C  C19  1  0.39833000  0.79146000  0.84700000  1.0
  C  C20  1  0.98907000  0.28340000  0.34581000  1.0
  C  C21  1  0.01096000  0.71659000  0.65418000  1.0
  C  C22  1  0.07543000  0.40312000  0.33435000  1.0
  C  C23  1  0.92460000  0.59687000  0.66564000  1.0
  C  C24  1  0.52834000  0.35629000  0.03136000  1.0
  C  C25  1  0.47166000  0.64371000  0.96864000  1.0
  C  C26  1  0.15959000  0.25009000  0.45256000  1.0
  C  C27  1  0.84044000  0.74990000  0.54743000  1.0
  N  N28  1  0.75001000  0.18758000  0.25445000  1.0
  N  N29  1  0.25001000  0.81242000  0.74555000  1.0
  N  N30  1  0.92955000  0.42606000  0.23368000  1.0
  N  N31  1  0.07045000  0.57394000  0.76631000  1.0
  Cl  Cl32  1  0.16963000  0.93252000  0.14366000  1.0
  Cl  Cl33  1  0.83037000  0.06748000  0.85633000  1.0
  O  O34  1  0.04204000  0.13140000  0.44428000  1.0
  O  O35  1  0.95795000  0.86861000  0.55572000  1.0
  O  O36  1  0.39801000  0.32770000  0.53754000  1.0
  O  O37  1  0.60203000  0.67230000  0.46246000  1.0
  O  O38  1  0.65098000  0.87571000  0.34144000  1.0
  O  O39  1  0.34900000  0.12428000  0.65856000  1.0
