# generated using pymatgen
data_Zn2H29C24N13O6
_symmetry_space_group_name_H-M   'P 1'
_cell_length_a   14.88810000
_cell_length_b   15.05920000
_cell_length_c   15.06970000
_cell_angle_alpha   119.81800000
_cell_angle_beta   107.60100000
_cell_angle_gamma   100.44200000
_symmetry_Int_Tables_number   1
_chemical_formula_structural   Zn2H29C24N13O6
_chemical_formula_sum   'Zn4 H58 C48 N26 O12'
_cell_volume   2559.67992029
_cell_formula_units_Z   2
loop_
 _symmetry_equiv_pos_site_id
 _symmetry_equiv_pos_as_xyz
  1  'x, y, z'
loop_
 _atom_site_type_symbol
 _atom_site_label
 _atom_site_symmetry_multiplicity
 _atom_site_fract_x
 _atom_site_fract_y
 _atom_site_fract_z
 _atom_site_occupancy
  Zn  Zn0  1  0.88470000  0.39999000  0.51610000  1.0
  Zn  Zn1  1  0.13319000  0.60474000  0.49544000  1.0
  Zn  Zn2  1  0.00896000  0.66719000  0.64539000  1.0
  Zn  Zn3  1  0.99642000  0.33436000  0.34783000  1.0
  H  H4  1  0.67937000  0.34720000  0.31823000  1.0
  H  H5  1  0.09743000  0.09751000  0.75314000  1.0
  H  H6  1  0.25838000  0.11149000  0.83502000  1.0
  H  H7  1  0.52184000  0.96514000  0.25378000  1.0
  H  H8  1  0.91807000  0.16590000  0.50330000  1.0
  H  H9  1  0.97716000  0.87376000  0.71458000  1.0
  H  H10  1  0.24656000  0.89603000  0.90086000  1.0
  H  H11  1  0.79331000  0.01983000  0.05408000  1.0
  H  H12  1  0.39748000  0.96062000  0.03274000  1.0
  H  H13  1  0.18867000  0.32669000  0.43502000  1.0
  H  H14  1  0.78263000  0.26778000  0.03366000  1.0
  H  H15  1  0.18050000  0.19313000  0.17138000  1.0
  H  H16  1  0.00456000  0.65662000  0.33434000  1.0
  H  H17  1  0.32151000  0.59666000  0.42015000  1.0
  H  H18  1  0.38815000  0.83132000  0.04362000  1.0
  H  H19  1  0.96513000  0.99984000  0.56992000  1.0
  H  H20  1  0.82116000  0.41148000  0.71293000  1.0
  H  H21  1  0.80841000  0.45982000  0.88766000  1.0
  H  H22  1  0.52057000  0.36751000  0.27089000  1.0
  H  H23  1  0.94247000  0.64099000  0.15104000  1.0
  H  H24  1  0.42887000  0.54573000  0.31334000  1.0
  H  H25  1  0.96503000  0.70366000  0.03406000  1.0
  H  H26  1  0.61403000  0.61338000  0.36017000  1.0
  H  H27  1  0.79324000  0.39443000  0.00235000  1.0
  H  H28  1  0.34741000  0.30439000  0.23975000  1.0
  H  H29  1  0.21436000  0.84649000  0.52249000  1.0
  H  H30  1  0.34103000  0.62638000  0.66511000  1.0
  H  H31  1  0.66567000  0.16922000  0.33333333  1.0
  H  H32  1  0.00874000  0.35094000  0.68329000  1.0
  H  H33  1  0.82936000  0.70395000  0.49149000  1.0
  H  H34  1  0.00316000  0.76286000  0.89434000  1.0
  H  H35  1  0.65935000  0.85599000  0.00673000  1.0
  H  H36  1  0.54011000  0.10759000  0.13108000  1.0
  H  H37  1  0.19430000  0.15336000  0.49734000  1.0
  H  H38  1  0.65257000  0.01979000  0.96680000  1.0
  H  H39  1  0.31380000  0.30746000  0.64784000  1.0
  H  H40  1  0.56214000  0.87612000  0.80658000  1.0
  H  H41  1  0.31267000  0.11274000  0.70575000  1.0
  H  H42  1  0.05454000  0.21459000  0.71927000  1.0
  H  H43  1  0.56943000  0.70361000  0.80348000  1.0
  H  H44  1  0.51272000  0.67920000  0.87297000  1.0
  H  H45  1  0.23001000  0.97098000  0.42958000  1.0
  H  H46  1  0.11745000  0.98012000  0.39075000  1.0
  H  H47  1  0.68815000  0.93432000  0.23244000  1.0
  H  H48  1  0.61121000  0.80202000  0.11760000  1.0
  H  H49  1  0.99489000  0.10725000  0.37665000  1.0
  H  H50  1  0.93657000  0.97668000  0.33296000  1.0
  H  H51  1  0.38127000  0.64697000  0.90936000  1.0
  H  H52  1  0.44608000  0.69644000  0.04485000  1.0
  H  H53  1  0.00656000  0.85842000  0.38506000  1.0
  H  H54  1  0.91937000  0.82665000  0.42199000  1.0
  H  H55  1  0.52938000  0.08088000  0.93912000  1.0
  H  H56  1  0.63402000  0.17049000  0.06564000  1.0
  H  H57  1  0.20618000  0.35516000  0.89201000  1.0
  H  H58  1  0.27347000  0.34755000  0.81845000  1.0
  H  H59  1  0.37835000  0.04599000  0.92477000  1.0
  H  H60  1  0.36314000  0.92402000  0.81459000  1.0
  H  H61  1  0.28538000  0.24087000  0.87456000  1.0
  C  C62  1  0.73076000  0.43451000  0.36950000  1.0
  C  C63  1  0.31965000  0.74423000  0.81572000  1.0
  C  C64  1  0.12093000  0.92241000  0.60545000  1.0
  C  C65  1  0.71170000  0.07954000  0.19480000  1.0
  C  C66  1  0.10224000  0.28786000  0.59213000  1.0
  C  C67  1  0.61952000  0.90312000  0.98644000  1.0
  C  C68  1  0.20306000  0.16660000  0.57829000  1.0
  C  C69  1  0.86404000  0.49451000  0.74032000  1.0
  C  C70  1  0.51102000  0.81672000  0.87760000  1.0
  C  C71  1  0.19884000  0.05315000  0.56216000  1.0
  C  C72  1  0.55213000  0.91715000  0.12515000  1.0
  C  C73  1  0.01013000  0.08767000  0.50505000  1.0
  C  C74  1  0.54103000  0.04020000  0.05457000  1.0
  C  C75  1  0.12930000  0.22046000  0.71938000  1.0
  C  C76  1  0.60979000  0.98735000  0.09313000  1.0
  C  C77  1  0.11433000  0.19540000  0.60149000  1.0
  C  C78  1  0.42503000  0.82727000  0.91565000  1.0
  C  C79  1  0.12155000  0.02100000  0.60284000  1.0
  C  C80  1  0.44847000  0.81662000  0.01700000  1.0
  C  C81  1  0.00969000  0.99408000  0.52237000  1.0
  C  C82  1  0.96685000  0.56889000  0.29742000  1.0
  C  C83  1  0.26567000  0.51277000  0.37629000  1.0
  C  C84  1  0.42946000  0.94985000  0.97286000  1.0
  C  C85  1  0.88987000  0.47999000  0.18493000  1.0
  C  C86  1  0.15002000  0.12398000  0.72484000  1.0
  C  C87  1  0.85006000  0.47560000  0.08248000  1.0
  C  C88  1  0.34621000  0.38669000  0.26774000  1.0
  C  C89  1  0.88524000  0.55907000  0.07320000  1.0
  C  C90  1  0.42809000  0.46311000  0.28610000  1.0
  C  C91  1  0.26654000  0.40930000  0.29913000  1.0
  C  C92  1  0.91225000  0.62014000  0.95557000  1.0
  C  C93  1  0.61284000  0.53177000  0.33746000  1.0
  C  C94  1  0.86260000  0.54319000  0.96588000  1.0
  C  C95  1  0.52121000  0.44828000  0.29074000  1.0
  C  C96  1  0.06429000  0.87846000  0.64437000  1.0
  C  C97  1  0.22436000  0.74761000  0.81159000  1.0
  C  C98  1  0.81214000  0.11506000  0.20597000  1.0
  C  C99  1  0.12380000  0.31647000  0.52278000  1.0
  C  C100  1  0.16495000  0.84560000  0.56240000  1.0
  C  C101  1  0.29154000  0.65621000  0.70204000  1.0
  C  C102  1  0.72330000  0.16365000  0.30300000  1.0
  C  C103  1  0.04013000  0.34487000  0.62507000  1.0
  C  C104  1  0.87371000  0.38799000  0.19075000  1.0
  C  C105  1  0.17735000  0.33167000  0.27547000  1.0
  C  C106  1  0.80801000  0.61660000  0.45860000  1.0
  C  C107  1  0.95669000  0.67364000  0.83263000  1.0
  C  C108  1  0.71119000  0.52603000  0.37821000  1.0
  C  C109  1  0.90825000  0.59787000  0.84938000  1.0
  N  N110  1  0.82971000  0.46963000  0.44107000  1.0
  N  N111  1  0.14710000  0.66563000  0.70637000  1.0
  N  N112  1  0.07408000  0.78544000  0.62752000  1.0
  N  N113  1  0.87557000  0.21164000  0.31076000  1.0
  N  N114  1  0.07359000  0.37860000  0.50957000  1.0
  N  N115  1  0.13782000  0.76419000  0.57578000  1.0
  N  N116  1  0.18840000  0.61009000  0.63732000  1.0
  N  N117  1  0.88409000  0.50830000  0.66585000  1.0
  N  N118  1  0.82008000  0.24101000  0.37201000  1.0
  N  N119  1  0.02270000  0.39775000  0.57500000  1.0
  N  N120  1  0.93655000  0.41858000  0.29525000  1.0
  N  N121  1  0.12908000  0.38348000  0.33424000  1.0
  N  N122  1  0.87730000  0.58127000  0.49634000  1.0
  N  N123  1  0.94161000  0.62001000  0.72318000  1.0
  N  N124  1  0.50719000  0.70308000  0.81916000  1.0
  N  N125  1  0.16521000  0.96359000  0.44054000  1.0
  N  N126  1  0.61382000  0.87699000  0.17750000  1.0
  N  N127  1  0.00097000  0.04944000  0.39242000  1.0
  N  N128  1  0.44805000  0.70684000  0.98339000  1.0
  N  N129  1  0.95445000  0.88320000  0.41190000  1.0
  N  N130  1  0.58572000  0.08820000  0.00434000  1.0
  N  N131  1  0.20249000  0.33443000  0.81515000  1.0
  N  N132  1  0.36085000  0.96369000  0.89157000  1.0
  N  N133  1  0.99362000  0.53141000  0.36145000  1.0
  N  N134  1  0.25770000  0.15951000  0.80548000  1.0
  N  N135  1  0.18512000  0.49755000  0.39703000  1.0
  O  O136  1  0.67994000  0.95752000  0.95498000  1.0
  O  O137  1  0.92245000  0.10973000  0.51763000  1.0
  O  O138  1  0.52605000  0.99406000  0.20913000  1.0
  O  O139  1  0.00380000  0.91986000  0.69279000  1.0
  O  O140  1  0.20566000  0.82838000  0.89140000  1.0
  O  O141  1  0.85311000  0.07139000  0.13440000  1.0
  O  O142  1  0.18785000  0.29098000  0.47459000  1.0
  O  O143  1  0.30112000  0.25703000  0.66940000  1.0
  O  O144  1  0.80642000  0.27899000  0.10765000  1.0
  O  O145  1  0.13723000  0.21823000  0.20739000  1.0
  O  O146  1  0.49368000  0.84495000  0.79803000  1.0
  O  O147  1  0.29736000  0.06277000  0.62340000  1.0
