# generated using pymatgen
data_CuH5C6NO3
_symmetry_space_group_name_H-M   'P 1'
_cell_length_a   3.60227000
_cell_length_b   12.94417819
_cell_length_c   15.58800000
_cell_angle_alpha   89.99940423
_cell_angle_beta   89.99930000
_cell_angle_gamma   82.50171867
_symmetry_Int_Tables_number   1
_chemical_formula_structural   CuH5C6NO3
_chemical_formula_sum   'Cu4 H20 C24 N4 O12'
_cell_volume   720.62848038
_cell_formula_units_Z   4
loop_
 _symmetry_equiv_pos_site_id
 _symmetry_equiv_pos_as_xyz
  1  'x, y, z'
loop_
 _atom_site_type_symbol
 _atom_site_label
 _atom_site_symmetry_multiplicity
 _atom_site_fract_x
 _atom_site_fract_y
 _atom_site_fract_z
 _atom_site_occupancy
  Cu  Cu0  1  0.23802000  0.50807000  0.92051000  1.0
  Cu  Cu1  1  0.23803000  0.00808000  0.57949000  1.0
  Cu  Cu2  1  0.76196000  0.49193000  0.07949000  1.0
  Cu  Cu3  1  0.76200000  0.99193000  0.42051000  1.0
  H  H4  1  0.32115000  0.35445000  0.01017000  1.0
  H  H5  1  0.32115000  0.85446000  0.48983000  1.0
  H  H6  1  0.67887000  0.64554000  0.98983000  1.0
  H  H7  1  0.67887000  0.14555000  0.51017000  1.0
  H  H8  1  0.10302000  0.73056000  0.89959000  1.0
  H  H9  1  0.10302000  0.23057000  0.60041000  1.0
  H  H10  1  0.89698000  0.26944000  0.10041000  1.0
  H  H11  1  0.89700000  0.76944000  0.39960000  1.0
  H  H12  1  0.81422000  0.85206000  0.78411000  1.0
  H  H13  1  0.81420000  0.35206000  0.71590000  1.0
  H  H14  1  0.18579000  0.14794000  0.21590000  1.0
  H  H15  1  0.18578000  0.64794000  0.28411000  1.0
  H  H16  1  0.90856000  0.59169000  0.61130000  1.0
  H  H17  1  0.90857000  0.09169000  0.88869000  1.0
  H  H18  1  0.09145000  0.40832000  0.38869000  1.0
  H  H19  1  0.09142000  0.90831000  0.11131000  1.0
  H  H20  1  0.19330000  0.47868000  0.73452000  1.0
  H  H21  1  0.19331000  0.97869000  0.76547000  1.0
  H  H22  1  0.80670000  0.52132000  0.26547000  1.0
  H  H23  1  0.80671000  0.02131000  0.23453000  1.0
  C  C24  1  0.05437000  0.70321000  0.83486000  1.0
  C  C25  1  0.05436000  0.20322000  0.66514000  1.0
  C  C26  1  0.94563000  0.29679000  0.16514000  1.0
  C  C27  1  0.94565000  0.79678000  0.33486000  1.0
  C  C28  1  0.89726000  0.76975000  0.77107000  1.0
  C  C29  1  0.89726000  0.26975000  0.72893000  1.0
  C  C30  1  0.10272000  0.23026000  0.22894000  1.0
  C  C31  1  0.10273000  0.73025000  0.27107000  1.0
  C  C32  1  0.83525000  0.72989000  0.68968000  1.0
  C  C33  1  0.83526000  0.22988000  0.81032000  1.0
  C  C34  1  0.16474000  0.27012000  0.31032000  1.0
  C  C35  1  0.16472000  0.77011000  0.18968000  1.0
  C  C36  1  0.94852000  0.62405000  0.67464000  1.0
  C  C37  1  0.94855000  0.12404000  0.82536000  1.0
  C  C38  1  0.05146000  0.37596000  0.32536000  1.0
  C  C39  1  0.05146000  0.87595000  0.17464000  1.0
  C  C40  1  0.10378000  0.56193000  0.74165000  1.0
  C  C41  1  0.10379000  0.06193000  0.75834000  1.0
  C  C42  1  0.89622000  0.43807000  0.25834000  1.0
  C  C43  1  0.89622000  0.93807000  0.24166000  1.0
  C  C44  1  0.63845000  0.79883000  0.62083000  1.0
  C  C45  1  0.63848000  0.29882000  0.87918000  1.0
  C  C46  1  0.36152000  0.20118000  0.37917000  1.0
  C  C47  1  0.36151000  0.70117000  0.12082000  1.0
  N  N48  1  0.14922000  0.60040000  0.82061000  1.0
  N  N49  1  0.14923000  0.10040000  0.67938000  1.0
  N  N50  1  0.85077000  0.39960000  0.17939000  1.0
  N  N51  1  0.85080000  0.89960000  0.32062000  1.0
  O  O52  1  0.24488000  0.42872000  0.02684000  1.0
  O  O53  1  0.24493000  0.92872000  0.47315000  1.0
  O  O54  1  0.75512000  0.57128000  0.97315000  1.0
  O  O55  1  0.75515000  0.07128000  0.52684000  1.0
  O  O56  1  0.55113000  0.89437000  0.64422000  1.0
  O  O57  1  0.55112000  0.39436000  0.85578000  1.0
  O  O58  1  0.44891000  0.10564000  0.35577000  1.0
  O  O59  1  0.44884000  0.60563000  0.14422000  1.0
  O  O60  1  0.57093000  0.75827000  0.55023000  1.0
  O  O61  1  0.57101000  0.25826000  0.94977000  1.0
  O  O62  1  0.42901000  0.24173000  0.44977000  1.0
  O  O63  1  0.42901000  0.74173000  0.05023000  1.0
