# generated using pymatgen
data_CdH20C26S2(N2O)2
_symmetry_space_group_name_H-M   'P 1'
_cell_length_a   10.59350000
_cell_length_b   10.59360000
_cell_length_c   11.43120000
_cell_angle_alpha   81.77480000
_cell_angle_beta   81.77500000
_cell_angle_gamma   82.77630000
_symmetry_Int_Tables_number   1
_chemical_formula_structural   CdH20C26S2(N2O)2
_chemical_formula_sum   'Cd2 H40 C52 S4 N8 O4'
_cell_volume   1249.31248707
_cell_formula_units_Z   2
loop_
 _symmetry_equiv_pos_site_id
 _symmetry_equiv_pos_as_xyz
  1  'x, y, z'
loop_
 _atom_site_type_symbol
 _atom_site_label
 _atom_site_symmetry_multiplicity
 _atom_site_fract_x
 _atom_site_fract_y
 _atom_site_fract_z
 _atom_site_occupancy
  Cd  Cd0  1  0.50000000  0.50000000  0.50000000  1.0
  Cd  Cd1  1  0.50000000  0.50000000  0.00000000  1.0
  H  H2  1  0.52135000  0.79962000  0.94535000  1.0
  H  H3  1  0.79962000  0.52135000  0.44535000  1.0
  H  H4  1  0.47865000  0.20037000  0.05465000  1.0
  H  H5  1  0.20038000  0.47866000  0.55465000  1.0
  H  H6  1  0.21307000  0.60627000  0.10405000  1.0
  H  H7  1  0.60627000  0.21306000  0.60405000  1.0
  H  H8  1  0.78693000  0.39373000  0.89595000  1.0
  H  H9  1  0.39373000  0.78693000  0.39595000  1.0
  H  H10  1  0.39105000  0.01437000  0.95885000  1.0
  H  H11  1  0.01437000  0.39104000  0.45885000  1.0
  H  H12  1  0.60896000  0.98563000  0.04115000  1.0
  H  H13  1  0.98563000  0.60896000  0.54115000  1.0
  H  H14  1  0.16099000  0.01952000  0.05078000  1.0
  H  H15  1  0.01952000  0.16099000  0.55078000  1.0
  H  H16  1  0.83901000  0.98048000  0.94922000  1.0
  H  H17  1  0.98048000  0.83901000  0.44922000  1.0
  H  H18  1  0.97665000  0.77633000  0.06732000  1.0
  H  H19  1  0.77633000  0.97665000  0.56732000  1.0
  H  H20  1  0.02335000  0.22367000  0.93267000  1.0
  H  H21  1  0.22367000  0.02335000  0.43268000  1.0
  H  H22  1  0.01920000  0.74043000  0.21495000  1.0
  H  H23  1  0.74043000  0.01920000  0.71495000  1.0
  H  H24  1  0.98080000  0.25957000  0.78504000  1.0
  H  H25  1  0.25957000  0.98080000  0.28505000  1.0
  H  H26  1  0.79779000  0.76882000  0.21396000  1.0
  H  H27  1  0.76882000  0.79778000  0.71396000  1.0
  H  H28  1  0.20221000  0.23118000  0.78604000  1.0
  H  H29  1  0.23118000  0.20222000  0.28604000  1.0
  H  H30  1  0.67642000  0.20141000  0.34187000  1.0
  H  H31  1  0.20142000  0.67643000  0.84187000  1.0
  H  H32  1  0.32358000  0.79858000  0.65813000  1.0
  H  H33  1  0.79858000  0.32358000  0.15813000  1.0
  H  H34  1  0.51811000  0.04342000  0.37903000  1.0
  H  H35  1  0.04343000  0.51811000  0.87903000  1.0
  H  H36  1  0.48189000  0.95658000  0.62097000  1.0
  H  H37  1  0.95658000  0.48189000  0.12097000  1.0
  H  H38  1  0.58318000  0.82203000  0.31801000  1.0
  H  H39  1  0.82203000  0.58317000  0.81801000  1.0
  H  H40  1  0.41682000  0.17797000  0.68200000  1.0
  H  H41  1  0.17797000  0.41682000  0.18199000  1.0
  C  C42  1  0.42126000  0.80777000  0.98509000  1.0
  C  C43  1  0.80777000  0.42125000  0.48509000  1.0
  C  C44  1  0.57874000  0.19222000  0.01491000  1.0
  C  C45  1  0.19222000  0.57874000  0.51491000  1.0
  C  C46  1  0.24852000  0.69934000  0.07332000  1.0
  C  C47  1  0.69934000  0.24852000  0.57332000  1.0
  C  C48  1  0.75148000  0.30067000  0.92668000  1.0
  C  C49  1  0.30067000  0.75148000  0.42668000  1.0
  C  C50  1  0.34889000  0.92582000  0.99363000  1.0
  C  C51  1  0.92582000  0.34888000  0.49363000  1.0
  C  C52  1  0.65111000  0.07418000  0.00637000  1.0
  C  C53  1  0.07418000  0.65111000  0.50637000  1.0
  C  C54  1  0.16811000  0.81331000  0.08329000  1.0
  C  C55  1  0.81331000  0.16811000  0.58329000  1.0
  C  C56  1  0.83189000  0.18669000  0.91671000  1.0
  C  C57  1  0.18669000  0.83189000  0.41671000  1.0
  C  C58  1  0.22068000  0.92884000  0.04341000  1.0
  C  C59  1  0.92884000  0.22068000  0.54341000  1.0
  C  C60  1  0.77933000  0.07116000  0.95659000  1.0
  C  C61  1  0.07116000  0.77932000  0.45659000  1.0
  C  C62  1  0.02905000  0.80897000  0.13264000  1.0
  C  C63  1  0.80897000  0.02905000  0.63264000  1.0
  C  C64  1  0.97095000  0.19104000  0.86736000  1.0
  C  C65  1  0.19104000  0.97095000  0.36736000  1.0
  C  C66  1  0.86063000  0.95412000  0.22096000  1.0
  C  C67  1  0.95412000  0.86063000  0.72096000  1.0
  C  C68  1  0.13937000  0.04588000  0.77904000  1.0
  C  C69  1  0.04588000  0.13937000  0.27904000  1.0
  C  C70  1  0.82869000  0.07660000  0.25963000  1.0
  C  C71  1  0.07660000  0.82869000  0.75963000  1.0
  C  C72  1  0.17130000  0.92340000  0.74037000  1.0
  C  C73  1  0.92340000  0.17131000  0.24037000  1.0
  C  C74  1  0.77287000  0.86291000  0.24385000  1.0
  C  C75  1  0.86291000  0.77287000  0.74385000  1.0
  C  C76  1  0.22713000  0.13709000  0.75615000  1.0
  C  C77  1  0.13709000  0.22713000  0.25615000  1.0
  C  C78  1  0.70363000  0.10640000  0.31407000  1.0
  C  C79  1  0.10641000  0.70363000  0.81407000  1.0
  C  C80  1  0.29637000  0.89360000  0.68593000  1.0
  C  C81  1  0.89360000  0.29637000  0.18593000  1.0
  C  C82  1  0.61415000  0.01681000  0.33516000  1.0
  C  C83  1  0.01681000  0.61415000  0.83516000  1.0
  C  C84  1  0.38585000  0.98319000  0.66484000  1.0
  C  C85  1  0.98319000  0.38585000  0.16484000  1.0
  C  C86  1  0.64988000  0.89476000  0.30143000  1.0
  C  C87  1  0.89477000  0.64988000  0.80143000  1.0
  C  C88  1  0.35012000  0.10523000  0.69857000  1.0
  C  C89  1  0.10523000  0.35012000  0.19857000  1.0
  C  C90  1  0.58899000  0.63668000  0.71348000  1.0
  C  C91  1  0.63669000  0.58900000  0.21348000  1.0
  C  C92  1  0.41100000  0.36332000  0.28651000  1.0
  C  C93  1  0.36331000  0.41101000  0.78652000  1.0
  S  S94  1  0.60243000  0.70012000  0.57419000  1.0
  S  S95  1  0.70012000  0.60243000  0.07420000  1.0
  S  S96  1  0.39757000  0.29989000  0.42580000  1.0
  S  S97  1  0.29988000  0.39757000  0.92581000  1.0
  N  N98  1  0.37169000  0.69647000  0.02520000  1.0
  N  N99  1  0.69647000  0.37169000  0.52520000  1.0
  N  N100  1  0.62831000  0.30353000  0.97480000  1.0
  N  N101  1  0.30353000  0.62831000  0.47479000  1.0
  N  N102  1  0.58281000  0.59147000  0.81467000  1.0
  N  N103  1  0.59147000  0.58281000  0.31467000  1.0
  N  N104  1  0.41718000  0.40853000  0.18533000  1.0
  N  N105  1  0.40853000  0.41719000  0.68534000  1.0
  O  O106  1  0.97882000  0.93505000  0.15645000  1.0
  O  O107  1  0.93505000  0.97882000  0.65645000  1.0
  O  O108  1  0.02118000  0.06495000  0.84355000  1.0
  O  O109  1  0.06495000  0.02118000  0.34355000  1.0
