# generated using pymatgen
data_Cd2H22C28(N2O3)3
_symmetry_space_group_name_H-M   'P 1'
_cell_length_a   9.65991000
_cell_length_b   12.33230000
_cell_length_c   14.07500000
_cell_angle_alpha   111.53200000
_cell_angle_beta   90.00000000
_cell_angle_gamma   113.05700000
_symmetry_Int_Tables_number   1
_chemical_formula_structural   Cd2H22C28(N2O3)3
_chemical_formula_sum   'Cd4 H44 C56 N12 O18'
_cell_volume   1414.74342030
_cell_formula_units_Z   2
loop_
 _symmetry_equiv_pos_site_id
 _symmetry_equiv_pos_as_xyz
  1  'x, y, z'
loop_
 _atom_site_type_symbol
 _atom_site_label
 _atom_site_symmetry_multiplicity
 _atom_site_fract_x
 _atom_site_fract_y
 _atom_site_fract_z
 _atom_site_occupancy
  Cd  Cd0  1  0.93918000  0.94404000  0.34701000  1.0
  Cd  Cd1  1  0.99540000  0.05599000  0.15307000  1.0
  Cd  Cd2  1  0.06082000  0.05596000  0.65299000  1.0
  Cd  Cd3  1  0.00460000  0.94401000  0.84693000  1.0
  H  H4  1  0.37544000  0.80670000  0.16765000  1.0
  H  H5  1  0.56901000  0.19305000  0.33221000  1.0
  H  H6  1  0.62456000  0.19330000  0.83235000  1.0
  H  H7  1  0.43100000  0.80695000  0.66778000  1.0
  H  H8  1  0.21364000  0.58948000  0.41397000  1.0
  H  H9  1  0.62407000  0.41053000  0.08609000  1.0
  H  H10  1  0.78636000  0.41052000  0.58603000  1.0
  H  H11  1  0.37594000  0.58947000  0.91391000  1.0
  H  H12  1  0.24798000  0.79893000  0.32302000  1.0
  H  H13  1  0.44938000  0.20098000  0.17689000  1.0
  H  H14  1  0.75202000  0.20107000  0.67698000  1.0
  H  H15  1  0.55063000  0.79902000  0.82311000  1.0
  H  H16  1  0.98263000  0.78232000  0.47750000  1.0
  H  H17  1  0.20022000  0.21774000  0.02266000  1.0
  H  H18  1  0.01737000  0.21768000  0.52250000  1.0
  H  H19  1  0.79978000  0.78226000  0.97734000  1.0
  H  H20  1  0.92839000  0.65472000  0.15196000  1.0
  H  H21  1  0.27399000  0.34553000  0.34821000  1.0
  H  H22  1  0.07161000  0.34528000  0.84804000  1.0
  H  H23  1  0.72599000  0.65446000  0.65178000  1.0
  H  H24  1  0.40126000  0.83085000  0.48280000  1.0
  H  H25  1  0.57073000  0.16913000  0.01712000  1.0
  H  H26  1  0.59873000  0.16914000  0.51720000  1.0
  H  H27  1  0.42927000  0.83088000  0.98288000  1.0
  H  H28  1  0.94062000  0.46179000  0.20793000  1.0
  H  H29  1  0.47891000  0.53841000  0.29210000  1.0
  H  H30  1  0.05938000  0.53822000  0.79207000  1.0
  H  H31  1  0.52108000  0.46159000  0.70790000  1.0
  H  H32  1  0.29456000  0.40782000  0.52112000  1.0
  H  H33  1  0.88670000  0.59202000  0.97893000  1.0
  H  H34  1  0.70544000  0.59218000  0.47888000  1.0
  H  H35  1  0.11331000  0.40798000  0.02108000  1.0
  H  H36  1  0.33469000  0.54703000  0.63493000  1.0
  H  H37  1  0.78766000  0.45281000  0.86510000  1.0
  H  H38  1  0.66531000  0.45297000  0.36507000  1.0
  H  H39  1  0.21233000  0.54718000  0.13490000  1.0
  H  H40  1  0.38558000  0.56326000  0.51827000  1.0
  H  H41  1  0.82219000  0.43660000  0.98180000  1.0
  H  H42  1  0.61443000  0.43674000  0.48173000  1.0
  H  H43  1  0.17780000  0.56340000  0.01821000  1.0
  H  H44  1  0.17330000  0.94008000  0.19183000  1.0
  H  H45  1  0.23318000  0.06006000  0.30837000  1.0
  H  H46  1  0.82670000  0.05992000  0.80817000  1.0
  H  H47  1  0.76682000  0.93993000  0.69163000  1.0
  C  C48  1  0.59040000  0.83998000  0.24397000  1.0
  C  C49  1  0.75078000  0.15996000  0.25589000  1.0
  C  C50  1  0.40960000  0.16002000  0.75603000  1.0
  C  C51  1  0.24922000  0.84005000  0.74411000  1.0
  C  C52  1  0.43624000  0.81738000  0.23803000  1.0
  C  C53  1  0.61916000  0.18246000  0.26184000  1.0
  C  C54  1  0.56376000  0.18262000  0.76197000  1.0
  C  C55  1  0.38084000  0.81755000  0.73816000  1.0
  C  C56  1  0.14541000  0.50169000  0.52376000  1.0
  C  C57  1  0.64367000  0.49822000  0.97623000  1.0
  C  C58  1  0.85460000  0.49831000  0.47623000  1.0
  C  C59  1  0.35633000  0.50178000  0.02378000  1.0
  C  C60  1  0.70810000  0.88739000  0.51103000  1.0
  C  C61  1  0.82071000  0.11234000  0.98876000  1.0
  C  C62  1  0.29190000  0.11261000  0.48897000  1.0
  C  C63  1  0.17929000  0.88766000  0.01124000  1.0
  C  C64  1  0.12060000  0.54753000  0.45128000  1.0
  C  C65  1  0.57302000  0.45246000  0.04875000  1.0
  C  C66  1  0.87940000  0.45247000  0.54872000  1.0
  C  C67  1  0.42699000  0.54755000  0.95125000  1.0
  C  C68  1  0.60601000  0.85698000  0.41430000  1.0
  C  C69  1  0.74927000  0.14289000  0.08557000  1.0
  C  C70  1  0.39399000  0.14301000  0.58570000  1.0
  C  C71  1  0.25073000  0.85711000  0.91443000  1.0
  C  C72  1  0.36702000  0.81374000  0.32442000  1.0
  C  C73  1  0.55358000  0.18616000  0.17548000  1.0
  C  C74  1  0.63298000  0.18625000  0.67558000  1.0
  C  C75  1  0.44643000  0.81385000  0.82452000  1.0
  C  C76  1  0.97898000  0.54537000  0.42863000  1.0
  C  C77  1  0.43358000  0.45471000  0.07141000  1.0
  C  C78  1  0.02102000  0.45463000  0.57137000  1.0
  C  C79  1  0.56643000  0.54529000  0.92859000  1.0
  C  C80  1  0.96639000  0.72293000  0.39571000  1.0
  C  C81  1  0.24347000  0.27720000  0.10444000  1.0
  C  C82  1  0.03361000  0.27707000  0.60429000  1.0
  C  C83  1  0.75653000  0.72280000  0.89556000  1.0
  C  C84  1  0.94032000  0.65181000  0.22735000  1.0
  C  C85  1  0.28874000  0.34838000  0.27280000  1.0
  C  C86  1  0.05968000  0.34819000  0.77265000  1.0
  C  C87  1  0.71125000  0.65161000  0.72720000  1.0
  C  C88  1  0.67313000  0.84823000  0.15318000  1.0
  C  C89  1  0.82535000  0.15183000  0.34672000  1.0
  C  C90  1  0.32687000  0.15177000  0.84682000  1.0
  C  C91  1  0.17466000  0.84816000  0.65328000  1.0
  C  C92  1  0.45170000  0.83161000  0.41367000  1.0
  C  C93  1  0.62037000  0.16832000  0.08624000  1.0
  C  C94  1  0.54829000  0.16838000  0.58632000  1.0
  C  C95  1  0.37963000  0.83168000  0.91376000  1.0
  C  C96  1  0.94739000  0.55670000  0.25347000  1.0
  C  C97  1  0.39082000  0.44349000  0.24661000  1.0
  C  C98  1  0.05261000  0.44330000  0.74652000  1.0
  C  C99  1  0.60918000  0.55651000  0.75339000  1.0
  C  C100  1  0.29799000  0.50500000  0.55064000  1.0
  C  C101  1  0.79293000  0.49486000  0.94940000  1.0
  C  C102  1  0.70201000  0.49500000  0.44936000  1.0
  C  C103  1  0.20707000  0.50515000  0.05061000  1.0
  N  N104  1  0.67229000  0.86124000  0.33111000  1.0
  N  N105  1  0.81137000  0.13868000  0.16874000  1.0
  N  N106  1  0.32771000  0.13875000  0.66888000  1.0
  N  N107  1  0.18863000  0.86132000  0.83126000  1.0
  N  N108  1  0.96408000  0.60383000  0.36069000  1.0
  N  N109  1  0.36022000  0.39632000  0.13939000  1.0
  N  N110  1  0.03592000  0.39617000  0.63931000  1.0
  N  N111  1  0.63978000  0.60368000  0.86061000  1.0
  N  N112  1  0.95247000  0.75411000  0.31661000  1.0
  N  N113  1  0.19851000  0.24605000  0.18357000  1.0
  N  N114  1  0.04753000  0.24589000  0.68339000  1.0
  N  N115  1  0.80148000  0.75394000  0.81642000  1.0
  O  O116  1  0.14348000  0.99998000  0.25011000  1.0
  O  O117  1  0.85652000  0.00002000  0.74988000  1.0
  O  O118  1  0.81561000  0.86857000  0.16534000  1.0
  O  O119  1  0.94758000  0.13164000  0.33463000  1.0
  O  O120  1  0.18439000  0.13143000  0.83465000  1.0
  O  O121  1  0.05242000  0.86836000  0.66536000  1.0
  O  O122  1  0.85222000  0.94079000  0.51245000  1.0
  O  O123  1  0.91159000  0.05910000  0.98737000  1.0
  O  O124  1  0.14778000  0.05921000  0.48755000  1.0
  O  O125  1  0.08841000  0.94090000  0.01263000  1.0
  O  O126  1  0.60085000  0.83716000  0.07441000  1.0
  O  O127  1  0.76411000  0.16286000  0.42547000  1.0
  O  O128  1  0.39915000  0.16285000  0.92559000  1.0
  O  O129  1  0.23590000  0.83714000  0.57453000  1.0
  O  O130  1  0.64537000  0.85963000  0.58264000  1.0
  O  O131  1  0.78541000  0.13983000  0.91706000  1.0
  O  O132  1  0.35462000  0.14037000  0.41736000  1.0
  O  O133  1  0.21458000  0.86017000  0.08293000  1.0
