# generated using pymatgen
data_AgH9C10SN3(OF)3
_symmetry_space_group_name_H-M   'P 1'
_cell_length_a   7.74869000
_cell_length_b   8.01466000
_cell_length_c   12.00130000
_cell_angle_alpha   90.28300000
_cell_angle_beta   95.33220000
_cell_angle_gamma   111.73500000
_symmetry_Int_Tables_number   1
_chemical_formula_structural   AgH9C10SN3(OF)3
_chemical_formula_sum   'Ag2 H18 C20 S2 N6 O6 F6'
_cell_volume   688.71063894
_cell_formula_units_Z   2
loop_
 _symmetry_equiv_pos_site_id
 _symmetry_equiv_pos_as_xyz
  1  'x, y, z'
loop_
 _atom_site_type_symbol
 _atom_site_label
 _atom_site_symmetry_multiplicity
 _atom_site_fract_x
 _atom_site_fract_y
 _atom_site_fract_z
 _atom_site_occupancy
  Ag  Ag0  1  0.14913000  0.42280000  0.21692000  1.0
  Ag  Ag1  1  0.85087000  0.57720000  0.78308000  1.0
  H  H2  1  0.59346000  0.37250000  0.42437000  1.0
  H  H3  1  0.40654000  0.62749000  0.57563000  1.0
  H  H4  1  0.70937000  0.30815000  0.54266000  1.0
  H  H5  1  0.29063000  0.69185000  0.45734000  1.0
  H  H6  1  0.59655000  0.14973000  0.42786000  1.0
  H  H7  1  0.40345000  0.85027000  0.57214000  1.0
  H  H8  1  0.18877000  0.79046000  0.23795000  1.0
  H  H9  1  0.81123000  0.20954000  0.76205000  1.0
  H  H10  1  0.96994000  0.73788000  0.15650000  1.0
  H  H11  1  0.03006000  0.26212000  0.84350000  1.0
  H  H12  1  0.24705000  0.99964000  0.96678000  1.0
  H  H13  1  0.75295000  0.00036000  0.03322000  1.0
  H  H14  1  0.38004000  0.89289000  0.81488000  1.0
  H  H15  1  0.61997000  0.10711000  0.18512000  1.0
  H  H16  1  0.40648000  0.58686000  0.82807000  1.0
  H  H17  1  0.59353000  0.41314000  0.17193000  1.0
  H  H18  1  0.30050000  0.40969000  0.99518000  1.0
  H  H19  1  0.69950000  0.59031000  0.00483000  1.0
  C  C20  1  0.79424000  0.82968000  0.39754000  1.0
  C  C21  1  0.20576000  0.17032000  0.60246000  1.0
  C  C22  1  0.84575000  0.35186000  0.39669000  1.0
  C  C23  1  0.15425000  0.64814000  0.60331000  1.0
  C  C24  1  0.67698000  0.29224000  0.45134000  1.0
  C  C25  1  0.32302000  0.70776000  0.54866000  1.0
  C  C26  1  0.20331000  0.76123000  0.06217000  1.0
  C  C27  1  0.79669000  0.23877000  0.93783000  1.0
  C  C28  1  0.12110000  0.81701000  0.15878000  1.0
  C  C29  1  0.87890000  0.18299000  0.84122000  1.0
  C  C30  1  0.14754000  0.00558000  0.16254000  1.0
  C  C31  1  0.85245000  0.99443000  0.83746000  1.0
  C  C32  1  0.25933000  0.86873000  0.97126000  1.0
  C  C33  1  0.74066000  0.13127000  0.02874000  1.0
  C  C34  1  0.33400000  0.80815000  0.88551000  1.0
  C  C35  1  0.66600000  0.19185000  0.11449000  1.0
  C  C36  1  0.34941000  0.64070000  0.89273000  1.0
  C  C37  1  0.65059000  0.35929000  0.10728000  1.0
  C  C38  1  0.28998000  0.54098000  0.98595000  1.0
  C  C39  1  0.71002000  0.45903000  0.01405000  1.0
  S  S40  1  0.59613000  0.75074000  0.28480000  1.0
  S  S41  1  0.40387000  0.24926000  0.71521000  1.0
  N  N42  1  0.97989000  0.39886000  0.35038000  1.0
  N  N43  1  0.02011000  0.60114000  0.64963000  1.0
  N  N44  1  0.21889000  0.59919000  0.06952000  1.0
  N  N45  1  0.78111000  0.40081000  0.93048000  1.0
  N  N46  1  0.17076000  0.15748000  0.16642000  1.0
  N  N47  1  0.82923000  0.84251000  0.83357000  1.0
  O  O48  1  0.49861000  0.56155000  0.30938000  1.0
  O  O49  1  0.50139000  0.43845000  0.69062000  1.0
  O  O50  1  0.68786000  0.77965000  0.18196000  1.0
  O  O51  1  0.31213000  0.22035000  0.81804000  1.0
  O  O52  1  0.49355000  0.86720000  0.30430000  1.0
  O  O53  1  0.50645000  0.13280000  0.69570000  1.0
  F  F54  1  0.89357000  0.00764000  0.38924000  1.0
  F  F55  1  0.10643000  0.99236000  0.61076000  1.0
  F  F56  1  0.91255000  0.74121000  0.38934000  1.0
  F  F57  1  0.08745000  0.25879000  0.61066000  1.0
  F  F58  1  0.73242000  0.80363000  0.50058000  1.0
  F  F59  1  0.26758000  0.19637000  0.49942000  1.0
