# generated using pymatgen
data_AgH16C13S(NO)3
_symmetry_space_group_name_H-M   'P 1'
_cell_length_a   7.94556000
_cell_length_b   12.49550000
_cell_length_c   14.22510000
_cell_angle_alpha   90.00030000
_cell_angle_beta   89.99880000
_cell_angle_gamma   89.99950000
_symmetry_Int_Tables_number   1
_chemical_formula_structural   AgH16C13S(NO)3
_chemical_formula_sum   'Ag4 H64 C52 S4 N12 O12'
_cell_volume   1412.32120033
_cell_formula_units_Z   4
loop_
 _symmetry_equiv_pos_site_id
 _symmetry_equiv_pos_as_xyz
  1  'x, y, z'
loop_
 _atom_site_type_symbol
 _atom_site_label
 _atom_site_symmetry_multiplicity
 _atom_site_fract_x
 _atom_site_fract_y
 _atom_site_fract_z
 _atom_site_occupancy
  Ag  Ag0  1  0.71525000  0.67947000  0.50918000  1.0
  Ag  Ag1  1  0.28475000  0.17946000  0.49082000  1.0
  Ag  Ag2  1  0.21526000  0.17946000  0.99082000  1.0
  Ag  Ag3  1  0.78472000  0.67947000  0.00918000  1.0
  H  H4  1  0.55306000  0.99136000  0.74294000  1.0
  H  H5  1  0.44699000  0.49135000  0.25706000  1.0
  H  H6  1  0.05305000  0.49136000  0.75706000  1.0
  H  H7  1  0.94700000  0.99136000  0.24294000  1.0
  H  H8  1  0.23895000  0.72236000  0.81419000  1.0
  H  H9  1  0.76106000  0.22232000  0.18581000  1.0
  H  H10  1  0.73895000  0.22236000  0.68581000  1.0
  H  H11  1  0.26104000  0.72233000  0.31419000  1.0
  H  H12  1  0.36883000  0.82623000  0.94047000  1.0
  H  H13  1  0.63119000  0.32623000  0.05953000  1.0
  H  H14  1  0.86884000  0.32623000  0.55953000  1.0
  H  H15  1  0.13119000  0.82624000  0.44046000  1.0
  H  H16  1  0.33182000  0.96170000  0.91143000  1.0
  H  H17  1  0.66821000  0.46169000  0.08860000  1.0
  H  H18  1  0.83181000  0.46170000  0.58858000  1.0
  H  H19  1  0.16819000  0.96170000  0.41140000  1.0
  H  H20  1  0.54004000  0.91128000  0.91453000  1.0
  H  H21  1  0.46000000  0.41128000  0.08548000  1.0
  H  H22  1  0.04004000  0.41129000  0.58547000  1.0
  H  H23  1  0.95999000  0.91128000  0.41452000  1.0
  H  H24  1  0.12989000  0.65398000  0.57600000  1.0
  H  H25  1  0.87011000  0.15394000  0.42400000  1.0
  H  H26  1  0.62989000  0.15399000  0.92400000  1.0
  H  H27  1  0.37010000  0.65393000  0.07601000  1.0
  H  H28  1  0.11528000  0.61975000  0.69667000  1.0
  H  H29  1  0.88470000  0.11974000  0.30332000  1.0
  H  H30  1  0.61528000  0.11975000  0.80333000  1.0
  H  H31  1  0.38467000  0.61973000  0.19668000  1.0
  H  H32  1  0.28474000  0.57102000  0.62702000  1.0
  H  H33  1  0.71525000  0.07101000  0.37296000  1.0
  H  H34  1  0.78474000  0.07103000  0.87298000  1.0
  H  H35  1  0.21523000  0.57101000  0.12704000  1.0
  H  H36  1  0.60178000  0.53391000  0.67397000  1.0
  H  H37  1  0.39822000  0.03391000  0.32603000  1.0
  H  H38  1  0.10181000  0.03391000  0.82603000  1.0
  H  H39  1  0.89819000  0.53393000  0.17397000  1.0
  H  H40  1  0.88060000  0.81432000  0.66642000  1.0
  H  H41  1  0.11939000  0.31432000  0.33358000  1.0
  H  H42  1  0.38060000  0.31433000  0.83358000  1.0
  H  H43  1  0.61938000  0.81434000  0.16642000  1.0
  H  H44  1  0.88067000  0.82040000  0.84422000  1.0
  H  H45  1  0.11931000  0.32040000  0.15578000  1.0
  H  H46  1  0.38068000  0.32041000  0.65578000  1.0
  H  H47  1  0.61930000  0.82042000  0.34422000  1.0
  H  H48  1  0.61907000  0.51383000  0.93928000  1.0
  H  H49  1  0.38092000  0.01383000  0.06073000  1.0
  H  H50  1  0.11908000  0.01383000  0.56073000  1.0
  H  H51  1  0.88092000  0.51386000  0.43928000  1.0
  H  H52  1  0.60157000  0.43461000  0.83554000  1.0
  H  H53  1  0.39842000  0.93461000  0.16446000  1.0
  H  H54  1  0.10159000  0.93463000  0.66448000  1.0
  H  H55  1  0.89843000  0.43464000  0.33555000  1.0
  H  H56  1  0.44021000  0.52827000  0.86555000  1.0
  H  H57  1  0.55978000  0.02826000  0.13445000  1.0
  H  H58  1  0.94020000  0.02826000  0.63445000  1.0
  H  H59  1  0.05980000  0.52830000  0.36555000  1.0
  H  H60  1  0.34910000  0.69178000  0.48876000  1.0
  H  H61  1  0.65091000  0.19178000  0.51125000  1.0
  H  H62  1  0.84910000  0.19178000  0.01124000  1.0
  H  H63  1  0.15089000  0.69177000  0.98875000  1.0
  H  H64  1  0.42312000  0.81667000  0.46052000  1.0
  H  H65  1  0.57688000  0.31666000  0.53948000  1.0
  H  H66  1  0.92312000  0.31667000  0.03947000  1.0
  H  H67  1  0.07688000  0.81666000  0.96052000  1.0
  C  C68  1  0.48048000  0.88933000  0.63001000  1.0
  C  C69  1  0.51952000  0.38933000  0.37000000  1.0
  C  C70  1  0.98049000  0.38933000  0.86999000  1.0
  C  C71  1  0.01952000  0.88934000  0.13001000  1.0
  C  C72  1  0.48094000  0.92062000  0.72387000  1.0
  C  C73  1  0.51908000  0.42061000  0.27614000  1.0
  C  C74  1  0.98095000  0.42062000  0.77613000  1.0
  C  C75  1  0.01907000  0.92062000  0.22386000  1.0
  C  C76  1  0.39743000  0.86086000  0.79279000  1.0
  C  C77  1  0.60257000  0.36085000  0.20722000  1.0
  C  C78  1  0.89745000  0.36088000  0.70722000  1.0
  C  C79  1  0.10255000  0.86088000  0.29278000  1.0
  C  C80  1  0.30651000  0.77105000  0.76275000  1.0
  C  C81  1  0.69349000  0.27103000  0.23726000  1.0
  C  C82  1  0.80653000  0.27105000  0.73726000  1.0
  C  C83  1  0.19347000  0.77104000  0.26273000  1.0
  C  C84  1  0.30230000  0.73794000  0.66866000  1.0
  C  C85  1  0.69770000  0.23792000  0.33135000  1.0
  C  C86  1  0.80231000  0.23794000  0.83134000  1.0
  C  C87  1  0.19768000  0.73792000  0.16864000  1.0
  C  C88  1  0.39574000  0.79550000  0.60101000  1.0
  C  C89  1  0.60427000  0.29550000  0.39900000  1.0
  C  C90  1  0.89575000  0.29550000  0.89899000  1.0
  C  C91  1  0.10425000  0.79550000  0.10100000  1.0
  C  C92  1  0.41025000  0.89159000  0.89458000  1.0
  C  C93  1  0.58978000  0.39159000  0.10542000  1.0
  C  C94  1  0.91025000  0.39160000  0.60542000  1.0
  C  C95  1  0.08976000  0.89160000  0.39458000  1.0
  C  C96  1  0.20352000  0.64074000  0.64060000  1.0
  C  C97  1  0.79649000  0.14072000  0.35939000  1.0
  C  C98  1  0.70351000  0.14075000  0.85940000  1.0
  C  C99  1  0.29648000  0.64071000  0.14060000  1.0
  C  C100  1  0.66666667  0.59671000  0.71285000  1.0
  C  C101  1  0.33333333  0.09672000  0.28715000  1.0
  C  C102  1  0.16670000  0.09672000  0.78715000  1.0
  C  C103  1  0.83329000  0.59673000  0.21285000  1.0
  C  C104  1  0.82171000  0.75205000  0.70856000  1.0
  C  C105  1  0.17828000  0.25204000  0.29145000  1.0
  C  C106  1  0.32170000  0.25205000  0.79144000  1.0
  C  C107  1  0.67827000  0.75206000  0.20856000  1.0
  C  C108  1  0.82145000  0.75485000  0.80588000  1.0
  C  C109  1  0.17853000  0.25484000  0.19412000  1.0
  C  C110  1  0.32145000  0.25486000  0.69412000  1.0
  C  C111  1  0.67853000  0.75486000  0.30588000  1.0
  C  C112  1  0.66646000  0.59808000  0.81152000  1.0
  C  C113  1  0.33353000  0.09807000  0.18847000  1.0
  C  C114  1  0.16646000  0.09809000  0.68848000  1.0
  C  C115  1  0.83353000  0.59810000  0.31152000  1.0
  C  C116  1  0.57706000  0.51392000  0.86584000  1.0
  C  C117  1  0.42294000  0.01391000  0.13416000  1.0
  C  C118  1  0.07706000  0.01392000  0.63417000  1.0
  C  C119  1  0.92294000  0.51395000  0.36584000  1.0
  S  S120  1  0.60481000  0.96232000  0.54770000  1.0
  S  S121  1  0.39520000  0.46232000  0.45230000  1.0
  S  S122  1  0.10480000  0.46232000  0.95230000  1.0
  S  S123  1  0.89520000  0.96232000  0.04769000  1.0
  N  N124  1  0.41578000  0.75750000  0.50973000  1.0
  N  N125  1  0.58422000  0.25749000  0.49027000  1.0
  N  N126  1  0.91579000  0.25749000  0.99027000  1.0
  N  N127  1  0.08421000  0.75749000  0.00973000  1.0
  N  N128  1  0.74488000  0.67172000  0.66182000  1.0
  N  N129  1  0.25511000  0.17172000  0.33819000  1.0
  N  N130  1  0.24489000  0.17173000  0.83818000  1.0
  N  N131  1  0.75510000  0.67173000  0.16181000  1.0
  N  N132  1  0.74634000  0.67780000  0.85733000  1.0
  N  N133  1  0.25365000  0.17779000  0.14267000  1.0
  N  N134  1  0.24632000  0.17781000  0.64267000  1.0
  N  N135  1  0.75365000  0.67781000  0.35733000  1.0
  O  O136  1  0.65437000  0.06248000  0.59441000  1.0
  O  O137  1  0.34565000  0.56247000  0.40561000  1.0
  O  O138  1  0.15436000  0.56248000  0.90561000  1.0
  O  O139  1  0.84563000  0.06248000  0.09439000  1.0
  O  O140  1  0.74989000  0.89323000  0.52535000  1.0
  O  O141  1  0.25012000  0.39323000  0.47465000  1.0
  O  O142  1  0.24989000  0.39323000  0.97466000  1.0
  O  O143  1  0.75011000  0.89323000  0.02534000  1.0
  O  O144  1  0.49509000  0.97904000  0.46468000  1.0
  O  O145  1  0.50492000  0.47902000  0.53533000  1.0
  O  O146  1  0.99506000  0.47902000  0.03533000  1.0
  O  O147  1  0.00493000  0.97902000  0.96466000  1.0
