# generated using pymatgen
data_MnH6(C2O3)2
_symmetry_space_group_name_H-M   'P 1'
_cell_length_a   7.97074000
_cell_length_b   8.88278000
_cell_length_c   9.16105000
_cell_angle_alpha   89.99930000
_cell_angle_beta   89.99970000
_cell_angle_gamma   89.99990000
_symmetry_Int_Tables_number   1
_chemical_formula_structural   MnH6(C2O3)2
_chemical_formula_sum   'Mn4 H24 C16 O24'
_cell_volume   648.62368388
_cell_formula_units_Z   4
loop_
 _symmetry_equiv_pos_site_id
 _symmetry_equiv_pos_as_xyz
  1  'x, y, z'
loop_
 _atom_site_type_symbol
 _atom_site_label
 _atom_site_symmetry_multiplicity
 _atom_site_fract_x
 _atom_site_fract_y
 _atom_site_fract_z
 _atom_site_occupancy
  Mn  Mn0  1  0.89463000  0.39125000  0.06892000  1.0
  Mn  Mn1  1  0.60537000  0.89124000  0.93108000  1.0
  Mn  Mn2  1  0.39464000  0.60875000  0.43108000  1.0
  Mn  Mn3  1  0.10535000  0.10876000  0.56893000  1.0
  H  H4  1  0.96521000  0.35377000  0.35224000  1.0
  H  H5  1  0.53479000  0.85377000  0.64776000  1.0
  H  H6  1  0.46521000  0.64623000  0.14776000  1.0
  H  H7  1  0.03479000  0.14623000  0.85224000  1.0
  H  H8  1  0.99397000  0.53128000  0.34245000  1.0
  H  H9  1  0.50603000  0.03128000  0.65756000  1.0
  H  H10  1  0.49397000  0.46872000  0.15756000  1.0
  H  H11  1  0.00603000  0.96872000  0.84244000  1.0
  H  H12  1  0.23294000  0.54368000  0.08494000  1.0
  H  H13  1  0.26706000  0.04368000  0.91506000  1.0
  H  H14  1  0.73295000  0.45632000  0.41506000  1.0
  H  H15  1  0.76706000  0.95632000  0.58494000  1.0
  H  H16  1  0.15847000  0.76512000  0.99460000  1.0
  H  H17  1  0.34154000  0.26513000  0.00540000  1.0
  H  H18  1  0.65847000  0.23487000  0.50541000  1.0
  H  H19  1  0.84153000  0.73488000  0.49459000  1.0
  H  H20  1  0.14062000  0.53330000  0.74861000  1.0
  H  H21  1  0.35938000  0.03331000  0.25140000  1.0
  H  H22  1  0.64062000  0.46670000  0.75139000  1.0
  H  H23  1  0.85938000  0.96670000  0.24860000  1.0
  H  H24  1  0.09935000  0.72507000  0.71323000  1.0
  H  H25  1  0.40065000  0.22507000  0.28677000  1.0
  H  H26  1  0.59934000  0.27493000  0.78677000  1.0
  H  H27  1  0.90065000  0.77493000  0.21323000  1.0
  C  C28  1  0.09620000  0.66759000  0.94352000  1.0
  C  C29  1  0.40380000  0.16759000  0.05648000  1.0
  C  C30  1  0.59620000  0.33241000  0.55648000  1.0
  C  C31  1  0.90380000  0.83241000  0.44352000  1.0
  C  C32  1  0.90834000  0.70034000  0.94006000  1.0
  C  C33  1  0.59166000  0.20034000  0.05994000  1.0
  C  C34  1  0.40833000  0.29966000  0.55994000  1.0
  C  C35  1  0.09167000  0.79966000  0.44006000  1.0
  C  C36  1  0.16464000  0.64827000  0.78826000  1.0
  C  C37  1  0.33537000  0.14827000  0.21173000  1.0
  C  C38  1  0.66463000  0.35173000  0.71174000  1.0
  C  C39  1  0.83537000  0.85173000  0.28827000  1.0
  C  C40  1  0.35004000  0.68523000  0.77725000  1.0
  C  C41  1  0.14997000  0.18523000  0.22275000  1.0
  C  C42  1  0.85003000  0.31477000  0.72275000  1.0
  C  C43  1  0.64997000  0.81477000  0.27725000  1.0
  O  O44  1  0.80629000  0.60523000  0.99090000  1.0
  O  O45  1  0.69371000  0.10522000  0.00910000  1.0
  O  O46  1  0.30629000  0.39478000  0.50910000  1.0
  O  O47  1  0.19371000  0.89477000  0.49090000  1.0
  O  O48  1  0.91286000  0.44930000  0.31636000  1.0
  O  O49  1  0.58713000  0.94930000  0.68364000  1.0
  O  O50  1  0.41286000  0.55070000  0.18364000  1.0
  O  O51  1  0.08713000  0.05070000  0.81637000  1.0
  O  O52  1  0.12388000  0.53687000  0.03062000  1.0
  O  O53  1  0.37612000  0.03687000  0.96939000  1.0
  O  O54  1  0.62388000  0.46312000  0.46938000  1.0
  O  O55  1  0.87612000  0.96313000  0.53061000  1.0
  O  O56  1  0.86324000  0.82734000  0.88569000  1.0
  O  O57  1  0.63675000  0.32734000  0.11431000  1.0
  O  O58  1  0.36323000  0.17266000  0.61431000  1.0
  O  O59  1  0.13677000  0.67265000  0.38569000  1.0
  O  O60  1  0.42604000  0.72262000  0.89317000  1.0
  O  O61  1  0.07396000  0.22263000  0.10682000  1.0
  O  O62  1  0.92602000  0.27738000  0.60682000  1.0
  O  O63  1  0.57397000  0.77737000  0.39318000  1.0
  O  O64  1  0.42114000  0.68456000  0.65239000  1.0
  O  O65  1  0.07887000  0.18456000  0.34760000  1.0
  O  O66  1  0.92114000  0.31543000  0.84760000  1.0
  O  O67  1  0.57886000  0.81544000  0.15240000  1.0
