# generated using pymatgen
data_Zn2H16C35Br4N4O13
_symmetry_space_group_name_H-M   'P 1'
_cell_length_a   9.84923000
_cell_length_b   10.98600000
_cell_length_c   17.11920000
_cell_angle_alpha   91.87970000
_cell_angle_beta   95.62740000
_cell_angle_gamma   91.59400000
_symmetry_Int_Tables_number   1
_chemical_formula_structural   Zn2H16C35Br4N4O13
_chemical_formula_sum   'Zn2 H16 C35 Br4 N4 O13'
_cell_volume   1841.54359298
_cell_formula_units_Z   1
loop_
 _symmetry_equiv_pos_site_id
 _symmetry_equiv_pos_as_xyz
  1  'x, y, z'
loop_
 _atom_site_type_symbol
 _atom_site_label
 _atom_site_symmetry_multiplicity
 _atom_site_fract_x
 _atom_site_fract_y
 _atom_site_fract_z
 _atom_site_occupancy
  Zn  Zn0  1  0.35709000  0.49825000  0.50618000  1.0
  Zn  Zn1  1  0.64065000  0.49525000  0.50443000  1.0
  H  H2  1  0.28408000  0.81770000  0.39520000  1.0
  H  H3  1  0.20260000  0.85207000  0.48191000  1.0
  H  H4  1  0.18045000  0.06604000  0.44107000  1.0
  H  H5  1  0.87516000  0.64206000  0.58734000  1.0
  H  H6  1  0.13447000  0.24301000  0.43515000  1.0
  H  H7  1  0.42001000  0.30638000  0.89730000  1.0
  H  H8  1  0.88567000  0.21822000  0.45018000  1.0
  H  H9  1  0.62838000  0.39094000  0.12588000  1.0
  H  H10  1  0.65198000  0.64534000  0.90373000  1.0
  H  H11  1  0.63152000  0.42592000  0.26983000  1.0
  H  H12  1  0.71139000  0.14042000  0.56291000  1.0
  H  H13  1  0.19381000  0.01401000  0.29795000  1.0
  H  H14  1  0.10079000  0.43933000  0.31111000  1.0
  H  H15  1  0.70999000  0.27055000  0.34786000  1.0
  H  H16  1  0.13047000  0.62515000  0.11073000  1.0
  H  H17  1  0.11044000  0.58493000  0.23433000  1.0
  C  C18  1  0.50416000  0.25957000  0.48879000  1.0
  C  C19  1  0.32776000  0.55241000  0.21524000  1.0
  C  C20  1  0.46986000  0.37711000  0.86624000  1.0
  C  C21  1  0.47156000  0.37045000  0.78521000  1.0
  C  C22  1  0.53347000  0.47872000  0.90789000  1.0
  C  C23  1  0.53066000  0.46371000  0.74389000  1.0
  C  C24  1  0.59719000  0.56174000  0.78804000  1.0
  C  C25  1  0.60164000  0.56881000  0.86945000  1.0
  C  C26  1  0.40457000  0.04200000  0.47732000  1.0
  C  C27  1  0.50947000  0.12601000  0.50154000  1.0
  C  C28  1  0.62758000  0.07794000  0.54077000  1.0
  C  C29  1  0.44676000  0.51866000  0.35314000  1.0
  C  C30  1  0.64030000  0.95297000  0.55153000  1.0
  C  C31  1  0.53485000  0.86661000  0.52566000  1.0
  C  C32  1  0.41722000  0.91823000  0.49026000  1.0
  C  C33  1  0.28159000  0.88221000  0.44520000  1.0
  C  C34  1  0.27319000  0.02281000  0.42423000  1.0
  C  C35  1  0.92455000  0.41364000  0.47032000  1.0
  C  C36  1  0.92934000  0.57603000  0.55422000  1.0
  C  C37  1  0.07295000  0.58145000  0.55723000  1.0
  C  C38  1  0.06470000  0.42427000  0.46949000  1.0
  C  C39  1  0.07329000  0.31799000  0.41207000  1.0
  C  C40  1  0.53861000  0.73074000  0.52554000  1.0
  C  C41  1  0.91184000  0.29872000  0.41745000  1.0
  C  C42  1  0.51558000  0.46451000  0.65555000  1.0
  C  C43  1  0.43824000  0.51170000  0.26494000  1.0
  C  C44  1  0.54521000  0.45483000  0.23132000  1.0
  C  C45  1  0.54453000  0.43606000  0.15080000  1.0
  C  C46  1  0.43517000  0.47598000  0.10092000  1.0
  C  C47  1  0.32577000  0.53470000  0.13287000  1.0
  C  C48  1  0.28750000  0.03902000  0.33780000  1.0
  C  C49  1  0.11396000  0.34464000  0.32999000  1.0
  C  C50  1  0.81660000  0.30305000  0.34275000  1.0
  C  C51  1  0.21595000  0.58595000  0.08057000  1.0
  C  C52  1  0.21647000  0.62409000  0.24680000  1.0
  Br  Br53  1  0.39249000  0.22891000  0.72884000  1.0
  Br  Br54  1  0.81066000  0.90706000  0.60451000  1.0
  Br  Br55  1  0.16585000  0.69764000  0.62706000  1.0
  Br  Br56  1  0.67783000  0.69382000  0.73754000  1.0
  N  N57  1  0.43231000  0.45474000  0.01929000  1.0
  N  N58  1  0.53234000  0.50248000  0.98962000  1.0
  N  N59  1  0.85274000  0.49033000  0.51021000  1.0
  N  N60  1  0.14409000  0.50642000  0.51307000  1.0
  O  O61  1  0.38957000  0.31030000  0.48942000  1.0
  O  O62  1  0.61831000  0.31303000  0.48005000  1.0
  O  O63  1  0.33566000  0.51338000  0.38582000  1.0
  O  O64  1  0.56637000  0.52415000  0.38895000  1.0
  O  O65  1  0.42199000  0.67636000  0.52027000  1.0
  O  O66  1  0.65254000  0.67876000  0.52665000  1.0
  O  O67  1  0.39472000  0.47623000  0.62412000  1.0
  O  O68  1  0.62295000  0.45729000  0.62072000  1.0
  O  O69  1  0.39347000  0.07088000  0.31214000  1.0
  O  O70  1  0.16013000  0.26622000  0.28938000  1.0
  O  O71  1  0.85284000  0.34194000  0.28192000  1.0
  O  O72  1  0.21321000  0.58803000  0.00892000  1.0
  O  O73  1  0.23758000  0.72203000  0.28243000  1.0
