# generated using pymatgen
data_CdH8C4(NO2)4
_symmetry_space_group_name_H-M   'P 1'
_cell_length_a   7.48940000
_cell_length_b   8.77525000
_cell_length_c   8.77526000
_cell_angle_alpha   84.95660000
_cell_angle_beta   73.58260000
_cell_angle_gamma   73.58230000
_symmetry_Int_Tables_number   1
_chemical_formula_structural   CdH8C4(NO2)4
_chemical_formula_sum   'Cd2 H16 C8 N8 O16'
_cell_volume   530.63168855
_cell_formula_units_Z   2
loop_
 _symmetry_equiv_pos_site_id
 _symmetry_equiv_pos_as_xyz
  1  'x, y, z'
loop_
 _atom_site_type_symbol
 _atom_site_label
 _atom_site_symmetry_multiplicity
 _atom_site_fract_x
 _atom_site_fract_y
 _atom_site_fract_z
 _atom_site_occupancy
  Cd  Cd0  1  0.50000000  0.50000000  0.50000000  1.0
  Cd  Cd1  1  0.00000000  0.00000000  0.00000000  1.0
  H  H2  1  0.31279000  0.50524000  0.24734000  1.0
  H  H3  1  0.18722000  0.25266000  0.99476000  1.0
  H  H4  1  0.68721000  0.49476000  0.75266000  1.0
  H  H5  1  0.81278000  0.74734000  0.00524000  1.0
  H  H6  1  0.48911000  0.58103000  0.18029000  1.0
  H  H7  1  0.01089000  0.31970000  0.91897000  1.0
  H  H8  1  0.51089000  0.41897000  0.81971000  1.0
  H  H9  1  0.98911000  0.68030000  0.08103000  1.0
  H  H10  1  0.75000000  0.27627000  0.22374000  1.0
  H  H11  1  0.24999000  0.72373000  0.77627000  1.0
  H  H12  1  0.54996000  0.14997000  0.69551000  1.0
  H  H13  1  0.95004000  0.80449000  0.35002000  1.0
  H  H14  1  0.45004000  0.85002000  0.30449000  1.0
  H  H15  1  0.04997000  0.19551000  0.64998000  1.0
  H  H16  1  0.75000000  0.86560000  0.63439000  1.0
  H  H17  1  0.25001000  0.13440000  0.36561000  1.0
  C  C18  1  0.75001000  0.18446000  0.31554000  1.0
  C  C19  1  0.24999000  0.81555000  0.68446000  1.0
  C  C20  1  0.64045000  0.11341000  0.57657000  1.0
  C  C21  1  0.85956000  0.92343000  0.38658000  1.0
  C  C22  1  0.35954000  0.88660000  0.42343000  1.0
  C  C23  1  0.14044000  0.07658000  0.61342000  1.0
  C  C24  1  0.75000000  0.95735000  0.54265000  1.0
  C  C25  1  0.25001000  0.04265000  0.45735000  1.0
  N  N26  1  0.94795000  0.49820000  0.31947000  1.0
  N  N27  1  0.55205000  0.18053000  0.00180000  1.0
  N  N28  1  0.05205000  0.50180000  0.68053000  1.0
  N  N29  1  0.44795000  0.81947000  0.99820000  1.0
  N  N30  1  0.64207000  0.22681000  0.46280000  1.0
  N  N31  1  0.85793000  0.03721000  0.27319000  1.0
  N  N32  1  0.35793000  0.77319000  0.53720000  1.0
  N  N33  1  0.14207000  0.96279000  0.72681000  1.0
  O  O34  1  0.44620000  0.49662000  0.25232000  1.0
  O  O35  1  0.05381000  0.24768000  0.00337000  1.0
  O  O36  1  0.55380000  0.50338000  0.74768000  1.0
  O  O37  1  0.94619000  0.75232000  0.99663000  1.0
  O  O38  1  0.77277000  0.57673000  0.32913000  1.0
  O  O39  1  0.72722000  0.17087000  0.92328000  1.0
  O  O40  1  0.22723000  0.42327000  0.67087000  1.0
  O  O41  1  0.27277000  0.82913000  0.07672000  1.0
  O  O42  1  0.98831000  0.37615000  0.40027000  1.0
  O  O43  1  0.51169000  0.09972000  0.12385000  1.0
  O  O44  1  0.01169000  0.62386000  0.59972000  1.0
  O  O45  1  0.48831000  0.90028000  0.87614000  1.0
  O  O46  1  0.08029000  0.55157000  0.22285000  1.0
  O  O47  1  0.41971000  0.27715000  0.94843000  1.0
  O  O48  1  0.91971000  0.44843000  0.77715000  1.0
  O  O49  1  0.58029000  0.72285000  0.05157000  1.0
