# generated using pymatgen
data_Ag2H16C19S(NO2)4
_symmetry_space_group_name_H-M   'P 1'
_cell_length_a   8.42290000
_cell_length_b   10.70700000
_cell_length_c   12.98610000
_cell_angle_alpha   78.48400000
_cell_angle_beta   84.26690000
_cell_angle_gamma   88.45710000
_symmetry_Int_Tables_number   1
_chemical_formula_structural   Ag2H16C19S(NO2)4
_chemical_formula_sum   'Ag4 H32 C38 S2 N8 O16'
_cell_volume   1141.79276527
_cell_formula_units_Z   2
loop_
 _symmetry_equiv_pos_site_id
 _symmetry_equiv_pos_as_xyz
  1  'x, y, z'
loop_
 _atom_site_type_symbol
 _atom_site_label
 _atom_site_symmetry_multiplicity
 _atom_site_fract_x
 _atom_site_fract_y
 _atom_site_fract_z
 _atom_site_occupancy
  Ag  Ag0  1  0.48423000  0.39661000  0.58551000  1.0
  Ag  Ag1  1  0.51577000  0.60339000  0.41449000  1.0
  Ag  Ag2  1  0.41246000  0.60992000  0.05686000  1.0
  Ag  Ag3  1  0.58754000  0.39008000  0.94315000  1.0
  H  H4  1  0.75086000  0.19044000  0.49305000  1.0
  H  H5  1  0.24915000  0.80956000  0.50695000  1.0
  H  H6  1  0.63557000  0.31799000  0.33661000  1.0
  H  H7  1  0.36443000  0.68201000  0.66339000  1.0
  H  H8  1  0.03678000  0.57042000  0.27898000  1.0
  H  H9  1  0.96322000  0.42958000  0.72102000  1.0
  H  H10  1  0.28999000  0.79069000  0.87496000  1.0
  H  H11  1  0.71001000  0.20931000  0.12504000  1.0
  H  H12  1  0.35651000  0.99885000  0.75426000  1.0
  H  H13  1  0.64349000  0.00115000  0.24575000  1.0
  H  H14  1  0.77725000  0.00802000  0.91913000  1.0
  H  H15  1  0.22275000  0.99198000  0.08087000  1.0
  H  H16  1  0.68904000  0.80555000  0.03604000  1.0
  H  H17  1  0.31097000  0.19445000  0.96396000  1.0
  H  H18  1  0.11043000  0.47358000  0.03730000  1.0
  H  H19  1  0.88957000  0.52643000  0.96270000  1.0
  H  H20  1  0.96789000  0.27019000  0.11776000  1.0
  H  H21  1  0.03211000  0.72981000  0.88224000  1.0
  H  H22  1  0.32804000  0.19180000  0.33748000  1.0
  H  H23  1  0.67196000  0.80820000  0.66252000  1.0
  H  H24  1  0.45242000  0.39907000  0.24844000  1.0
  H  H25  1  0.54757000  0.60093000  0.75156000  1.0
  H  H26  1  0.75802000  0.29833000  0.71183000  1.0
  H  H27  1  0.24198000  0.70167000  0.28817000  1.0
  H  H28  1  0.80149000  0.18694000  0.82435000  1.0
  H  H29  1  0.19851000  0.81306000  0.17565000  1.0
  H  H30  1  0.04085000  0.93571000  0.40054000  1.0
  H  H31  1  0.95915000  0.06429000  0.59946000  1.0
  H  H32  1  0.15151000  0.06518000  0.41910000  1.0
  H  H33  1  0.84849000  0.93482000  0.58090000  1.0
  H  H34  1  0.13806000  0.26860000  0.55418000  1.0
  H  H35  1  0.86194000  0.73140000  0.44581000  1.0
  C  C36  1  0.04481000  0.41357000  0.41192000  1.0
  C  C37  1  0.95519000  0.58643000  0.58808000  1.0
  C  C38  1  0.96398000  0.30398000  0.47079000  1.0
  C  C39  1  0.03603000  0.69602000  0.52921000  1.0
  C  C40  1  0.81480000  0.27191000  0.44442000  1.0
  C  C41  1  0.18520000  0.72809000  0.55559000  1.0
  C  C42  1  0.74925000  0.34546000  0.35841000  1.0
  C  C43  1  0.25075000  0.65454000  0.64159000  1.0
  C  C44  1  0.82986000  0.45326000  0.29867000  1.0
  C  C45  1  0.17014000  0.54674000  0.70133000  1.0
  C  C46  1  0.97492000  0.48741000  0.32627000  1.0
  C  C47  1  0.02508000  0.51259000  0.67373000  1.0
  C  C48  1  0.20464000  0.44624000  0.43696000  1.0
  C  C49  1  0.79537000  0.55376000  0.56303000  1.0
  C  C50  1  0.39478000  0.84383000  0.88316000  1.0
  C  C51  1  0.60522000  0.15617000  0.11684000  1.0
  C  C52  1  0.43379000  0.95841000  0.81509000  1.0
  C  C53  1  0.56621000  0.04159000  0.18491000  1.0
  C  C54  1  0.57317000  0.02131000  0.82551000  1.0
  C  C55  1  0.42683000  0.97869000  0.17449000  1.0
  C  C56  1  0.66561000  0.96655000  0.90689000  1.0
  C  C57  1  0.33438000  0.03345000  0.09311000  1.0
  C  C58  1  0.61811000  0.85176000  0.97297000  1.0
  C  C59  1  0.38189000  0.14824000  0.02703000  1.0
  C  C60  1  0.61433000  0.14198000  0.74640000  1.0
  C  C61  1  0.38567000  0.85802000  0.25361000  1.0
  C  C62  1  0.15224000  0.40891000  0.10475000  1.0
  C  C63  1  0.84776000  0.59109000  0.89525000  1.0
  C  C64  1  0.07427000  0.29569000  0.14955000  1.0
  C  C65  1  0.92573000  0.70431000  0.85045000  1.0
  C  C66  1  0.13464000  0.21425000  0.23465000  1.0
  C  C67  1  0.86535000  0.78576000  0.76535000  1.0
  C  C68  1  0.27275000  0.25118000  0.27218000  1.0
  C  C69  1  0.72725000  0.74882000  0.72782000  1.0
  C  C70  1  0.34491000  0.36566000  0.22300000  1.0
  C  C71  1  0.65509000  0.63434000  0.77700000  1.0
  C  C72  1  0.05242000  0.08876000  0.27667000  1.0
  C  C73  1  0.94758000  0.91124000  0.72333000  1.0
  S  S74  1  0.75037000  0.54072000  0.18345000  1.0
  S  S75  1  0.24963000  0.45928000  0.81655000  1.0
  N  N76  1  0.48548000  0.79048000  0.96097000  1.0
  N  N77  1  0.51453000  0.20952000  0.03904000  1.0
  N  N78  1  0.28635000  0.44307000  0.14023000  1.0
  N  N79  1  0.71365000  0.55693000  0.85977000  1.0
  N  N80  1  0.73276000  0.21430000  0.76405000  1.0
  N  N81  1  0.26724000  0.78570000  0.23595000  1.0
  N  N82  1  0.08710000  0.02513000  0.37259000  1.0
  N  N83  1  0.91290000  0.97487000  0.62741000  1.0
  O  O84  1  0.26770000  0.36572000  0.51022000  1.0
  O  O85  1  0.73231000  0.63428000  0.48978000  1.0
  O  O86  1  0.27192000  0.54697000  0.38568000  1.0
  O  O87  1  0.72809000  0.45303000  0.61432000  1.0
  O  O88  1  0.86834000  0.63671000  0.13210000  1.0
  O  O89  1  0.13165000  0.36329000  0.86790000  1.0
  O  O90  1  0.59725000  0.59629000  0.22137000  1.0
  O  O91  1  0.40274000  0.40370000  0.77863000  1.0
  O  O92  1  0.72229000  0.44311000  0.12165000  1.0
  O  O93  1  0.27771000  0.55689000  0.87835000  1.0
  O  O94  1  0.53694000  0.17081000  0.66758000  1.0
  O  O95  1  0.46306000  0.82919000  0.33242000  1.0
  O  O96  1  0.96124000  0.04610000  0.22265000  1.0
  O  O97  1  0.03876000  0.95389000  0.77735000  1.0
  O  O98  1  0.02894000  0.22817000  0.55247000  1.0
  O  O99  1  0.97107000  0.77183000  0.44753000  1.0
