# generated using pymatgen
data_NiH4(C2O3)2
_symmetry_space_group_name_H-M   'P 1'
_cell_length_a   4.91207000
_cell_length_b   7.77576000
_cell_length_c   7.77574000
_cell_angle_alpha   72.13880000
_cell_angle_beta   71.58980000
_cell_angle_gamma   71.58930000
_symmetry_Int_Tables_number   1
_chemical_formula_structural   NiH4(C2O3)2
_chemical_formula_sum   'Ni2 H8 C8 O12'
_cell_volume   260.20992330
_cell_formula_units_Z   2
loop_
 _symmetry_equiv_pos_site_id
 _symmetry_equiv_pos_as_xyz
  1  'x, y, z'
loop_
 _atom_site_type_symbol
 _atom_site_label
 _atom_site_symmetry_multiplicity
 _atom_site_fract_x
 _atom_site_fract_y
 _atom_site_fract_z
 _atom_site_occupancy
  Ni  Ni0  1  0.71340000  0.28748000  0.28773000  1.0
  Ni  Ni1  1  0.28660000  0.71228000  0.71252000  1.0
  H  H2  1  0.38751000  0.06546000  0.78843000  1.0
  H  H3  1  0.24277000  0.93611000  0.21161000  1.0
  H  H4  1  0.61249000  0.21158000  0.93454000  1.0
  H  H5  1  0.75723000  0.78839000  0.06389000  1.0
  H  H6  1  0.24527000  0.22077000  0.53197000  1.0
  H  H7  1  0.99839000  0.78048000  0.46730000  1.0
  H  H8  1  0.75473000  0.46804000  0.77923000  1.0
  H  H9  1  0.00161000  0.53270000  0.21952000  1.0
  C  C10  1  0.83009000  0.07270000  0.63770000  1.0
  C  C11  1  0.54289000  0.92637000  0.36277000  1.0
  C  C12  1  0.16991000  0.36232000  0.92728000  1.0
  C  C13  1  0.45710000  0.63725000  0.07362000  1.0
  C  C14  1  0.50795000  0.17237000  0.70279000  1.0
  C  C15  1  0.38404000  0.82820000  0.29689000  1.0
  C  C16  1  0.49205000  0.29721000  0.82762000  1.0
  C  C17  1  0.61596000  0.70311000  0.17180000  1.0
  O  O18  1  0.97717000  0.13683000  0.47395000  1.0
  O  O19  1  0.58536000  0.86358000  0.52770000  1.0
  O  O20  1  0.02283000  0.52605000  0.86317000  1.0
  O  O21  1  0.41464000  0.47229000  0.13643000  1.0
  O  O22  1  0.93578000  0.93710000  0.75577000  1.0
  O  O23  1  0.63690000  0.05990000  0.24423000  1.0
  O  O24  1  0.06421000  0.24423000  0.06291000  1.0
  O  O25  1  0.36310000  0.75576000  0.94012000  1.0
  O  O26  1  0.38366000  0.28142000  0.54669000  1.0
  O  O27  1  0.21170000  0.71929000  0.45255000  1.0
  O  O28  1  0.61635000  0.45331000  0.71857000  1.0
  O  O29  1  0.78830000  0.54745000  0.28071000  1.0
