# generated using pymatgen
data_KH5C3N2O5
_symmetry_space_group_name_H-M   'P 1'
_cell_length_a   6.86866000
_cell_length_b   7.71928000
_cell_length_c   12.73870000
_cell_angle_alpha   89.99990000
_cell_angle_beta   89.99990000
_cell_angle_gamma   89.99990000
_symmetry_Int_Tables_number   1
_chemical_formula_structural   KH5C3N2O5
_chemical_formula_sum   'K4 H20 C12 N8 O20'
_cell_volume   675.42001096
_cell_formula_units_Z   4
loop_
 _symmetry_equiv_pos_site_id
 _symmetry_equiv_pos_as_xyz
  1  'x, y, z'
loop_
 _atom_site_type_symbol
 _atom_site_label
 _atom_site_symmetry_multiplicity
 _atom_site_fract_x
 _atom_site_fract_y
 _atom_site_fract_z
 _atom_site_occupancy
  K  K0  1  0.24547000  0.99999000  0.50000000  1.0
  K  K1  1  0.25453000  0.50000000  0.00000000  1.0
  K  K2  1  0.75453000  0.00000000  0.50000000  1.0
  K  K3  1  0.74547000  0.50000000  0.00000000  1.0
  H  H4  1  0.00000000  0.61905000  0.41361000  1.0
  H  H5  1  0.00000000  0.38094000  0.58639000  1.0
  H  H6  1  0.50000000  0.88094000  0.91361000  1.0
  H  H7  1  0.50000000  0.11906000  0.08639000  1.0
  H  H8  1  0.00000000  0.13480000  0.28643000  1.0
  H  H9  1  0.00000000  0.86520000  0.71357000  1.0
  H  H10  1  0.50000000  0.36520000  0.78643000  1.0
  H  H11  1  0.50000000  0.63480000  0.21356000  1.0
  H  H12  1  0.00000000  0.32157000  0.20179000  1.0
  H  H13  1  0.00000000  0.67843000  0.79821000  1.0
  H  H14  1  0.50000000  0.17843000  0.70180000  1.0
  H  H15  1  0.50000000  0.82157000  0.29820000  1.0
  H  H16  1  0.50000000  0.68007000  0.53711000  1.0
  H  H17  1  0.50000000  0.31993000  0.46289000  1.0
  H  H18  1  0.00000000  0.81993000  0.03711000  1.0
  H  H19  1  0.00000000  0.18007000  0.96289000  1.0
  H  H20  1  0.50000000  0.61279000  0.41996000  1.0
  H  H21  1  0.50000000  0.38721000  0.58004000  1.0
  H  H22  1  0.00000000  0.88721000  0.91996000  1.0
  H  H23  1  0.00000000  0.11279000  0.08004000  1.0
  C  C24  1  0.00000000  0.83305000  0.25215000  1.0
  C  C25  1  0.00000000  0.16695000  0.74785000  1.0
  C  C26  1  0.50000000  0.66695000  0.75214000  1.0
  C  C27  1  0.50000000  0.33305000  0.24785000  1.0
  C  C28  1  0.00000000  0.63143000  0.25004000  1.0
  C  C29  1  0.00000000  0.36857000  0.74996000  1.0
  C  C30  1  0.50000000  0.86857000  0.75003000  1.0
  C  C31  1  0.50000000  0.13143000  0.24997000  1.0
  C  C32  1  0.00000000  0.36695000  0.35990000  1.0
  C  C33  1  0.00000000  0.63305000  0.64010000  1.0
  C  C34  1  0.50000000  0.13305000  0.85989000  1.0
  C  C35  1  0.50000000  0.86695000  0.14010000  1.0
  N  N36  1  0.00000000  0.54848000  0.34427000  1.0
  N  N37  1  0.00000000  0.45152000  0.65573000  1.0
  N  N38  1  0.50000000  0.95152000  0.84428000  1.0
  N  N39  1  0.50000000  0.04848000  0.15572000  1.0
  N  N40  1  0.00000000  0.26652000  0.27468000  1.0
  N  N41  1  0.00000000  0.73348000  0.72532000  1.0
  N  N42  1  0.50000000  0.23348000  0.77469000  1.0
  N  N43  1  0.50000000  0.76652000  0.22531000  1.0
  O  O44  1  0.00000000  0.90647000  0.34086000  1.0
  O  O45  1  0.00000000  0.09352000  0.65914000  1.0
  O  O46  1  0.50000000  0.59352000  0.84086000  1.0
  O  O47  1  0.50000000  0.40648000  0.15914000  1.0
  O  O48  1  0.00000000  0.90579000  0.16347000  1.0
  O  O49  1  0.00000000  0.09421000  0.83653000  1.0
  O  O50  1  0.50000000  0.59422000  0.66347000  1.0
  O  O51  1  0.50000000  0.40578000  0.33652000  1.0
  O  O52  1  0.00000000  0.55615000  0.16374000  1.0
  O  O53  1  0.00000000  0.44385000  0.83626000  1.0
  O  O54  1  0.50000000  0.94385000  0.66375000  1.0
  O  O55  1  0.50000000  0.05615000  0.33625000  1.0
  O  O56  1  0.00000000  0.30735000  0.45134000  1.0
  O  O57  1  0.00000000  0.69265000  0.54866000  1.0
  O  O58  1  0.50000000  0.19265000  0.95135000  1.0
  O  O59  1  0.50000000  0.80735000  0.04865000  1.0
  O  O60  1  0.50000000  0.71868000  0.46264000  1.0
  O  O61  1  0.50000000  0.28132000  0.53736000  1.0
  O  O62  1  0.00000000  0.78132000  0.96264000  1.0
  O  O63  1  0.00000000  0.21868000  0.03736000  1.0
