# generated using pymatgen
data_LiH23(C6N)3
_symmetry_space_group_name_H-M   'P 1'
_cell_length_a   8.28537000
_cell_length_b   10.14620000
_cell_length_c   11.57820000
_cell_angle_alpha   114.35400000
_cell_angle_beta   93.14970000
_cell_angle_gamma   107.70900000
_symmetry_Int_Tables_number   1
_chemical_formula_structural   LiH23(C6N)3
_chemical_formula_sum   'Li2 H46 C36 N6'
_cell_volume   826.24520426
_cell_formula_units_Z   2
loop_
 _symmetry_equiv_pos_site_id
 _symmetry_equiv_pos_as_xyz
  1  'x, y, z'
loop_
 _atom_site_type_symbol
 _atom_site_label
 _atom_site_symmetry_multiplicity
 _atom_site_fract_x
 _atom_site_fract_y
 _atom_site_fract_z
 _atom_site_occupancy
  Li  Li0  1  0.15378000  0.02185000  0.49489000  1.0
  Li  Li1  1  0.84622000  0.97815000  0.50511000  1.0
  H  H2  1  0.84992000  0.03384000  0.87777000  1.0
  H  H3  1  0.15009000  0.96615000  0.12222000  1.0
  H  H4  1  0.63852000  0.95830000  0.00386000  1.0
  H  H5  1  0.36149000  0.04170000  0.99614000  1.0
  H  H6  1  0.32597000  0.55611000  0.65648000  1.0
  H  H7  1  0.67403000  0.44389000  0.34352000  1.0
  H  H8  1  0.53499000  0.63179000  0.52959000  1.0
  H  H9  1  0.46501000  0.36820000  0.47040000  1.0
  H  H10  1  0.36694000  0.60790000  0.93387000  1.0
  H  H11  1  0.63307000  0.39209000  0.06613000  1.0
  H  H12  1  0.35961000  0.79664000  0.01183000  1.0
  H  H13  1  0.64039000  0.20335000  0.98817000  1.0
  H  H14  1  0.20827000  0.65312000  0.86540000  1.0
  H  H15  1  0.79175000  0.34688000  0.13459000  1.0
  H  H16  1  0.06094000  0.58720000  0.47743000  1.0
  H  H17  1  0.93907000  0.41279000  0.52257000  1.0
  H  H18  1  0.16172000  0.40184000  0.30973000  1.0
  H  H19  1  0.83830000  0.59817000  0.69027000  1.0
  H  H20  1  0.12344000  0.61939000  0.06580000  1.0
  H  H21  1  0.87655000  0.38061000  0.93420000  1.0
  H  H22  1  0.01694000  0.80217000  0.23173000  1.0
  H  H23  1  0.98306000  0.19783000  0.76828000  1.0
  H  H24  1  0.21646000  0.40512000  0.98750000  1.0
  H  H25  1  0.78353000  0.59487000  0.01250000  1.0
  H  H26  1  0.34296000  0.39643000  0.11203000  1.0
  H  H27  1  0.65703000  0.60357000  0.88797000  1.0
  H  H28  1  0.12991000  0.26306000  0.04208000  1.0
  H  H29  1  0.87008000  0.73693000  0.95792000  1.0
  H  H30  1  0.82901000  0.65401000  0.52071000  1.0
  H  H31  1  0.17098000  0.34598000  0.47929000  1.0
  H  H32  1  0.57687000  0.17676000  0.55063000  1.0
  H  H33  1  0.42313000  0.82324000  0.44937000  1.0
  H  H34  1  0.62572000  0.07477000  0.63209000  1.0
  H  H35  1  0.37428000  0.92523000  0.36792000  1.0
  H  H36  1  0.29547000  0.85798000  0.61281000  1.0
  H  H37  1  0.70452000  0.14202000  0.38720000  1.0
  H  H38  1  0.20789000  0.98547000  0.72371000  1.0
  H  H39  1  0.79211000  0.01453000  0.27629000  1.0
  H  H40  1  0.43035000  0.00758000  0.76394000  1.0
  H  H41  1  0.56964000  0.99243000  0.23606000  1.0
  H  H42  1  0.29381000  0.25242000  0.76317000  1.0
  H  H43  1  0.70618000  0.74758000  0.23683000  1.0
  H  H44  1  0.44506000  0.32331000  0.67997000  1.0
  H  H45  1  0.55493000  0.67669000  0.32003000  1.0
  H  H46  1  0.51768000  0.28047000  0.80392000  1.0
  H  H47  1  0.48231000  0.71953000  0.19608000  1.0
  C  C48  1  0.71191000  0.83560000  0.69563000  1.0
  C  C49  1  0.28808000  0.16440000  0.30436000  1.0
  C  C50  1  0.73497000  0.92851000  0.82956000  1.0
  C  C51  1  0.26503000  0.07149000  0.17044000  1.0
  C  C52  1  0.61570000  0.88577000  0.89965000  1.0
  C  C53  1  0.38430000  0.11424000  0.10034000  1.0
  C  C54  1  0.46758000  0.75040000  0.83979000  1.0
  C  C55  1  0.53243000  0.24960000  0.16021000  1.0
  C  C56  1  0.44216000  0.66029000  0.70571000  1.0
  C  C57  1  0.55784000  0.33971000  0.29430000  1.0
  C  C58  1  0.56073000  0.70148000  0.63447000  1.0
  C  C59  1  0.43927000  0.29851000  0.36552000  1.0
  C  C60  1  0.34379000  0.70032000  0.91665000  1.0
  C  C61  1  0.65622000  0.29969000  0.08335000  1.0
  C  C62  1  0.02152000  0.70282000  0.36354000  1.0
  C  C63  1  0.97849000  0.29718000  0.63646000  1.0
  C  C64  1  0.06677000  0.58992000  0.38456000  1.0
  C  C65  1  0.93324000  0.41008000  0.61545000  1.0
  C  C66  1  0.12640000  0.48748000  0.29086000  1.0
  C  C67  1  0.87361000  0.51253000  0.70914000  1.0
  C  C68  1  0.14650000  0.49432000  0.17362000  1.0
  C  C69  1  0.85350000  0.50569000  0.82639000  1.0
  C  C70  1  0.10631000  0.60963000  0.15492000  1.0
  C  C71  1  0.89369000  0.39037000  0.84508000  1.0
  C  C72  1  0.04443000  0.71126000  0.24689000  1.0
  C  C73  1  0.95558000  0.28875000  0.75312000  1.0
  C  C74  1  0.21242000  0.38466000  0.07342000  1.0
  C  C75  1  0.78758000  0.61534000  0.92658000  1.0
  C  C76  1  0.87522000  0.77540000  0.53545000  1.0
  C  C77  1  0.12478000  0.22459000  0.46455000  1.0
  C  C78  1  0.52362000  0.07251000  0.56477000  1.0
  C  C79  1  0.47638000  0.92750000  0.43524000  1.0
  C  C80  1  0.32462000  0.97817000  0.68481000  1.0
  C  C81  1  0.67538000  0.02184000  0.31519000  1.0
  C  C82  1  0.40969000  0.24359000  0.72370000  1.0
  C  C83  1  0.59031000  0.75641000  0.27630000  1.0
  N  N84  1  0.96738000  0.81291000  0.45523000  1.0
  N  N85  1  0.03262000  0.18710000  0.54477000  1.0
  N  N86  1  0.83446000  0.88191000  0.62872000  1.0
  N  N87  1  0.16553000  0.11809000  0.37128000  1.0
  N  N88  1  0.37193000  0.08349000  0.62447000  1.0
  N  N89  1  0.62806000  0.91650000  0.37553000  1.0
