# generated using pymatgen
data_ZnH8C12(N2Cl)2
_symmetry_space_group_name_H-M   'P 1'
_cell_length_a   14.48270000
_cell_length_b   17.85313802
_cell_length_c   31.14580000
_cell_angle_alpha   80.57024995
_cell_angle_beta   90.00700000
_cell_angle_gamma   66.06766250
_symmetry_Int_Tables_number   1
_chemical_formula_structural   ZnH8C12(N2Cl)2
_chemical_formula_sum   'Zn12 H96 C144 N48 Cl24'
_cell_volume   7241.45484232
_cell_formula_units_Z   12
loop_
 _symmetry_equiv_pos_site_id
 _symmetry_equiv_pos_as_xyz
  1  'x, y, z'
loop_
 _atom_site_type_symbol
 _atom_site_label
 _atom_site_symmetry_multiplicity
 _atom_site_fract_x
 _atom_site_fract_y
 _atom_site_fract_z
 _atom_site_occupancy
  Zn  Zn0  1  0.06760000  0.14400000  0.89819000  1.0
  Zn  Zn1  1  0.21147000  0.85595000  0.60181000  1.0
  Zn  Zn2  1  0.93240000  0.85600000  0.10181000  1.0
  Zn  Zn3  1  0.78853000  0.14405000  0.39819000  1.0
  Zn  Zn4  1  0.75296000  0.75660000  0.55304000  1.0
  Zn  Zn5  1  0.50959000  0.24338000  0.94695000  1.0
  Zn  Zn6  1  0.24704000  0.24340000  0.44696000  1.0
  Zn  Zn7  1  0.49041000  0.75662000  0.05305000  1.0
  Zn  Zn8  1  0.14976000  0.39772000  0.71142000  1.0
  Zn  Zn9  1  0.54746000  0.60226000  0.78858000  1.0
  Zn  Zn10  1  0.85024000  0.60228000  0.28858000  1.0
  Zn  Zn11  1  0.45254000  0.39774000  0.21142000  1.0
  H  H12  1  0.86670000  0.62898000  0.63002000  1.0
  H  H13  1  0.49571000  0.37100000  0.87003000  1.0
  H  H14  1  0.13330000  0.37102000  0.36998000  1.0
  H  H15  1  0.50429000  0.62900000  0.12997000  1.0
  H  H16  1  0.84545000  0.51853000  0.68392000  1.0
  H  H17  1  0.36401000  0.48147000  0.81610000  1.0
  H  H18  1  0.15455000  0.48147000  0.31608000  1.0
  H  H19  1  0.63599000  0.51853000  0.18390000  1.0
  H  H20  1  0.54020000  0.60528000  0.62588000  1.0
  H  H21  1  0.14545000  0.39480000  0.87408000  1.0
  H  H22  1  0.45980000  0.39472000  0.37412000  1.0
  H  H23  1  0.85456000  0.60519000  0.12592000  1.0
  H  H24  1  0.57451000  0.71019000  0.57349000  1.0
  H  H25  1  0.28467000  0.28979000  0.92648000  1.0
  H  H26  1  0.42550000  0.28980000  0.42651000  1.0
  H  H27  1  0.71533000  0.71021000  0.07352000  1.0
  H  H28  1  0.40983000  0.51512000  0.65675000  1.0
  H  H29  1  0.92496000  0.48499000  0.84332000  1.0
  H  H30  1  0.59017000  0.48488000  0.34325000  1.0
  H  H31  1  0.07504000  0.51501000  0.15668000  1.0
  H  H32  1  0.24188000  0.50314000  0.65808000  1.0
  H  H33  1  0.74505000  0.49687000  0.84194000  1.0
  H  H34  1  0.75812000  0.49686000  0.34192000  1.0
  H  H35  1  0.25495000  0.50313000  0.15806000  1.0
  H  H36  1  0.34640000  0.30828000  0.76315000  1.0
  H  H37  1  0.65457000  0.69175000  0.73688000  1.0
  H  H38  1  0.65360000  0.69172000  0.23685000  1.0
  H  H39  1  0.34542000  0.30826000  0.26312000  1.0
  H  H40  1  0.51943000  0.31105000  0.76583000  1.0
  H  H41  1  0.83031000  0.68912000  0.73426000  1.0
  H  H42  1  0.48058000  0.68894000  0.23417000  1.0
  H  H43  1  0.16969000  0.31088000  0.26574000  1.0
  H  H44  1  0.70904000  0.27464000  0.81724000  1.0
  H  H45  1  0.98363000  0.72530000  0.68281000  1.0
  H  H46  1  0.29096000  0.72536000  0.18276000  1.0
  H  H47  1  0.01637000  0.27470000  0.31719000  1.0
  H  H48  1  0.84134000  0.18500000  0.87630000  1.0
  H  H49  1  0.02628000  0.81490000  0.62370000  1.0
  H  H50  1  0.15866000  0.81500000  0.12370000  1.0
  H  H51  1  0.97372000  0.18510000  0.37630000  1.0
  H  H52  1  0.04573000  0.27919000  0.82485000  1.0
  H  H53  1  0.32490000  0.72074000  0.67517000  1.0
  H  H54  1  0.95427000  0.72081000  0.17515000  1.0
  H  H55  1  0.67510000  0.27926000  0.32483000  1.0
  H  H56  1  0.92213000  0.37137000  0.76313000  1.0
  H  H57  1  0.29348000  0.62864000  0.73692000  1.0
  H  H58  1  0.07787000  0.62863000  0.23687000  1.0
  H  H59  1  0.70652000  0.37136000  0.26308000  1.0
  H  H60  1  0.97540000  0.21706000  0.97545000  1.0
  H  H61  1  0.19235000  0.78300000  0.52451000  1.0
  H  H62  1  0.02459000  0.78295000  0.02455000  1.0
  H  H63  1  0.80765000  0.21700000  0.47549000  1.0
  H  H64  1  0.84173000  0.20927000  0.02613000  1.0
  H  H65  1  0.05088000  0.79069000  0.47385000  1.0
  H  H66  1  0.15827000  0.79073000  0.97387000  1.0
  H  H67  1  0.94912000  0.20931000  0.52615000  1.0
  H  H68  1  0.84349000  0.00446000  0.96934000  1.0
  H  H69  1  0.84773000  0.99545000  0.53063000  1.0
  H  H70  1  0.15651000  0.99554000  0.03066000  1.0
  H  H71  1  0.15227000  0.00455000  0.46937000  1.0
  H  H72  1  0.97870000  0.01935000  0.92156000  1.0
  H  H73  1  0.99785000  0.98071000  0.57837000  1.0
  H  H74  1  0.02130000  0.98065000  0.07844000  1.0
  H  H75  1  0.00215000  0.01929000  0.42163000  1.0
  H  H76  1  0.50645000  0.01172000  0.10250000  1.0
  H  H77  1  0.51815000  0.98832000  0.39750000  1.0
  H  H78  1  0.49355000  0.98828000  0.89750000  1.0
  H  H79  1  0.48185000  0.01168000  0.60250000  1.0
  H  H80  1  0.44111000  0.90121000  0.09791000  1.0
  H  H81  1  0.34225000  0.09891000  0.40208000  1.0
  H  H82  1  0.55889000  0.09879000  0.90209000  1.0
  H  H83  1  0.65775000  0.90109000  0.59792000  1.0
  H  H84  1  0.61733000  0.82276000  0.99618000  1.0
  H  H85  1  0.44016000  0.17722000  0.50386000  1.0
  H  H86  1  0.38267000  0.17724000  0.00382000  1.0
  H  H87  1  0.55984000  0.82278000  0.49614000  1.0
  H  H88  1  0.69242000  0.92822000  0.99740000  1.0
  H  H89  1  0.62074000  0.07176000  0.50259000  1.0
  H  H90  1  0.30758000  0.07178000  0.00260000  1.0
  H  H91  1  0.37926000  0.92824000  0.49741000  1.0
  H  H92  1  0.62925000  0.30593000  0.07372000  1.0
  H  H93  1  0.93505000  0.69414000  0.42628000  1.0
  H  H94  1  0.37075000  0.69407000  0.92628000  1.0
  H  H95  1  0.06495000  0.30586000  0.57372000  1.0
  H  H96  1  0.54933000  0.40385000  0.12672000  1.0
  H  H97  1  0.95311000  0.59617000  0.37330000  1.0
  H  H98  1  0.45067000  0.59615000  0.87328000  1.0
  H  H99  1  0.04689000  0.40383000  0.62670000  1.0
  H  H100  1  0.50881000  0.21861000  0.21273000  1.0
  H  H101  1  0.72738000  0.78137000  0.28723000  1.0
  H  H102  1  0.49119000  0.78139000  0.78727000  1.0
  H  H103  1  0.27262000  0.21863000  0.71277000  1.0
  H  H104  1  0.57965000  0.11536000  0.16188000  1.0
  H  H105  1  0.69485000  0.88467000  0.33808000  1.0
  H  H106  1  0.42035000  0.88464000  0.83813000  1.0
  H  H107  1  0.30515000  0.11533000  0.66192000  1.0
  C  C108  1  0.79599000  0.62092000  0.62999000  1.0
  C  C109  1  0.41691000  0.37908000  0.87003000  1.0
  C  C110  1  0.20402000  0.37908000  0.37001000  1.0
  C  C111  1  0.58309000  0.62092000  0.12997000  1.0
  C  C112  1  0.78348000  0.55964000  0.66004000  1.0
  C  C113  1  0.34312000  0.44038000  0.83997000  1.0
  C  C114  1  0.21652000  0.44036000  0.33996000  1.0
  C  C115  1  0.65688000  0.55962000  0.16003000  1.0
  C  C116  1  0.69102000  0.55211000  0.65872000  1.0
  C  C117  1  0.24313000  0.44793000  0.84129000  1.0
  C  C118  1  0.30898000  0.44789000  0.34128000  1.0
  C  C119  1  0.75687000  0.55207000  0.15871000  1.0
  C  C120  1  0.61411000  0.60737000  0.62729000  1.0
  C  C121  1  0.22148000  0.39266000  0.87270000  1.0
  C  C122  1  0.38589000  0.39263000  0.37271000  1.0
  C  C123  1  0.77852000  0.60734000  0.12730000  1.0
  C  C124  1  0.63301000  0.66639000  0.59823000  1.0
  C  C125  1  0.29938000  0.33361000  0.90176000  1.0
  C  C126  1  0.36699000  0.33361000  0.40177000  1.0
  C  C127  1  0.70062000  0.66639000  0.09824000  1.0
  C  C128  1  0.67441000  0.48749000  0.68994000  1.0
  C  C129  1  0.16187000  0.51255000  0.81008000  1.0
  C  C130  1  0.32559000  0.51251000  0.31006000  1.0
  C  C131  1  0.83813000  0.48745000  0.18992000  1.0
  C  C132  1  0.57607000  0.41964000  0.71307000  1.0
  C  C133  1  0.99563000  0.58047000  0.78699000  1.0
  C  C134  1  0.42393000  0.58036000  0.28693000  1.0
  C  C135  1  0.00437000  0.41953000  0.21301000  1.0
  C  C136  1  0.72906000  0.38205000  0.74851000  1.0
  C  C137  1  0.11104000  0.61805000  0.75156000  1.0
  C  C138  1  0.27094000  0.61795000  0.25150000  1.0
  C  C139  1  0.88896000  0.38195000  0.24844000  1.0
  C  C140  1  0.47757000  0.41287000  0.71100000  1.0
  C  C141  1  0.89033000  0.58732000  0.78910000  1.0
  C  C142  1  0.52243000  0.58713000  0.28900000  1.0
  C  C143  1  0.10967000  0.41268000  0.21090000  1.0
  C  C144  1  0.39878000  0.46770000  0.68026000  1.0
  C  C145  1  0.86644000  0.53245000  0.81985000  1.0
  C  C146  1  0.60122000  0.53230000  0.31974000  1.0
  C  C147  1  0.13355000  0.46755000  0.18015000  1.0
  C  C148  1  0.30634000  0.46125000  0.68080000  1.0
  C  C149  1  0.76760000  0.53882000  0.81926000  1.0
  C  C150  1  0.69366000  0.53875000  0.31920000  1.0
  C  C151  1  0.23240000  0.46118000  0.18074000  1.0
  C  C152  1  0.36545000  0.35144000  0.73968000  1.0
  C  C153  1  0.71678000  0.64865000  0.76037000  1.0
  C  C154  1  0.63456000  0.64856000  0.26032000  1.0
  C  C155  1  0.28322000  0.35135000  0.23963000  1.0
  C  C156  1  0.46001000  0.35363000  0.74122000  1.0
  C  C157  1  0.81351000  0.64655000  0.75888000  1.0
  C  C158  1  0.53999000  0.64637000  0.25878000  1.0
  C  C159  1  0.18649000  0.35345000  0.24112000  1.0
  C  C160  1  0.80574000  0.32904000  0.78465000  1.0
  C  C161  1  0.13474000  0.67097000  0.71539000  1.0
  C  C162  1  0.19426000  0.67096000  0.21535000  1.0
  C  C163  1  0.86526000  0.32903000  0.28461000  1.0
  C  C164  1  0.78336000  0.27615000  0.81731000  1.0
  C  C165  1  0.05945000  0.72381000  0.68271000  1.0
  C  C166  1  0.21664000  0.72385000  0.18269000  1.0
  C  C167  1  0.94055000  0.27619000  0.31729000  1.0
  C  C168  1  0.85713000  0.22637000  0.85048000  1.0
  C  C169  1  0.08346000  0.77354000  0.64953000  1.0
  C  C170  1  0.14287000  0.77363000  0.14952000  1.0
  C  C171  1  0.91654000  0.22646000  0.35047000  1.0
  C  C172  1  0.97066000  0.27936000  0.82188000  1.0
  C  C173  1  0.25000000  0.72056000  0.67813000  1.0
  C  C174  1  0.02935000  0.72063000  0.17812000  1.0
  C  C175  1  0.74999000  0.27944000  0.32187000  1.0
  C  C176  1  0.90127000  0.33090000  0.78746000  1.0
  C  C177  1  0.23216000  0.66908000  0.71259000  1.0
  C  C178  1  0.09873000  0.66910000  0.21255000  1.0
  C  C179  1  0.76785000  0.33091000  0.28741000  1.0
  C  C180  1  0.94384000  0.17089000  0.97560000  1.0
  C  C181  1  0.11461000  0.82912000  0.52438000  1.0
  C  C182  1  0.05616000  0.82911000  0.02440000  1.0
  C  C183  1  0.88539000  0.17088000  0.47562000  1.0
  C  C184  1  0.87071000  0.16621000  0.00342000  1.0
  C  C185  1  0.03678000  0.83374000  0.49657000  1.0
  C  C186  1  0.12929000  0.83379000  0.99658000  1.0
  C  C187  1  0.96321000  0.16627000  0.50343000  1.0
  C  C188  1  0.83245000  0.10630000  0.00115000  1.0
  C  C189  1  0.93860000  0.89358000  0.49887000  1.0
  C  C190  1  0.16756000  0.89370000  0.99885000  1.0
  C  C191  1  0.06141000  0.10642000  0.50113000  1.0
  C  C192  1  0.87170000  0.05170000  0.97168000  1.0
  C  C193  1  0.92321000  0.94822000  0.52831000  1.0
  C  C194  1  0.12830000  0.94830000  0.02832000  1.0
  C  C195  1  0.07679000  0.05178000  0.47169000  1.0
  C  C196  1  0.94535000  0.05994000  0.94522000  1.0
  C  C197  1  0.00511000  0.94007000  0.55474000  1.0
  C  C198  1  0.05465000  0.94006000  0.05478000  1.0
  C  C199  1  0.99489000  0.05993000  0.44526000  1.0
  C  C200  1  0.75169000  0.10147000  0.02921000  1.0
  C  C201  1  0.85302000  0.89839000  0.47081000  1.0
  C  C202  1  0.24831000  0.89853000  0.97079000  1.0
  C  C203  1  0.14698000  0.10161000  0.52919000  1.0
  C  C204  1  0.64949000  0.14601000  0.08291000  1.0
  C  C205  1  0.79527000  0.85397000  0.41709000  1.0
  C  C206  1  0.35051000  0.85399000  0.91709000  1.0
  C  C207  1  0.20474000  0.14603000  0.58291000  1.0
  C  C208  1  0.64686000  0.04004000  0.05270000  1.0
  C  C209  1  0.68678000  0.95996000  0.44729000  1.0
  C  C210  1  0.35314000  0.95996000  0.94730000  1.0
  C  C211  1  0.31322000  0.04004000  0.55271000  1.0
  C  C212  1  0.60479000  0.97768000  0.05019000  1.0
  C  C213  1  0.58242000  0.02237000  0.44980000  1.0
  C  C214  1  0.39521000  0.02232000  0.94981000  1.0
  C  C215  1  0.41758000  0.97763000  0.55020000  1.0
  C  C216  1  0.53274000  0.97054000  0.07874000  1.0
  C  C217  1  0.50324000  0.02952000  0.42124000  1.0
  C  C218  1  0.46726000  0.02946000  0.92126000  1.0
  C  C219  1  0.49676000  0.97048000  0.57876000  1.0
  C  C220  1  0.49675000  0.91009000  0.07640000  1.0
  C  C221  1  0.40682000  0.09000000  0.42358000  1.0
  C  C222  1  0.50325000  0.08991000  0.92360000  1.0
  C  C223  1  0.59318000  0.91000000  0.57642000  1.0
  C  C224  1  0.59581000  0.86598000  0.01918000  1.0
  C  C225  1  0.46185000  0.13405000  0.48082000  1.0
  C  C226  1  0.40419000  0.13402000  0.98082000  1.0
  C  C227  1  0.53815000  0.86595000  0.51918000  1.0
  C  C228  1  0.63616000  0.92443000  0.01974000  1.0
  C  C229  1  0.56064000  0.07561000  0.48025000  1.0
  C  C230  1  0.36384000  0.07557000  0.98026000  1.0
  C  C231  1  0.43936000  0.92439000  0.51975000  1.0
  C  C232  1  0.60944000  0.20376000  0.11410000  1.0
  C  C233  1  0.81298000  0.79625000  0.38589000  1.0
  C  C234  1  0.39056000  0.79624000  0.88590000  1.0
  C  C235  1  0.18702000  0.20375000  0.61411000  1.0
  C  C236  1  0.60342000  0.28497000  0.10430000  1.0
  C  C237  1  0.88821000  0.71505000  0.39571000  1.0
  C  C238  1  0.39659000  0.71502000  0.89570000  1.0
  C  C239  1  0.11179000  0.28495000  0.60429000  1.0
  C  C240  1  0.55953000  0.33889000  0.13322000  1.0
  C  C241  1  0.89827000  0.66112000  0.36681000  1.0
  C  C242  1  0.44047000  0.66111000  0.86678000  1.0
  C  C243  1  0.10173000  0.33888000  0.63319000  1.0
  C  C244  1  0.53456000  0.23546000  0.18116000  1.0
  C  C245  1  0.76989000  0.76453000  0.31883000  1.0
  C  C246  1  0.46544000  0.76454000  0.81885000  1.0
  C  C247  1  0.23011000  0.23547000  0.68117000  1.0
  C  C248  1  0.57461000  0.17858000  0.15339000  1.0
  C  C249  1  0.75301000  0.82144000  0.34659000  1.0
  C  C250  1  0.42539000  0.82142000  0.84661000  1.0
  C  C251  1  0.24698000  0.17857000  0.65341000  1.0
  N  N252  1  0.72232000  0.67310000  0.59946000  1.0
  N  N253  1  0.39541000  0.32689000  0.90054000  1.0
  N  N254  1  0.27768000  0.32690000  0.40054000  1.0
  N  N255  1  0.60459000  0.67311000  0.09946000  1.0
  N  N256  1  0.58750000  0.47901000  0.68409000  1.0
  N  N257  1  0.06649000  0.52101000  0.81592000  1.0
  N  N258  1  0.41249000  0.52099000  0.31591000  1.0
  N  N259  1  0.93351000  0.47899000  0.18408000  1.0
  N  N260  1  0.64588000  0.36734000  0.74467000  1.0
  N  N261  1  0.01313000  0.63279000  0.75539000  1.0
  N  N262  1  0.35412000  0.63266000  0.25533000  1.0
  N  N263  1  0.98687000  0.36721000  0.24461000  1.0
  N  N264  1  0.74652000  0.44192000  0.72227000  1.0
  N  N265  1  0.18839000  0.55817000  0.77778000  1.0
  N  N266  1  0.25348000  0.55808000  0.27773000  1.0
  N  N267  1  0.81161000  0.44183000  0.22222000  1.0
  N  N268  1  0.29010000  0.40408000  0.70994000  1.0
  N  N269  1  0.69415000  0.59596000  0.79010000  1.0
  N  N270  1  0.70990000  0.59592000  0.29006000  1.0
  N  N271  1  0.30585000  0.40404000  0.20990000  1.0
  N  N272  1  0.94947000  0.22743000  0.85268000  1.0
  N  N273  1  0.17685000  0.77249000  0.64733000  1.0
  N  N274  1  0.05053000  0.77257000  0.14732000  1.0
  N  N275  1  0.82315000  0.22751000  0.35267000  1.0
  N  N276  1  0.97980000  0.11921000  0.94674000  1.0
  N  N277  1  0.09886000  0.88082000  0.55323000  1.0
  N  N278  1  0.02020000  0.88079000  0.05326000  1.0
  N  N279  1  0.90114000  0.11918000  0.44677000  1.0
  N  N280  1  0.71929000  0.15527000  0.05700000  1.0
  N  N281  1  0.87437000  0.84462000  0.44302000  1.0
  N  N282  1  0.28071000  0.84473000  0.94300000  1.0
  N  N283  1  0.12563000  0.15538000  0.55698000  1.0
  N  N284  1  0.61229000  0.08850000  0.08287000  1.0
  N  N285  1  0.70060000  0.91154000  0.41710000  1.0
  N  N286  1  0.38771000  0.91150000  0.91713000  1.0
  N  N287  1  0.29940000  0.08846000  0.58290000  1.0
  N  N288  1  0.71615000  0.04411000  0.02489000  1.0
  N  N289  1  0.76016000  0.95579000  0.47513000  1.0
  N  N290  1  0.28385000  0.95589000  0.97511000  1.0
  N  N291  1  0.23984000  0.04421000  0.52487000  1.0
  N  N292  1  0.52836000  0.85832000  0.04733000  1.0
  N  N293  1  0.38671000  0.14173000  0.45268000  1.0
  N  N294  1  0.47164000  0.14168000  0.95267000  1.0
  N  N295  1  0.61329000  0.85827000  0.54732000  1.0
  N  N296  1  0.52546000  0.31456000  0.17088000  1.0
  N  N297  1  0.83991000  0.68544000  0.32913000  1.0
  N  N298  1  0.47454000  0.68544000  0.82912000  1.0
  N  N299  1  0.16009000  0.31456000  0.67087000  1.0
  Cl  Cl300  1  0.14053000  0.21863000  0.92275000  1.0
  Cl  Cl301  1  0.35903000  0.78137000  0.57724000  1.0
  Cl  Cl302  1  0.85947000  0.78137000  0.07725000  1.0
  Cl  Cl303  1  0.64097000  0.21862000  0.42276000  1.0
  Cl  Cl304  1  0.14038000  0.02975000  0.86992000  1.0
  Cl  Cl305  1  0.17015000  0.97020000  0.63007000  1.0
  Cl  Cl306  1  0.85962000  0.97025000  0.13008000  1.0
  Cl  Cl307  1  0.82986000  0.02980000  0.36993000  1.0
  Cl  Cl308  1  0.76471000  0.71070000  0.49059000  1.0
  Cl  Cl309  1  0.47545000  0.28930000  0.00940000  1.0
  Cl  Cl310  1  0.23529000  0.28930000  0.50941000  1.0
  Cl  Cl311  1  0.52455000  0.71070000  0.99060000  1.0
  Cl  Cl312  1  0.86258000  0.78894000  0.58758000  1.0
  Cl  Cl313  1  0.65153000  0.21105000  0.91239000  1.0
  Cl  Cl314  1  0.13742000  0.21106000  0.41242000  1.0
  Cl  Cl315  1  0.34847000  0.78895000  0.08761000  1.0
  Cl  Cl316  1  0.15568000  0.33227000  0.77891000  1.0
  Cl  Cl317  1  0.48793000  0.66771000  0.72109000  1.0
  Cl  Cl318  1  0.84432000  0.66773000  0.22109000  1.0
  Cl  Cl319  1  0.51207000  0.33229000  0.27891000  1.0
  Cl  Cl320  1  0.03877000  0.52106000  0.67808000  1.0
  Cl  Cl321  1  0.55984000  0.47893000  0.82194000  1.0
  Cl  Cl322  1  0.96123000  0.47894000  0.32192000  1.0
  Cl  Cl323  1  0.44015000  0.52108000  0.17806000  1.0
