# generated using pymatgen
data_Zn2H11C11S3NO6
_symmetry_space_group_name_H-M   'P 1'
_cell_length_a   6.74837000
_cell_length_b   11.58590000
_cell_length_c   19.96860000
_cell_angle_alpha   90.00010000
_cell_angle_beta   89.99990000
_cell_angle_gamma   89.85180000
_symmetry_Int_Tables_number   1
_chemical_formula_structural   Zn2H11C11S3NO6
_chemical_formula_sum   'Zn8 H44 C44 S12 N4 O24'
_cell_volume   1561.25853841
_cell_formula_units_Z   4
loop_
 _symmetry_equiv_pos_site_id
 _symmetry_equiv_pos_as_xyz
  1  'x, y, z'
loop_
 _atom_site_type_symbol
 _atom_site_label
 _atom_site_symmetry_multiplicity
 _atom_site_fract_x
 _atom_site_fract_y
 _atom_site_fract_z
 _atom_site_occupancy
  Zn  Zn0  1  0.74503000  0.05143000  0.37810000  1.0
  Zn  Zn1  1  0.75497000  0.94857000  0.87810000  1.0
  Zn  Zn2  1  0.25497000  0.94857000  0.62190000  1.0
  Zn  Zn3  1  0.24503000  0.05143000  0.12190000  1.0
  Zn  Zn4  1  0.73958000  0.06614000  0.62313000  1.0
  Zn  Zn5  1  0.76042000  0.93386000  0.12313000  1.0
  Zn  Zn6  1  0.26042000  0.93386000  0.37687000  1.0
  Zn  Zn7  1  0.23958000  0.06614000  0.87687000  1.0
  H  H8  1  0.60141000  0.48570000  0.45316000  1.0
  H  H9  1  0.89859000  0.51430000  0.95316000  1.0
  H  H10  1  0.39860000  0.51430000  0.54684000  1.0
  H  H11  1  0.10140000  0.48569000  0.04684000  1.0
  H  H12  1  0.96479000  0.74588000  0.30742000  1.0
  H  H13  1  0.53521000  0.25412000  0.80742000  1.0
  H  H14  1  0.03521000  0.25413000  0.69258000  1.0
  H  H15  1  0.46479000  0.74588000  0.19258000  1.0
  H  H16  1  0.71722000  0.76426000  0.33689000  1.0
  H  H17  1  0.78278000  0.23574000  0.83689000  1.0
  H  H18  1  0.28278000  0.23574000  0.66311000  1.0
  H  H19  1  0.21722000  0.76427000  0.16311000  1.0
  H  H20  1  0.41211000  0.27004000  0.45154000  1.0
  H  H21  1  0.08788000  0.72996000  0.95154000  1.0
  H  H22  1  0.58788000  0.72996000  0.54846000  1.0
  H  H23  1  0.91211000  0.27004000  0.04846000  1.0
  H  H24  1  0.25870000  0.15802000  0.48166000  1.0
  H  H25  1  0.24130000  0.84197000  0.98166000  1.0
  H  H26  1  0.74130000  0.84197000  0.51834000  1.0
  H  H27  1  0.75870000  0.15802000  0.01834000  1.0
  H  H28  1  0.88235000  0.26354000  0.45370000  1.0
  H  H29  1  0.61765000  0.73646000  0.95370000  1.0
  H  H30  1  0.11765000  0.73646000  0.54630000  1.0
  H  H31  1  0.38235000  0.26355000  0.04630000  1.0
  H  H32  1  0.04138000  0.44857000  0.42859000  1.0
  H  H33  1  0.45861000  0.55144000  0.92859000  1.0
  H  H34  1  0.95862000  0.55143000  0.57141000  1.0
  H  H35  1  0.54138000  0.44857000  0.07141000  1.0
  H  H36  1  0.10008000  0.33251000  0.22252000  1.0
  H  H37  1  0.39992000  0.66749000  0.72252000  1.0
  H  H38  1  0.89992000  0.66749000  0.77748000  1.0
  H  H39  1  0.60008000  0.33251000  0.27748000  1.0
  H  H40  1  0.93740000  0.15098000  0.25739000  1.0
  H  H41  1  0.56261000  0.84902000  0.75739000  1.0
  H  H42  1  0.06261000  0.84902000  0.74261000  1.0
  H  H43  1  0.43740000  0.15098000  0.24261000  1.0
  H  H44  1  0.31422000  0.69289000  0.35395000  1.0
  H  H45  1  0.18578000  0.30710000  0.85395000  1.0
  H  H46  1  0.68578000  0.30710000  0.64605000  1.0
  H  H47  1  0.81422000  0.69290000  0.14605000  1.0
  H  H48  1  0.09378000  0.63935000  0.39126000  1.0
  H  H49  1  0.40623000  0.36065000  0.89125000  1.0
  H  H50  1  0.90623000  0.36065000  0.60875000  1.0
  H  H51  1  0.59378000  0.63935000  0.10874000  1.0
  C  C52  1  0.80696000  0.88925000  0.26548000  1.0
  C  C53  1  0.69304000  0.11075000  0.76548000  1.0
  C  C54  1  0.19304000  0.11075000  0.73452000  1.0
  C  C55  1  0.30696000  0.88925000  0.23452000  1.0
  C  C56  1  0.85516000  0.80969000  0.32384000  1.0
  C  C57  1  0.64484000  0.19031000  0.82384000  1.0
  C  C58  1  0.14484000  0.19031000  0.67616000  1.0
  C  C59  1  0.35516000  0.80969000  0.17616000  1.0
  C  C60  1  0.56498000  0.13671000  0.50444000  1.0
  C  C61  1  0.93502000  0.86329000  0.00444000  1.0
  C  C62  1  0.43502000  0.86329000  0.49556000  1.0
  C  C63  1  0.06498000  0.13671000  0.99556000  1.0
  C  C64  1  0.40097000  0.17579000  0.45720000  1.0
  C  C65  1  0.09903000  0.82420000  0.95720000  1.0
  C  C66  1  0.59903000  0.82421000  0.54280000  1.0
  C  C67  1  0.90097000  0.17579000  0.04280000  1.0
  C  C68  1  0.93370000  0.28182000  0.40307000  1.0
  C  C69  1  0.56630000  0.71818000  0.90307000  1.0
  C  C70  1  0.06630000  0.71818000  0.59693000  1.0
  C  C71  1  0.43369000  0.28182000  0.09693000  1.0
  C  C72  1  0.02559000  0.38582000  0.38852000  1.0
  C  C73  1  0.47440000  0.61418000  0.88852000  1.0
  C  C74  1  0.97441000  0.61418000  0.61148000  1.0
  C  C75  1  0.52559000  0.38582000  0.11148000  1.0
  C  C76  1  0.09257000  0.40644000  0.32296000  1.0
  C  C77  1  0.40743000  0.59356000  0.82296000  1.0
  C  C78  1  0.90743000  0.59356000  0.67704000  1.0
  C  C79  1  0.59257000  0.40644000  0.17704000  1.0
  C  C80  1  0.05704000  0.32065000  0.27461000  1.0
  C  C81  1  0.44296000  0.67935000  0.77461000  1.0
  C  C82  1  0.94296000  0.67935000  0.72539000  1.0
  C  C83  1  0.55704000  0.32065000  0.22539000  1.0
  C  C84  1  0.96532000  0.21919000  0.29358000  1.0
  C  C85  1  0.53468000  0.78081000  0.79358000  1.0
  C  C86  1  0.03468000  0.78081000  0.70642000  1.0
  C  C87  1  0.46533000  0.21919000  0.20642000  1.0
  C  C88  1  0.23940000  0.61419000  0.37161000  1.0
  C  C89  1  0.26060000  0.38580000  0.87161000  1.0
  C  C90  1  0.76060000  0.38580000  0.62839000  1.0
  C  C91  1  0.73940000  0.61420000  0.12839000  1.0
  C  C92  1  0.35995000  0.56357000  0.42783000  1.0
  C  C93  1  0.14005000  0.43642000  0.92782000  1.0
  C  C94  1  0.64006000  0.43642000  0.57217000  1.0
  C  C95  1  0.85994000  0.56358000  0.07217000  1.0
  S  S96  1  0.93566000  0.88327000  0.39948000  1.0
  S  S97  1  0.56434000  0.11673000  0.89948000  1.0
  S  S98  1  0.06434000  0.11673000  0.60052000  1.0
  S  S99  1  0.43566000  0.88327000  0.10052000  1.0
  S  S100  1  0.40798000  0.11392000  0.37345000  1.0
  S  S101  1  0.09202000  0.88608000  0.87345000  1.0
  S  S102  1  0.59202000  0.88608000  0.62655000  1.0
  S  S103  1  0.90798000  0.11392000  0.12655000  1.0
  S  S104  1  0.21899000  0.52911000  0.29657000  1.0
  S  S105  1  0.28100000  0.47089000  0.79657000  1.0
  S  S106  1  0.78101000  0.47089000  0.70343000  1.0
  S  S107  1  0.71899000  0.52911000  0.20343000  1.0
  N  N108  1  0.90382000  0.19905000  0.35686000  1.0
  N  N109  1  0.59618000  0.80095000  0.85686000  1.0
  N  N110  1  0.09618000  0.80095000  0.64314000  1.0
  N  N111  1  0.40382000  0.19905000  0.14314000  1.0
  O  O112  1  0.82900000  0.84442000  0.20725000  1.0
  O  O113  1  0.67099000  0.15558000  0.70725000  1.0
  O  O114  1  0.17099000  0.15558000  0.79275000  1.0
  O  O115  1  0.32901000  0.84442000  0.29275000  1.0
  O  O116  1  0.74418000  0.99051000  0.27554000  1.0
  O  O117  1  0.75582000  0.00949000  0.77554000  1.0
  O  O118  1  0.25582000  0.00949000  0.72446000  1.0
  O  O119  1  0.24418000  0.99051000  0.22446000  1.0
  O  O120  1  0.71257000  0.07942000  0.48314000  1.0
  O  O121  1  0.78744000  0.92058000  0.98314000  1.0
  O  O122  1  0.28744000  0.92058000  0.51686000  1.0
  O  O123  1  0.21256000  0.07942000  0.01686000  1.0
  O  O124  1  0.54480000  0.16446000  0.56602000  1.0
  O  O125  1  0.95520000  0.83554000  0.06602000  1.0
  O  O126  1  0.45520000  0.83554000  0.43398000  1.0
  O  O127  1  0.04480000  0.16446000  0.93398000  1.0
  O  O128  1  0.53194000  0.51898000  0.41103000  1.0
  O  O129  1  0.96807000  0.48101000  0.91104000  1.0
  O  O130  1  0.46807000  0.48101000  0.58896000  1.0
  O  O131  1  0.03193000  0.51898000  0.08896000  1.0
  O  O132  1  0.29432000  0.56691000  0.48628000  1.0
  O  O133  1  0.20569000  0.43309000  0.98629000  1.0
  O  O134  1  0.70569000  0.43309000  0.51371000  1.0
  O  O135  1  0.79432000  0.56691000  0.01372000  1.0
