# generated using pymatgen
data_KH7C6O5
_symmetry_space_group_name_H-M   'P 1'
_cell_length_a   7.88395000
_cell_length_b   9.77449000
_cell_length_c   10.12830000
_cell_angle_alpha   104.50200000
_cell_angle_beta   93.25940000
_cell_angle_gamma   94.93040000
_symmetry_Int_Tables_number   1
_chemical_formula_structural   KH7C6O5
_chemical_formula_sum   'K4 H28 C24 O20'
_cell_volume   750.34964928
_cell_formula_units_Z   4
loop_
 _symmetry_equiv_pos_site_id
 _symmetry_equiv_pos_as_xyz
  1  'x, y, z'
loop_
 _atom_site_type_symbol
 _atom_site_label
 _atom_site_symmetry_multiplicity
 _atom_site_fract_x
 _atom_site_fract_y
 _atom_site_fract_z
 _atom_site_occupancy
  K  K0  1  0.18865000  0.25067000  0.24468000  1.0
  K  K1  1  0.81158000  0.74965000  0.75545000  1.0
  K  K2  1  0.72227000  0.22269000  0.35597000  1.0
  K  K3  1  0.27768000  0.77719000  0.64386000  1.0
  H  H4  1  0.79567000  0.93341000  0.42656000  1.0
  H  H5  1  0.20441000  0.06652000  0.57336000  1.0
  H  H6  1  0.28509000  0.39498000  0.91242000  1.0
  H  H7  1  0.71496000  0.60498000  0.08761000  1.0
  H  H8  1  0.10337000  0.29723000  0.57533000  1.0
  H  H9  1  0.89648000  0.70276000  0.42469000  1.0
  H  H10  1  0.06252000  0.45457000  0.60924000  1.0
  H  H11  1  0.93736000  0.54544000  0.39092000  1.0
  H  H12  1  0.25228000  0.46276000  0.48061000  1.0
  H  H13  1  0.74739000  0.53737000  0.51932000  1.0
  H  H14  1  0.43073000  0.48004000  0.41656000  1.0
  H  H15  1  0.56984000  0.52048000  0.58492000  1.0
  H  H16  1  0.07424000  0.69448000  0.24747000  1.0
  H  H17  1  0.92579000  0.30552000  0.75252000  1.0
  H  H18  1  0.34703000  0.76401000  0.32634000  1.0
  H  H19  1  0.65301000  0.23595000  0.67361000  1.0
  H  H20  1  0.54505000  0.88261000  0.19141000  1.0
  H  H21  1  0.45498000  0.11737000  0.80855000  1.0
  H  H22  1  0.44593000  0.62461000  0.12986000  1.0
  H  H23  1  0.55412000  0.37539000  0.87005000  1.0
  H  H24  1  0.16918000  0.55828000  0.07046000  1.0
  H  H25  1  0.83088000  0.44173000  0.92953000  1.0
  H  H26  1  0.96474000  0.73179000  0.02303000  1.0
  H  H27  1  0.03528000  0.26820000  0.97696000  1.0
  H  H28  1  0.10038000  0.94506000  0.95762000  1.0
  H  H29  1  0.89964000  0.05497000  0.04240000  1.0
  H  H30  1  0.40609000  0.03172000  0.05781000  1.0
  H  H31  1  0.59392000  0.96830000  0.94219000  1.0
  C  C32  1  0.11116000  0.79491000  0.22201000  1.0
  C  C33  1  0.88888000  0.20507000  0.77797000  1.0
  C  C34  1  0.30326000  0.84379000  0.27604000  1.0
  C  C35  1  0.69679000  0.15618000  0.72393000  1.0
  C  C36  1  0.41123000  0.84641000  0.15391000  1.0
  C  C37  1  0.58881000  0.15357000  0.84604000  1.0
  C  C38  1  0.39937000  0.68925000  0.06373000  1.0
  C  C39  1  0.60066000  0.31075000  0.93619000  1.0
  C  C40  1  0.20760000  0.63889000  0.01573000  1.0
  C  C41  1  0.79243000  0.36110000  0.98425000  1.0
  C  C42  1  0.09831000  0.76412000  0.06237000  1.0
  C  C43  1  0.90172000  0.23587000  0.93762000  1.0
  C  C44  1  0.98310000  0.89677000  0.28456000  1.0
  C  C45  1  0.01696000  0.10325000  0.71542000  1.0
  C  C46  1  0.32223000  0.98371000  0.38634000  1.0
  C  C47  1  0.67779000  0.01627000  0.61362000  1.0
  C  C48  1  0.52118000  0.68293000  0.95053000  1.0
  C  C49  1  0.47885000  0.31699000  0.04936000  1.0
  C  C50  1  0.17532000  0.55972000  0.86546000  1.0
  C  C51  1  0.82466000  0.44025000  0.13453000  1.0
  C  C52  1  0.17285000  0.89264000  0.02175000  1.0
  C  C53  1  0.82718000  0.10736000  0.97824000  1.0
  C  C54  1  0.33459000  0.93706000  0.07182000  1.0
  C  C55  1  0.66545000  0.06293000  0.92816000  1.0
  O  O56  1  0.98027000  0.01783000  0.26495000  1.0
  O  O57  1  0.01978000  0.98217000  0.73503000  1.0
  O  O58  1  0.87532000  0.84498000  0.35755000  1.0
  O  O59  1  0.12473000  0.15502000  0.64244000  1.0
  O  O60  1  0.38696000  0.09814000  0.36914000  1.0
  O  O61  1  0.61307000  0.90183000  0.63086000  1.0
  O  O62  1  0.25948000  0.96785000  0.49858000  1.0
  O  O63  1  0.74049000  0.03212000  0.50138000  1.0
  O  O64  1  0.47318000  0.70340000  0.83748000  1.0
  O  O65  1  0.52682000  0.29633000  0.16231000  1.0
  O  O66  1  0.67755000  0.66299000  0.98096000  1.0
  O  O67  1  0.32248000  0.33702000  0.01897000  1.0
  O  O68  1  0.08525000  0.60183000  0.78090000  1.0
  O  O69  1  0.91467000  0.39813000  0.21911000  1.0
  O  O70  1  0.23877000  0.43768000  0.82823000  1.0
  O  O71  1  0.76124000  0.56232000  0.17176000  1.0
  O  O72  1  0.07925000  0.37459000  0.53076000  1.0
  O  O73  1  0.92046000  0.62542000  0.46933000  1.0
  O  O74  1  0.33080000  0.52881000  0.44481000  1.0
  O  O75  1  0.66855000  0.47103000  0.55456000  1.0
