# generated using pymatgen
data_CdH17C23(NO2)2
_symmetry_space_group_name_H-M   'P 1'
_cell_length_a   11.38550000
_cell_length_b   11.38550000
_cell_length_c   20.33280000
_cell_angle_alpha   74.20080000
_cell_angle_beta   74.20090000
_cell_angle_gamma   79.00680000
_symmetry_Int_Tables_number   1
_chemical_formula_structural   CdH17C23(NO2)2
_chemical_formula_sum   'Cd4 H68 C92 N8 O16'
_cell_volume   2420.93247010
_cell_formula_units_Z   4
loop_
 _symmetry_equiv_pos_site_id
 _symmetry_equiv_pos_as_xyz
  1  'x, y, z'
loop_
 _atom_site_type_symbol
 _atom_site_label
 _atom_site_symmetry_multiplicity
 _atom_site_fract_x
 _atom_site_fract_y
 _atom_site_fract_z
 _atom_site_occupancy
  Cd  Cd0  1  0.19243000  0.74303000  0.33124000  1.0
  Cd  Cd1  1  0.25697000  0.80757000  0.16876000  1.0
  Cd  Cd2  1  0.80757000  0.25697000  0.66876000  1.0
  Cd  Cd3  1  0.74303000  0.19243000  0.83124000  1.0
  H  H4  1  0.92148000  0.58556000  0.59537000  1.0
  H  H5  1  0.41444000  0.07852000  0.90463000  1.0
  H  H6  1  0.07853000  0.41444000  0.40463000  1.0
  H  H7  1  0.58556000  0.92148000  0.09537000  1.0
  H  H8  1  0.04314000  0.64057000  0.68450000  1.0
  H  H9  1  0.35943000  0.95686000  0.81550000  1.0
  H  H10  1  0.95686000  0.35943000  0.31550000  1.0
  H  H11  1  0.64057000  0.04314000  0.18450000  1.0
  H  H12  1  0.28564000  0.32542000  0.34166000  1.0
  H  H13  1  0.67458000  0.71436000  0.15834000  1.0
  H  H14  1  0.71436000  0.67458000  0.65834000  1.0
  H  H15  1  0.32542000  0.28564000  0.84166000  1.0
  H  H16  1  0.26760000  0.10747000  0.34683000  1.0
  H  H17  1  0.89253000  0.73240000  0.15317000  1.0
  H  H18  1  0.73240000  0.89253000  0.65317000  1.0
  H  H19  1  0.10747000  0.26760000  0.84683000  1.0
  H  H20  1  0.22020000  0.38827000  0.59372000  1.0
  H  H21  1  0.61174000  0.77980000  0.90628000  1.0
  H  H22  1  0.77980000  0.61173000  0.40628000  1.0
  H  H23  1  0.38827000  0.22020000  0.09372000  1.0
  H  H24  1  0.07294000  0.42155000  0.64637000  1.0
  H  H25  1  0.57845000  0.92705000  0.85363000  1.0
  H  H26  1  0.92706000  0.57845000  0.35363000  1.0
  H  H27  1  0.42155000  0.07294000  0.14637000  1.0
  H  H28  1  0.93388000  0.74368000  0.46176000  1.0
  H  H29  1  0.25632000  0.06612000  0.03824000  1.0
  H  H30  1  0.06612000  0.25632000  0.53824000  1.0
  H  H31  1  0.74368000  0.93388000  0.96176000  1.0
  H  H32  1  0.36254000  0.58203000  0.41261000  1.0
  H  H33  1  0.41797000  0.63746000  0.08739000  1.0
  H  H34  1  0.63746000  0.41797000  0.58739000  1.0
  H  H35  1  0.58204000  0.36254000  0.91261000  1.0
  H  H36  1  0.34319000  0.44518000  0.48058000  1.0
  H  H37  1  0.55482000  0.65681000  0.01942000  1.0
  H  H38  1  0.65681000  0.55482000  0.51942000  1.0
  H  H39  1  0.44518000  0.34319000  0.98058000  1.0
  H  H40  1  0.37581000  0.57821000  0.49840000  1.0
  H  H41  1  0.42179000  0.62419000  0.00160000  1.0
  H  H42  1  0.62419000  0.42179000  0.50160000  1.0
  H  H43  1  0.57821000  0.37581000  0.99840000  1.0
  H  H44  1  0.39210000  0.42381000  0.62649000  1.0
  H  H45  1  0.57619000  0.60790000  0.87351000  1.0
  H  H46  1  0.60790000  0.57619000  0.37351000  1.0
  H  H47  1  0.42381000  0.39210000  0.12649000  1.0
  H  H48  1  0.08869000  0.13106000  0.15505000  1.0
  H  H49  1  0.86893000  0.91131000  0.34495000  1.0
  H  H50  1  0.91131000  0.86893000  0.84495000  1.0
  H  H51  1  0.13106000  0.08868000  0.65506000  1.0
  H  H52  1  0.48243000  0.51962000  0.69316000  1.0
  H  H53  1  0.48038000  0.51757000  0.80684000  1.0
  H  H54  1  0.51757000  0.48038000  0.30685000  1.0
  H  H55  1  0.51962000  0.48243000  0.19316000  1.0
  H  H56  1  0.12064000  0.56562000  0.14582000  1.0
  H  H57  1  0.43438000  0.87937000  0.35418000  1.0
  H  H58  1  0.87937000  0.43438000  0.85418000  1.0
  H  H59  1  0.56562000  0.12064000  0.64582000  1.0
  H  H60  1  0.01229000  0.29972000  0.06555000  1.0
  H  H61  1  0.70028000  0.98771000  0.43445000  1.0
  H  H62  1  0.98771000  0.70028000  0.93445000  1.0
  H  H63  1  0.29972000  0.01229000  0.56555000  1.0
  H  H64  1  0.13186000  0.73364000  0.75301000  1.0
  H  H65  1  0.26636000  0.86814000  0.74699000  1.0
  H  H66  1  0.86813000  0.26636000  0.24699000  1.0
  H  H67  1  0.73364000  0.13186000  0.25301000  1.0
  H  H68  1  0.02842000  0.51825000  0.06084000  1.0
  H  H69  1  0.48175000  0.97158000  0.43915000  1.0
  H  H70  1  0.97158000  0.48175000  0.93915000  1.0
  H  H71  1  0.51824000  0.02842000  0.56085000  1.0
  C  C72  1  0.21135000  0.40000000  0.25099000  1.0
  C  C73  1  0.60000000  0.78865000  0.24901000  1.0
  C  C74  1  0.78865000  0.60000000  0.74901000  1.0
  C  C75  1  0.40000000  0.21135000  0.75099000  1.0
  C  C76  1  0.19300000  0.15379000  0.25609000  1.0
  C  C77  1  0.84621000  0.80700000  0.24391000  1.0
  C  C78  1  0.80700000  0.84621000  0.74391000  1.0
  C  C79  1  0.15379000  0.19300000  0.75609000  1.0
  C  C80  1  0.99783000  0.60698000  0.55042000  1.0
  C  C81  1  0.39302000  0.00216000  0.94958000  1.0
  C  C82  1  0.00217000  0.39302000  0.44958000  1.0
  C  C83  1  0.60698000  0.99783000  0.05042000  1.0
  C  C84  1  0.15120000  0.24972000  0.20231000  1.0
  C  C85  1  0.75028000  0.84880000  0.29769000  1.0
  C  C86  1  0.84880000  0.75028000  0.79769000  1.0
  C  C87  1  0.24972000  0.15119000  0.70231000  1.0
  C  C88  1  0.22906000  0.52717000  0.25127000  1.0
  C  C89  1  0.47283000  0.77094000  0.24873000  1.0
  C  C90  1  0.77094000  0.47283000  0.74873000  1.0
  C  C91  1  0.52717000  0.22906000  0.75127000  1.0
  C  C92  1  0.19702000  0.01993000  0.25919000  1.0
  C  C93  1  0.98007000  0.80298000  0.24081000  1.0
  C  C94  1  0.80298000  0.98007000  0.74081000  1.0
  C  C95  1  0.01993000  0.19702000  0.75919000  1.0
  C  C96  1  0.13979000  0.61406000  0.68604000  1.0
  C  C97  1  0.38594000  0.86021000  0.81396000  1.0
  C  C98  1  0.86021000  0.38594000  0.31396000  1.0
  C  C99  1  0.61406000  0.13979000  0.18604000  1.0
  C  C100  1  0.24705000  0.30438000  0.30330000  1.0
  C  C101  1  0.69563000  0.75295000  0.19670000  1.0
  C  C102  1  0.75295000  0.69563000  0.69670000  1.0
  C  C103  1  0.30437000  0.24705000  0.80330000  1.0
  C  C104  1  0.16051000  0.37550000  0.19964000  1.0
  C  C105  1  0.62450000  0.83949000  0.30036000  1.0
  C  C106  1  0.83949000  0.62450000  0.80036000  1.0
  C  C107  1  0.37550000  0.16051000  0.69964000  1.0
  C  C108  1  0.19155000  0.58886000  0.48787000  1.0
  C  C109  1  0.41114000  0.80845000  0.01213000  1.0
  C  C110  1  0.80845000  0.41114000  0.51213000  1.0
  C  C111  1  0.58886000  0.19155000  0.98787000  1.0
  C  C112  1  0.23768000  0.18215000  0.30603000  1.0
  C  C113  1  0.81785000  0.76232000  0.19397000  1.0
  C  C114  1  0.76232000  0.81785000  0.69397000  1.0
  C  C115  1  0.18215000  0.23768000  0.80603000  1.0
  C  C116  1  0.21108000  0.52478000  0.65099000  1.0
  C  C117  1  0.47522000  0.78892000  0.84901000  1.0
  C  C118  1  0.78892000  0.47522000  0.34901000  1.0
  C  C119  1  0.52478000  0.21108000  0.15099000  1.0
  C  C120  1  0.31384000  0.63326000  0.72864000  1.0
  C  C121  1  0.36674000  0.68616000  0.77136000  1.0
  C  C122  1  0.68615000  0.36674000  0.27136000  1.0
  C  C123  1  0.63326000  0.31384000  0.22864000  1.0
  C  C124  1  0.15444000  0.46303000  0.61223000  1.0
  C  C125  1  0.53697000  0.84556000  0.88777000  1.0
  C  C126  1  0.84556000  0.53697000  0.38777000  1.0
  C  C127  1  0.46303000  0.15444000  0.11223000  1.0
  C  C128  1  0.00550000  0.68300000  0.48462000  1.0
  C  C129  1  0.31700000  0.99450000  0.01538000  1.0
  C  C130  1  0.99450000  0.31700000  0.51538000  1.0
  C  C131  1  0.68300000  0.00550000  0.98462000  1.0
  C  C132  1  0.32534000  0.54626000  0.46883000  1.0
  C  C133  1  0.45374000  0.67466000  0.03117000  1.0
  C  C134  1  0.67466000  0.45374000  0.53117000  1.0
  C  C135  1  0.54626000  0.32534000  0.96883000  1.0
  C  C136  1  0.33488000  0.49291000  0.65356000  1.0
  C  C137  1  0.50709000  0.66512000  0.84644000  1.0
  C  C138  1  0.66512000  0.50709000  0.34644000  1.0
  C  C139  1  0.49291000  0.33488000  0.15356000  1.0
  C  C140  1  0.09685000  0.22585000  0.15269000  1.0
  C  C141  1  0.77415000  0.90316000  0.34731000  1.0
  C  C142  1  0.90316000  0.77414000  0.84731000  1.0
  C  C143  1  0.22585000  0.09684000  0.65269000  1.0
  C  C144  1  0.38565000  0.54614000  0.69186000  1.0
  C  C145  1  0.45385000  0.61435000  0.80813000  1.0
  C  C146  1  0.61434000  0.45386000  0.30814000  1.0
  C  C147  1  0.54614000  0.38565000  0.19186000  1.0
  C  C148  1  0.11473000  0.47060000  0.14753000  1.0
  C  C149  1  0.52940000  0.88527000  0.35247000  1.0
  C  C150  1  0.88528000  0.52940000  0.85247000  1.0
  C  C151  1  0.47059000  0.11473000  0.64753000  1.0
  C  C152  1  0.05453000  0.32042000  0.10259000  1.0
  C  C153  1  0.67958000  0.94547000  0.39741000  1.0
  C  C154  1  0.94547000  0.67958000  0.89741000  1.0
  C  C155  1  0.32042000  0.05453000  0.60259000  1.0
  C  C156  1  0.19025000  0.66755000  0.72418000  1.0
  C  C157  1  0.33245000  0.80975000  0.77582000  1.0
  C  C158  1  0.80975000  0.33245000  0.27582000  1.0
  C  C159  1  0.66755000  0.19025000  0.22418000  1.0
  C  C160  1  0.06351000  0.44371000  0.10004000  1.0
  C  C161  1  0.55629000  0.93649000  0.39996000  1.0
  C  C162  1  0.93649000  0.55629000  0.89996000  1.0
  C  C163  1  0.44371000  0.06351000  0.60004000  1.0
  N  N164  1  0.12604000  0.67091000  0.44635000  1.0
  N  N165  1  0.32909000  0.87396000  0.05365000  1.0
  N  N166  1  0.87396000  0.32909000  0.55365000  1.0
  N  N167  1  0.67091000  0.12604000  0.94635000  1.0
  N  N168  1  0.11567000  0.54856000  0.55156000  1.0
  N  N169  1  0.45144000  0.88433000  0.94844000  1.0
  N  N170  1  0.88433000  0.45144000  0.44844000  1.0
  N  N171  1  0.54856000  0.11567000  0.05156000  1.0
  O  O172  1  0.26499000  0.60039000  0.19207000  1.0
  O  O173  1  0.39961000  0.73501000  0.30793000  1.0
  O  O174  1  0.73501000  0.39961000  0.80793000  1.0
  O  O175  1  0.60039000  0.26499000  0.69207000  1.0
  O  O176  1  0.20844000  0.55038000  0.31142000  1.0
  O  O177  1  0.44962000  0.79155000  0.18858000  1.0
  O  O178  1  0.79155000  0.44962000  0.68858000  1.0
  O  O179  1  0.55038000  0.20845000  0.81142000  1.0
  O  O180  1  0.22960000  0.98877000  0.20062000  1.0
  O  O181  1  0.01124000  0.77040000  0.29939000  1.0
  O  O182  1  0.77039000  0.01123000  0.79939000  1.0
  O  O183  1  0.98876000  0.22960000  0.70062000  1.0
  O  O184  1  0.17264000  0.94852000  0.31995000  1.0
  O  O185  1  0.05148000  0.82736000  0.18005000  1.0
  O  O186  1  0.82736000  0.05148000  0.68005000  1.0
  O  O187  1  0.94852000  0.17264000  0.81995000  1.0
