# generated using pymatgen
data_CaH10(CO2)4
_symmetry_space_group_name_H-M   'P 1'
_cell_length_a   6.68044000
_cell_length_b   8.13772000
_cell_length_c   8.21687000
_cell_angle_alpha   89.99990000
_cell_angle_beta   89.99990000
_cell_angle_gamma   66.34200000
_symmetry_Int_Tables_number   1
_chemical_formula_structural   CaH10(CO2)4
_chemical_formula_sum   'Ca2 H20 C8 O16'
_cell_volume   409.15636152
_cell_formula_units_Z   2
loop_
 _symmetry_equiv_pos_site_id
 _symmetry_equiv_pos_as_xyz
  1  'x, y, z'
loop_
 _atom_site_type_symbol
 _atom_site_label
 _atom_site_symmetry_multiplicity
 _atom_site_fract_x
 _atom_site_fract_y
 _atom_site_fract_z
 _atom_site_occupancy
  Ca  Ca0  1  0.89294000  0.82213000  0.68962000  1.0
  Ca  Ca1  1  0.10706000  0.17787000  0.18961000  1.0
  H  H2  1  0.35829000  0.38369000  0.43913000  1.0
  H  H3  1  0.64172000  0.61630000  0.93914000  1.0
  H  H4  1  0.03303000  0.58962000  0.38831000  1.0
  H  H5  1  0.96697000  0.41038000  0.88831000  1.0
  H  H6  1  0.53202000  0.59654000  0.44123000  1.0
  H  H7  1  0.46798000  0.40346000  0.94122000  1.0
  H  H8  1  0.63358000  0.44502000  0.60080000  1.0
  H  H9  1  0.36641000  0.55499000  0.10079000  1.0
  H  H10  1  0.66335000  0.19519000  0.69949000  1.0
  H  H11  1  0.33665000  0.80481000  0.19949000  1.0
  H  H12  1  0.85514000  0.19905000  0.80894000  1.0
  H  H13  1  0.14486000  0.80095000  0.30894000  1.0
  H  H14  1  0.71576000  0.89650000  0.03993000  1.0
  H  H15  1  0.28424000  0.10350000  0.53993000  1.0
  H  H16  1  0.96699000  0.85561000  0.05971000  1.0
  H  H17  1  0.03301000  0.14439000  0.55971000  1.0
  H  H18  1  0.66816000  0.88269000  0.37245000  1.0
  H  H19  1  0.33184000  0.11730000  0.87245000  1.0
  H  H20  1  0.72037000  0.05651000  0.37479000  1.0
  H  H21  1  0.27962000  0.94349000  0.87479000  1.0
  C  C22  1  0.24571000  0.41165000  0.68220000  1.0
  C  C23  1  0.75430000  0.58834000  0.18220000  1.0
  C  C24  1  0.30172000  0.49298000  0.52901000  1.0
  C  C25  1  0.69829000  0.50701000  0.02901000  1.0
  C  C26  1  0.48503000  0.55610000  0.55766000  1.0
  C  C27  1  0.51496000  0.44391000  0.05765000  1.0
  C  C28  1  0.43727000  0.71259000  0.67391000  1.0
  C  C29  1  0.56273000  0.28742000  0.17390000  1.0
  O  O30  1  0.06211000  0.49622000  0.75019000  1.0
  O  O31  1  0.93789000  0.50378000  0.25019000  1.0
  O  O32  1  0.38935000  0.26158000  0.72999000  1.0
  O  O33  1  0.61065000  0.73841000  0.22999000  1.0
  O  O34  1  0.11417000  0.63980000  0.46532000  1.0
  O  O35  1  0.88584000  0.36019000  0.96532000  1.0
  O  O36  1  0.25422000  0.78136000  0.74860000  1.0
  O  O37  1  0.74577000  0.21864000  0.24859000  1.0
  O  O38  1  0.58726000  0.76765000  0.69343000  1.0
  O  O39  1  0.41273000  0.23236000  0.19342000  1.0
  O  O40  1  0.82698000  0.14402000  0.70892000  1.0
  O  O41  1  0.17302000  0.85598000  0.20892000  1.0
  O  O42  1  0.85143000  0.86811000  0.97942000  1.0
  O  O43  1  0.14858000  0.13189000  0.47942000  1.0
  O  O44  1  0.70924000  0.96096000  0.44558000  1.0
  O  O45  1  0.29076000  0.03904000  0.94558000  1.0
