# generated using pymatgen
data_MnH11C14(NO2)2
_symmetry_space_group_name_H-M   'P 1'
_cell_length_a   7.97081000
_cell_length_b   9.46533000
_cell_length_c   9.53226000
_cell_angle_alpha   103.71200000
_cell_angle_beta   101.94100000
_cell_angle_gamma   101.91400000
_symmetry_Int_Tables_number   1
_chemical_formula_structural   MnH11C14(NO2)2
_chemical_formula_sum   'Mn2 H22 C28 N4 O8'
_cell_volume   658.40114543
_cell_formula_units_Z   2
loop_
 _symmetry_equiv_pos_site_id
 _symmetry_equiv_pos_as_xyz
  1  'x, y, z'
loop_
 _atom_site_type_symbol
 _atom_site_label
 _atom_site_symmetry_multiplicity
 _atom_site_fract_x
 _atom_site_fract_y
 _atom_site_fract_z
 _atom_site_occupancy
  Mn  Mn0  1  0.43124000  0.69669000  0.46381000  1.0
  Mn  Mn1  1  0.57150000  0.52876000  0.28868000  1.0
  H  H2  1  0.05097000  0.85828000  0.32215000  1.0
  H  H3  1  0.94879000  0.69783000  0.14905000  1.0
  H  H4  1  0.27766000  0.07072000  0.30532000  1.0
  H  H5  1  0.71462000  0.70467000  0.93861000  1.0
  H  H6  1  0.99695000  0.37488000  0.49261000  1.0
  H  H7  1  0.98867000  0.50864000  0.63481000  1.0
  H  H8  1  0.15933000  0.68802000  0.62804000  1.0
  H  H9  1  0.84380000  0.36011000  0.30218000  1.0
  H  H10  1  0.02774000  0.84918000  0.79427000  1.0
  H  H11  1  0.97724000  0.19436000  0.14232000  1.0
  H  H12  1  0.34933000  0.23318000  0.71753000  1.0
  H  H13  1  0.66245000  0.27820000  0.76152000  1.0
  H  H14  1  0.49392000  0.05670000  0.57953000  1.0
  H  H15  1  0.51916000  0.41995000  0.93658000  1.0
  H  H16  1  0.15882000  0.16243000  0.99028000  1.0
  H  H17  1  0.85007000  0.00134000  0.83293000  1.0
  H  H18  1  0.15638000  0.27838000  0.87054000  1.0
  H  H19  1  0.84905000  0.12047000  0.71639000  1.0
  H  H20  1  0.69776000  0.27811000  0.47827000  1.0
  H  H21  1  0.29115000  0.52924000  0.72678000  1.0
  H  H22  1  0.60126000  0.08476000  0.43367000  1.0
  H  H23  1  0.38856000  0.56603000  0.91826000  1.0
  C  C24  1  0.74366000  0.85341000  0.38882000  1.0
  C  C25  1  0.26237000  0.62951000  0.14746000  1.0
  C  C26  1  0.88016000  0.99057000  0.39658000  1.0
  C  C27  1  0.11725000  0.61944000  0.01648000  1.0
  C  C28  1  0.03444000  0.97166000  0.35263000  1.0
  C  C29  1  0.96285000  0.66351000  0.03580000  1.0
  C  C30  1  0.16582000  0.09108000  0.34839000  1.0
  C  C31  1  0.82708000  0.66283000  0.91700000  1.0
  C  C32  1  0.86316000  0.14040000  0.44348000  1.0
  C  C33  1  0.12986000  0.56678000  0.86657000  1.0
  C  C34  1  0.00778000  0.26062000  0.45530000  1.0
  C  C35  1  0.98242000  0.55161000  0.74876000  1.0
  C  C36  1  0.15349000  0.23934000  0.40269000  1.0
  C  C37  1  0.83582000  0.60331000  0.76927000  1.0
  C  C38  1  0.28099000  0.37233000  0.39051000  1.0
  C  C39  1  0.70515000  0.59863000  0.62958000  1.0
  C  C40  1  0.20328000  0.81009000  0.65605000  1.0
  C  C41  1  0.80277000  0.33474000  0.18114000  1.0
  C  C42  1  0.12780000  0.90123000  0.74631000  1.0
  C  C43  1  0.87876000  0.24436000  0.09093000  1.0
  C  C44  1  0.30890000  0.11306000  0.70627000  1.0
  C  C45  1  0.70148000  0.28913000  0.88072000  1.0
  C  C46  1  0.38553000  0.01496000  0.62429000  1.0
  C  C47  1  0.62518000  0.37206000  0.97795000  1.0
  C  C48  1  0.18034000  0.05807000  0.77382000  1.0
  C  C49  1  0.82784000  0.21903000  0.93540000  1.0
  C  C50  1  0.10620000  0.16238000  0.87373000  1.0
  C  C51  1  0.90143000  0.11833000  0.83153000  1.0
  N  N52  1  0.33406000  0.86468000  0.59779000  1.0
  N  N53  1  0.67450000  0.39577000  0.12699000  1.0
  N  N54  1  0.71242000  0.17270000  0.47471000  1.0
  N  N55  1  0.27720000  0.53107000  0.83090000  1.0
  O  O56  1  0.60671000  0.86741000  0.43823000  1.0
  O  O57  1  0.39559000  0.57967000  0.12312000  1.0
  O  O58  1  0.76765000  0.72467000  0.33317000  1.0
  O  O59  1  0.25214000  0.68587000  0.28100000  1.0
  O  O60  1  0.28679000  0.50484000  0.47147000  1.0
  O  O61  1  0.70347000  0.50768000  0.50568000  1.0
  O  O62  1  0.37388000  0.34982000  0.29779000  1.0
  O  O63  1  0.60736000  0.69103000  0.63892000  1.0
