# generated using pymatgen
data_CdH2C6(NO2)2
_symmetry_space_group_name_H-M   'P 1'
_cell_length_a   5.48900000
_cell_length_b   10.66080000
_cell_length_c   11.83070000
_cell_angle_alpha   104.27400000
_cell_angle_beta   89.99960000
_cell_angle_gamma   89.99940000
_symmetry_Int_Tables_number   1
_chemical_formula_structural   CdH2C6(NO2)2
_chemical_formula_sum   'Cd4 H8 C24 N8 O16'
_cell_volume   670.92578444
_cell_formula_units_Z   4
loop_
 _symmetry_equiv_pos_site_id
 _symmetry_equiv_pos_as_xyz
  1  'x, y, z'
loop_
 _atom_site_type_symbol
 _atom_site_label
 _atom_site_symmetry_multiplicity
 _atom_site_fract_x
 _atom_site_fract_y
 _atom_site_fract_z
 _atom_site_occupancy
  Cd  Cd0  1  0.75670000  0.76944000  0.23505000  1.0
  Cd  Cd1  1  0.25671000  0.23056000  0.26495000  1.0
  Cd  Cd2  1  0.24327000  0.23055000  0.76495000  1.0
  Cd  Cd3  1  0.74332000  0.76945000  0.73506000  1.0
  H  H4  1  0.12783000  0.39864000  0.04802000  1.0
  H  H5  1  0.62787000  0.60137000  0.45198000  1.0
  H  H6  1  0.87213000  0.60137000  0.95197000  1.0
  H  H7  1  0.37216000  0.39863000  0.54801000  1.0
  H  H8  1  0.18568000  0.78600000  0.44576000  1.0
  H  H9  1  0.68565000  0.21400000  0.05424000  1.0
  H  H10  1  0.81435000  0.21399000  0.55423000  1.0
  H  H11  1  0.31438000  0.78603000  0.94578000  1.0
  C  C12  1  0.26986000  0.61935000  0.21752000  1.0
  C  C13  1  0.76988000  0.38065000  0.28248000  1.0
  C  C14  1  0.73011000  0.38065000  0.78247000  1.0
  C  C15  1  0.23017000  0.61935000  0.71752000  1.0
  C  C16  1  0.38894000  0.55553000  0.10202000  1.0
  C  C17  1  0.88895000  0.44447000  0.39798000  1.0
  C  C18  1  0.61103000  0.44447000  0.89798000  1.0
  C  C19  1  0.11106000  0.55553000  0.60201000  1.0
  C  C20  1  0.29324000  0.44440000  0.02627000  1.0
  C  C21  1  0.79328000  0.55561000  0.47373000  1.0
  C  C22  1  0.70671000  0.55562000  0.97373000  1.0
  C  C23  1  0.20674000  0.44438000  0.52626000  1.0
  C  C24  1  0.59541000  0.04831000  0.36392000  1.0
  C  C25  1  0.09540000  0.95169000  0.13607000  1.0
  C  C26  1  0.40465000  0.95167000  0.63608000  1.0
  C  C27  1  0.90462000  0.04833000  0.86393000  1.0
  C  C28  1  0.80817000  0.02235000  0.43650000  1.0
  C  C29  1  0.30818000  0.97764000  0.06349000  1.0
  C  C30  1  0.19182000  0.97765000  0.56349000  1.0
  C  C31  1  0.69182000  0.02235000  0.93652000  1.0
  C  C32  1  0.09974000  0.88078000  0.47139000  1.0
  C  C33  1  0.59971000  0.11920000  0.02861000  1.0
  C  C34  1  0.90027000  0.11920000  0.52859000  1.0
  C  C35  1  0.40025000  0.88079000  0.97140000  1.0
  N  N36  1  0.59462000  0.60953000  0.07439000  1.0
  N  N37  1  0.09462000  0.39047000  0.42559000  1.0
  N  N38  1  0.40534000  0.39048000  0.92560000  1.0
  N  N39  1  0.90537000  0.60953000  0.57439000  1.0
  N  N40  1  0.90903000  0.90405000  0.40937000  1.0
  N  N41  1  0.40898000  0.09595000  0.09064000  1.0
  N  N42  1  0.09100000  0.09596000  0.59063000  1.0
  N  N43  1  0.59096000  0.90405000  0.90940000  1.0
  O  O44  1  0.40517000  0.68582000  0.29671000  1.0
  O  O45  1  0.90517000  0.31418000  0.20329000  1.0
  O  O46  1  0.59480000  0.31417000  0.70329000  1.0
  O  O47  1  0.09485000  0.68583000  0.79670000  1.0
  O  O48  1  0.04281000  0.60139000  0.22522000  1.0
  O  O49  1  0.54284000  0.39861000  0.27478000  1.0
  O  O50  1  0.95716000  0.39861000  0.77478000  1.0
  O  O51  1  0.45723000  0.60138000  0.72520000  1.0
  O  O52  1  0.51494000  0.95625000  0.28439000  1.0
  O  O53  1  0.01493000  0.04373000  0.21563000  1.0
  O  O54  1  0.48506000  0.04376000  0.71562000  1.0
  O  O55  1  0.98506000  0.95626000  0.78439000  1.0
  O  O56  1  0.51396000  0.16381000  0.39142000  1.0
  O  O57  1  0.01392000  0.83621000  0.10859000  1.0
  O  O58  1  0.48607000  0.83617000  0.60857000  1.0
  O  O59  1  0.98605000  0.16383000  0.89145000  1.0
