# generated using pymatgen
data_CuH30C32(NO)4
_symmetry_space_group_name_H-M   'P 1'
_cell_length_a   8.59378000
_cell_length_b   8.86190000
_cell_length_c   10.75480000
_cell_angle_alpha   78.71840000
_cell_angle_beta   72.32200000
_cell_angle_gamma   64.96960000
_symmetry_Int_Tables_number   1
_chemical_formula_structural   CuH30C32(NO)4
_chemical_formula_sum   'Cu1 H30 C32 N4 O4'
_cell_volume   704.94561573
_cell_formula_units_Z   1
loop_
 _symmetry_equiv_pos_site_id
 _symmetry_equiv_pos_as_xyz
  1  'x, y, z'
loop_
 _atom_site_type_symbol
 _atom_site_label
 _atom_site_symmetry_multiplicity
 _atom_site_fract_x
 _atom_site_fract_y
 _atom_site_fract_z
 _atom_site_occupancy
  Cu  Cu0  1  0.50000000  0.50000000  0.00000000  1.0
  H  H1  1  0.08948000  0.41116000  0.14366000  1.0
  H  H2  1  0.91052000  0.58884000  0.85634000  1.0
  H  H3  1  0.27223000  0.93274000  0.61772000  1.0
  H  H4  1  0.72777000  0.06727000  0.38228000  1.0
  H  H5  1  0.89194000  0.34244000  0.05099000  1.0
  H  H6  1  0.10806000  0.65756000  0.94901000  1.0
  H  H7  1  0.44022000  0.69773000  0.25522000  1.0
  H  H8  1  0.55978000  0.30226000  0.74478000  1.0
  H  H9  1  0.12343000  0.58635000  0.27092000  1.0
  H  H10  1  0.87657000  0.41365000  0.72908000  1.0
  H  H11  1  0.37168000  0.63697000  0.57237000  1.0
  H  H12  1  0.62832000  0.36303000  0.42763000  1.0
  H  H13  1  0.61678000  0.77882000  0.35995000  1.0
  H  H14  1  0.38322000  0.22117000  0.64005000  1.0
  H  H15  1  0.20356000  0.55679000  0.46336000  1.0
  H  H16  1  0.79644000  0.44321000  0.53664000  1.0
  H  H17  1  0.36549000  0.02625000  0.86864000  1.0
  H  H18  1  0.63452000  0.97375000  0.13135000  1.0
  H  H19  1  0.01759000  0.98486000  0.12116000  1.0
  H  H20  1  0.98241000  0.01514000  0.87884000  1.0
  H  H21  1  0.13521000  0.11859000  0.04673000  1.0
  H  H22  1  0.86480000  0.88141000  0.95327000  1.0
  H  H23  1  0.17528000  0.98903000  0.19231000  1.0
  H  H24  1  0.82473000  0.01097000  0.80769000  1.0
  H  H25  1  0.78697000  0.79152000  0.69122000  1.0
  H  H26  1  0.21303000  0.20848000  0.30878000  1.0
  H  H27  1  0.59392000  0.97584000  0.68060000  1.0
  H  H28  1  0.40609000  0.02416000  0.31940000  1.0
  H  H29  1  0.63453000  0.78980000  0.61407000  1.0
  H  H30  1  0.36548000  0.21020000  0.38593000  1.0
  C  C31  1  0.04877000  0.02219000  0.53158000  1.0
  C  C32  1  0.95122000  0.97781000  0.46843000  1.0
  C  C33  1  0.01203000  0.80642000  0.44211000  1.0
  C  C34  1  0.98796000  0.19358000  0.55789000  1.0
  C  C35  1  0.94564000  0.47607000  0.17125000  1.0
  C  C36  1  0.05436000  0.52392000  0.82875000  1.0
  C  C37  1  0.86755000  0.60276000  0.25748000  1.0
  C  C38  1  0.13245000  0.39723000  0.74253000  1.0
  C  C39  1  0.20113000  0.89703000  0.56802000  1.0
  C  C40  1  0.79886000  0.10297000  0.43198000  1.0
  C  C41  1  0.83664000  0.43825000  0.12012000  1.0
  C  C42  1  0.16336000  0.56175000  0.87988000  1.0
  C  C43  1  0.58457000  0.63700000  0.23363000  1.0
  C  C44  1  0.41543000  0.36300000  0.76637000  1.0
  C  C45  1  0.97909000  0.65028000  0.30808000  1.0
  C  C46  1  0.02091000  0.34972000  0.69192000  1.0
  C  C47  1  0.25599000  0.73307000  0.54222000  1.0
  C  C48  1  0.74400000  0.26693000  0.45779000  1.0
  C  C49  1  0.68156000  0.68242000  0.29081000  1.0
  C  C50  1  0.31844000  0.31757000  0.70919000  1.0
  C  C51  1  0.16229000  0.68737000  0.47943000  1.0
  C  C52  1  0.83771000  0.31263000  0.52057000  1.0
  C  C53  1  0.29044000  0.85559000  0.01952000  1.0
  C  C54  1  0.70957000  0.14441000  0.98048000  1.0
  C  C55  1  0.54797000  0.77837000  0.82370000  1.0
  C  C56  1  0.45203000  0.22163000  0.17629000  1.0
  C  C57  1  0.39809000  0.89473000  0.90131000  1.0
  C  C58  1  0.60191000  0.10528000  0.09869000  1.0
  C  C59  1  0.14590000  0.99641000  0.09814000  1.0
  C  C60  1  0.85410000  0.00359000  0.90186000  1.0
  C  C61  1  0.64491000  0.83947000  0.69599000  1.0
  C  C62  1  0.35509000  0.16052000  0.30400000  1.0
  N  N63  1  0.90770000  0.76568000  0.38824000  1.0
  N  N64  1  0.09229000  0.23432000  0.61176000  1.0
  N  N65  1  0.65997000  0.51772000  0.14848000  1.0
  N  N66  1  0.34003000  0.48227000  0.85152000  1.0
  O  O67  1  0.61372000  0.62011000  0.85159000  1.0
  O  O68  1  0.38629000  0.37989000  0.14841000  1.0
  O  O69  1  0.30422000  0.70802000  0.06939000  1.0
  O  O70  1  0.69578000  0.29198000  0.93061000  1.0
