# generated using pymatgen
data_ZnH9C13NO5
_symmetry_space_group_name_H-M   'P 1'
_cell_length_a   10.43800000
_cell_length_b   18.39460000
_cell_length_c   18.39475018
_cell_angle_alpha   116.48555726
_cell_angle_beta   100.92235414
_cell_angle_gamma   100.89300000
_symmetry_Int_Tables_number   1
_chemical_formula_structural   ZnH9C13NO5
_chemical_formula_sum   'Zn6 H54 C78 N6 O30'
_cell_volume   2949.79251199
_cell_formula_units_Z   6
loop_
 _symmetry_equiv_pos_site_id
 _symmetry_equiv_pos_as_xyz
  1  'x, y, z'
loop_
 _atom_site_type_symbol
 _atom_site_label
 _atom_site_symmetry_multiplicity
 _atom_site_fract_x
 _atom_site_fract_y
 _atom_site_fract_z
 _atom_site_occupancy
  Zn  Zn0  1  0.51771000  0.64713000  0.35025000  1.0
  Zn  Zn1  1  0.16718000  0.64966000  0.29679000  1.0
  Zn  Zn2  1  0.87065000  0.70320000  0.35280000  1.0
  Zn  Zn3  1  0.48229000  0.35287000  0.64975000  1.0
  Zn  Zn4  1  0.83282000  0.35034000  0.70321000  1.0
  Zn  Zn5  1  0.12935000  0.29680000  0.64720000  1.0
  H  H6  1  0.54423000  0.75525000  0.50419000  1.0
  H  H7  1  0.03962000  0.49578000  0.25101000  1.0
  H  H8  1  0.78846000  0.74874000  0.24448000  1.0
  H  H9  1  0.45577000  0.24476000  0.49582000  1.0
  H  H10  1  0.96037000  0.50422000  0.74899000  1.0
  H  H11  1  0.21155000  0.25127000  0.75553000  1.0
  H  H12  1  0.37752000  0.70702000  0.46142000  1.0
  H  H13  1  0.91574000  0.53864000  0.24549000  1.0
  H  H14  1  0.67024000  0.75434000  0.29288000  1.0
  H  H15  1  0.62248000  0.29298000  0.53858000  1.0
  H  H16  1  0.08426000  0.46136000  0.75451000  1.0
  H  H17  1  0.32977000  0.24566000  0.70712000  1.0
  H  H18  1  0.27393000  0.37889000  0.34291000  1.0
  H  H19  1  0.93107000  0.65713000  0.03572000  1.0
  H  H20  1  0.89506000  0.96404000  0.62097000  1.0
  H  H21  1  0.72607000  0.62111000  0.65709000  1.0
  H  H22  1  0.06893000  0.34287000  0.96428000  1.0
  H  H23  1  0.10494000  0.03596000  0.37903000  1.0
  H  H24  1  0.48232000  0.34116000  0.39034000  1.0
  H  H25  1  0.09204000  0.60964000  0.95070000  1.0
  H  H26  1  0.14098000  0.04935000  0.65860000  1.0
  H  H27  1  0.51768000  0.65884000  0.60966000  1.0
  H  H28  1  0.90796000  0.39036000  0.04930000  1.0
  H  H29  1  0.85902000  0.95065000  0.34140000  1.0
  H  H30  1  0.73030000  0.55741000  0.38978000  1.0
  H  H31  1  0.34055000  0.61033000  0.16767000  1.0
  H  H32  1  0.17321000  0.83258000  0.44264000  1.0
  H  H33  1  0.26970000  0.44259000  0.61022000  1.0
  H  H34  1  0.65945000  0.38967000  0.83233000  1.0
  H  H35  1  0.82679000  0.16742000  0.55736000  1.0
  H  H36  1  0.69482000  0.38890000  0.50117000  1.0
  H  H37  1  0.19329000  0.49874000  0.88777000  1.0
  H  H38  1  0.30586000  0.11253000  0.61118000  1.0
  H  H39  1  0.30518000  0.61110000  0.49883000  1.0
  H  H40  1  0.80670000  0.50126000  0.11223000  1.0
  H  H41  1  0.69412000  0.88746000  0.38881000  1.0
  H  H42  1  0.07949000  0.36227000  0.46118000  1.0
  H  H43  1  0.61787000  0.53859000  0.90094000  1.0
  H  H44  1  0.71713000  0.09901000  0.63770000  1.0
  H  H45  1  0.92051000  0.63773000  0.53882000  1.0
  H  H46  1  0.38213000  0.46141000  0.09906000  1.0
  H  H47  1  0.28287000  0.90099000  0.36230000  1.0
  H  H48  1  0.03738000  0.40622000  0.34988000  1.0
  H  H49  1  0.68738000  0.64980000  0.05616000  1.0
  H  H50  1  0.63103000  0.94373000  0.59350000  1.0
  H  H51  1  0.96262000  0.59378000  0.65012000  1.0
  H  H52  1  0.31261000  0.35020000  0.94384000  1.0
  H  H53  1  0.36897000  0.05627000  0.40650000  1.0
  H  H54  1  0.82774000  0.44534000  0.31879000  1.0
  H  H55  1  0.50897000  0.68093000  0.12642000  1.0
  H  H56  1  0.38225000  0.87362000  0.55429000  1.0
  H  H57  1  0.17226000  0.55466000  0.68121000  1.0
  H  H58  1  0.49102000  0.31907000  0.87358000  1.0
  H  H59  1  0.61775000  0.12638000  0.44571000  1.0
  C  C60  1  0.27326000  0.50769000  0.30591000  1.0
  C  C61  1  0.96718000  0.69399000  0.20151000  1.0
  C  C62  1  0.76587000  0.79829000  0.49229000  1.0
  C  C63  1  0.72674000  0.49231000  0.69409000  1.0
  C  C64  1  0.03282000  0.30600000  0.79849000  1.0
  C  C65  1  0.23413000  0.20171000  0.50771000  1.0
  C  C66  1  0.39417000  0.48586000  0.34057000  1.0
  C  C67  1  0.05353000  0.65944000  0.14510000  1.0
  C  C68  1  0.90855000  0.85480000  0.51410000  1.0
  C  C69  1  0.60583000  0.51414000  0.65943000  1.0
  C  C70  1  0.94647000  0.34056000  0.85490000  1.0
  C  C71  1  0.09146000  0.14520000  0.48591000  1.0
  C  C72  1  0.37715000  0.41631000  0.35417000  1.0
  C  C73  1  0.02300000  0.64588000  0.06196000  1.0
  C  C74  1  0.96091000  0.93795000  0.58358000  1.0
  C  C75  1  0.62285000  0.58369000  0.64583000  1.0
  C  C76  1  0.97700000  0.35413000  0.93804000  1.0
  C  C77  1  0.03909000  0.06205000  0.41642000  1.0
  C  C78  1  0.49252000  0.39550000  0.37969000  1.0
  C  C79  1  0.11288000  0.62034000  0.01570000  1.0
  C  C80  1  0.09700000  0.98436000  0.60435000  1.0
  C  C81  1  0.50748000  0.60450000  0.62031000  1.0
  C  C82  1  0.88712000  0.37966000  0.98430000  1.0
  C  C83  1  0.90300000  0.01564000  0.39565000  1.0
  C  C84  1  0.62266000  0.44316000  0.38895000  1.0
  C  C85  1  0.23372000  0.61106000  0.05417000  1.0
  C  C86  1  0.17955000  0.94600000  0.55674000  1.0
  C  C87  1  0.37734000  0.55684000  0.61105000  1.0
  C  C88  1  0.76628000  0.38894000  0.94583000  1.0
  C  C89  1  0.82045000  0.05400000  0.44326000  1.0
  C  C90  1  0.63114000  0.51512000  0.37879000  1.0
  C  C91  1  0.25235000  0.62129000  0.13630000  1.0
  C  C92  1  0.11623000  0.86387000  0.48486000  1.0
  C  C93  1  0.36886000  0.48488000  0.62121000  1.0
  C  C94  1  0.74765000  0.37871000  0.86370000  1.0
  C  C95  1  0.88377000  0.13613000  0.51514000  1.0
  C  C96  1  0.74698000  0.41964000  0.40779000  1.0
  C  C97  1  0.33908000  0.59206000  0.01178000  1.0
  C  C98  1  0.32733000  0.98841000  0.58029000  1.0
  C  C99  1  0.25302000  0.58037000  0.59221000  1.0
  C  C100  1  0.66091000  0.40792000  0.98821000  1.0
  C  C101  1  0.67267000  0.01159000  0.41971000  1.0
  C  C102  1  0.76928000  0.39224000  0.46763000  1.0
  C  C103  1  0.30135000  0.53225000  0.92458000  1.0
  C  C104  1  0.37700000  0.07564000  0.60781000  1.0
  C  C105  1  0.23072000  0.60776000  0.53237000  1.0
  C  C106  1  0.69865000  0.46775000  0.07542000  1.0
  C  C107  1  0.62300000  0.92436000  0.39219000  1.0
  C  C108  1  0.88956000  0.37268000  0.48736000  1.0
  C  C109  1  0.40181000  0.51253000  0.88525000  1.0
  C  C110  1  0.51685000  0.11490000  0.62745000  1.0
  C  C111  1  0.11044000  0.62732000  0.51264000  1.0
  C  C112  1  0.59818000  0.48747000  0.11475000  1.0
  C  C113  1  0.48315000  0.88510000  0.37255000  1.0
  C  C114  1  0.98614000  0.37757000  0.44477000  1.0
  C  C115  1  0.54104000  0.55506000  0.93268000  1.0
  C  C116  1  0.60851000  0.06735000  0.62244000  1.0
  C  C117  1  0.01386000  0.62243000  0.55523000  1.0
  C  C118  1  0.45896000  0.44494000  0.06732000  1.0
  C  C119  1  0.39149000  0.93265000  0.37756000  1.0
  C  C120  1  0.96295000  0.40236000  0.38338000  1.0
  C  C121  1  0.57942000  0.61637000  0.01884000  1.0
  C  C122  1  0.56051000  0.98115000  0.59746000  1.0
  C  C123  1  0.03705000  0.59764000  0.61662000  1.0
  C  C124  1  0.42058000  0.38363000  0.98116000  1.0
  C  C125  1  0.43949000  0.01885000  0.40254000  1.0
  C  C126  1  0.84497000  0.42459000  0.36587000  1.0
  C  C127  1  0.47903000  0.63391000  0.05860000  1.0
  C  C128  1  0.42031000  0.94147000  0.57521000  1.0
  C  C129  1  0.15503000  0.57541000  0.63413000  1.0
  C  C130  1  0.52097000  0.36609000  0.94140000  1.0
  C  C131  1  0.57969000  0.05853000  0.42479000  1.0
  C  C132  1  0.91988000  0.35144000  0.55699000  1.0
  C  C133  1  0.36251000  0.44294000  0.79442000  1.0
  C  C134  1  0.56829000  0.20574000  0.64867000  1.0
  C  C135  1  0.08012000  0.64856000  0.44301000  1.0
  C  C136  1  0.63749000  0.55706000  0.20558000  1.0
  C  C137  1  0.43171000  0.79427000  0.35133000  1.0
  N  N138  1  0.51999000  0.53568000  0.35611000  1.0
  N  N139  1  0.16384000  0.64394000  0.17947000  1.0
  N  N140  1  0.98459000  0.82057000  0.46430000  1.0
  N  N141  1  0.48001000  0.46432000  0.64389000  1.0
  N  N142  1  0.83616000  0.35606000  0.82053000  1.0
  N  N143  1  0.01541000  0.17943000  0.53570000  1.0
  O  O144  1  0.15480000  0.46041000  0.28765000  1.0
  O  O145  1  0.86667000  0.71200000  0.17238000  1.0
  O  O146  1  0.69469000  0.82727000  0.53956000  1.0
  O  O147  1  0.84520000  0.53959000  0.71235000  1.0
  O  O148  1  0.13333000  0.28800000  0.82762000  1.0
  O  O149  1  0.30531000  0.17273000  0.46044000  1.0
  O  O150  1  0.46878000  0.69890000  0.46915000  1.0
  O  O151  1  0.99936000  0.53091000  0.22975000  1.0
  O  O152  1  0.76960000  0.77012000  0.30089000  1.0
  O  O153  1  0.53122000  0.30110000  0.53085000  1.0
  O  O154  1  0.00064000  0.46909000  0.77025000  1.0
  O  O155  1  0.23040000  0.22988000  0.69911000  1.0
  O  O156  1  0.30182000  0.57367000  0.29601000  1.0
  O  O157  1  0.00585000  0.70406000  0.27745000  1.0
  O  O158  1  0.72849000  0.72245000  0.42632000  1.0
  O  O159  1  0.69818000  0.42633000  0.70399000  1.0
  O  O160  1  0.99415000  0.29594000  0.72255000  1.0
  O  O161  1  0.27152000  0.27756000  0.57369000  1.0
  O  O162  1  0.81954000  0.32688000  0.58030000  1.0
  O  O163  1  0.23884000  0.41964000  0.74654000  1.0
  O  O164  1  0.49250000  0.25358000  0.67334000  1.0
  O  O165  1  0.18046000  0.67312000  0.41970000  1.0
  O  O166  1  0.76116000  0.58036000  0.25346000  1.0
  O  O167  1  0.50750000  0.74642000  0.32666000  1.0
  O  O168  1  0.04415000  0.36041000  0.58986000  1.0
  O  O169  1  0.45392000  0.41009000  0.77055000  1.0
  O  O170  1  0.68339000  0.22963000  0.63952000  1.0
  O  O171  1  0.95585000  0.63959000  0.41014000  1.0
  O  O172  1  0.54608000  0.58991000  0.22945000  1.0
  O  O173  1  0.31661000  0.77037000  0.36048000  1.0
