# generated using pymatgen
data_ZnH6C4SN
_symmetry_space_group_name_H-M   'P 1'
_cell_length_a   6.14888000
_cell_length_b   6.42899000
_cell_length_c   24.82900000
_cell_angle_alpha   90.00000000
_cell_angle_beta   90.00000000
_cell_angle_gamma   90.00000000
_symmetry_Int_Tables_number   1
_chemical_formula_structural   ZnH6C4SN
_chemical_formula_sum   'Zn8 H48 C32 S8 N8'
_cell_volume   981.51738473
_cell_formula_units_Z   8
loop_
 _symmetry_equiv_pos_site_id
 _symmetry_equiv_pos_as_xyz
  1  'x, y, z'
loop_
 _atom_site_type_symbol
 _atom_site_label
 _atom_site_symmetry_multiplicity
 _atom_site_fract_x
 _atom_site_fract_y
 _atom_site_fract_z
 _atom_site_occupancy
  Zn  Zn0  1  0.17680000  0.89806000  0.28155000  1.0
  Zn  Zn1  1  0.67681000  0.10193000  0.21845000  1.0
  Zn  Zn2  1  0.82319000  0.60193000  0.78155000  1.0
  Zn  Zn3  1  0.32319000  0.39806000  0.71846000  1.0
  Zn  Zn4  1  0.82319000  0.10193000  0.71845000  1.0
  Zn  Zn5  1  0.32319000  0.89807000  0.78155000  1.0
  Zn  Zn6  1  0.17681000  0.39806000  0.21845000  1.0
  Zn  Zn7  1  0.67681000  0.60194000  0.28155000  1.0
  H  H8  1  0.48851000  0.01051000  0.34267000  1.0
  H  H9  1  0.98852000  0.98949000  0.15733000  1.0
  H  H10  1  0.51148000  0.48949000  0.84268000  1.0
  H  H11  1  0.01148000  0.51051000  0.65733000  1.0
  H  H12  1  0.51148000  0.98950000  0.65733000  1.0
  H  H13  1  0.01148000  0.01051000  0.84267000  1.0
  H  H14  1  0.48852000  0.51051000  0.15733000  1.0
  H  H15  1  0.98851000  0.48950000  0.34268000  1.0
  H  H16  1  0.30531000  0.19746000  0.34943000  1.0
  H  H17  1  0.80530000  0.80254000  0.15057000  1.0
  H  H18  1  0.69469000  0.30254000  0.84943000  1.0
  H  H19  1  0.19469000  0.69746000  0.65057000  1.0
  H  H20  1  0.69468000  0.80255000  0.65057000  1.0
  H  H21  1  0.19469000  0.19746000  0.84943000  1.0
  H  H22  1  0.30531000  0.69746000  0.15057000  1.0
  H  H23  1  0.80531000  0.30255000  0.34943000  1.0
  H  H24  1  0.24636000  0.77174000  0.39247000  1.0
  H  H25  1  0.74636000  0.22826000  0.10753000  1.0
  H  H26  1  0.75366000  0.72826000  0.89247000  1.0
  H  H27  1  0.25363000  0.27174000  0.60753000  1.0
  H  H28  1  0.75362000  0.22827000  0.60753000  1.0
  H  H29  1  0.25363000  0.77173000  0.89247000  1.0
  H  H30  1  0.24637000  0.27173000  0.10753000  1.0
  H  H31  1  0.74637000  0.72826000  0.39248000  1.0
  H  H32  1  0.08140000  0.98712000  0.40708000  1.0
  H  H33  1  0.58139000  0.01288000  0.09292000  1.0
  H  H34  1  0.91861000  0.51287000  0.90708000  1.0
  H  H35  1  0.41860000  0.48712000  0.59292000  1.0
  H  H36  1  0.91860000  0.01288000  0.59292000  1.0
  H  H37  1  0.41860000  0.98712000  0.90708000  1.0
  H  H38  1  0.08141000  0.48713000  0.09291000  1.0
  H  H39  1  0.58139000  0.51288000  0.40708000  1.0
  H  H40  1  0.12434000  0.86318000  0.50172000  1.0
  H  H41  1  0.62435000  0.13681000  0.99828000  1.0
  H  H42  1  0.87566000  0.63682000  0.00172000  1.0
  H  H43  1  0.37565000  0.36318000  0.49828000  1.0
  H  H44  1  0.87565000  0.13681000  0.49828000  1.0
  H  H45  1  0.37567000  0.86319000  0.00172000  1.0
  H  H46  1  0.12435000  0.36319000  0.99828000  1.0
  H  H47  1  0.62433000  0.63682000  0.50172000  1.0
  H  H48  1  0.67443000  0.09459000  0.41328000  1.0
  H  H49  1  0.17444000  0.90542000  0.08672000  1.0
  H  H50  1  0.32557000  0.40542000  0.91328000  1.0
  H  H51  1  0.82556000  0.59459000  0.58673000  1.0
  H  H52  1  0.32556000  0.90541000  0.58672000  1.0
  H  H53  1  0.82556000  0.09459000  0.91328000  1.0
  H  H54  1  0.67445000  0.59458000  0.08672000  1.0
  H  H55  1  0.17443000  0.40541000  0.41328000  1.0
  C  C56  1  0.25139000  0.94062000  0.40029000  1.0
  C  C57  1  0.75139000  0.05937000  0.09971000  1.0
  C  C58  1  0.74862000  0.55937000  0.90029000  1.0
  C  C59  1  0.24860000  0.44063000  0.59971000  1.0
  C  C60  1  0.74860000  0.05938000  0.59971000  1.0
  C  C61  1  0.24860000  0.94063000  0.90029000  1.0
  C  C62  1  0.25140000  0.44063000  0.09971000  1.0
  C  C63  1  0.75139000  0.55937000  0.40029000  1.0
  C  C64  1  0.28975000  0.92375000  0.50071000  1.0
  C  C65  1  0.78976000  0.07625000  0.99929000  1.0
  C  C66  1  0.71025000  0.57624000  0.00071000  1.0
  C  C67  1  0.21025000  0.42375000  0.49929000  1.0
  C  C68  1  0.71023000  0.07624000  0.49929000  1.0
  C  C69  1  0.21023000  0.92376000  0.00071000  1.0
  C  C70  1  0.28978000  0.42376000  0.99929000  1.0
  C  C71  1  0.78976000  0.57625000  0.50071000  1.0
  C  C72  1  0.38249000  0.97670000  0.45103000  1.0
  C  C73  1  0.88247000  0.02330000  0.04897000  1.0
  C  C74  1  0.61752000  0.52329000  0.95103000  1.0
  C  C75  1  0.11751000  0.47670000  0.54897000  1.0
  C  C76  1  0.61752000  0.02330000  0.54897000  1.0
  C  C77  1  0.11750000  0.97671000  0.95103000  1.0
  C  C78  1  0.38249000  0.47670000  0.04897000  1.0
  C  C79  1  0.88249000  0.52330000  0.45103000  1.0
  C  C80  1  0.59529000  0.05341000  0.45117000  1.0
  C  C81  1  0.09529000  0.94657000  0.04883000  1.0
  C  C82  1  0.40472000  0.44659000  0.95117000  1.0
  C  C83  1  0.90472000  0.55342000  0.54883000  1.0
  C  C84  1  0.40470000  0.94657000  0.54883000  1.0
  C  C85  1  0.90470000  0.05342000  0.95117000  1.0
  C  C86  1  0.59531000  0.55343000  0.04883000  1.0
  C  C87  1  0.09530000  0.44657000  0.45117000  1.0
  S  S88  1  0.30483000  0.05746000  0.20405000  1.0
  S  S89  1  0.80483000  0.94255000  0.29595000  1.0
  S  S90  1  0.69517000  0.44254000  0.70406000  1.0
  S  S91  1  0.19517000  0.55746000  0.79595000  1.0
  S  S92  1  0.69517000  0.94254000  0.79595000  1.0
  S  S93  1  0.19517000  0.05746000  0.70406000  1.0
  S  S94  1  0.30483000  0.55745000  0.29595000  1.0
  S  S95  1  0.80483000  0.44254000  0.20406000  1.0
  N  N96  1  0.32581000  0.03883000  0.35014000  1.0
  N  N97  1  0.82580000  0.96117000  0.14987000  1.0
  N  N98  1  0.67420000  0.46117000  0.85014000  1.0
  N  N99  1  0.17419000  0.53883000  0.64986000  1.0
  N  N100  1  0.67419000  0.96117000  0.64986000  1.0
  N  N101  1  0.17419000  0.03884000  0.85014000  1.0
  N  N102  1  0.32581000  0.53883000  0.14986000  1.0
  N  N103  1  0.82581000  0.46117000  0.35014000  1.0
