# generated using pymatgen
data_ZnH15C25N7O4
_symmetry_space_group_name_H-M   'P 1'
_cell_length_a   16.26470000
_cell_length_b   17.73530000
_cell_length_c   19.36450000
_cell_angle_alpha   89.99990000
_cell_angle_beta   89.99990000
_cell_angle_gamma   103.29300000
_symmetry_Int_Tables_number   1
_chemical_formula_structural   ZnH15C25N7O4
_chemical_formula_sum   'Zn8 H120 C200 N56 O32'
_cell_volume   5436.20837609
_cell_formula_units_Z   8
loop_
 _symmetry_equiv_pos_site_id
 _symmetry_equiv_pos_as_xyz
  1  'x, y, z'
loop_
 _atom_site_type_symbol
 _atom_site_label
 _atom_site_symmetry_multiplicity
 _atom_site_fract_x
 _atom_site_fract_y
 _atom_site_fract_z
 _atom_site_occupancy
  Zn  Zn0  1  0.57885000  0.08572000  0.65805000  1.0
  Zn  Zn1  1  0.42115000  0.91428000  0.15805000  1.0
  Zn  Zn2  1  0.40744000  0.11780000  0.52281000  1.0
  Zn  Zn3  1  0.59256000  0.88220000  0.02281000  1.0
  Zn  Zn4  1  0.91827000  0.16304000  0.15764000  1.0
  Zn  Zn5  1  0.08173000  0.83695000  0.65764000  1.0
  Zn  Zn6  1  0.09085000  0.13184000  0.02307000  1.0
  Zn  Zn7  1  0.90915000  0.86816000  0.52307000  1.0
  H  H8  1  0.75839000  0.18842000  0.98299000  1.0
  H  H9  1  0.24162000  0.81157000  0.48299000  1.0
  H  H10  1  0.66687000  0.17148000  0.87717000  1.0
  H  H11  1  0.33313000  0.82852000  0.37717000  1.0
  H  H12  1  0.83888000  0.05712000  0.77505000  1.0
  H  H13  1  0.16113000  0.94289000  0.27505000  1.0
  H  H14  1  0.92942000  0.07306000  0.88158000  1.0
  H  H15  1  0.07058000  0.92694000  0.38158000  1.0
  H  H16  1  0.25710000  0.15964000  0.68901000  1.0
  H  H17  1  0.74290000  0.84036000  0.18901000  1.0
  H  H18  1  0.17472000  0.17439000  0.79563000  1.0
  H  H19  1  0.82527000  0.82560000  0.29563000  1.0
  H  H20  1  0.34159000  0.07112000  0.91632000  1.0
  H  H21  1  0.65842000  0.92888000  0.41632000  1.0
  H  H22  1  0.42207000  0.05378000  0.80874000  1.0
  H  H23  1  0.57793000  0.94622000  0.30874000  1.0
  H  H24  1  0.06095000  0.16541000  0.31105000  1.0
  H  H25  1  0.93905000  0.83458000  0.81105000  1.0
  H  H26  1  0.14099000  0.14171000  0.41718000  1.0
  H  H27  1  0.85900000  0.85829000  0.91718000  1.0
  H  H28  1  0.34146000  0.09956000  0.28991000  1.0
  H  H29  1  0.65854000  0.90045000  0.78991000  1.0
  H  H30  1  0.25882000  0.11719000  0.18393000  1.0
  H  H31  1  0.74118000  0.88281000  0.68393000  1.0
  H  H32  1  0.55336000  0.14334000  0.37334000  1.0
  H  H33  1  0.44664000  0.85666000  0.87333000  1.0
  H  H34  1  0.64413000  0.15518000  0.26660000  1.0
  H  H35  1  0.35587000  0.84482000  0.76660000  1.0
  H  H36  1  0.85079000  0.11667000  0.38841000  1.0
  H  H37  1  0.14921000  0.88333000  0.88841000  1.0
  H  H38  1  0.75861000  0.09917000  0.49407000  1.0
  H  H39  1  0.24139000  0.90083000  0.99407000  1.0
  H  H40  1  0.19287000  0.76665000  0.22186000  1.0
  H  H41  1  0.80713000  0.23335000  0.72186000  1.0
  H  H42  1  0.09807000  0.63952000  0.03848000  1.0
  H  H43  1  0.90193000  0.36048000  0.53848000  1.0
  H  H44  1  0.20817000  0.53729000  0.20821000  1.0
  H  H45  1  0.79183000  0.46271000  0.70821000  1.0
  H  H46  1  0.19341000  0.87111000  0.15764000  1.0
  H  H47  1  0.80659000  0.12888000  0.65764000  1.0
  H  H48  1  0.98794000  0.84819000  0.93471000  1.0
  H  H49  1  0.01206000  0.15181000  0.43471000  1.0
  H  H50  1  0.00204000  0.99229000  0.94085000  1.0
  H  H51  1  0.99796000  0.00771000  0.44086000  1.0
  H  H52  1  0.15518000  0.01843000  0.11430000  1.0
  H  H53  1  0.84482000  0.98157000  0.61430000  1.0
  H  H54  1  0.06919000  0.52195000  0.99365000  1.0
  H  H55  1  0.93081000  0.47805000  0.49365000  1.0
  H  H56  1  0.02127000  0.37582000  0.91071000  1.0
  H  H57  1  0.97873000  0.62418000  0.41071000  1.0
  H  H58  1  0.03567000  0.23875000  0.92249000  1.0
  H  H59  1  0.96433000  0.76125000  0.42249000  1.0
  H  H60  1  0.16281000  0.27961000  0.10943000  1.0
  H  H61  1  0.83719000  0.72039000  0.60943000  1.0
  H  H62  1  0.27950000  0.47260000  0.70234000  1.0
  H  H63  1  0.72049000  0.52739000  0.20234000  1.0
  H  H64  1  0.40943000  0.62588000  0.54262000  1.0
  H  H65  1  0.59057000  0.37412000  0.04262000  1.0
  H  H66  1  0.26445000  0.70248000  0.70271000  1.0
  H  H67  1  0.73555000  0.29752000  0.20271000  1.0
  H  H68  1  0.43051000  0.51870000  0.49379000  1.0
  H  H69  1  0.56949000  0.48130000  0.99379000  1.0
  H  H70  1  0.48675000  0.39431000  0.41414000  1.0
  H  H71  1  0.51325000  0.60569000  0.91414000  1.0
  H  H72  1  0.47741000  0.25208000  0.42829000  1.0
  H  H73  1  0.52259000  0.74792000  0.92829000  1.0
  H  H74  1  0.35944000  0.24060000  0.61884000  1.0
  H  H75  1  0.64056000  0.75940000  0.11884000  1.0
  H  H76  1  0.29223000  0.81631000  0.65076000  1.0
  H  H77  1  0.70777000  0.18369000  0.15076000  1.0
  H  H78  1  0.49664000  0.87599000  0.42728000  1.0
  H  H79  1  0.50336000  0.12402000  0.92728000  1.0
  H  H80  1  0.47778000  0.01208000  0.43074000  1.0
  H  H81  1  0.52221000  0.98793000  0.93074000  1.0
  H  H82  1  0.32438000  0.97332000  0.60480000  1.0
  H  H83  1  0.67562000  0.02668000  0.10480000  1.0
  H  H84  1  0.68572000  0.72536000  0.46448000  1.0
  H  H85  1  0.31428000  0.27465000  0.96448000  1.0
  H  H86  1  0.58355000  0.59240000  0.64302000  1.0
  H  H87  1  0.41646000  0.40760000  0.14302000  1.0
  H  H88  1  0.69108000  0.49315000  0.47004000  1.0
  H  H89  1  0.30893000  0.50685000  0.97004000  1.0
  H  H90  1  0.68087000  0.82732000  0.52673000  1.0
  H  H91  1  0.31912000  0.17268000  0.02673000  1.0
  H  H92  1  0.47919000  0.80445000  0.75182000  1.0
  H  H93  1  0.52081000  0.19555000  0.25182000  1.0
  H  H94  1  0.49256000  0.94850000  0.74445000  1.0
  H  H95  1  0.50744000  0.05150000  0.24444000  1.0
  H  H96  1  0.64433000  0.97332000  0.57018000  1.0
  H  H97  1  0.35567000  0.02668000  0.07018000  1.0
  H  H98  1  0.54861000  0.47359000  0.68310000  1.0
  H  H99  1  0.45139000  0.52642000  0.18310000  1.0
  H  H100  1  0.50447000  0.32817000  0.76688000  1.0
  H  H101  1  0.49553000  0.67183000  0.26689000  1.0
  H  H102  1  0.52306000  0.19244000  0.75622000  1.0
  H  H103  1  0.47694000  0.80756000  0.25622000  1.0
  H  H104  1  0.65459000  0.23583000  0.57133000  1.0
  H  H105  1  0.34541000  0.76418000  0.07133000  1.0
  H  H106  1  0.80118000  0.51917000  0.97554000  1.0
  H  H107  1  0.19882000  0.48083000  0.47554000  1.0
  H  H108  1  0.92046000  0.66941000  0.14117000  1.0
  H  H109  1  0.07954000  0.33058000  0.64117000  1.0
  H  H110  1  0.77728000  0.74641000  0.98001000  1.0
  H  H111  1  0.22272000  0.25359000  0.48000000  1.0
  H  H112  1  0.95362000  0.56417000  0.18370000  1.0
  H  H113  1  0.04637000  0.43583000  0.68370000  1.0
  H  H114  1  0.00954000  0.43911000  0.26236000  1.0
  H  H115  1  0.99047000  0.56088000  0.76236000  1.0
  H  H116  1  0.99570000  0.29589000  0.24939000  1.0
  H  H117  1  0.00430000  0.70411000  0.74939000  1.0
  H  H118  1  0.86953000  0.28415000  0.06243000  1.0
  H  H119  1  0.13047000  0.71584000  0.56243000  1.0
  H  H120  1  0.80353000  0.85926000  0.03098000  1.0
  H  H121  1  0.19647000  0.14074000  0.53098000  1.0
  H  H122  1  0.99563000  0.91952000  0.26131000  1.0
  H  H123  1  0.00437000  0.08048000  0.76131000  1.0
  H  H124  1  0.97932000  0.05632000  0.25391000  1.0
  H  H125  1  0.02068000  0.94368000  0.75391000  1.0
  H  H126  1  0.83420000  0.01626000  0.07540000  1.0
  H  H127  1  0.16580000  0.98374000  0.57540000  1.0
  C  C128  1  0.89904000  0.13386000  0.00375000  1.0
  C  C129  1  0.10096000  0.86614000  0.50375000  1.0
  C  C130  1  0.84800000  0.13011000  0.93886000  1.0
  C  C131  1  0.15201000  0.86988000  0.43886000  1.0
  C  C132  1  0.77523000  0.15968000  0.93726000  1.0
  C  C133  1  0.22478000  0.84032000  0.43725000  1.0
  C  C134  1  0.72470000  0.15049000  0.87860000  1.0
  C  C135  1  0.27531000  0.84951000  0.37860000  1.0
  C  C136  1  0.74697000  0.11264000  0.82039000  1.0
  C  C137  1  0.25304000  0.88737000  0.32039000  1.0
  C  C138  1  0.82193000  0.08629000  0.82063000  1.0
  C  C139  1  0.17808000  0.91372000  0.32064000  1.0
  C  C140  1  0.87185000  0.09459000  0.87972000  1.0
  C  C141  1  0.12816000  0.90541000  0.37972000  1.0
  C  C142  1  0.68944000  0.09970000  0.75932000  1.0
  C  C143  1  0.31057000  0.90030000  0.25932000  1.0
  C  C144  1  0.39017000  0.09406000  0.67803000  1.0
  C  C145  1  0.60982000  0.90594000  0.17803000  1.0
  C  C146  1  0.34347000  0.10506000  0.74263000  1.0
  C  C147  1  0.65653000  0.89494000  0.24263000  1.0
  C  C148  1  0.27481000  0.14031000  0.73900000  1.0
  C  C149  1  0.72518000  0.85969000  0.23900000  1.0
  C  C150  1  0.22948000  0.14890000  0.79807000  1.0
  C  C151  1  0.77051000  0.85110000  0.29806000  1.0
  C  C152  1  0.25347000  0.12377000  0.86197000  1.0
  C  C153  1  0.74653000  0.87623000  0.36197000  1.0
  C  C154  1  0.32384000  0.09069000  0.86627000  1.0
  C  C155  1  0.67616000  0.90931000  0.36627000  1.0
  C  C156  1  0.36821000  0.08069000  0.80676000  1.0
  C  C157  1  0.63179000  0.91931000  0.30675000  1.0
  C  C158  1  0.20181000  0.13038000  0.92434000  1.0
  C  C159  1  0.79819000  0.86962000  0.42434000  1.0
  C  C160  1  0.10927000  0.15710000  0.17768000  1.0
  C  C161  1  0.89073000  0.84290000  0.67768000  1.0
  C  C162  1  0.15604000  0.14341000  0.24148000  1.0
  C  C163  1  0.84396000  0.85659000  0.74148000  1.0
  C  C164  1  0.12216000  0.15025000  0.30720000  1.0
  C  C165  1  0.87784000  0.84975000  0.80720000  1.0
  C  C166  1  0.16687000  0.13787000  0.36577000  1.0
  C  C167  1  0.83313000  0.86213000  0.86577000  1.0
  C  C168  1  0.24667000  0.12112000  0.35952000  1.0
  C  C169  1  0.75333000  0.87888000  0.85952000  1.0
  C  C170  1  0.27974000  0.11320000  0.29386000  1.0
  C  C171  1  0.72026000  0.88680000  0.79386000  1.0
  C  C172  1  0.23416000  0.12333000  0.23531000  1.0
  C  C173  1  0.76584000  0.87667000  0.73531000  1.0
  C  C174  1  0.29861000  0.11486000  0.42193000  1.0
  C  C175  1  0.70139000  0.88513000  0.92193000  1.0
  C  C176  1  0.59907000  0.11869000  0.50393000  1.0
  C  C177  1  0.40093000  0.88131000  0.00393000  1.0
  C  C178  1  0.65158000  0.12193000  0.43991000  1.0
  C  C179  1  0.34842000  0.87808000  0.93990000  1.0
  C  C180  1  0.61853000  0.13718000  0.37575000  1.0
  C  C181  1  0.38147000  0.86282000  0.87575000  1.0
  C  C182  1  0.66893000  0.14437000  0.31697000  1.0
  C  C183  1  0.33107000  0.85563000  0.81697000  1.0
  C  C184  1  0.75327000  0.13864000  0.32184000  1.0
  C  C185  1  0.24673000  0.86136000  0.82184000  1.0
  C  C186  1  0.78549000  0.12184000  0.38565000  1.0
  C  C187  1  0.21451000  0.87816000  0.88565000  1.0
  C  C188  1  0.73460000  0.11250000  0.44414000  1.0
  C  C189  1  0.26540000  0.88751000  0.94414000  1.0
  C  C190  1  0.80959000  0.15109000  0.25996000  1.0
  C  C191  1  0.19041000  0.84891000  0.75996000  1.0
  C  C192  1  0.18067000  0.71359000  0.19123000  1.0
  C  C193  1  0.81933000  0.28641000  0.69123000  1.0
  C  C194  1  0.14315000  0.71117000  0.12553000  1.0
  C  C195  1  0.85685000  0.28883000  0.62553000  1.0
  C  C196  1  0.12753000  0.64098000  0.08926000  1.0
  C  C197  1  0.87247000  0.35902000  0.58926000  1.0
  C  C198  1  0.15043000  0.57697000  0.11883000  1.0
  C  C199  1  0.84957000  0.42303000  0.61883000  1.0
  C  C200  1  0.18887000  0.58639000  0.18455000  1.0
  C  C201  1  0.81113000  0.41361000  0.68455000  1.0
  C  C202  1  0.11968000  0.77822000  0.09454000  1.0
  C  C203  1  0.88032000  0.22178000  0.59454000  1.0
  C  C204  1  0.11232000  0.89890000  0.07788000  1.0
  C  C205  1  0.88768000  0.10110000  0.57788000  1.0
  C  C206  1  0.06489000  0.84924000  0.02702000  1.0
  C  C207  1  0.93511000  0.15076000  0.52702000  1.0
  C  C208  1  0.02384000  0.88271000  0.97580000  1.0
  C  C209  1  0.97616000  0.11729000  0.47580000  1.0
  C  C210  1  0.03246000  0.96236000  0.97874000  1.0
  C  C211  1  0.96754000  0.03764000  0.47874000  1.0
  C  C212  1  0.11880000  0.97837000  0.07692000  1.0
  C  C213  1  0.88121000  0.02163000  0.57692000  1.0
  C  C214  1  0.13565000  0.50150000  0.08541000  1.0
  C  C215  1  0.86435000  0.49850000  0.58541000  1.0
  C  C216  1  0.12901000  0.38103000  0.06516000  1.0
  C  C217  1  0.87099000  0.61897000  0.56516000  1.0
  C  C218  1  0.08823000  0.40796000  0.00851000  1.0
  C  C219  1  0.91177000  0.59204000  0.50851000  1.0
  C  C220  1  0.05330000  0.35797000  0.95511000  1.0
  C  C221  1  0.94671000  0.64203000  0.45511000  1.0
  C  C222  1  0.06083000  0.28179000  0.96187000  1.0
  C  C223  1  0.93917000  0.71821000  0.46187000  1.0
  C  C224  1  0.13297000  0.30340000  0.06702000  1.0
  C  C225  1  0.86703000  0.69660000  0.56702000  1.0
  C  C226  1  0.29738000  0.52971000  0.67824000  1.0
  C  C227  1  0.70262000  0.47029000  0.17824000  1.0
  C  C228  1  0.34831000  0.53920000  0.61840000  1.0
  C  C229  1  0.65169000  0.46080000  0.11840000  1.0
  C  C230  1  0.36966000  0.61265000  0.58844000  1.0
  C  C231  1  0.63034000  0.38735000  0.08844000  1.0
  C  C232  1  0.33960000  0.67315000  0.61803000  1.0
  C  C233  1  0.66040000  0.32685000  0.11803000  1.0
  C  C234  1  0.28948000  0.65719000  0.67770000  1.0
  C  C235  1  0.71051000  0.34282000  0.17771000  1.0
  C  C236  1  0.37395000  0.47214000  0.58965000  1.0
  C  C237  1  0.62605000  0.52786000  0.08965000  1.0
  C  C238  1  0.38928000  0.35614000  0.57303000  1.0
  C  C239  1  0.61072000  0.64386000  0.07303000  1.0
  C  C240  1  0.42464000  0.39924000  0.51407000  1.0
  C  C241  1  0.57536000  0.60076000  0.01407000  1.0
  C  C242  1  0.45829000  0.36373000  0.46014000  1.0
  C  C243  1  0.54171000  0.63627000  0.96013000  1.0
  C  C244  1  0.45314000  0.28480000  0.46791000  1.0
  C  C245  1  0.54686000  0.71520000  0.96791000  1.0
  C  C246  1  0.38694000  0.27712000  0.57567000  1.0
  C  C247  1  0.61306000  0.72287000  0.07567000  1.0
  C  C248  1  0.36168000  0.74962000  0.58628000  1.0
  C  C249  1  0.63832000  0.25038000  0.08628000  1.0
  C  C250  1  0.36853000  0.87330000  0.56846000  1.0
  C  C251  1  0.63147000  0.12670000  0.06846000  1.0
  C  C252  1  0.41773000  0.84394000  0.51890000  1.0
  C  C253  1  0.58227000  0.15606000  0.01890000  1.0
  C  C254  1  0.45932000  0.89465000  0.46781000  1.0
  C  C255  1  0.54068000  0.10535000  0.96781000  1.0
  C  C256  1  0.44908000  0.97015000  0.46988000  1.0
  C  C257  1  0.55092000  0.02985000  0.96988000  1.0
  C  C258  1  0.36174000  0.94985000  0.56741000  1.0
  C  C259  1  0.63826000  0.05015000  0.06741000  1.0
  C  C260  1  0.67021000  0.67078000  0.49294000  1.0
  C  C261  1  0.32979000  0.32923000  0.99294000  1.0
  C  C262  1  0.63130000  0.66666667  0.55820000  1.0
  C  C263  1  0.36870000  0.33333333  0.05820000  1.0
  C  C264  1  0.61330000  0.59513000  0.59228000  1.0
  C  C265  1  0.38670000  0.40487000  0.09228000  1.0
  C  C266  1  0.63489000  0.53139000  0.56097000  1.0
  C  C267  1  0.36511000  0.46861000  0.06097000  1.0
  C  C268  1  0.67357000  0.54220000  0.49540000  1.0
  C  C269  1  0.32643000  0.45781000  0.99540000  1.0
  C  C270  1  0.60924000  0.73360000  0.59070000  1.0
  C  C271  1  0.39076000  0.26641000  0.09070000  1.0
  C  C272  1  0.60233000  0.85427000  0.60784000  1.0
  C  C273  1  0.39767000  0.14574000  0.10784000  1.0
  C  C274  1  0.55579000  0.80479000  0.65921000  1.0
  C  C275  1  0.44421000  0.19521000  0.15921000  1.0
  C  C276  1  0.51492000  0.83861000  0.71039000  1.0
  C  C277  1  0.48508000  0.16139000  0.21038000  1.0
  C  C278  1  0.52289000  0.91821000  0.70675000  1.0
  C  C279  1  0.47711000  0.08179000  0.20675000  1.0
  C  C280  1  0.60855000  0.93364000  0.60812000  1.0
  C  C281  1  0.39145000  0.06637000  0.10812000  1.0
  C  C282  1  0.61973000  0.45533000  0.59331000  1.0
  C  C283  1  0.38027000  0.54467000  0.09331000  1.0
  C  C284  1  0.61589000  0.33545000  0.61405000  1.0
  C  C285  1  0.38412000  0.66456000  0.11405000  1.0
  C  C286  1  0.57274000  0.36132000  0.66982000  1.0
  C  C287  1  0.42726000  0.63868000  0.16982000  1.0
  C  C288  1  0.53796000  0.31105000  0.72304000  1.0
  C  C289  1  0.46204000  0.68895000  0.22304000  1.0
  C  C290  1  0.54775000  0.23555000  0.71687000  1.0
  C  C291  1  0.45225000  0.76446000  0.21687000  1.0
  C  C292  1  0.62222000  0.25840000  0.61288000  1.0
  C  C293  1  0.37778000  0.74161000  0.11288000  1.0
  C  C294  1  0.81611000  0.57547000  0.00121000  1.0
  C  C295  1  0.18389000  0.42453000  0.50121000  1.0
  C  C296  1  0.86465000  0.58424000  0.06234000  1.0
  C  C297  1  0.13535000  0.41576000  0.56235000  1.0
  C  C298  1  0.88282000  0.65679000  0.09418000  1.0
  C  C299  1  0.11718000  0.34321000  0.59418000  1.0
  C  C300  1  0.85175000  0.71701000  0.06514000  1.0
  C  C301  1  0.14826000  0.28299000  0.56514000  1.0
  C  C302  1  0.80358000  0.70153000  0.00437000  1.0
  C  C303  1  0.19642000  0.29847000  0.50437000  1.0
  C  C304  1  0.89062000  0.51699000  0.09035000  1.0
  C  C305  1  0.10938000  0.48301000  0.59035000  1.0
  C  C306  1  0.90397000  0.40036000  0.10686000  1.0
  C  C307  1  0.09603000  0.59964000  0.60686000  1.0
  C  C308  1  0.94278000  0.44371000  0.16461000  1.0
  C  C309  1  0.05721000  0.55629000  0.66461000  1.0
  C  C310  1  0.97794000  0.40813000  0.21763000  1.0
  C  C311  1  0.02206000  0.59186000  0.71763000  1.0
  C  C312  1  0.97051000  0.32881000  0.21047000  1.0
  C  C313  1  0.02949000  0.67119000  0.71047000  1.0
  C  C314  1  0.89965000  0.32098000  0.10460000  1.0
  C  C315  1  0.10035000  0.67901000  0.60460000  1.0
  C  C316  1  0.87085000  0.79296000  0.09801000  1.0
  C  C317  1  0.12916000  0.20704000  0.59801000  1.0
  C  C318  1  0.87625000  0.91655000  0.11498000  1.0
  C  C319  1  0.12375000  0.08344000  0.61498000  1.0
  C  C320  1  0.92287000  0.88735000  0.16660000  1.0
  C  C321  1  0.07713000  0.11265000  0.66666667  1.0
  C  C322  1  0.96135000  0.93825000  0.21873000  1.0
  C  C323  1  0.03865000  0.06175000  0.71872000  1.0
  C  C324  1  0.95218000  0.01398000  0.21470000  1.0
  C  C325  1  0.04782000  0.98602000  0.71470000  1.0
  C  C326  1  0.86985000  0.99325000  0.11442000  1.0
  C  C327  1  0.13014000  0.00675000  0.61442000  1.0
  N  N328  1  0.20325000  0.65266000  0.22013000  1.0
  N  N329  1  0.79675000  0.34734000  0.72013000  1.0
  N  N330  1  0.07840000  0.00879000  0.02760000  1.0
  N  N331  1  0.92160000  0.99121000  0.52760000  1.0
  N  N332  1  0.14595000  0.85176000  0.12036000  1.0
  N  N333  1  0.85405000  0.14824000  0.62037000  1.0
  N  N334  1  0.07057000  0.77411000  0.03848000  1.0
  N  N335  1  0.92943000  0.22589000  0.53848000  1.0
  N  N336  1  0.09868000  0.25513000  0.01623000  1.0
  N  N337  1  0.90132000  0.74487000  0.51623000  1.0
  N  N338  1  0.15785000  0.44017000  0.11175000  1.0
  N  N339  1  0.84215000  0.55983000  0.61175000  1.0
  N  N340  1  0.09379000  0.48490000  0.02258000  1.0
  N  N341  1  0.90621000  0.51509000  0.52258000  1.0
  N  N342  1  0.26879000  0.58699000  0.70736000  1.0
  N  N343  1  0.73121000  0.41301000  0.20737000  1.0
  N  N344  1  0.41799000  0.24268000  0.52340000  1.0
  N  N345  1  0.58201000  0.75731000  0.02340000  1.0
  N  N346  1  0.35898000  0.40280000  0.61910000  1.0
  N  N347  1  0.64102000  0.59719000  0.11910000  1.0
  N  N348  1  0.41467000  0.47295000  0.52635000  1.0
  N  N349  1  0.58533000  0.52704000  0.02634000  1.0
  N  N350  1  0.40292000  0.99736000  0.51858000  1.0
  N  N351  1  0.59708000  0.00264000  0.01857000  1.0
  N  N352  1  0.33372000  0.81197000  0.61045000  1.0
  N  N353  1  0.66628000  0.18803000  0.11045000  1.0
  N  N354  1  0.41225000  0.76654000  0.53100000  1.0
  N  N355  1  0.58774000  0.23346000  0.03100000  1.0
  N  N356  1  0.69066000  0.60995000  0.46201000  1.0
  N  N357  1  0.30934000  0.39006000  0.96201000  1.0
  N  N358  1  0.56823000  0.96428000  0.65733000  1.0
  N  N359  1  0.43177000  0.03572000  0.15733000  1.0
  N  N360  1  0.63517000  0.80716000  0.56494000  1.0
  N  N361  1  0.36483000  0.19284000  0.06494000  1.0
  N  N362  1  0.56125000  0.72959000  0.64748000  1.0
  N  N363  1  0.43875000  0.27042000  0.14748000  1.0
  N  N364  1  0.58757000  0.20959000  0.66325000  1.0
  N  N365  1  0.41243000  0.79042000  0.16325000  1.0
  N  N366  1  0.64437000  0.39491000  0.56761000  1.0
  N  N367  1  0.35563000  0.60510000  0.06761000  1.0
  N  N368  1  0.57660000  0.43787000  0.65551000  1.0
  N  N369  1  0.42340000  0.56213000  0.15551000  1.0
  N  N370  1  0.78627000  0.63237000  0.97278000  1.0
  N  N371  1  0.21373000  0.36763000  0.47278000  1.0
  N  N372  1  0.93210000  0.28657000  0.15615000  1.0
  N  N373  1  0.06790000  0.71343000  0.65615000  1.0
  N  N374  1  0.87285000  0.44723000  0.06159000  1.0
  N  N375  1  0.12715000  0.55276000  0.56159000  1.0
  N  N376  1  0.93391000  0.51778000  0.15242000  1.0
  N  N377  1  0.06609000  0.48222000  0.65242000  1.0
  N  N378  1  0.90924000  0.04134000  0.16362000  1.0
  N  N379  1  0.09076000  0.95866000  0.66362000  1.0
  N  N380  1  0.84375000  0.85513000  0.07241000  1.0
  N  N381  1  0.15626000  0.14487000  0.57241000  1.0
  N  N382  1  0.91842000  0.81000000  0.15501000  1.0
  N  N383  1  0.08158000  0.19000000  0.65501000  1.0
  O  O384  1  0.96500000  0.10749000  0.00089000  1.0
  O  O385  1  0.03501000  0.89251000  0.50088000  1.0
  O  O386  1  0.87097000  0.16060000  0.05790000  1.0
  O  O387  1  0.12902000  0.83940000  0.55790000  1.0
  O  O388  1  0.61098000  0.09443000  0.76855000  1.0
  O  O389  1  0.38902000  0.90557000  0.26855000  1.0
  O  O390  1  0.71988000  0.09459000  0.69884000  1.0
  O  O391  1  0.28013000  0.90541000  0.19884000  1.0
  O  O392  1  0.36244000  0.11638000  0.62169000  1.0
  O  O393  1  0.63756000  0.88362000  0.12169000  1.0
  O  O394  1  0.45250000  0.06277000  0.68347000  1.0
  O  O395  1  0.54750000  0.93724000  0.18347000  1.0
  O  O396  1  0.23477000  0.13279000  0.98446000  1.0
  O  O397  1  0.76523000  0.86721000  0.48445000  1.0
  O  O398  1  0.12454000  0.13219000  0.91602000  1.0
  O  O399  1  0.87546000  0.86781000  0.41602000  1.0
  O  O400  1  0.13960000  0.14029000  0.12038000  1.0
  O  O401  1  0.86040000  0.85971000  0.62038000  1.0
  O  O402  1  0.04516000  0.18564000  0.18470000  1.0
  O  O403  1  0.95484000  0.81436000  0.68470000  1.0
  O  O404  1  0.26563000  0.11193000  0.48220000  1.0
  O  O405  1  0.73436000  0.88807000  0.98220000  1.0
  O  O406  1  0.37629000  0.11493000  0.41380000  1.0
  O  O407  1  0.62370000  0.88507000  0.91381000  1.0
  O  O408  1  0.53350000  0.14556000  0.49951000  1.0
  O  O409  1  0.46650000  0.85444000  0.99950000  1.0
  O  O410  1  0.62604000  0.09226000  0.55865000  1.0
  O  O411  1  0.37397000  0.90774000  0.05865000  1.0
  O  O412  1  0.88848000  0.15772000  0.26836000  1.0
  O  O413  1  0.11152000  0.84228000  0.76836000  1.0
  O  O414  1  0.77811000  0.15463000  0.19964000  1.0
  O  O415  1  0.22189000  0.84537000  0.69964000  1.0
