# generated using pymatgen
data_Zn3H12C35Br2(ClO3)4
_symmetry_space_group_name_H-M   'P 1'
_cell_length_a   18.55620000
_cell_length_b   18.56630000
_cell_length_c   18.75430000
_cell_angle_alpha   109.10600000
_cell_angle_beta   109.79800000
_cell_angle_gamma   108.98800000
_symmetry_Int_Tables_number   1
_chemical_formula_structural   Zn3H12C35Br2(ClO3)4
_chemical_formula_sum   'Zn6 H24 C70 Br4 Cl8 O24'
_cell_volume   5005.40370903
_cell_formula_units_Z   2
loop_
 _symmetry_equiv_pos_site_id
 _symmetry_equiv_pos_as_xyz
  1  'x, y, z'
loop_
 _atom_site_type_symbol
 _atom_site_label
 _atom_site_symmetry_multiplicity
 _atom_site_fract_x
 _atom_site_fract_y
 _atom_site_fract_z
 _atom_site_occupancy
  Zn  Zn0  1  0.99894000  0.92955000  0.43389000  1.0
  Zn  Zn1  1  0.99829000  0.05490000  0.55828000  1.0
  Zn  Zn2  1  0.42940000  0.49726000  0.44114000  1.0
  Zn  Zn3  1  0.55563000  0.49062000  0.56094000  1.0
  Zn  Zn4  1  0.56765000  0.07170000  0.00211000  1.0
  Zn  Zn5  1  0.45216000  0.94291000  0.00903000  1.0
  H  H6  1  0.30867000  0.40664000  0.62868000  1.0
  H  H7  1  0.20878000  0.68528000  0.65049000  1.0
  H  H8  1  0.33098000  0.83349000  0.76449000  1.0
  H  H9  1  0.38312000  0.12454000  0.83869000  1.0
  H  H10  1  0.76834000  0.81154000  0.34476000  1.0
  H  H11  1  0.53099000  0.56306000  0.19196000  1.0
  H  H12  1  0.53526000  0.56522000  0.32545000  1.0
  H  H13  1  0.77092000  0.00821000  0.35877000  1.0
  H  H14  1  0.30714000  0.25254000  0.62767000  1.0
  H  H15  1  0.94693000  0.95579000  0.23213000  1.0
  H  H16  1  0.96402000  0.96706000  0.11025000  1.0
  H  H17  1  0.76178000  0.03898000  0.04956000  1.0
  H  H18  1  0.66729000  0.03354000  0.25787000  1.0
  H  H19  1  0.53348000  0.71668000  0.58999000  1.0
  H  H20  1  0.53368000  0.84340000  0.57602000  1.0
  H  H21  1  0.50543000  0.93465000  0.80143000  1.0
  H  H22  1  0.48759000  0.71484000  0.88912000  1.0
  H  H23  1  0.34443000  0.26185000  0.33212000  1.0
  H  H24  1  0.19543000  0.14240000  0.21654000  1.0
  H  H25  1  0.61251000  0.24028000  0.23690000  1.0
  H  H26  1  0.14719000  0.26888000  0.37006000  1.0
  H  H27  1  0.12197000  0.30705000  0.51698000  1.0
  H  H28  1  0.25131000  0.10613000  0.72194000  1.0
  H  H29  1  0.06354000  0.66577000  0.55611000  1.0
  C  C30  1  0.11161000  0.96626000  0.59165000  1.0
  C  C31  1  0.18293000  0.26629000  0.42810000  1.0
  C  C32  1  0.16951000  0.28748000  0.50913000  1.0
  C  C33  1  0.16946000  0.20261000  0.50818000  1.0
  C  C34  1  0.11027000  0.80265000  0.60540000  1.0
  C  C35  1  0.12024000  0.73101000  0.60090000  1.0
  C  C36  1  0.20166000  0.74249000  0.65571000  1.0
  C  C37  1  0.27025000  0.82525000  0.71847000  1.0
  C  C38  1  0.26264000  0.90028000  0.72400000  1.0
  C  C39  1  0.18323000  0.88985000  0.66108000  1.0
  C  C40  1  0.18243000  0.96658000  0.66084000  1.0
  C  C41  1  0.11021000  0.13637000  0.51909000  1.0
  C  C42  1  0.25392000  0.04882000  0.72352000  1.0
  C  C43  1  0.32873000  0.05931000  0.78840000  1.0
  C  C44  1  0.33302000  0.98686000  0.78993000  1.0
  C  C45  1  0.71771000  0.75894000  0.34214000  1.0
  C  C46  1  0.64917000  0.68946000  0.26239000  1.0
  C  C47  1  0.58348000  0.61812000  0.25574000  1.0
  C  C48  1  0.58660000  0.61946000  0.33052000  1.0
  C  C49  1  0.65476000  0.69076000  0.41431000  1.0
  C  C50  1  0.72340000  0.76089000  0.42027000  1.0
  C  C51  1  0.79536000  0.83062000  0.50444000  1.0
  C  C52  1  0.89384000  0.97552000  0.35066000  1.0
  C  C53  1  0.79666000  0.83119000  0.57913000  1.0
  C  C54  1  0.72683000  0.76302000  0.57315000  1.0
  C  C55  1  0.65783000  0.69338000  0.49225000  1.0
  C  C56  1  0.90673000  0.97436000  0.19281000  1.0
  C  C57  1  0.91604000  0.98007000  0.12480000  1.0
  C  C58  1  0.86298000  0.00346000  0.07342000  1.0
  C  C59  1  0.80174000  0.02082000  0.08976000  1.0
  C  C60  1  0.79132000  0.01592000  0.15994000  1.0
  C  C61  1  0.84523000  0.99220000  0.21313000  1.0
  C  C62  1  0.83670000  0.99057000  0.28559000  1.0
  C  C63  1  0.87097000  0.89957000  0.50988000  1.0
  C  C64  1  0.77527000  0.00836000  0.30235000  1.0
  C  C65  1  0.71862000  0.02476000  0.24702000  1.0
  C  C66  1  0.72659000  0.03008000  0.17777000  1.0
  C  C67  1  0.51932000  0.60733000  0.64467000  1.0
  C  C68  1  0.35099000  0.38358000  0.48209000  1.0
  C  C69  1  0.50479000  0.37200000  0.40015000  1.0
  C  C70  1  0.58800000  0.61826000  0.48621000  1.0
  C  C71  1  0.47431000  0.09927000  0.10837000  1.0
  C  C72  1  0.40764000  0.00230000  0.86799000  1.0
  C  C73  1  0.49841000  0.86513000  0.90271000  1.0
  C  C74  1  0.27260000  0.25782000  0.57113000  1.0
  C  C75  1  0.65859000  0.04214000  0.12029000  1.0
  C  C76  1  0.52789000  0.76379000  0.63727000  1.0
  C  C77  1  0.52741000  0.83440000  0.62860000  1.0
  C  C78  1  0.51801000  0.89513000  0.68827000  1.0
  C  C79  1  0.51091000  0.88583000  0.75586000  1.0
  C  C80  1  0.51187000  0.81383000  0.76658000  1.0
  C  C81  1  0.51924000  0.75028000  0.70505000  1.0
  C  C82  1  0.51761000  0.67555000  0.71314000  1.0
  C  C83  1  0.50638000  0.66445000  0.77894000  1.0
  C  C84  1  0.49731000  0.72537000  0.83853000  1.0
  C  C85  1  0.27153000  0.34166000  0.57138000  1.0
  C  C86  1  0.50160000  0.79934000  0.83398000  1.0
  C  C87  1  0.33477000  0.21692000  0.27100000  1.0
  C  C88  1  0.25143000  0.15131000  0.20646000  1.0
  C  C89  1  0.23676000  0.09642000  0.12432000  1.0
  C  C90  1  0.30701000  0.10421000  0.11000000  1.0
  C  C91  1  0.39555000  0.16398000  0.18005000  1.0
  C  C92  1  0.40850000  0.22676000  0.25957000  1.0
  C  C93  1  0.49468000  0.29820000  0.32598000  1.0
  C  C94  1  0.56628000  0.30309000  0.31569000  1.0
  C  C95  1  0.55498000  0.23726000  0.24198000  1.0
  C  C96  1  0.28461000  0.32047000  0.48927000  1.0
  C  C97  1  0.47245000  0.16857000  0.17601000  1.0
  C  C98  1  0.28645000  0.23667000  0.49107000  1.0
  C  C99  1  0.18444000  0.18242000  0.42751000  1.0
  Br  Br100  1  0.89403000  0.91802000  0.69110000  1.0
  Br  Br101  1  0.49593000  0.56345000  0.78968000  1.0
  Br  Br102  1  0.36748000  0.19878000  0.47827000  1.0
  Br  Br103  1  0.28217000  0.04381000  0.99386000  1.0
  Cl  Cl104  1  0.64341000  0.68861000  0.16798000  1.0
  Cl  Cl105  1  0.72829000  0.76897000  0.66716000  1.0
  Cl  Cl106  1  0.87593000  0.00995000  0.98810000  1.0
  Cl  Cl107  1  0.51534000  0.98276000  0.67590000  1.0
  Cl  Cl108  1  0.67124000  0.39031000  0.38975000  1.0
  Cl  Cl109  1  0.12935000  0.02310000  0.04318000  1.0
  Cl  Cl110  1  0.13312000  0.08304000  0.33370000  1.0
  Cl  Cl111  1  0.00431000  0.78236000  0.54709000  1.0
  O  O112  1  0.09001000  0.91967000  0.51224000  1.0
  O  O113  1  0.57644000  0.58271000  0.66708000  1.0
  O  O114  1  0.32449000  0.40892000  0.42672000  1.0
  O  O115  1  0.43031000  0.40710000  0.53147000  1.0
  O  O116  1  0.46041000  0.40841000  0.37835000  1.0
  O  O117  1  0.55666000  0.39385000  0.47836000  1.0
  O  O118  1  0.50722000  0.59700000  0.43970000  1.0
  O  O119  1  0.61284000  0.57982000  0.52558000  1.0
  O  O120  1  0.52226000  0.12612000  0.07772000  1.0
  O  O121  1  0.43379000  0.02003000  0.09200000  1.0
  O  O122  1  0.48574000  0.06219000  0.89618000  1.0
  O  O123  1  0.08261000  0.01705000  0.61727000  1.0
  O  O124  1  0.38821000  0.95740000  0.90388000  1.0
  O  O125  1  0.54737000  0.94507000  0.92939000  1.0
  O  O126  1  0.44715000  0.83784000  0.93155000  1.0
  O  O127  1  0.67920000  0.09370000  0.08960000  1.0
  O  O128  1  0.58122000  0.99858000  0.10519000  1.0
  O  O129  1  0.09265000  0.05832000  0.47665000  1.0
  O  O130  1  0.08174000  0.16199000  0.57115000  1.0
  O  O131  1  0.91997000  0.91980000  0.32685000  1.0
  O  O132  1  0.91292000  0.01940000  0.42866000  1.0
  O  O133  1  0.90412000  0.87258000  0.46510000  1.0
  O  O134  1  0.89637000  0.98008000  0.55865000  1.0
  O  O135  1  0.46206000  0.57849000  0.56702000  1.0
