# generated using pymatgen
data_CdH8C6SO7
_symmetry_space_group_name_H-M   'P 1'
_cell_length_a   7.53078000
_cell_length_b   7.59137000
_cell_length_c   10.50770000
_cell_angle_alpha   90.00080000
_cell_angle_beta   71.71100000
_cell_angle_gamma   90.00100000
_symmetry_Int_Tables_number   1
_chemical_formula_structural   CdH8C6SO7
_chemical_formula_sum   'Cd2 H16 C12 S2 O14'
_cell_volume   570.36941914
_cell_formula_units_Z   2
loop_
 _symmetry_equiv_pos_site_id
 _symmetry_equiv_pos_as_xyz
  1  'x, y, z'
loop_
 _atom_site_type_symbol
 _atom_site_label
 _atom_site_symmetry_multiplicity
 _atom_site_fract_x
 _atom_site_fract_y
 _atom_site_fract_z
 _atom_site_occupancy
  Cd  Cd0  1  0.74990000  0.23774000  0.50000000  1.0
  Cd  Cd1  1  0.24989000  0.76226000  0.50000000  1.0
  H  H2  1  0.37931000  0.80884000  0.88265000  1.0
  H  H3  1  0.12060000  0.80884000  0.11731000  1.0
  H  H4  1  0.62062000  0.19116000  0.11733000  1.0
  H  H5  1  0.87931000  0.19116000  0.88266000  1.0
  H  H6  1  0.50623000  0.14514000  0.34576000  1.0
  H  H7  1  0.99374000  0.14512000  0.65415000  1.0
  H  H8  1  0.49375000  0.85490000  0.65415000  1.0
  H  H9  1  0.00625000  0.85483000  0.34575000  1.0
  H  H10  1  0.62953000  0.32552000  0.29707000  1.0
  H  H11  1  0.87063000  0.32566000  0.70271000  1.0
  H  H12  1  0.37065000  0.67435000  0.70270000  1.0
  H  H13  1  0.12956000  0.67447000  0.29706000  1.0
  H  H14  1  0.64420000  0.60653000  0.55224000  1.0
  H  H15  1  0.85583000  0.60644000  0.44783000  1.0
  H  H16  1  0.35582000  0.39354000  0.44785000  1.0
  H  H17  1  0.14420000  0.39348000  0.55226000  1.0
  C  C18  1  0.31683000  0.92769000  0.93565000  1.0
  C  C19  1  0.18313000  0.92767000  0.06434000  1.0
  C  C20  1  0.68314000  0.07233000  0.06434000  1.0
  C  C21  1  0.81684000  0.07232000  0.93566000  1.0
  C  C22  1  0.36625000  0.09646000  0.88678000  1.0
  C  C23  1  0.13372000  0.09645000  0.11324000  1.0
  C  C24  1  0.63372000  0.90355000  0.11323000  1.0
  C  C25  1  0.86624000  0.90355000  0.88678000  1.0
  C  C26  1  0.49967000  0.15565000  0.75838000  1.0
  C  C27  1  0.00027000  0.15559000  0.24166000  1.0
  C  C28  1  0.50028000  0.84439000  0.24164000  1.0
  C  C29  1  0.99967000  0.84437000  0.75836000  1.0
  S  S30  1  0.25000000  0.25419000  0.00003000  1.0
  S  S31  1  0.74999000  0.74581000  0.00001000  1.0
  O  O32  1  0.56825000  0.04064000  0.66403000  1.0
  O  O33  1  0.93168000  0.04057000  0.33597000  1.0
  O  O34  1  0.43169000  0.95941000  0.33597000  1.0
  O  O35  1  0.06826000  0.95938000  0.66402000  1.0
  O  O36  1  0.54387000  0.31618000  0.74299000  1.0
  O  O37  1  0.95608000  0.31615000  0.25707000  1.0
  O  O38  1  0.45607000  0.68384000  0.25704000  1.0
  O  O39  1  0.04386000  0.68384000  0.74298000  1.0
  O  O40  1  0.54238000  0.26609000  0.37392000  1.0
  O  O41  1  0.95764000  0.26601000  0.62591000  1.0
  O  O42  1  0.45766000  0.73400000  0.62590000  1.0
  O  O43  1  0.04240000  0.73388000  0.37390000  1.0
  O  O44  1  0.75020000  0.53196000  0.50035000  1.0
  O  O45  1  0.25021000  0.46804000  0.50039000  1.0
