# generated using pymatgen
data_CdH6(C2N3)4
_symmetry_space_group_name_H-M   'P 1'
_cell_length_a   7.32343000
_cell_length_b   8.87071519
_cell_length_c   10.14477918
_cell_angle_alpha   81.44149053
_cell_angle_beta   68.84524081
_cell_angle_gamma   65.63556510
_symmetry_Int_Tables_number   1
_chemical_formula_structural   CdH6(C2N3)4
_chemical_formula_sum   'Cd2 H12 C16 N24'
_cell_volume   559.89311005
_cell_formula_units_Z   2
loop_
 _symmetry_equiv_pos_site_id
 _symmetry_equiv_pos_as_xyz
  1  'x, y, z'
loop_
 _atom_site_type_symbol
 _atom_site_label
 _atom_site_symmetry_multiplicity
 _atom_site_fract_x
 _atom_site_fract_y
 _atom_site_fract_z
 _atom_site_occupancy
  Cd  Cd0  1  0.83191000  0.00006000  0.99997000  1.0
  Cd  Cd1  1  0.58188000  0.49999000  0.49998000  1.0
  H  H2  1  0.23832000  0.31852000  0.55538000  1.0
  H  H3  1  0.11228000  0.68155000  0.44447000  1.0
  H  H4  1  0.54383000  0.81849000  0.94460000  1.0
  H  H5  1  0.30674000  0.18146000  0.05565000  1.0
  H  H6  1  0.94398000  0.35344000  0.99959000  1.0
  H  H7  1  0.29697000  0.64658000  0.00029000  1.0
  H  H8  1  0.69360000  0.85322000  0.50040000  1.0
  H  H9  1  0.04708000  0.14663000  0.49981000  1.0
  H  H10  1  0.18681000  0.86542000  0.65141000  1.0
  H  H11  1  0.70307000  0.13463000  0.34860000  1.0
  H  H12  1  0.58826000  0.36543000  0.84834000  1.0
  H  H13  1  0.80180000  0.63473000  0.15143000  1.0
  C  C14  1  0.16228000  0.28747000  0.66323000  1.0
  C  C15  1  0.11291000  0.71259000  0.33664000  1.0
  C  C16  1  0.57560000  0.78738000  0.83676000  1.0
  C  C17  1  0.19958000  0.21249000  0.16346000  1.0
  C  C18  1  0.01216000  0.30578000  0.89263000  1.0
  C  C19  1  0.21047000  0.69423000  0.10723000  1.0
  C  C20  1  0.65482000  0.80559000  0.60737000  1.0
  C  C21  1  0.06766000  0.19424000  0.39285000  1.0
  C  C22  1  0.13955000  0.76841000  0.71319000  1.0
  C  C23  1  0.62078000  0.23165000  0.28678000  1.0
  C  C24  1  0.60269000  0.26842000  0.78665000  1.0
  C  C25  1  0.65763000  0.73171000  0.21329000  1.0
  C  C26  1  0.09864000  0.54468000  0.77678000  1.0
  C  C27  1  0.42001000  0.45541000  0.22308000  1.0
  C  C28  1  0.62541000  0.04463000  0.72315000  1.0
  C  C29  1  0.39308000  0.95539000  0.27698000  1.0
  N  N30  1  0.12208000  0.15328000  0.70624000  1.0
  N  N31  1  0.98162000  0.84677000  0.29361000  1.0
  N  N32  1  0.57851000  0.65312000  0.79379000  1.0
  N  N33  1  0.02523000  0.34669000  0.20644000  1.0
  N  N34  1  0.02782000  0.16523000  0.85193000  1.0
  N  N35  1  0.04496000  0.83479000  0.14792000  1.0
  N  N36  1  0.62991000  0.66500000  0.64810000  1.0
  N  N37  1  0.94286000  0.33478000  0.35212000  1.0
  N  N38  1  0.09661000  0.38695000  0.77669000  1.0
  N  N39  1  0.26020000  0.61310000  0.22318000  1.0
  N  N40  1  0.62330000  0.88684000  0.72329000  1.0
  N  N41  1  0.23330000  0.11307000  0.27692000  1.0
  N  N42  1  0.99255000  0.63735000  0.89253000  1.0
  N  N43  1  0.52240000  0.36273000  0.10733000  1.0
  N  N44  1  0.63506000  0.13720000  0.60737000  1.0
  N  N45  1  0.37971000  0.86270000  0.39270000  1.0
  N  N46  1  0.02054000  0.78298000  0.84996000  1.0
  N  N47  1  0.65329000  0.21710000  0.14996000  1.0
  N  N48  1  0.62051000  0.28286000  0.64986000  1.0
  N  N49  1  0.55330000  0.71709000  0.35007000  1.0
  N  N50  1  0.19531000  0.61735000  0.66098000  1.0
  N  N51  1  0.47327000  0.38270000  0.33896000  1.0
  N  N52  1  0.60624000  0.11736000  0.83892000  1.0
  N  N53  1  0.56226000  0.88275000  0.16114000  1.0
