# generated using pymatgen
data_RbH4C4O3
_symmetry_space_group_name_H-M   'P 1'
_cell_length_a   3.89894000
_cell_length_b   11.83430000
_cell_length_c   12.71820000
_cell_angle_alpha   68.33300000
_cell_angle_beta   89.99980000
_cell_angle_gamma   89.99990000
_symmetry_Int_Tables_number   1
_chemical_formula_structural   RbH4C4O3
_chemical_formula_sum   'Rb4 H16 C16 O12'
_cell_volume   545.37084740
_cell_formula_units_Z   4
loop_
 _symmetry_equiv_pos_site_id
 _symmetry_equiv_pos_as_xyz
  1  'x, y, z'
loop_
 _atom_site_type_symbol
 _atom_site_label
 _atom_site_symmetry_multiplicity
 _atom_site_fract_x
 _atom_site_fract_y
 _atom_site_fract_z
 _atom_site_occupancy
  Rb  Rb0  1  0.23283000  0.17476000  0.35615000  1.0
  Rb  Rb1  1  0.73283000  0.32524000  0.64385000  1.0
  Rb  Rb2  1  0.76717000  0.82524000  0.64385000  1.0
  Rb  Rb3  1  0.26716000  0.67476000  0.35615000  1.0
  H  H4  1  0.72486000  0.31294000  0.13435000  1.0
  H  H5  1  0.22485000  0.18706000  0.86565000  1.0
  H  H6  1  0.27515000  0.68706000  0.86565000  1.0
  H  H7  1  0.77513000  0.81293000  0.13435000  1.0
  H  H8  1  0.09200000  0.67836000  0.05512000  1.0
  H  H9  1  0.59198000  0.82164000  0.94488000  1.0
  H  H10  1  0.90801000  0.32164000  0.94488000  1.0
  H  H11  1  0.40802000  0.17836000  0.05512000  1.0
  H  H12  1  0.93219000  0.10138000  0.60409000  1.0
  H  H13  1  0.43220000  0.39862000  0.39591000  1.0
  H  H14  1  0.06780000  0.89862000  0.39591000  1.0
  H  H15  1  0.56780000  0.60138000  0.60409000  1.0
  H  H16  1  0.53361000  0.10433000  0.59652000  1.0
  H  H17  1  0.03362000  0.39568000  0.40348000  1.0
  H  H18  1  0.46638000  0.89568000  0.40348000  1.0
  H  H19  1  0.96638000  0.60433000  0.59652000  1.0
  C  C20  1  0.78683000  0.49321000  0.22152000  1.0
  C  C21  1  0.28683000  0.00680000  0.77849000  1.0
  C  C22  1  0.21317000  0.50680000  0.77849000  1.0
  C  C23  1  0.71317000  0.99320000  0.22151000  1.0
  C  C24  1  0.89472000  0.49581000  0.10720000  1.0
  C  C25  1  0.39471000  0.00419000  0.89279000  1.0
  C  C26  1  0.10530000  0.50419000  0.89280000  1.0
  C  C27  1  0.60529000  0.99581000  0.10720000  1.0
  C  C28  1  0.84552000  0.39510000  0.07579000  1.0
  C  C29  1  0.34551000  0.10490000  0.92421000  1.0
  C  C30  1  0.15449000  0.60490000  0.92421000  1.0
  C  C31  1  0.65448000  0.89510000  0.07579000  1.0
  C  C32  1  0.05057000  0.60060000  0.03029000  1.0
  C  C33  1  0.55056000  0.89940000  0.96971000  1.0
  C  C34  1  0.94945000  0.39940000  0.96971000  1.0
  C  C35  1  0.44944000  0.10059000  0.03029000  1.0
  O  O36  1  0.72521000  0.38779000  0.29959000  1.0
  O  O37  1  0.22520000  0.11222000  0.70041000  1.0
  O  O38  1  0.27479000  0.61222000  0.70041000  1.0
  O  O39  1  0.77480000  0.88778000  0.29959000  1.0
  O  O40  1  0.76916000  0.59183000  0.23793000  1.0
  O  O41  1  0.26917000  0.90817000  0.76207000  1.0
  O  O42  1  0.23083000  0.40817000  0.76207000  1.0
  O  O43  1  0.73084000  0.09183000  0.23793000  1.0
  O  O44  1  0.73964000  0.10459000  0.55075000  1.0
  O  O45  1  0.23964000  0.39541000  0.44925000  1.0
  O  O46  1  0.26036000  0.89541000  0.44925000  1.0
  O  O47  1  0.76036000  0.60460000  0.55075000  1.0
