# generated using pymatgen
data_ZnPH6C5NCl2O3
_symmetry_space_group_name_H-M   'P 1'
_cell_length_a   8.49281000
_cell_length_b   9.35121000
_cell_length_c   12.37870000
_cell_angle_alpha   89.99990000
_cell_angle_beta   91.26540000
_cell_angle_gamma   90.00000000
_symmetry_Int_Tables_number   1
_chemical_formula_structural   ZnPH6C5NCl2O3
_chemical_formula_sum   'Zn4 P4 H24 C20 N4 Cl8 O12'
_cell_volume   982.85246395
_cell_formula_units_Z   4
loop_
 _symmetry_equiv_pos_site_id
 _symmetry_equiv_pos_as_xyz
  1  'x, y, z'
loop_
 _atom_site_type_symbol
 _atom_site_label
 _atom_site_symmetry_multiplicity
 _atom_site_fract_x
 _atom_site_fract_y
 _atom_site_fract_z
 _atom_site_occupancy
  Zn  Zn0  1  0.13692000  0.29456000  0.52800000  1.0
  Zn  Zn1  1  0.36308000  0.79456000  0.97200000  1.0
  Zn  Zn2  1  0.86309000  0.70544000  0.47200000  1.0
  Zn  Zn3  1  0.63691000  0.20544000  0.02800000  1.0
  P  P4  1  0.86238000  0.40237000  0.35400000  1.0
  P  P5  1  0.63762000  0.90238000  0.14600000  1.0
  P  P6  1  0.13762000  0.59762000  0.64600000  1.0
  P  P7  1  0.36238000  0.09763000  0.85400000  1.0
  H  H8  1  0.64967000  0.34924000  0.26034000  1.0
  H  H9  1  0.85033000  0.84924000  0.23966000  1.0
  H  H10  1  0.35033000  0.65076000  0.73966000  1.0
  H  H11  1  0.14967000  0.15076000  0.76034000  1.0
  H  H12  1  0.95743000  0.12662000  0.25881000  1.0
  H  H13  1  0.54257000  0.62662000  0.24119000  1.0
  H  H14  1  0.04256000  0.87338000  0.74119000  1.0
  H  H15  1  0.45743000  0.37338000  0.75881000  1.0
  H  H16  1  0.27985000  0.25734000  0.02842000  1.0
  H  H17  1  0.22015000  0.75734000  0.47158000  1.0
  H  H18  1  0.72015000  0.74266000  0.97158000  1.0
  H  H19  1  0.77985000  0.24266000  0.52842000  1.0
  H  H20  1  0.14852000  0.07106000  0.11136000  1.0
  H  H21  1  0.35148000  0.57106000  0.38864000  1.0
  H  H22  1  0.85148000  0.92894000  0.88864000  1.0
  H  H23  1  0.64852000  0.42894000  0.61136000  1.0
  H  H24  1  0.04507000  0.57688000  0.20159000  1.0
  H  H25  1  0.45493000  0.07688000  0.29840000  1.0
  H  H26  1  0.95493000  0.42312000  0.79841000  1.0
  H  H27  1  0.54507000  0.92312000  0.70159000  1.0
  H  H28  1  0.23667000  0.50254000  0.05852000  1.0
  H  H29  1  0.26334000  0.00254000  0.44148000  1.0
  H  H30  1  0.76333000  0.49746000  0.94148000  1.0
  H  H31  1  0.73667000  0.99746000  0.55852000  1.0
  C  C32  1  0.01655000  0.21285000  0.21679000  1.0
  C  C33  1  0.48345000  0.71285000  0.28321000  1.0
  C  C34  1  0.98344000  0.78715000  0.78321000  1.0
  C  C35  1  0.51656000  0.28715000  0.71679000  1.0
  C  C36  1  0.99031000  0.35641000  0.24322000  1.0
  C  C37  1  0.50969000  0.85641000  0.25678000  1.0
  C  C38  1  0.00968000  0.64359000  0.75678000  1.0
  C  C39  1  0.49032000  0.14359000  0.74322000  1.0
  C  C40  1  0.12117000  0.18027000  0.13617000  1.0
  C  C41  1  0.37883000  0.68027000  0.36383000  1.0
  C  C42  1  0.87883000  0.81973000  0.86383000  1.0
  C  C43  1  0.62117000  0.31973000  0.63617000  1.0
  C  C44  1  0.06613000  0.46414000  0.18535000  1.0
  C  C45  1  0.43386000  0.96414000  0.31464000  1.0
  C  C46  1  0.93386000  0.53586000  0.81464000  1.0
  C  C47  1  0.56614000  0.03586000  0.68535000  1.0
  C  C48  1  0.17081000  0.42602000  0.10602000  1.0
  C  C49  1  0.32919000  0.92602000  0.39398000  1.0
  C  C50  1  0.82919000  0.57398000  0.89398000  1.0
  C  C51  1  0.67081000  0.07398000  0.60602000  1.0
  N  N52  1  0.19622000  0.28673000  0.08516000  1.0
  N  N53  1  0.30378000  0.78674000  0.41484000  1.0
  N  N54  1  0.80378000  0.71327000  0.91484000  1.0
  N  N55  1  0.69622000  0.21326000  0.58516000  1.0
  Cl  Cl56  1  0.33165000  0.30905000  0.41326000  1.0
  Cl  Cl57  1  0.16835000  0.80905000  0.08674000  1.0
  Cl  Cl58  1  0.66835000  0.69095000  0.58674000  1.0
  Cl  Cl59  1  0.83165000  0.19095000  0.91326000  1.0
  Cl  Cl60  1  0.09424000  0.08343000  0.61217000  1.0
  Cl  Cl61  1  0.40576000  0.58343000  0.88784000  1.0
  Cl  Cl62  1  0.90576000  0.91657000  0.38783000  1.0
  Cl  Cl63  1  0.59424000  0.41657000  0.11216000  1.0
  O  O64  1  0.92395000  0.33364000  0.45894000  1.0
  O  O65  1  0.57605000  0.83364000  0.04106000  1.0
  O  O66  1  0.07605000  0.66636000  0.54106000  1.0
  O  O67  1  0.42395000  0.16636000  0.95894000  1.0
  O  O68  1  0.84819000  0.56379000  0.35352000  1.0
  O  O69  1  0.65181000  0.06380000  0.14648000  1.0
  O  O70  1  0.15181000  0.43620000  0.64648000  1.0
  O  O71  1  0.34819000  0.93620000  0.85352000  1.0
  O  O72  1  0.70126000  0.32228000  0.33147000  1.0
  O  O73  1  0.79874000  0.82228000  0.16853000  1.0
  O  O74  1  0.29874000  0.67772000  0.66853000  1.0
  O  O75  1  0.20126000  0.17772000  0.83147000  1.0
