# generated using pymatgen
data_Zn2H17C30N3O10
_symmetry_space_group_name_H-M   'P 1'
_cell_length_a   9.74128000
_cell_length_b   11.04400000
_cell_length_c   16.08630000
_cell_angle_alpha   85.75350000
_cell_angle_beta   89.48210000
_cell_angle_gamma   89.46950000
_symmetry_Int_Tables_number   1
_chemical_formula_structural   Zn2H17C30N3O10
_chemical_formula_sum   'Zn2 H17 C30 N3 O10'
_cell_volume   1725.72198235
_cell_formula_units_Z   1
loop_
 _symmetry_equiv_pos_site_id
 _symmetry_equiv_pos_as_xyz
  1  'x, y, z'
loop_
 _atom_site_type_symbol
 _atom_site_label
 _atom_site_symmetry_multiplicity
 _atom_site_fract_x
 _atom_site_fract_y
 _atom_site_fract_z
 _atom_site_occupancy
  Zn  Zn0  1  0.63823000  0.51101000  0.49756000  1.0
  Zn  Zn1  1  0.35375000  0.51348000  0.50023000  1.0
  H  H2  1  0.37577000  0.28373000  0.97531000  1.0
  H  H3  1  0.25900000  0.48614000  0.04995000  1.0
  H  H4  1  0.38714000  0.64536000  0.92541000  1.0
  H  H5  1  0.62127000  0.65555000  0.02955000  1.0
  H  H6  1  0.73780000  0.45246000  0.95484000  1.0
  H  H7  1  0.27629000  0.12598000  0.51190000  1.0
  H  H8  1  0.27641000  0.90001000  0.51974000  1.0
  H  H9  1  0.82630000  0.89589000  0.52818000  1.0
  H  H10  1  0.80012000  0.89728000  0.41842000  1.0
  H  H11  1  0.82775000  0.12491000  0.51688000  1.0
  H  H12  1  0.79707000  0.12555000  0.40772000  1.0
  H  H13  1  0.12633000  0.62386000  0.38772000  1.0
  H  H14  1  0.86692000  0.62138000  0.38651000  1.0
  H  H15  1  0.86182000  0.41501000  0.68753000  1.0
  H  H16  1  0.86643000  0.28407000  0.62900000  1.0
  H  H17  1  0.12434000  0.41647000  0.68857000  1.0
  H  H18  1  0.12779000  0.28598000  0.62962000  1.0
  C  C19  1  0.49361000  0.27773000  0.49163000  1.0
  C  C20  1  0.49799000  0.47348000  0.66342000  1.0
  C  C21  1  0.49351000  0.74623000  0.50562000  1.0
  C  C22  1  0.49851000  0.53188000  0.33474000  1.0
  C  C23  1  0.55867000  0.37441000  0.04062000  1.0
  C  C24  1  0.42856000  0.36777000  0.98640000  1.0
  C  C25  1  0.49960000  0.45517000  0.75354000  1.0
  C  C26  1  0.49663000  0.51931000  0.24574000  1.0
  C  C27  1  0.63114000  0.46227000  0.97499000  1.0
  C  C28  1  0.50068000  0.45618000  0.91709000  1.0
  C  C29  1  0.56627000  0.57378000  0.01574000  1.0
  C  C30  1  0.49404000  0.48702000  0.08543000  1.0
  C  C31  1  0.43596000  0.56827000  0.96035000  1.0
  C  C32  1  0.36475000  0.47970000  0.02737000  1.0
  C  C33  1  0.50115000  0.44912000  0.82952000  1.0
  C  C34  1  0.49533000  0.50242000  0.17177000  1.0
  C  C35  1  0.61458000  0.07503000  0.48514000  1.0
  C  C36  1  0.49451000  0.14280000  0.49353000  1.0
  C  C37  1  0.37237000  0.07584000  0.50586000  1.0
  C  C38  1  0.37242000  0.94926000  0.51019000  1.0
  C  C39  1  0.49466000  0.88129000  0.50224000  1.0
  C  C40  1  0.61468000  0.94819000  0.48954000  1.0
  C  C41  1  0.76851000  0.93926000  0.47549000  1.0
  C  C42  1  0.76807000  0.08287000  0.46917000  1.0
  C  C43  1  0.06710000  0.45452000  0.55688000  1.0
  C  C44  1  0.06795000  0.57470000  0.43732000  1.0
  C  C45  1  0.92469000  0.57337000  0.43664000  1.0
  C  C46  1  0.92397000  0.45327000  0.55628000  1.0
  C  C47  1  0.91341000  0.37264000  0.63605000  1.0
  C  C48  1  0.07696000  0.37381000  0.63660000  1.0
  N  N49  1  0.14247000  0.51441000  0.49860000  1.0
  N  N50  1  0.84939000  0.51175000  0.49721000  1.0
  N  N51  1  0.62317000  0.27225000  0.08921000  1.0
  O  O52  1  0.61040000  0.32913000  0.49186000  1.0
  O  O53  1  0.37730000  0.33170000  0.49087000  1.0
  O  O54  1  0.61444000  0.48445000  0.62719000  1.0
  O  O55  1  0.38057000  0.47892000  0.62925000  1.0
  O  O56  1  0.61002000  0.69290000  0.50232000  1.0
  O  O57  1  0.37730000  0.69382000  0.51086000  1.0
  O  O58  1  0.61634000  0.53116000  0.36832000  1.0
  O  O59  1  0.38243000  0.54043000  0.37095000  1.0
  O  O60  1  0.74757000  0.28021000  0.10363000  1.0
  O  O61  1  0.54727000  0.18783000  0.11514000  1.0
