# generated using pymatgen
data_CuPH20C24IN2
_symmetry_space_group_name_H-M   'P 1'
_cell_length_a   9.86076000
_cell_length_b   10.79150000
_cell_length_c   12.64740000
_cell_angle_alpha   72.93400000
_cell_angle_beta   68.56270000
_cell_angle_gamma   72.35690000
_symmetry_Int_Tables_number   1
_chemical_formula_structural   CuPH20C24IN2
_chemical_formula_sum   'Cu2 P2 H40 C48 I2 N4'
_cell_volume   1168.21091672
_cell_formula_units_Z   2
loop_
 _symmetry_equiv_pos_site_id
 _symmetry_equiv_pos_as_xyz
  1  'x, y, z'
loop_
 _atom_site_type_symbol
 _atom_site_label
 _atom_site_symmetry_multiplicity
 _atom_site_fract_x
 _atom_site_fract_y
 _atom_site_fract_z
 _atom_site_occupancy
  Cu  Cu0  1  0.96460000  0.05819000  0.09640000  1.0
  Cu  Cu1  1  0.03539000  0.94181000  0.90360000  1.0
  P  P2  1  0.78198000  0.01762000  0.25859000  1.0
  P  P3  1  0.21802000  0.98238000  0.74141000  1.0
  H  H4  1  0.05705000  0.96636000  0.30854000  1.0
  H  H5  1  0.94296000  0.03363000  0.69147000  1.0
  H  H6  1  0.14849000  0.83196000  0.47646000  1.0
  H  H7  1  0.85150000  0.16803000  0.52355000  1.0
  H  H8  1  0.98671000  0.70033000  0.64361000  1.0
  H  H9  1  0.01328000  0.29967000  0.35640000  1.0
  H  H10  1  0.73368000  0.70172000  0.64184000  1.0
  H  H11  1  0.26631000  0.29829000  0.35817000  1.0
  H  H12  1  0.64257000  0.83712000  0.47634000  1.0
  H  H13  1  0.35743000  0.16288000  0.52365000  1.0
  H  H14  1  0.82201000  0.76204000  0.21187000  1.0
  H  H15  1  0.17797000  0.23797000  0.78813000  1.0
  H  H16  1  0.65042000  0.64192000  0.20067000  1.0
  H  H17  1  0.34957000  0.35809000  0.79933000  1.0
  H  H18  1  0.37994000  0.74982000  0.23016000  1.0
  H  H19  1  0.62005000  0.25020000  0.76982000  1.0
  H  H20  1  0.28301000  0.97519000  0.27698000  1.0
  H  H21  1  0.71698000  0.02483000  0.72302000  1.0
  H  H22  1  0.45191000  0.09282000  0.29201000  1.0
  H  H23  1  0.54809000  0.90719000  0.70798000  1.0
  H  H24  1  0.68533000  0.09930000  0.48479000  1.0
  H  H25  1  0.31468000  0.90070000  0.51521000  1.0
  H  H26  1  0.54557000  0.31050000  0.54702000  1.0
  H  H27  1  0.45443000  0.68950000  0.45297000  1.0
  H  H28  1  0.44500000  0.50368000  0.40916000  1.0
  H  H29  1  0.55501000  0.49633000  0.59083000  1.0
  H  H30  1  0.48949000  0.48199000  0.20764000  1.0
  H  H31  1  0.51053000  0.51801000  0.79235000  1.0
  H  H32  1  0.63170000  0.27038000  0.14423000  1.0
  H  H33  1  0.36832000  0.72960000  0.85577000  1.0
  H  H34  1  0.89379000  0.33042000  0.13031000  1.0
  H  H35  1  0.10620000  0.66956000  0.86972000  1.0
  H  H36  1  0.03029000  0.49838000  0.11729000  1.0
  H  H37  1  0.96970000  0.50161000  0.88274000  1.0
  H  H38  1  0.44176000  0.20411000  0.03377000  1.0
  H  H39  1  0.55824000  0.79590000  0.96621000  1.0
  H  H40  1  0.28738000  0.04734000  0.05173000  1.0
  H  H41  1  0.71262000  0.95266000  0.94826000  1.0
  H  H42  1  0.26579000  0.55876000  0.08447000  1.0
  H  H43  1  0.73421000  0.44123000  0.91553000  1.0
  C  C44  1  0.98638000  0.90928000  0.38279000  1.0
  C  C45  1  0.01363000  0.09072000  0.61721000  1.0
  C  C46  1  0.03749000  0.83361000  0.47651000  1.0
  C  C47  1  0.96251000  0.16639000  0.52349000  1.0
  C  C48  1  0.94669000  0.75937000  0.57031000  1.0
  C  C49  1  0.05330000  0.24062000  0.42970000  1.0
  C  C50  1  0.80487000  0.76045000  0.56964000  1.0
  C  C51  1  0.19513000  0.23955000  0.43036000  1.0
  C  C52  1  0.75325000  0.83668000  0.47609000  1.0
  C  C53  1  0.24675000  0.16332000  0.52391000  1.0
  C  C54  1  0.84350000  0.91230000  0.38217000  1.0
  C  C55  1  0.15651000  0.08770000  0.61783000  1.0
  C  C56  1  0.64832000  0.93531000  0.25359000  1.0
  C  C57  1  0.35167000  0.06469000  0.74642000  1.0
  C  C58  1  0.70319000  0.80778000  0.22756000  1.0
  C  C59  1  0.29679000  0.19223000  0.77244000  1.0
  C  C60  1  0.60696000  0.74092000  0.22051000  1.0
  C  C61  1  0.39303000  0.25909000  0.77948000  1.0
  C  C62  1  0.45527000  0.80067000  0.23767000  1.0
  C  C63  1  0.54472000  0.19935000  0.76232000  1.0
  C  C64  1  0.40087000  0.92742000  0.26297000  1.0
  C  C65  1  0.59912000  0.07259000  0.73702000  1.0
  C  C66  1  0.49645000  0.99452000  0.27109000  1.0
  C  C67  1  0.50354000  0.00549000  0.72891000  1.0
  C  C68  1  0.66862000  0.16946000  0.31051000  1.0
  C  C69  1  0.33139000  0.83053000  0.68949000  1.0
  C  C70  1  0.64422000  0.18330000  0.42325000  1.0
  C  C71  1  0.35579000  0.81670000  0.57674000  1.0
  C  C72  1  0.56516000  0.30317000  0.45827000  1.0
  C  C73  1  0.43485000  0.69683000  0.54172000  1.0
  C  C74  1  0.50862000  0.41069000  0.38135000  1.0
  C  C75  1  0.49139000  0.58931000  0.61864000  1.0
  C  C76  1  0.53263000  0.39816000  0.26858000  1.0
  C  C77  1  0.46740000  0.60184000  0.73142000  1.0
  C  C78  1  0.61248000  0.27885000  0.23287000  1.0
  C  C79  1  0.38754000  0.72115000  0.76712000  1.0
  C  C80  1  0.01517000  0.30651000  0.10954000  1.0
  C  C81  1  0.98482000  0.69348000  0.89048000  1.0
  C  C82  1  0.09133000  0.39902000  0.10263000  1.0
  C  C83  1  0.90866000  0.60097000  0.89739000  1.0
  C  C84  1  0.24831000  0.36509000  0.07251000  1.0
  C  C85  1  0.75169000  0.63491000  0.92749000  1.0
  C  C86  1  0.32050000  0.23517000  0.05593000  1.0
  C  C87  1  0.67950000  0.76483000  0.94406000  1.0
  C  C88  1  0.23576000  0.14844000  0.06562000  1.0
  C  C89  1  0.76424000  0.85155000  0.93438000  1.0
  C  C90  1  0.32910000  0.46488000  0.05617000  1.0
  C  C91  1  0.67090000  0.53512000  0.94383000  1.0
  I  I92  1  0.15596000  0.82707000  0.07437000  1.0
  I  I93  1  0.84404000  0.17293000  0.92564000  1.0
  N  N94  1  0.08541000  0.18272000  0.09020000  1.0
  N  N95  1  0.91459000  0.81728000  0.90980000  1.0
  N  N96  1  0.47206000  0.44638000  0.00442000  1.0
  N  N97  1  0.52794000  0.55363000  0.99556000  1.0
