# generated using pymatgen
data_Al6H73C95N7O32
_symmetry_space_group_name_H-M   'P 1'
_cell_length_a   12.33741975
_cell_length_b   12.36840000
_cell_length_c   27.82340000
_cell_angle_alpha   89.54390000
_cell_angle_beta   89.56216675
_cell_angle_gamma   118.61407543
_symmetry_Int_Tables_number   1
_chemical_formula_structural   Al6H73C95N7O32
_chemical_formula_sum   'Al6 H73 C95 N7 O32'
_cell_volume   3726.70691358
_cell_formula_units_Z   1
loop_
 _symmetry_equiv_pos_site_id
 _symmetry_equiv_pos_as_xyz
  1  'x, y, z'
loop_
 _atom_site_type_symbol
 _atom_site_label
 _atom_site_symmetry_multiplicity
 _atom_site_fract_x
 _atom_site_fract_y
 _atom_site_fract_z
 _atom_site_occupancy
  Al  Al0  1  0.59963000  0.40185000  0.49291000  1.0
  Al  Al1  1  0.59135000  0.65709000  0.49811000  1.0
  Al  Al2  1  0.35039000  0.42317000  0.49894000  1.0
  Al  Al3  1  0.08113000  0.91310000  0.98670000  1.0
  Al  Al4  1  0.33749000  0.90880000  0.98500000  1.0
  Al  Al5  1  0.10292000  0.66689000  0.98556000  1.0
  H  H6  1  0.50664000  0.88258000  0.22100000  1.0
  H  H7  1  0.57099000  0.76346000  0.71818000  1.0
  H  H8  1  0.44558000  0.87739000  0.86384000  1.0
  H  H9  1  0.17590000  0.54629000  0.71258000  1.0
  H  H10  1  0.50425000  0.19019000  0.62167000  1.0
  H  H11  1  0.53228000  0.23971000  0.77953000  1.0
  H  H12  1  0.51644000  0.16568000  0.86421000  1.0
  H  H13  1  0.53319000  0.69508000  0.27090000  1.0
  H  H14  1  0.48214000  0.14959000  0.70973000  1.0
  H  H15  1  0.13072000  0.05925000  0.86624000  1.0
  H  H16  1  0.23674000  0.30531000  0.71894000  1.0
  H  H17  1  0.54802000  0.31296000  0.20677000  1.0
  H  H18  1  0.25125000  0.33505000  0.63035000  1.0
  H  H19  1  0.69014000  0.43474000  0.62414000  1.0
  H  H20  1  0.04281000  0.80332000  0.74735000  1.0
  H  H21  1  0.11276000  0.84110000  0.83170000  1.0
  H  H22  1  0.73013000  0.44689000  0.71227000  1.0
  H  H23  1  0.35463000  0.51660000  0.21052000  1.0
  H  H24  1  0.76009000  0.54601000  0.87776000  1.0
  H  H25  1  0.91777000  0.84196000  0.70034000  1.0
  H  H26  1  0.14012000  0.67505000  0.22638000  1.0
  H  H27  1  0.18967000  0.21924000  0.20183000  1.0
  H  H28  1  0.49413000  0.12730000  0.27799000  1.0
  H  H29  1  0.13551000  0.03144000  0.27185000  1.0
  H  H30  1  0.39067000  0.38518000  0.25781000  1.0
  H  H31  1  0.67930000  0.32869000  0.27424000  1.0
  H  H32  1  0.84179000  0.38638000  0.28045000  1.0
  H  H33  1  0.75426000  0.25523000  0.24336000  1.0
  H  H34  1  0.66026000  0.74634000  0.16294000  1.0
  H  H35  1  0.60598000  0.54208000  0.12639000  1.0
  H  H36  1  0.48246000  0.57826000  0.13262000  1.0
  H  H37  1  0.49856000  0.47854000  0.17508000  1.0
  H  H38  1  0.79945000  0.86361000  0.29302000  1.0
  H  H39  1  0.29074000  0.96107000  0.22251000  1.0
  H  H40  1  0.82289000  0.03413000  0.24487000  1.0
  H  H41  1  0.69321000  0.90066000  0.22206000  1.0
  H  H42  1  0.84025000  0.96203000  0.19286000  1.0
  H  H43  1  0.09272000  0.79169000  0.19075000  1.0
  H  H44  1  0.12812000  0.96722000  0.15088000  1.0
  H  H45  1  0.01988000  0.98458000  0.18796000  1.0
  H  H46  1  0.96877000  0.87518000  0.14028000  1.0
  H  H47  1  0.19300000  0.32528000  0.83816000  1.0
  H  H48  1  0.06547000  0.35438000  0.82767000  1.0
  H  H49  1  0.07562000  0.28608000  0.88352000  1.0
  H  H50  1  0.96942000  0.62469000  0.27672000  1.0
  H  H51  1  0.54438000  0.96324000  0.79555000  1.0
  H  H52  1  0.52633000  0.01387000  0.71408000  1.0
  H  H53  1  0.38201000  0.96200000  0.74564000  1.0
  H  H54  1  0.40616000  0.86274000  0.70597000  1.0
  H  H55  1  0.02867000  0.51355000  0.65751000  1.0
  H  H56  1  0.04819000  0.38037000  0.66871000  1.0
  H  H57  1  0.98620000  0.39731000  0.61270000  1.0
  H  H58  1  0.12256000  0.12493000  0.73890000  1.0
  H  H59  1  0.92836000  0.04975000  0.77110000  1.0
  H  H60  1  0.98812000  0.09936000  0.82936000  1.0
  H  H61  1  0.60387000  0.48601000  0.26082000  1.0
  H  H62  1  0.97222000  0.95775000  0.80748000  1.0
  H  H63  1  0.61649000  0.44944000  0.82505000  1.0
  H  H64  1  0.47717000  0.45223000  0.77290000  1.0
  H  H65  1  0.59338000  0.54999000  0.73162000  1.0
  H  H66  1  0.57065000  0.61122000  0.78642000  1.0
  H  H67  1  0.04840000  0.96930000  0.64122000  1.0
  H  H68  1  0.91465000  0.98841000  0.65264000  1.0
  H  H69  1  0.99205000  0.03121000  0.59522000  1.0
  H  H70  1  0.11326000  0.46238000  0.31305000  1.0
  H  H71  1  0.00188000  0.29032000  0.26277000  1.0
  H  H72  1  0.58367000  0.73786000  0.62993000  1.0
  H  H73  1  0.11664000  0.36093000  0.21708000  1.0
  H  H74  1  0.01272000  0.41919000  0.22902000  1.0
  H  H75  1  0.31881000  0.85238000  0.28768000  1.0
  H  H76  1  0.23758000  0.47591000  0.78309000  1.0
  H  H77  1  0.74352000  0.33620000  0.51100000  1.0
  H  H78  1  0.03124000  0.07095000  0.97370000  1.0
  C  C79  1  0.71774000  0.62072000  0.42309000  1.0
  C  C80  1  0.35036000  0.66425000  0.34809000  1.0
  C  C81  1  0.22724000  0.09512000  0.25755000  1.0
  C  C82  1  0.39074000  0.62073000  0.43689000  1.0
  C  C83  1  0.25720000  0.19895000  0.21917000  1.0
  C  C84  1  0.32975000  0.10594000  0.09914000  1.0
  C  C85  1  0.34960000  0.23137000  0.38150000  1.0
  C  C86  1  0.31407000  0.05573000  0.23087000  1.0
  C  C87  1  0.34431000  0.15930000  0.19096000  1.0
  C  C88  1  0.42684000  0.14786000  0.26057000  1.0
  C  C89  1  0.34008000  0.18780000  0.28878000  1.0
  C  C90  1  0.36246000  0.65323000  0.39104000  1.0
  C  C91  1  0.45676000  0.25158000  0.22207000  1.0
  C  C92  1  0.36984000  0.29128000  0.24899000  1.0
  C  C93  1  0.34214000  0.13628000  0.14120000  1.0
  C  C94  1  0.38038000  0.28051000  0.42908000  1.0
  C  C95  1  0.34185000  0.20855000  0.33872000  1.0
  C  C96  1  0.89842000  0.63292000  0.25621000  1.0
  C  C97  1  0.79727000  0.53211000  0.22348000  1.0
  C  C98  1  0.87345000  0.64300000  0.09176000  1.0
  C  C99  1  0.75954000  0.65007000  0.37388000  1.0
  C  C100  1  0.92279000  0.73523000  0.21810000  1.0
  C  C101  1  0.22737000  0.67957000  0.23673000  1.0
  C  C102  1  0.81977000  0.62961000  0.18341000  1.0
  C  C103  1  0.81800000  0.75875000  0.24181000  1.0
  C  C104  1  0.79503000  0.65536000  0.28037000  1.0
  C  C105  1  0.71682000  0.65653000  0.20821000  1.0
  C  C106  1  0.73567000  0.61007000  0.56189000  1.0
  C  C107  1  0.69392000  0.55555000  0.24714000  1.0
  C  C108  1  0.84323000  0.62895000  0.13430000  1.0
  C  C109  1  0.77789000  0.65868000  0.33050000  1.0
  C  C110  1  0.38876000  0.62786000  0.62096000  1.0
  C  C111  1  0.49451000  0.69636000  0.64855000  1.0
  C  C112  1  0.33244000  0.69501000  0.19976000  1.0
  C  C113  1  0.48764000  0.70944000  0.69776000  1.0
  C  C114  1  0.37198000  0.65452000  0.72126000  1.0
  C  C115  1  0.26531000  0.58541000  0.69436000  1.0
  C  C116  1  0.27190000  0.57091000  0.64469000  1.0
  C  C117  1  0.28228000  0.56411000  0.80119000  1.0
  C  C118  1  0.40813000  0.61005000  0.56961000  1.0
  C  C119  1  0.26442000  0.56896000  0.85068000  1.0
  C  C120  1  0.40353000  0.78865000  0.84587000  1.0
  C  C121  1  0.42254000  0.78439000  0.79651000  1.0
  C  C122  1  0.35975000  0.66893000  0.77353000  1.0
  C  C123  1  0.24253000  0.57398000  0.26429000  1.0
  C  C124  1  0.32553000  0.68480000  0.87357000  1.0
  C  C125  1  0.37514000  0.26033000  0.62052000  1.0
  C  C126  1  0.44336000  0.21181000  0.64338000  1.0
  C  C127  1  0.43145000  0.19046000  0.69260000  1.0
  C  C128  1  0.35316000  0.21811000  0.72111000  1.0
  C  C129  1  0.29028000  0.27315000  0.69783000  1.0
  C  C130  1  0.39316000  0.28973000  0.56821000  1.0
  C  C131  1  0.29964000  0.29220000  0.64820000  1.0
  C  C132  1  0.44313000  0.19753000  0.79820000  1.0
  C  C133  1  0.43583000  0.15853000  0.84570000  1.0
  C  C134  1  0.34122000  0.67455333  0.29802000  1.0
  C  C135  1  0.21799000  0.10042000  0.84640000  1.0
  C  C136  1  0.22369000  0.13625000  0.79787000  1.0
  C  C137  1  0.34000000  0.18679000  0.77298000  1.0
  C  C138  1  0.32158000  0.10932000  0.86980000  1.0
  C  C139  1  0.77942000  0.62932000  0.61230000  1.0
  C  C140  1  0.74134000  0.52370000  0.64139000  1.0
  C  C141  1  0.76373000  0.53052000  0.69043000  1.0
  C  C142  1  0.32647000  0.77811000  0.26968000  1.0
  C  C143  1  0.82784000  0.64608000  0.71225000  1.0
  C  C144  1  0.86887000  0.75258000  0.68335000  1.0
  C  C145  1  0.34732000  0.59148000  0.22797000  1.0
  C  C146  1  0.84651000  0.74612000  0.63391000  1.0
  C  C147  1  0.97931000  0.74897000  0.77626000  1.0
  C  C148  1  0.02014000  0.76899000  0.82333000  1.0
  C  C149  1  0.82244000  0.60229000  0.84882000  1.0
  C  C150  1  0.77801000  0.58528000  0.80147000  1.0
  C  C151  1  0.85925000  0.65930000  0.76389000  1.0
  C  C152  1  0.94038000  0.69405000  0.85999000  1.0
  C  C153  1  0.29200000  0.04521000  0.05370000  1.0
  C  C154  1  0.43152000  0.79449000  0.23381000  1.0
  C  C155  1  0.29387000  0.72949000  0.05682000  1.0
  C  C156  1  0.44619000  0.69092000  0.26063000  1.0
  C  C157  1  0.93814000  0.67998000  0.04689000  1.0
  C  C158  1  0.30280000  0.05487000  0.91910000  1.0
  C  C159  1  0.29699000  0.70761000  0.92295000  1.0
  C  C160  1  0.98270000  0.72012000  0.91082000  1.0
  C  C161  1  0.31611000  0.70952000  0.10584000  1.0
  C  C162  1  0.76421000  0.34361000  0.25540000  1.0
  C  C163  1  0.54951000  0.56122000  0.15239000  1.0
  C  C164  1  0.79359000  0.94443000  0.22806000  1.0
  C  C165  1  0.03776000  0.91759000  0.16867000  1.0
  C  C166  1  0.12875000  0.35238000  0.85499000  1.0
  C  C167  1  0.32497000  0.70271000  0.14929000  1.0
  C  C168  1  0.45036000  0.93503000  0.73262000  1.0
  C  C169  1  0.05209000  0.44658000  0.64107000  1.0
  C  C170  1  0.99614000  0.05281000  0.79707000  1.0
  C  C171  1  0.57069000  0.53039000  0.76991000  1.0
  C  C172  1  0.96509000  0.96528000  0.62524000  1.0
  C  C173  1  0.06629000  0.37896000  0.24596000  1.0
  N  N174  1  0.62320000  0.66701000  0.18303000  1.0
  N  N175  1  0.83028000  0.87131000  0.25842000  1.0
  N  N176  1  0.03908000  0.82780000  0.20323000  1.0
  N  N177  1  0.50189000  0.89416000  0.77152000  1.0
  N  N178  1  0.11821000  0.12052000  0.77529000  1.0
  N  N179  1  0.65530000  0.49592000  0.79384000  1.0
  N  N180  1  0.15394000  0.45770000  0.28167000  1.0
  O  O181  1  0.48388000  0.29982000  0.44474000  1.0
  O  O182  1  0.19518000  0.64779000  0.03772000  1.0
  O  O183  1  0.97386000  0.60575000  0.02878000  1.0
  O  O184  1  0.69768000  0.51689000  0.43906000  1.0
  O  O185  1  0.00877000  0.82554000  0.92614000  1.0
  O  O186  1  0.20991000  0.04112000  0.94328000  1.0
  O  O187  1  0.38038000  0.01878000  0.93292000  1.0
  O  O188  1  0.37140000  0.81073000  0.94198000  1.0
  O  O189  1  0.19496000  0.62873000  0.94275000  1.0
  O  O190  1  0.99243000  0.63545000  0.93441000  1.0
  O  O191  1  0.17507000  0.82908000  0.98581000  1.0
  O  O192  1  0.51173000  0.68773000  0.55039000  1.0
  O  O193  1  0.70002000  0.70163000  0.44590000  1.0
  O  O194  1  0.49319000  0.69545000  0.45601000  1.0
  O  O195  1  0.31334000  0.51449000  0.45388000  1.0
  O  O196  1  0.30259000  0.30547000  0.45094000  1.0
  O  O197  1  0.49151000  0.30342000  0.54861000  1.0
  O  O198  1  0.71086000  0.50813000  0.54290000  1.0
  O  O199  1  0.71730000  0.69377000  0.54153000  1.0
  O  O200  1  0.78636000  0.41847000  0.21299000  1.0
  O  O201  1  0.19315000  0.46822000  0.87825000  1.0
  O  O202  1  0.17033000  0.50595000  0.61763000  1.0
  O  O203  1  0.32655000  0.51547000  0.54813000  1.0
  O  O204  1  0.88806000  0.84751000  0.60495000  1.0
  O  O205  1  0.30833000  0.30486000  0.54703000  1.0
  O  O206  1  0.51309000  0.49468000  0.49638000  1.0
  O  O207  1  0.96061000  0.78341000  0.02906000  1.0
  O  O208  1  0.17870000  0.00060000  0.04396000  1.0
  O  O209  1  0.37482000  0.03723000  0.02762000  1.0
  O  O210  1  0.37266000  0.83140000  0.03694000  1.0
  O  O211  1  0.67595000  0.31356000  0.48903000  1.0
  O  O212  1  0.99206000  0.98899000  0.98767000  1.0
