# generated using pymatgen
data_Hg3H22C16(N5Cl3)2
_symmetry_space_group_name_H-M   'P 1'
_cell_length_a   7.33664000
_cell_length_b   13.91440000
_cell_length_c   14.16120000
_cell_angle_alpha   70.97620000
_cell_angle_beta   89.99640000
_cell_angle_gamma   89.98920000
_symmetry_Int_Tables_number   1
_chemical_formula_structural   Hg3H22C16(N5Cl3)2
_chemical_formula_sum   'Hg6 H44 C32 N20 Cl12'
_cell_volume   1366.68884096
_cell_formula_units_Z   2
loop_
 _symmetry_equiv_pos_site_id
 _symmetry_equiv_pos_as_xyz
  1  'x, y, z'
loop_
 _atom_site_type_symbol
 _atom_site_label
 _atom_site_symmetry_multiplicity
 _atom_site_fract_x
 _atom_site_fract_y
 _atom_site_fract_z
 _atom_site_occupancy
  Hg  Hg0  1  0.00000000  0.00000000  0.00000000  1.0
  Hg  Hg1  1  0.48695000  0.15671000  0.94073000  1.0
  Hg  Hg2  1  0.51305000  0.84329000  0.05927000  1.0
  Hg  Hg3  1  0.50000000  0.50000000  0.00000000  1.0
  Hg  Hg4  1  0.98714000  0.34328000  0.05906000  1.0
  Hg  Hg5  1  0.01286000  0.65672000  0.94094000  1.0
  H  H6  1  0.94480000  0.20967000  0.41297000  1.0
  H  H7  1  0.05519000  0.79033000  0.58703000  1.0
  H  H8  1  0.97751000  0.07873000  0.43423000  1.0
  H  H9  1  0.02249000  0.92127000  0.56577000  1.0
  H  H10  1  0.55387000  0.70950000  0.41293000  1.0
  H  H11  1  0.44613000  0.29050000  0.58707000  1.0
  H  H12  1  0.52206000  0.57852000  0.43419000  1.0
  H  H13  1  0.47794000  0.42148000  0.56581000  1.0
  H  H14  1  0.92463000  0.23987000  0.89322000  1.0
  H  H15  1  0.07537000  0.76012000  0.10678000  1.0
  H  H16  1  0.02314000  0.93471000  0.77043000  1.0
  H  H17  1  0.97686000  0.06529000  0.22957000  1.0
  H  H18  1  0.80804000  0.38860000  0.75154000  1.0
  H  H19  1  0.19196000  0.61140000  0.24846000  1.0
  H  H20  1  0.78925000  0.37647000  0.63078000  1.0
  H  H21  1  0.21075000  0.62353000  0.36922000  1.0
  H  H22  1  0.14636000  0.41513000  0.72568000  1.0
  H  H23  1  0.85364000  0.58487000  0.27432000  1.0
  H  H24  1  0.12464000  0.40785000  0.60421000  1.0
  H  H25  1  0.87536000  0.59215000  0.39579000  1.0
  H  H26  1  0.12959000  0.59004000  0.59558000  1.0
  H  H27  1  0.87041000  0.40996000  0.40442000  1.0
  H  H28  1  0.94608000  0.56927000  0.68140000  1.0
  H  H29  1  0.05392000  0.43073000  0.31860000  1.0
  H  H30  1  0.91089000  0.56176000  0.55967000  1.0
  H  H31  1  0.08911000  0.43824000  0.44033000  1.0
  H  H32  1  0.47647000  0.43454000  0.77048000  1.0
  H  H33  1  0.52353000  0.56546000  0.22952000  1.0
  H  H34  1  0.57555000  0.73996000  0.89298000  1.0
  H  H35  1  0.42445000  0.26004000  0.10701000  1.0
  H  H36  1  0.70805000  0.87606000  0.62931000  1.0
  H  H37  1  0.29195000  0.12395000  0.37069000  1.0
  H  H38  1  0.69345000  0.88861000  0.75005000  1.0
  H  H39  1  0.30656000  0.11139000  0.24995000  1.0
  H  H40  1  0.36946000  0.08982000  0.59480000  1.0
  H  H41  1  0.63054000  0.91018000  0.40520000  1.0
  H  H42  1  0.58603000  0.06043000  0.55708000  1.0
  H  H43  1  0.41397000  0.93957000  0.44293000  1.0
  H  H44  1  0.55631000  0.07017000  0.67834000  1.0
  H  H45  1  0.44369000  0.92983000  0.32166000  1.0
  H  H46  1  0.35536000  0.91617000  0.72726000  1.0
  H  H47  1  0.64465000  0.08383000  0.27274000  1.0
  H  H48  1  0.37141000  0.90692000  0.60629000  1.0
  H  H49  1  0.62859000  0.09308000  0.39371000  1.0
  C  C50  1  0.93569000  0.20472000  0.83554000  1.0
  C  C51  1  0.06431000  0.79527000  0.16446000  1.0
  C  C52  1  0.97121000  0.09340000  0.75811000  1.0
  C  C53  1  0.02879000  0.90660000  0.24188000  1.0
  C  C54  1  0.99886000  0.01260000  0.72183000  1.0
  C  C55  1  0.00114000  0.98739000  0.27817000  1.0
  C  C56  1  0.96628000  0.12616000  0.55977000  1.0
  C  C57  1  0.03372000  0.87384000  0.44023000  1.0
  C  C58  1  0.94297000  0.18973000  0.68528000  1.0
  C  C59  1  0.05703000  0.81026000  0.31472000  1.0
  C  C60  1  0.88182000  0.36695000  0.69409000  1.0
  C  C61  1  0.11818000  0.63305000  0.30591000  1.0
  C  C62  1  0.05346000  0.43105000  0.66160000  1.0
  C  C63  1  0.94654000  0.56895000  0.33841000  1.0
  C  C64  1  0.00708000  0.54409000  0.62246000  1.0
  C  C65  1  0.99292000  0.45591000  0.37754000  1.0
  C  C66  1  0.50039000  0.51246000  0.72187000  1.0
  C  C67  1  0.49961000  0.48754000  0.27813000  1.0
  C  C68  1  0.52799000  0.59329000  0.75811000  1.0
  C  C69  1  0.47201000  0.40671000  0.24189000  1.0
  C  C70  1  0.55600000  0.68959000  0.68519000  1.0
  C  C71  1  0.44401000  0.31041000  0.31481000  1.0
  C  C72  1  0.53248000  0.62601000  0.55973000  1.0
  C  C73  1  0.46752000  0.37399000  0.44027000  1.0
  C  C74  1  0.56411000  0.70475000  0.83537000  1.0
  C  C75  1  0.43589000  0.29525000  0.16463000  1.0
  C  C76  1  0.61750000  0.86682000  0.69340000  1.0
  C  C77  1  0.38250000  0.13318000  0.30660000  1.0
  C  C78  1  0.49232000  0.04388000  0.62089000  1.0
  C  C79  1  0.50768000  0.95612000  0.37911000  1.0
  C  C80  1  0.44563000  0.93100000  0.66219000  1.0
  C  C81  1  0.55437000  0.06900000  0.33781000  1.0
  N  N82  1  0.96503000  0.10611000  0.85171000  1.0
  N  N83  1  0.03497000  0.89389000  0.14829000  1.0
  N  N84  1  0.91928000  0.25793000  0.73692000  1.0
  N  N85  1  0.08072000  0.74207000  0.26308000  1.0
  N  N86  1  0.93930000  0.20974000  0.58740000  1.0
  N  N87  1  0.06070000  0.79026000  0.41260000  1.0
  N  N88  1  0.99592000  0.02934000  0.62350000  1.0
  N  N89  1  0.00409000  0.97066000  0.37650000  1.0
  N  N90  1  0.96429000  0.13870000  0.46157000  1.0
  N  N91  1  0.03571000  0.86130000  0.53843000  1.0
  N  N92  1  0.50315000  0.52919000  0.62354000  1.0
  N  N93  1  0.49685000  0.47081000  0.37646000  1.0
  N  N94  1  0.53426000  0.63855000  0.46154000  1.0
  N  N95  1  0.46574000  0.36145000  0.53846000  1.0
  N  N96  1  0.55941000  0.70961000  0.58731000  1.0
  N  N97  1  0.44060000  0.29040000  0.41268000  1.0
  N  N98  1  0.53466000  0.60612000  0.85166000  1.0
  N  N99  1  0.46534000  0.39388000  0.14834000  1.0
  N  N100  1  0.58010000  0.75786000  0.73670000  1.0
  N  N101  1  0.41991000  0.24215000  0.26330000  1.0
  Cl  Cl102  1  0.17691000  0.16178000  0.04891000  1.0
  Cl  Cl103  1  0.82309000  0.83822000  0.95109000  1.0
  Cl  Cl104  1  0.40371000  0.23649000  0.77258000  1.0
  Cl  Cl105  1  0.59629000  0.76351000  0.22742000  1.0
  Cl  Cl106  1  0.64928000  0.05159000  0.08455000  1.0
  Cl  Cl107  1  0.35072000  0.94841000  0.91545000  1.0
  Cl  Cl108  1  0.67652000  0.33815000  0.95115000  1.0
  Cl  Cl109  1  0.32348000  0.66185000  0.04885000  1.0
  Cl  Cl110  1  0.14894000  0.44848000  0.91514000  1.0
  Cl  Cl111  1  0.85105000  0.55152000  0.08486000  1.0
  Cl  Cl112  1  0.90404000  0.26319000  0.22717000  1.0
  Cl  Cl113  1  0.09596000  0.73681000  0.77283000  1.0
