# generated using pymatgen
data_CdH14(C5N3)4
_symmetry_space_group_name_H-M   'P 1'
_cell_length_a   11.41240000
_cell_length_b   11.58310000
_cell_length_c   11.60170000
_cell_angle_alpha   99.02380000
_cell_angle_beta   98.84140000
_cell_angle_gamma   98.85570000
_symmetry_Int_Tables_number   1
_chemical_formula_structural   CdH14(C5N3)4
_chemical_formula_sum   'Cd3 H42 C60 N36'
_cell_volume   1471.53870485
_cell_formula_units_Z   3
loop_
 _symmetry_equiv_pos_site_id
 _symmetry_equiv_pos_as_xyz
  1  'x, y, z'
loop_
 _atom_site_type_symbol
 _atom_site_label
 _atom_site_symmetry_multiplicity
 _atom_site_fract_x
 _atom_site_fract_y
 _atom_site_fract_z
 _atom_site_occupancy
  Cd  Cd0  1  0.00000000  0.00000000  0.00000000  1.0
  Cd  Cd1  1  0.24832000  0.24753000  0.24986000  1.0
  Cd  Cd2  1  0.75168000  0.75247000  0.75014000  1.0
  H  H3  1  0.54561000  0.34138000  0.24314000  1.0
  H  H4  1  0.24188000  0.54462000  0.33944000  1.0
  H  H5  1  0.33940000  0.24457000  0.54559000  1.0
  H  H6  1  0.45439000  0.65861000  0.75686000  1.0
  H  H7  1  0.75812000  0.45538000  0.66056000  1.0
  H  H8  1  0.66060000  0.75543000  0.45441000  1.0
  H  H9  1  0.26087000  0.51528000  0.13448000  1.0
  H  H10  1  0.13381000  0.26809000  0.51849000  1.0
  H  H11  1  0.51950000  0.13385000  0.26834000  1.0
  H  H12  1  0.73912000  0.48472000  0.86552000  1.0
  H  H13  1  0.86619000  0.73191000  0.48152000  1.0
  H  H14  1  0.48050000  0.86615000  0.73166000  1.0
  H  H15  1  0.47422000  0.63803000  0.08995000  1.0
  H  H16  1  0.09094000  0.47982000  0.64016000  1.0
  H  H17  1  0.63962000  0.08722000  0.47883000  1.0
  H  H18  1  0.52578000  0.36197000  0.91005000  1.0
  H  H19  1  0.90906000  0.52018000  0.35984000  1.0
  H  H20  1  0.36039000  0.91278000  0.52117000  1.0
  H  H21  1  0.67236000  0.71454000  0.18849000  1.0
  H  H22  1  0.19003000  0.67404000  0.71389000  1.0
  H  H23  1  0.71637000  0.18940000  0.67197000  1.0
  H  H24  1  0.32764000  0.28546000  0.81151000  1.0
  H  H25  1  0.80997000  0.32596000  0.28611000  1.0
  H  H26  1  0.28363000  0.81060000  0.32802000  1.0
  H  H27  1  0.88835000  0.76628000  0.17014000  1.0
  H  H28  1  0.17073000  0.88673000  0.76584000  1.0
  H  H29  1  0.77064000  0.17115000  0.88411000  1.0
  H  H30  1  0.11165000  0.23372000  0.82986000  1.0
  H  H31  1  0.82927000  0.11327000  0.23416000  1.0
  H  H32  1  0.22937000  0.82884000  0.11589000  1.0
  H  H33  1  0.00650000  0.60755000  0.13079000  1.0
  H  H34  1  0.13008000  0.00282000  0.60770000  1.0
  H  H35  1  0.61081000  0.13133000  0.00147000  1.0
  H  H36  1  0.99350000  0.39245000  0.86921000  1.0
  H  H37  1  0.86992000  0.99718000  0.39230000  1.0
  H  H38  1  0.38919000  0.86867000  0.99853000  1.0
  H  H39  1  0.69101000  0.34228000  0.11194000  1.0
  H  H40  1  0.11099000  0.69162000  0.34223000  1.0
  H  H41  1  0.33942000  0.11153000  0.69240000  1.0
  H  H42  1  0.30899000  0.65772000  0.88805000  1.0
  H  H43  1  0.88901000  0.30839000  0.65777000  1.0
  H  H44  1  0.66058000  0.88848000  0.30761000  1.0
  C  C45  1  0.49535000  0.40408000  0.20796000  1.0
  C  C46  1  0.20691000  0.49647000  0.40332000  1.0
  C  C47  1  0.40342000  0.20856000  0.49707000  1.0
  C  C48  1  0.50465000  0.59592000  0.79203000  1.0
  C  C49  1  0.79309000  0.50353000  0.59668000  1.0
  C  C50  1  0.59658000  0.79144000  0.50293000  1.0
  C  C51  1  0.35252000  0.49923000  0.15294000  1.0
  C  C52  1  0.15260000  0.35787000  0.50111000  1.0
  C  C53  1  0.50165000  0.15235000  0.35801000  1.0
  C  C54  1  0.64748000  0.50077000  0.84706000  1.0
  C  C55  1  0.84740000  0.64214000  0.49889000  1.0
  C  C56  1  0.49835000  0.84765000  0.64200000  1.0
  C  C57  1  0.45657000  0.55991000  0.12937000  1.0
  C  C58  1  0.12990000  0.46136000  0.56142000  1.0
  C  C59  1  0.56112000  0.12777000  0.46080000  1.0
  C  C60  1  0.54343000  0.44008000  0.87063000  1.0
  C  C61  1  0.87010000  0.53864000  0.43858000  1.0
  C  C62  1  0.43888000  0.87223000  0.53920000  1.0
  C  C63  1  0.66998000  0.52602000  0.15318000  1.0
  C  C64  1  0.15355000  0.67097000  0.52553000  1.0
  C  C65  1  0.52543000  0.15310000  0.67037000  1.0
  C  C66  1  0.33002000  0.47398000  0.84682000  1.0
  C  C67  1  0.84645000  0.32903000  0.47447000  1.0
  C  C68  1  0.47457000  0.84690000  0.32963000  1.0
  C  C69  1  0.72414000  0.64511000  0.16813000  1.0
  C  C70  1  0.16910000  0.72476000  0.64454000  1.0
  C  C71  1  0.64647000  0.16871000  0.72330000  1.0
  C  C72  1  0.27585000  0.35488000  0.83187000  1.0
  C  C73  1  0.83090000  0.27524000  0.35546000  1.0
  C  C74  1  0.35353000  0.83129000  0.27670000  1.0
  C  C75  1  0.84462000  0.67380000  0.15814000  1.0
  C  C76  1  0.15870000  0.84352000  0.67342000  1.0
  C  C77  1  0.67662000  0.15897000  0.84173000  1.0
  C  C78  1  0.15537000  0.32620000  0.84186000  1.0
  C  C79  1  0.84131000  0.15648000  0.32658000  1.0
  C  C80  1  0.32338000  0.84103000  0.15827000  1.0
  C  C81  1  0.91173000  0.58454000  0.13686000  1.0
  C  C82  1  0.13659000  0.90947000  0.58447000  1.0
  C  C83  1  0.58678000  0.13731000  0.90831000  1.0
  C  C84  1  0.08827000  0.41546000  0.86314000  1.0
  C  C85  1  0.86341000  0.09053000  0.41553000  1.0
  C  C86  1  0.41322000  0.86269000  0.09169000  1.0
  C  C87  1  0.85760000  0.46444000  0.12200000  1.0
  C  C88  1  0.12150000  0.85623000  0.46438000  1.0
  C  C89  1  0.46466000  0.12222000  0.85587000  1.0
  C  C90  1  0.14239000  0.53556000  0.87800000  1.0
  C  C91  1  0.87850000  0.14378000  0.53562000  1.0
  C  C92  1  0.53534000  0.87778000  0.14413000  1.0
  C  C93  1  0.73481000  0.43527000  0.12791000  1.0
  C  C94  1  0.12753000  0.73496000  0.43512000  1.0
  C  C95  1  0.43396000  0.12779000  0.73493000  1.0
  C  C96  1  0.26518000  0.56473000  0.87209000  1.0
  C  C97  1  0.87247000  0.26504000  0.56488000  1.0
  C  C98  1  0.56605000  0.87221000  0.26507000  1.0
  C  C99  1  0.93030000  0.37149000  0.10689000  1.0
  C  C100  1  0.10662000  0.92903000  0.37246000  1.0
  C  C101  1  0.37211000  0.10714000  0.92949000  1.0
  C  C102  1  0.06970000  0.62851000  0.89311000  1.0
  C  C103  1  0.89339000  0.07097000  0.62755000  1.0
  C  C104  1  0.62789000  0.89286000  0.07051000  1.0
  N  N105  1  0.37833000  0.40298000  0.20256000  1.0
  N  N106  1  0.20116000  0.38124000  0.40334000  1.0
  N  N107  1  0.40416000  0.20330000  0.38215000  1.0
  N  N108  1  0.62167000  0.59702000  0.79744000  1.0
  N  N109  1  0.79884000  0.61877000  0.59666000  1.0
  N  N110  1  0.59584000  0.79670000  0.61785000  1.0
  N  N111  1  0.54691000  0.49792000  0.16373000  1.0
  N  N112  1  0.16381000  0.54921000  0.49780000  1.0
  N  N113  1  0.49724000  0.16297000  0.54886000  1.0
  N  N114  1  0.45309000  0.50208000  0.83627000  1.0
  N  N115  1  0.83619000  0.45080000  0.50220000  1.0
  N  N116  1  0.50276000  0.83703000  0.45114000  1.0
  N  N117  1  0.88700000  0.25464000  0.06432000  1.0
  N  N118  1  0.06319000  0.88780000  0.25561000  1.0
  N  N119  1  0.25359000  0.06325000  0.88928000  1.0
  N  N120  1  0.11300000  0.74536000  0.93568000  1.0
  N  N121  1  0.93681000  0.11221000  0.74439000  1.0
  N  N122  1  0.74642000  0.93675000  0.11072000  1.0
  N  N123  1  0.98410000  0.20359000  0.07342000  1.0
  N  N124  1  0.07298000  0.98421000  0.20591000  1.0
  N  N125  1  0.20414000  0.07246000  0.98637000  1.0
  N  N126  1  0.01590000  0.79641000  0.92658000  1.0
  N  N127  1  0.92701000  0.01579000  0.79410000  1.0
  N  N128  1  0.79586000  0.92754000  0.01363000  1.0
  N  N129  1  0.08213000  0.28592000  0.12039000  1.0
  N  N130  1  0.12137000  0.08002000  0.28914000  1.0
  N  N131  1  0.28891000  0.12075000  0.08156000  1.0
  N  N132  1  0.91787000  0.71408000  0.87961000  1.0
  N  N133  1  0.87863000  0.91998000  0.71086000  1.0
  N  N134  1  0.71109000  0.87924000  0.91844000  1.0
  N  N135  1  0.05132000  0.39235000  0.14222000  1.0
  N  N136  1  0.14334000  0.04839000  0.39469000  1.0
  N  N137  1  0.39548000  0.14339000  0.04874000  1.0
  N  N138  1  0.94868000  0.60765000  0.85778000  1.0
  N  N139  1  0.85666000  0.95162000  0.60531000  1.0
  N  N140  1  0.60452000  0.85661000  0.95126000  1.0
