# generated using pymatgen
data_CoH7C8NO5
_symmetry_space_group_name_H-M   'P 1'
_cell_length_a   7.70772000
_cell_length_b   7.81834000
_cell_length_c   8.62050415
_cell_angle_alpha   80.65214541
_cell_angle_beta   65.28671436
_cell_angle_gamma   82.83350000
_symmetry_Int_Tables_number   1
_chemical_formula_structural   CoH7C8NO5
_chemical_formula_sum   'Co2 H14 C16 N2 O10'
_cell_volume   464.70210261
_cell_formula_units_Z   2
loop_
 _symmetry_equiv_pos_site_id
 _symmetry_equiv_pos_as_xyz
  1  'x, y, z'
loop_
 _atom_site_type_symbol
 _atom_site_label
 _atom_site_symmetry_multiplicity
 _atom_site_fract_x
 _atom_site_fract_y
 _atom_site_fract_z
 _atom_site_occupancy
  Co  Co0  1  0.37690000  0.73519000  0.64367000  1.0
  Co  Co1  1  0.62312000  0.26479000  0.35633000  1.0
  H  H2  1  0.18695000  0.10914000  0.93908000  1.0
  H  H3  1  0.81301000  0.89087000  0.06094000  1.0
  H  H4  1  0.06383000  0.80502000  0.43342000  1.0
  H  H5  1  0.93614000  0.19500000  0.56660000  1.0
  H  H6  1  0.55367000  0.65803000  0.99040000  1.0
  H  H7  1  0.44632000  0.34198000  0.00963000  1.0
  H  H8  1  0.47723000  0.02697000  0.70678000  1.0
  H  H9  1  0.52275000  0.97300000  0.29324000  1.0
  H  H10  1  0.62644000  0.86238000  0.72768000  1.0
  H  H11  1  0.37352000  0.13760000  0.27234000  1.0
  H  H12  1  0.70969000  0.84041000  0.41427000  1.0
  H  H13  1  0.29033000  0.15960000  0.58578000  1.0
  H  H14  1  0.67818000  0.63269000  0.42278000  1.0
  H  H15  1  0.32180000  0.36734000  0.57726000  1.0
  C  C16  1  0.37980000  0.88265000  0.94261000  1.0
  C  C17  1  0.62022000  0.11731000  0.05737000  1.0
  C  C18  1  0.22283000  0.99786000  0.01697000  1.0
  C  C19  1  0.77718000  0.00210000  0.98298000  1.0
  C  C20  1  0.10737000  0.96837000  0.19339000  1.0
  C  C21  1  0.89271000  0.03161000  0.80658000  1.0
  C  C22  1  0.15279000  0.82851000  0.29656000  1.0
  C  C23  1  0.84724000  0.17150000  0.70347000  1.0
  C  C24  1  0.31715000  0.72052000  0.22347000  1.0
  C  C25  1  0.68285000  0.27952000  0.77649000  1.0
  C  C26  1  0.42848000  0.74578000  0.04618000  1.0
  C  C27  1  0.57151000  0.25422000  0.95381000  1.0
  C  C28  1  0.93141000  0.08198000  0.26873000  1.0
  C  C29  1  0.06863000  0.91797000  0.73124000  1.0
  C  C30  1  0.37514000  0.57841000  0.33410000  1.0
  C  C31  1  0.62490000  0.42165000  0.66580000  1.0
  N  N32  1  0.48524000  0.90099000  0.76110000  1.0
  N  N33  1  0.51476000  0.09904000  0.23900000  1.0
  O  O34  1  0.91058000  0.23297000  0.19503000  1.0
  O  O35  1  0.08931000  0.76700000  0.80506000  1.0
  O  O36  1  0.79201000  0.02438000  0.40867000  1.0
  O  O37  1  0.20792000  0.97571000  0.59129000  1.0
  O  O38  1  0.28719000  0.56974000  0.49834000  1.0
  O  O39  1  0.71288000  0.43020000  0.50161000  1.0
  O  O40  1  0.51188000  0.47164000  0.25610000  1.0
  O  O41  1  0.48808000  0.52835000  0.74397000  1.0
  O  O42  1  0.62033000  0.75598000  0.41656000  1.0
  O  O43  1  0.37974000  0.24404000  0.58336000  1.0
