# generated using pymatgen
data_CuH12C12S2IN2
_symmetry_space_group_name_H-M   'P 1'
_cell_length_a   8.17356000
_cell_length_b   8.53744000
_cell_length_c   11.81920000
_cell_angle_alpha   102.66200000
_cell_angle_beta   95.14950000
_cell_angle_gamma   117.03600000
_symmetry_Int_Tables_number   1
_chemical_formula_structural   CuH12C12S2IN2
_chemical_formula_sum   'Cu2 H24 C24 S4 I2 N4'
_cell_volume   699.53658395
_cell_formula_units_Z   2
loop_
 _symmetry_equiv_pos_site_id
 _symmetry_equiv_pos_as_xyz
  1  'x, y, z'
loop_
 _atom_site_type_symbol
 _atom_site_label
 _atom_site_symmetry_multiplicity
 _atom_site_fract_x
 _atom_site_fract_y
 _atom_site_fract_z
 _atom_site_occupancy
  Cu  Cu0  1  0.05361000  0.54197000  0.90719000  1.0
  Cu  Cu1  1  0.94639000  0.45803000  0.09281000  1.0
  H  H2  1  0.07693000  0.88393000  0.87590000  1.0
  H  H3  1  0.92307000  0.11607000  0.12410000  1.0
  H  H4  1  0.30105000  0.15487000  0.81652000  1.0
  H  H5  1  0.69896000  0.84514000  0.18349000  1.0
  H  H6  1  0.61691000  0.18845000  0.79312000  1.0
  H  H7  1  0.38309000  0.81156000  0.20689000  1.0
  H  H8  1  0.45730000  0.69028000  0.89314000  1.0
  H  H9  1  0.54270000  0.30971000  0.10686000  1.0
  H  H10  1  0.79768000  0.90320000  0.88940000  1.0
  H  H11  1  0.20232000  0.09680000  0.11059000  1.0
  H  H12  1  0.85097000  0.09718000  0.83499000  1.0
  H  H13  1  0.14903000  0.90282000  0.16501000  1.0
  H  H14  1  0.34105000  0.52388000  0.50459000  1.0
  H  H15  1  0.65895000  0.47611000  0.49541000  1.0
  H  H16  1  0.31235000  0.66042000  0.63141000  1.0
  H  H17  1  0.68765000  0.33957000  0.36859000  1.0
  H  H18  1  0.12477000  0.81455000  0.60701000  1.0
  H  H19  1  0.87524000  0.18546000  0.39299000  1.0
  H  H20  1  0.89333000  0.83933000  0.46712000  1.0
  H  H21  1  0.10668000  0.16068000  0.53288000  1.0
  H  H22  1  0.85174000  0.71204000  0.24776000  1.0
  H  H23  1  0.14825000  0.28795000  0.75225000  1.0
  H  H24  1  0.24020000  0.53559000  0.29886000  1.0
  H  H25  1  0.75980000  0.46441000  0.70114000  1.0
  C  C26  1  0.21470000  0.90351000  0.86303000  1.0
  C  C27  1  0.78531000  0.09649000  0.13697000  1.0
  C  C28  1  0.33904000  0.05211000  0.82907000  1.0
  C  C29  1  0.66096000  0.94790000  0.17093000  1.0
  C  C30  1  0.51415000  0.07056000  0.81606000  1.0
  C  C31  1  0.48585000  0.92944000  0.18394000  1.0
  C  C32  1  0.56007000  0.93941000  0.83826000  1.0
  C  C33  1  0.43993000  0.06059000  0.16173000  1.0
  C  C34  1  0.42683000  0.79461000  0.87284000  1.0
  C  C35  1  0.57317000  0.20539000  0.12715000  1.0
  C  C36  1  0.74573000  0.95445000  0.82469000  1.0
  C  C37  1  0.25427000  0.04555000  0.17531000  1.0
  C  C38  1  0.34084000  0.65324000  0.54212000  1.0
  C  C39  1  0.65916000  0.34675000  0.45788000  1.0
  C  C40  1  0.20201000  0.67371000  0.46383000  1.0
  C  C41  1  0.79799000  0.32628000  0.53617000  1.0
  C  C42  1  0.10312000  0.76081000  0.51107000  1.0
  C  C43  1  0.89689000  0.23919000  0.48893000  1.0
  C  C44  1  0.97537000  0.77559000  0.43378000  1.0
  C  C45  1  0.02463000  0.22441000  0.56623000  1.0
  C  C46  1  0.95040000  0.70436000  0.31202000  1.0
  C  C47  1  0.04960000  0.29564000  0.68798000  1.0
  C  C48  1  0.16771000  0.60588000  0.34031000  1.0
  C  C49  1  0.83229000  0.39411000  0.65969000  1.0
  S  S50  1  0.73639000  0.80702000  0.68127000  1.0
  S  S51  1  0.26361000  0.19298000  0.31872000  1.0
  S  S52  1  0.57967000  0.84422000  0.55710000  1.0
  S  S53  1  0.42033000  0.15578000  0.44290000  1.0
  I  I54  1  0.77955000  0.59296000  0.97338000  1.0
  I  I55  1  0.22045000  0.40704000  0.02662000  1.0
  N  N56  1  0.25703000  0.77580000  0.88490000  1.0
  N  N57  1  0.74296000  0.22420000  0.11510000  1.0
  N  N58  1  0.04388000  0.61950000  0.26506000  1.0
  N  N59  1  0.95611000  0.38049000  0.73494000  1.0
