# generated using pymatgen
data_AgH2C2N7O4
_symmetry_space_group_name_H-M   'P 1'
_cell_length_a   5.66912000
_cell_length_b   8.55044000
_cell_length_c   15.37540000
_cell_angle_alpha   90.00060000
_cell_angle_beta   90.00070000
_cell_angle_gamma   89.99990000
_symmetry_Int_Tables_number   1
_chemical_formula_structural   AgH2C2N7O4
_chemical_formula_sum   'Ag4 H8 C8 N28 O16'
_cell_volume   745.29899689
_cell_formula_units_Z   4
loop_
 _symmetry_equiv_pos_site_id
 _symmetry_equiv_pos_as_xyz
  1  'x, y, z'
loop_
 _atom_site_type_symbol
 _atom_site_label
 _atom_site_symmetry_multiplicity
 _atom_site_fract_x
 _atom_site_fract_y
 _atom_site_fract_z
 _atom_site_occupancy
  Ag  Ag0  1  0.24083000  0.41858000  0.43129000  1.0
  Ag  Ag1  1  0.25918000  0.58143000  0.93129000  1.0
  Ag  Ag2  1  0.74084000  0.08143000  0.56871000  1.0
  Ag  Ag3  1  0.75917000  0.91858000  0.06870000  1.0
  H  H4  1  0.86717000  0.68019000  0.25292000  1.0
  H  H5  1  0.63286000  0.31981000  0.75291000  1.0
  H  H6  1  0.36713000  0.81981000  0.74709000  1.0
  H  H7  1  0.13283000  0.18019000  0.24708000  1.0
  H  H8  1  0.83272000  0.97992000  0.32874000  1.0
  H  H9  1  0.66731000  0.02008000  0.82872000  1.0
  H  H10  1  0.33267000  0.52008000  0.67128000  1.0
  H  H11  1  0.16728000  0.47991000  0.17127000  1.0
  C  C12  1  0.76989000  0.72257000  0.30846000  1.0
  C  C13  1  0.73013000  0.27743000  0.80845000  1.0
  C  C14  1  0.26987000  0.77743000  0.69155000  1.0
  C  C15  1  0.23011000  0.22256000  0.19154000  1.0
  C  C16  1  0.75197000  0.86892000  0.34476000  1.0
  C  C17  1  0.74804000  0.13109000  0.84475000  1.0
  C  C18  1  0.25195000  0.63107000  0.65525000  1.0
  C  C19  1  0.24802000  0.36893000  0.15525000  1.0
  N  N20  1  0.62347000  0.63024000  0.35733000  1.0
  N  N21  1  0.87654000  0.36977000  0.85733000  1.0
  N  N22  1  0.12345000  0.86977000  0.64267000  1.0
  N  N23  1  0.37654000  0.13024000  0.14267000  1.0
  N  N24  1  0.51607000  0.70769000  0.42105000  1.0
  N  N25  1  0.98393000  0.29231000  0.92104000  1.0
  N  N26  1  0.01608000  0.79231000  0.57895000  1.0
  N  N27  1  0.48392000  0.20769000  0.07896000  1.0
  N  N28  1  0.59640000  0.85332000  0.41154000  1.0
  N  N29  1  0.90360000  0.14668000  0.91153000  1.0
  N  N30  1  0.09639000  0.64668000  0.58846000  1.0
  N  N31  1  0.40359000  0.35332000  0.08847000  1.0
  N  N32  1  0.51939000  0.96788000  0.46794000  1.0
  N  N33  1  0.98061000  0.03213000  0.96793000  1.0
  N  N34  1  0.01939000  0.53213000  0.53206000  1.0
  N  N35  1  0.48060000  0.46787000  0.03206000  1.0
  N  N36  1  0.32778000  0.04249000  0.43401000  1.0
  N  N37  1  0.17221000  0.95752000  0.93401000  1.0
  N  N38  1  0.82779000  0.45751000  0.56598000  1.0
  N  N39  1  0.67221000  0.54248000  0.06599000  1.0
  N  N40  1  0.54588000  0.47829000  0.34615000  1.0
  N  N41  1  0.95413000  0.52171000  0.84615000  1.0
  N  N42  1  0.04588000  0.02171000  0.65385000  1.0
  N  N43  1  0.45413000  0.97829000  0.15385000  1.0
  N  N44  1  0.72123000  0.37650000  0.32586000  1.0
  N  N45  1  0.77877000  0.62350000  0.82586000  1.0
  N  N46  1  0.22124000  0.12350000  0.67414000  1.0
  N  N47  1  0.27877000  0.87650000  0.17414000  1.0
  O  O48  1  0.92986000  0.42194000  0.31368000  1.0
  O  O49  1  0.57013000  0.57805000  0.81369000  1.0
  O  O50  1  0.42989000  0.07804000  0.68631000  1.0
  O  O51  1  0.07013000  0.92195000  0.18631000  1.0
  O  O52  1  0.65743000  0.23741000  0.31879000  1.0
  O  O53  1  0.84256000  0.76259000  0.81879000  1.0
  O  O54  1  0.15746000  0.26259000  0.68121000  1.0
  O  O55  1  0.34257000  0.73741000  0.18121000  1.0
  O  O56  1  0.24104000  0.00476000  0.36267000  1.0
  O  O57  1  0.25896000  0.99523000  0.86266000  1.0
  O  O58  1  0.74103000  0.49523000  0.63733000  1.0
  O  O59  1  0.75896000  0.50476000  0.13734000  1.0
  O  O60  1  0.24723000  0.14978000  0.48195000  1.0
  O  O61  1  0.25277000  0.85023000  0.98194000  1.0
  O  O62  1  0.74724000  0.35021000  0.51805000  1.0
  O  O63  1  0.75277000  0.64977000  0.01806000  1.0
