# generated using pymatgen
data_ZnH21C22N3O4
_symmetry_space_group_name_H-M   'P 1'
_cell_length_a   13.78200000
_cell_length_b   15.97100000
_cell_length_c   17.12400000
_cell_angle_alpha   91.35180000
_cell_angle_beta   91.17650000
_cell_angle_gamma   94.74350000
_symmetry_Int_Tables_number   1
_chemical_formula_structural   ZnH21C22N3O4
_chemical_formula_sum   'Zn2 H42 C44 N6 O8'
_cell_volume   3754.29173136
_cell_formula_units_Z   2
loop_
 _symmetry_equiv_pos_site_id
 _symmetry_equiv_pos_as_xyz
  1  'x, y, z'
loop_
 _atom_site_type_symbol
 _atom_site_label
 _atom_site_symmetry_multiplicity
 _atom_site_fract_x
 _atom_site_fract_y
 _atom_site_fract_z
 _atom_site_occupancy
  Zn  Zn0  1  0.50937000  0.41103000  0.50622000  1.0
  Zn  Zn1  1  0.49170000  0.58985000  0.49238000  1.0
  H  H2  1  0.42830000  0.40375000  0.89272000  1.0
  H  H3  1  0.63774000  0.13019000  0.60461000  1.0
  H  H4  1  0.88488000  0.36498000  0.42780000  1.0
  H  H5  1  0.99120000  0.31037000  0.44187000  1.0
  H  H6  1  0.88052000  0.27469000  0.48681000  1.0
  H  H7  1  0.99278000  0.35179000  0.58597000  1.0
  H  H8  1  0.88830000  0.40781000  0.56929000  1.0
  H  H9  1  0.09364000  0.56427000  0.37165000  1.0
  H  H10  1  0.98712000  0.61981000  0.36406000  1.0
  H  H11  1  0.10344000  0.67609000  0.37729000  1.0
  H  H12  1  0.01740000  0.67320000  0.50435000  1.0
  H  H13  1  0.57112000  0.59599000  0.10585000  1.0
  H  H14  1  0.12074000  0.61367000  0.51028000  1.0
  H  H15  1  0.42290000  0.39981000  0.74559000  1.0
  H  H16  1  0.57672000  0.59995000  0.25294000  1.0
  H  H17  1  0.45795000  0.22202000  0.17566000  1.0
  H  H18  1  0.33872000  0.25635000  0.18060000  1.0
  H  H19  1  0.36934000  0.19013000  0.10187000  1.0
  H  H20  1  0.36710000  0.33625000  0.05607000  1.0
  H  H21  1  0.48342000  0.30235000  0.04965000  1.0
  H  H22  1  0.66086000  0.74375000  0.81810000  1.0
  H  H23  1  0.54133000  0.77738000  0.82297000  1.0
  H  H24  1  0.45044000  0.34554000  0.25325000  1.0
  H  H25  1  0.62966000  0.80972000  0.89680000  1.0
  H  H26  1  0.51655000  0.69702000  0.94911000  1.0
  H  H27  1  0.63304000  0.66356000  0.94244000  1.0
  H  H28  1  0.38426000  0.77284000  0.27339000  1.0
  H  H29  1  0.45754000  0.68733000  0.28820000  1.0
  H  H30  1  0.33574000  0.66766000  0.25317000  1.0
  H  H31  1  0.34565000  0.63375000  0.39469000  1.0
  H  H32  1  0.27462000  0.71960000  0.38107000  1.0
  H  H33  1  0.54279000  0.31255000  0.71120000  1.0
  H  H34  1  0.61667000  0.22747000  0.72604000  1.0
  H  H35  1  0.55052000  0.65372000  0.74537000  1.0
  H  H36  1  0.66444000  0.33282000  0.74649000  1.0
  H  H37  1  0.72613000  0.28119000  0.61839000  1.0
  H  H38  1  0.65483000  0.36694000  0.60499000  1.0
  H  H39  1  0.42019000  0.26938000  0.42879000  1.0
  H  H40  1  0.58022000  0.73145000  0.57088000  1.0
  H  H41  1  0.41481000  0.11108000  0.42364000  1.0
  H  H42  1  0.58512000  0.88977000  0.57626000  1.0
  H  H43  1  0.36259000  0.87047000  0.39495000  1.0
  C  C44  1  0.50873000  0.47821000  0.34833000  1.0
  C  C45  1  0.46370000  0.14854000  0.46395000  1.0
  C  C46  1  0.47388000  0.89073000  0.48463000  1.0
  C  C47  1  0.52628000  0.11004000  0.51509000  1.0
  C  C48  1  0.41179000  0.84065000  0.43422000  1.0
  C  C49  1  0.58857000  0.16008000  0.56537000  1.0
  C  C50  1  0.41333000  0.75298000  0.43379000  1.0
  C  C51  1  0.58728000  0.24776000  0.56573000  1.0
  C  C52  1  0.31206000  0.46321000  0.49887000  1.0
  C  C53  1  0.68888000  0.53965000  0.50519000  1.0
  C  C54  1  0.79401000  0.54822000  0.50719000  1.0
  C  C55  1  0.49221000  0.52123000  0.65036000  1.0
  C  C56  1  0.20764000  0.45475000  0.50685000  1.0
  C  C57  1  0.98372000  0.54028000  0.50613000  1.0
  C  C58  1  0.01937000  0.46411000  0.52187000  1.0
  C  C59  1  0.11994000  0.45677000  0.51466000  1.0
  C  C60  1  0.88243000  0.54639000  0.50740000  1.0
  C  C61  1  0.51116000  0.47334000  0.26094000  1.0
  C  C62  1  0.48929000  0.52613000  0.73771000  1.0
  C  C63  1  0.54661000  0.54423000  0.22006000  1.0
  C  C64  1  0.45322000  0.45542000  0.77852000  1.0
  C  C65  1  0.54348000  0.54224000  0.13922000  1.0
  C  C66  1  0.47046000  0.39644000  0.13815000  1.0
  C  C67  1  0.45623000  0.45742000  0.85937000  1.0
  C  C68  1  0.50352000  0.46977000  0.09808000  1.0
  C  C69  1  0.49633000  0.52982000  0.90057000  1.0
  C  C70  1  0.95443000  0.38734000  0.54249000  1.0
  C  C71  1  0.92622000  0.33091000  0.47042000  1.0
  C  C72  1  0.04844000  0.61612000  0.48253000  1.0
  C  C73  1  0.05864000  0.61928000  0.39353000  1.0
  C  C74  1  0.42900000  0.31905000  0.09230000  1.0
  C  C75  1  0.39718000  0.24293000  0.14057000  1.0
  C  C76  1  0.57093000  0.68057000  0.90633000  1.0
  C  C77  1  0.52963000  0.60310000  0.86051000  1.0
  C  C78  1  0.60226000  0.75681000  0.85809000  1.0
  C  C79  1  0.34896000  0.69949000  0.37732000  1.0
  C  C80  1  0.38382000  0.70773000  0.29301000  1.0
  C  C81  1  0.65171000  0.30118000  0.62224000  1.0
  C  C82  1  0.61672000  0.29258000  0.70650000  1.0
  C  C83  1  0.47559000  0.39994000  0.21976000  1.0
  C  C84  1  0.52498000  0.59948000  0.77892000  1.0
  C  C85  1  0.53378000  0.76555000  0.53288000  1.0
  C  C86  1  0.46666000  0.23527000  0.46677000  1.0
  C  C87  1  0.53646000  0.85227000  0.53582000  1.0
  N  N88  1  0.49618000  0.46462000  0.01599000  1.0
  N  N89  1  0.50359000  0.53496000  0.98265000  1.0
  N  N90  1  0.47439000  0.71690000  0.48300000  1.0
  N  N91  1  0.52629000  0.28391000  0.51646000  1.0
  N  N92  1  0.46765000  0.97868000  0.47991000  1.0
  N  N93  1  0.53244000  0.02208000  0.51982000  1.0
  O  O94  1  0.51057000  0.41024000  0.38547000  1.0
  O  O95  1  0.49770000  0.58963000  0.61343000  1.0
  O  O96  1  0.50370000  0.55153000  0.37848000  1.0
  O  O97  1  0.49028000  0.44737000  0.61987000  1.0
  O  O98  1  0.35719000  0.39699000  0.49619000  1.0
  O  O99  1  0.64389000  0.60545000  0.49805000  1.0
  O  O100  1  0.34913000  0.53914000  0.49566000  1.0
  O  O101  1  0.65111000  0.46416000  0.51064000  1.0
