# generated using pymatgen
data_ZnH16C12(NO)4
_symmetry_space_group_name_H-M   'P 1'
_cell_length_a   7.09168000
_cell_length_b   14.35510000
_cell_length_c   14.35459906
_cell_angle_alpha   60.00253703
_cell_angle_beta   89.99950000
_cell_angle_gamma   89.99890000
_symmetry_Int_Tables_number   1
_chemical_formula_structural   ZnH16C12(NO)4
_chemical_formula_sum   'Zn3 H48 C36 N12 O12'
_cell_volume   1265.57577474
_cell_formula_units_Z   3
loop_
 _symmetry_equiv_pos_site_id
 _symmetry_equiv_pos_as_xyz
  1  'x, y, z'
loop_
 _atom_site_type_symbol
 _atom_site_label
 _atom_site_symmetry_multiplicity
 _atom_site_fract_x
 _atom_site_fract_y
 _atom_site_fract_z
 _atom_site_occupancy
  Zn  Zn0  1  0.16672000  0.40375000  0.99996000  1.0
  Zn  Zn1  1  0.83336000  0.00000000  0.59628000  1.0
  Zn  Zn2  1  0.50000000  0.59627000  0.40372000  1.0
  H  H3  1  0.40008000  0.75096000  0.79000000  1.0
  H  H4  1  0.06674000  0.79000000  0.45903000  1.0
  H  H5  1  0.73339000  0.45904000  0.75096000  1.0
  H  H6  1  0.93328000  0.54096000  0.20999000  1.0
  H  H7  1  0.26660000  0.24903000  0.54096000  1.0
  H  H8  1  0.59995000  0.20998000  0.24905000  1.0
  H  H9  1  0.43380000  0.62633000  0.79414000  1.0
  H  H10  1  0.10046000  0.79415000  0.57952000  1.0
  H  H11  1  0.76711000  0.57952000  0.62633000  1.0
  H  H12  1  0.89957000  0.42047000  0.20584000  1.0
  H  H13  1  0.23287000  0.37367000  0.42047000  1.0
  H  H14  1  0.56623000  0.20585000  0.37368000  1.0
  H  H15  1  0.43179000  0.63033000  0.91579000  1.0
  H  H16  1  0.09845000  0.91578000  0.45389000  1.0
  H  H17  1  0.76511000  0.45389000  0.63032000  1.0
  H  H18  1  0.90155000  0.54611000  0.08420000  1.0
  H  H19  1  0.23488000  0.36967000  0.54611000  1.0
  H  H20  1  0.56823000  0.08420000  0.36969000  1.0
  H  H21  1  0.77192000  0.51361000  0.90894000  1.0
  H  H22  1  0.43858000  0.90896000  0.57745000  1.0
  H  H23  1  0.10523000  0.57745000  0.51360000  1.0
  H  H24  1  0.56146000  0.42255000  0.09105000  1.0
  H  H25  1  0.89475000  0.48640000  0.42254000  1.0
  H  H26  1  0.22812000  0.09104000  0.48640000  1.0
  H  H27  1  0.73182000  0.73846000  0.79211000  1.0
  H  H28  1  0.39849000  0.79211000  0.46945000  1.0
  H  H29  1  0.06514000  0.46944000  0.73845000  1.0
  H  H30  1  0.60151000  0.53055000  0.20790000  1.0
  H  H31  1  0.93484000  0.26155000  0.53056000  1.0
  H  H32  1  0.26818000  0.20789000  0.26155000  1.0
  H  H33  1  0.50230000  0.12847000  0.02821000  1.0
  H  H34  1  0.16894000  0.02825000  0.84330000  1.0
  H  H35  1  0.83561000  0.84327000  0.12848000  1.0
  H  H36  1  0.83110000  0.15676000  0.97172000  1.0
  H  H37  1  0.16440000  0.87152000  0.15673000  1.0
  H  H38  1  0.49774000  0.97175000  0.87154000  1.0
  H  H39  1  0.62668000  0.14828000  0.12212000  1.0
  H  H40  1  0.29335000  0.12214000  0.72959000  1.0
  H  H41  1  0.96001000  0.72956000  0.14829000  1.0
  H  H42  1  0.70667000  0.27046000  0.87784000  1.0
  H  H43  1  0.03998000  0.85170000  0.27045000  1.0
  H  H44  1  0.37332000  0.87786000  0.85171000  1.0
  H  H45  1  0.06638000  0.81067000  0.75822000  1.0
  H  H46  1  0.73304000  0.75822000  0.43112000  1.0
  H  H47  1  0.39970000  0.43111000  0.81066000  1.0
  H  H48  1  0.26695000  0.56887000  0.24178000  1.0
  H  H49  1  0.60029000  0.18934000  0.56887000  1.0
  H  H50  1  0.93363000  0.24178000  0.18935000  1.0
  C  C51  1  0.16034000  0.64812000  0.84292000  1.0
  C  C52  1  0.82700000  0.84293000  0.50896000  1.0
  C  C53  1  0.49365000  0.50897000  0.64810000  1.0
  C  C54  1  0.17302000  0.49104000  0.15705000  1.0
  C  C55  1  0.50633000  0.35189000  0.49103000  1.0
  C  C56  1  0.83968000  0.15706000  0.35190000  1.0
  C  C57  1  0.36763000  0.66479000  0.83557000  1.0
  C  C58  1  0.03429000  0.83557000  0.49964000  1.0
  C  C59  1  0.70095000  0.49964000  0.66478000  1.0
  C  C60  1  0.96572000  0.50036000  0.16441000  1.0
  C  C61  1  0.29903000  0.33521000  0.50036000  1.0
  C  C62  1  0.63239000  0.16441000  0.33523000  1.0
  C  C63  1  0.87711000  0.57699000  0.87620000  1.0
  C  C64  1  0.54377000  0.87622000  0.54681000  1.0
  C  C65  1  0.21043000  0.54682000  0.57697000  1.0
  C  C66  1  0.45625000  0.45318000  0.12378000  1.0
  C  C67  1  0.78956000  0.42303000  0.45318000  1.0
  C  C68  1  0.12292000  0.12378000  0.42303000  1.0
  C  C69  1  0.85407000  0.68652000  0.81870000  1.0
  C  C70  1  0.52073000  0.81870000  0.49479000  1.0
  C  C71  1  0.18739000  0.49479000  0.68651000  1.0
  C  C72  1  0.47928000  0.50521000  0.18130000  1.0
  C  C73  1  0.81259000  0.31349000  0.50521000  1.0
  C  C74  1  0.14595000  0.18130000  0.31349000  1.0
  C  C75  1  0.44044000  0.27488000  0.02205000  1.0
  C  C76  1  0.10713000  0.02205000  0.70306000  1.0
  C  C77  1  0.77381000  0.70304000  0.27492000  1.0
  C  C78  1  0.89280000  0.29697000  0.97799000  1.0
  C  C79  1  0.22620000  0.72508000  0.29696000  1.0
  C  C80  1  0.55952000  0.97796000  0.72509000  1.0
  C  C81  1  0.58220000  0.18920000  0.03742000  1.0
  C  C82  1  0.24887000  0.03744000  0.77337000  1.0
  C  C83  1  0.91555000  0.77335000  0.18921000  1.0
  C  C84  1  0.75112000  0.22667000  0.96254000  1.0
  C  C85  1  0.08447000  0.81078000  0.22666000  1.0
  C  C86  1  0.41780000  0.96257000  0.81080000  1.0
  N  N87  1  0.06852000  0.55392000  0.89104000  1.0
  N  N88  1  0.73519000  0.89106000  0.55504000  1.0
  N  N89  1  0.40184000  0.55505000  0.55390000  1.0
  N  N90  1  0.26484000  0.44496000  0.10893000  1.0
  N  N91  1  0.59814000  0.44609000  0.44495000  1.0
  N  N92  1  0.93151000  0.10894000  0.44610000  1.0
  N  N93  1  0.03316000  0.72934000  0.79870000  1.0
  N  N94  1  0.69982000  0.79870000  0.47198000  1.0
  N  N95  1  0.36648000  0.47197000  0.72932000  1.0
  N  N96  1  0.30019000  0.52802000  0.20129000  1.0
  N  N97  1  0.63351000  0.27068000  0.52802000  1.0
  N  N98  1  0.96686000  0.20130000  0.27068000  1.0
  O  O99  1  0.30507000  0.24646000  0.08846000  1.0
  O  O100  1  0.97175000  0.08846000  0.66506000  1.0
  O  O101  1  0.63841000  0.66505000  0.24651000  1.0
  O  O102  1  0.02822000  0.33499000  0.91159000  1.0
  O  O103  1  0.36159000  0.75349000  0.33496000  1.0
  O  O104  1  0.69494000  0.91158000  0.75349000  1.0
  O  O105  1  0.45525000  0.37229000  0.94406000  1.0
  O  O106  1  0.12196000  0.94407000  0.68364000  1.0
  O  O107  1  0.78866000  0.68362000  0.37232000  1.0
  O  O108  1  0.87790000  0.31638000  0.05597000  1.0
  O  O109  1  0.21136000  0.62768000  0.31637000  1.0
  O  O110  1  0.54466000  0.05594000  0.62769000  1.0
