# generated using pymatgen
data_Al2H11C22S2ClO12
_symmetry_space_group_name_H-M   'P 1'
_cell_length_a   6.63015000
_cell_length_b   12.69127808
_cell_length_c   15.29678678
_cell_angle_alpha   80.13263965
_cell_angle_beta   78.98302052
_cell_angle_gamma   75.71037899
_symmetry_Int_Tables_number   1
_chemical_formula_structural   Al2H11C22S2ClO12
_chemical_formula_sum   'Al2 H11 C22 S2 Cl1 O12'
_cell_volume   1213.85631486
_cell_formula_units_Z   1
loop_
 _symmetry_equiv_pos_site_id
 _symmetry_equiv_pos_as_xyz
  1  'x, y, z'
loop_
 _atom_site_type_symbol
 _atom_site_label
 _atom_site_symmetry_multiplicity
 _atom_site_fract_x
 _atom_site_fract_y
 _atom_site_fract_z
 _atom_site_occupancy
  Al  Al0  1  0.49616000  0.50546000  0.49908000  1.0
  Al  Al1  1  0.99643000  0.50229000  0.50017000  1.0
  H  H2  1  0.23142000  0.61435000  0.40902000  1.0
  H  H3  1  0.77347000  0.37332000  0.56169000  1.0
  H  H4  1  0.15875000  0.54415000  0.23302000  1.0
  H  H5  1  0.84745000  0.45350000  0.76535000  1.0
  H  H6  1  0.40146000  0.56688000  0.77150000  1.0
  H  H7  1  0.31015000  0.55984000  0.93509000  1.0
  H  H8  1  0.60059000  0.43451000  0.22723000  1.0
  H  H9  1  0.69824000  0.43491000  0.06424000  1.0
  H  H10  1  0.31221000  0.86105000  0.44070000  1.0
  H  H11  1  0.37138000  0.56114000  0.11022000  1.0
  H  H12  1  0.64347000  0.42726000  0.88936000  1.0
  C  C13  1  0.66335000  0.69894000  0.49692000  1.0
  C  C14  1  0.81242000  0.49874000  0.33931000  1.0
  C  C15  1  0.33144000  0.30737000  0.50479000  1.0
  C  C16  1  0.18486000  0.50811000  0.65852000  1.0
  C  C17  1  0.87020000  0.49305000  0.24103000  1.0
  C  C18  1  0.13199000  0.50843000  0.75747000  1.0
  C  C19  1  0.05576000  0.52146000  0.19500000  1.0
  C  C20  1  0.11248000  0.52260000  0.10220000  1.0
  C  C21  1  0.95037000  0.47584000  0.80365000  1.0
  C  C22  1  0.89829000  0.46999000  0.89692000  1.0
  C  C23  1  0.26137000  0.53859000  0.80667000  1.0
  C  C24  1  0.20841000  0.53415000  0.89935000  1.0
  C  C25  1  0.74244000  0.46112000  0.19207000  1.0
  C  C26  1  0.79925000  0.46144000  0.09979000  1.0
  C  C27  1  0.98187000  0.49449000  0.04929000  1.0
  C  C28  1  0.02838000  0.49847000  0.94986000  1.0
  C  C29  1  0.57218000  0.11538000  0.53665000  1.0
  C  C30  1  0.42546000  0.88880000  0.46898000  1.0
  C  C31  1  0.39970000  0.18824000  0.50465000  1.0
  C  C32  1  0.60035000  0.81800000  0.49914000  1.0
  C  C33  1  0.41755000  0.99766000  0.48094000  1.0
  C  C34  1  0.58441000  0.00673000  0.52210000  1.0
  S  S35  1  0.25034000  0.12304000  0.45881000  1.0
  S  S36  1  0.75491000  0.88229000  0.54324000  1.0
  Cl  Cl37  1  0.74684000  0.14605000  0.59219000  1.0
  O  O38  1  0.53076000  0.65344000  0.47622000  1.0
  O  O39  1  0.94709000  0.52256000  0.37798000  1.0
  O  O40  1  0.14580000  0.35202000  0.48759000  1.0
  O  O41  1  0.36032000  0.52987000  0.61935000  1.0
  O  O42  1  0.46187000  0.35676000  0.52195000  1.0
  O  O43  1  0.05127000  0.48295000  0.62025000  1.0
  O  O44  1  0.84624000  0.65075000  0.51509000  1.0
  O  O45  1  0.63231000  0.48208000  0.37744000  1.0
  O  O46  1  0.24103000  0.55314000  0.45645000  1.0
  O  O47  1  0.75133000  0.45163000  0.54203000  1.0
  O  O48  1  0.29840000  0.55175000  0.06332000  1.0
  O  O49  1  0.71726000  0.43589000  0.93624000  1.0
