# generated using pymatgen
data_KH13C15S2N2O
_symmetry_space_group_name_H-M   'P 1'
_cell_length_a   6.63379000
_cell_length_b   10.47330000
_cell_length_c   12.22190000
_cell_angle_alpha   115.28630000
_cell_angle_beta   90.09390000
_cell_angle_gamma   99.18460000
_symmetry_Int_Tables_number   1
_chemical_formula_structural   KH13C15S2N2O
_chemical_formula_sum   'K2 H26 C30 S4 N4 O2'
_cell_volume   755.62187112
_cell_formula_units_Z   2
loop_
 _symmetry_equiv_pos_site_id
 _symmetry_equiv_pos_as_xyz
  1  'x, y, z'
loop_
 _atom_site_type_symbol
 _atom_site_label
 _atom_site_symmetry_multiplicity
 _atom_site_fract_x
 _atom_site_fract_y
 _atom_site_fract_z
 _atom_site_occupancy
  K  K0  1  0.69736000  0.05632000  0.15064000  1.0
  K  K1  1  0.30264000  0.94369000  0.84936000  1.0
  H  H2  1  0.75749000  0.89142000  0.35126000  1.0
  H  H3  1  0.24251000  0.10858000  0.64874000  1.0
  H  H4  1  0.75707000  0.91344000  0.56445000  1.0
  H  H5  1  0.24293000  0.08656000  0.43555000  1.0
  H  H6  1  0.74076000  0.15219000  0.73457000  1.0
  H  H7  1  0.25923000  0.84780000  0.26543000  1.0
  H  H8  1  0.74358000  0.41085000  0.80422000  1.0
  H  H9  1  0.25641000  0.58914000  0.19578000  1.0
  H  H10  1  0.75938000  0.62194000  0.75707000  1.0
  H  H11  1  0.24062000  0.37805000  0.24292000  1.0
  H  H12  1  0.77221000  0.72147000  0.60766000  1.0
  H  H13  1  0.22778000  0.27853000  0.39235000  1.0
  H  H14  1  0.76363000  0.67843000  0.38777000  1.0
  H  H15  1  0.23637000  0.32157000  0.61223000  1.0
  H  H16  1  0.73924000  0.42696000  0.22727000  1.0
  H  H17  1  0.26077000  0.57304000  0.77274000  1.0
  H  H18  1  0.27328000  0.31530000  0.03790000  1.0
  H  H19  1  0.72671000  0.68469000  0.96209000  1.0
  H  H20  1  0.03391000  0.36942000  0.02437000  1.0
  H  H21  1  0.96609000  0.63058000  0.97562000  1.0
  H  H22  1  0.30542000  0.47908000  0.93242000  1.0
  H  H23  1  0.69459000  0.52092000  0.06758000  1.0
  H  H24  1  0.11872000  0.35230000  0.81695000  1.0
  H  H25  1  0.88129000  0.64770000  0.18305000  1.0
  H  H26  1  0.36081000  0.30645000  0.83671000  1.0
  H  H27  1  0.63919000  0.69355000  0.16329000  1.0
  C  C28  1  0.75141000  0.99468000  0.42777000  1.0
  C  C29  1  0.24858000  0.00533000  0.57223000  1.0
  C  C30  1  0.75174000  0.00628000  0.54675000  1.0
  C  C31  1  0.24826000  0.99372000  0.45325000  1.0
  C  C32  1  0.74429000  0.13835000  0.64095000  1.0
  C  C33  1  0.25571000  0.86165000  0.35905000  1.0
  C  C34  1  0.74094000  0.25774000  0.61586000  1.0
  C  C35  1  0.25906000  0.74226000  0.38414000  1.0
  C  C36  1  0.74381000  0.39849000  0.71086000  1.0
  C  C37  1  0.25619000  0.60151000  0.28914000  1.0
  C  C38  1  0.75184000  0.51374000  0.68507000  1.0
  C  C39  1  0.24816000  0.48625000  0.31493000  1.0
  C  C40  1  0.75128000  0.49601000  0.56235000  1.0
  C  C41  1  0.24872000  0.50399000  0.43765000  1.0
  C  C42  1  0.76081000  0.61393000  0.53373000  1.0
  C  C43  1  0.23919000  0.38607000  0.46627000  1.0
  C  C44  1  0.75712000  0.59060000  0.41370000  1.0
  C  C45  1  0.24289000  0.40941000  0.58630000  1.0
  C  C46  1  0.74345000  0.44923000  0.32333000  1.0
  C  C47  1  0.25656000  0.55078000  0.67667000  1.0
  C  C48  1  0.74123000  0.35704000  0.46447000  1.0
  C  C49  1  0.25877000  0.64296000  0.53553000  1.0
  C  C50  1  0.74045000  0.23492000  0.49202000  1.0
  C  C51  1  0.25955000  0.76508000  0.50798000  1.0
  C  C52  1  0.85805000  0.11064000  0.91083000  1.0
  C  C53  1  0.14195000  0.88936000  0.08916000  1.0
  C  C54  1  0.15223000  0.31059000  0.97399000  1.0
  C  C55  1  0.84777000  0.68941000  0.02601000  1.0
  C  C56  1  0.23948000  0.36433000  0.88402000  1.0
  C  C57  1  0.76052000  0.63567000  0.11598000  1.0
  S  S58  1  0.69139000  0.22470000  0.97284000  1.0
  S  S59  1  0.30861000  0.77530000  0.02716000  1.0
  S  S60  1  0.79494000  0.92973000  0.84303000  1.0
  S  S61  1  0.20506000  0.07027000  0.15697000  1.0
  N  N62  1  0.74416000  0.10365000  0.40001000  1.0
  N  N63  1  0.25584000  0.89635000  0.59999000  1.0
  N  N64  1  0.73608000  0.33578000  0.34678000  1.0
  N  N65  1  0.26393000  0.66423000  0.65322000  1.0
  O  O66  1  0.06198000  0.15936000  0.91061000  1.0
  O  O67  1  0.93802000  0.84064000  0.08939000  1.0
