# generated using pymatgen
data_Al6H39C80(ClO10)3
_symmetry_space_group_name_H-M   'P 1'
_cell_length_a   12.24230000
_cell_length_b   12.30252477
_cell_length_c   28.02590000
_cell_angle_alpha   89.36020707
_cell_angle_beta   89.32750000
_cell_angle_gamma   62.05760918
_symmetry_Int_Tables_number   1
_chemical_formula_structural   Al6H39C80(ClO10)3
_chemical_formula_sum   'Al6 H39 C80 Cl3 O30'
_cell_volume   3728.59153595
_cell_formula_units_Z   1
loop_
 _symmetry_equiv_pos_site_id
 _symmetry_equiv_pos_as_xyz
  1  'x, y, z'
loop_
 _atom_site_type_symbol
 _atom_site_label
 _atom_site_symmetry_multiplicity
 _atom_site_fract_x
 _atom_site_fract_y
 _atom_site_fract_z
 _atom_site_occupancy
  Al  Al0  1  0.59837000  0.59101000  0.49560000  1.0
  Al  Al1  1  0.33914000  0.58607000  0.49764000  1.0
  Al  Al2  1  0.57238000  0.34365000  0.49782000  1.0
  Al  Al3  1  0.08055000  0.07135000  0.98190000  1.0
  Al  Al4  1  0.08276000  0.33124000  0.98139000  1.0
  Al  Al5  1  0.32715000  0.10098000  0.98214000  1.0
  H  H6  1  0.52511000  0.75703000  0.19326000  1.0
  H  H7  1  0.13178000  0.99410000  0.20178000  1.0
  H  H8  1  0.13763000  0.95878000  0.28990000  1.0
  H  H9  1  0.22276000  0.55991000  0.62641000  1.0
  H  H10  1  0.52861000  0.23851000  0.78343000  1.0
  H  H11  1  0.49638000  0.22218000  0.87021000  1.0
  H  H12  1  0.21230000  0.53157000  0.71410000  1.0
  H  H13  1  0.13367000  0.42306000  0.76332000  1.0
  H  H14  1  0.10287000  0.41446000  0.85071000  1.0
  H  H15  1  0.49922000  0.18159000  0.61433000  1.0
  H  H16  1  0.70232000  0.22133000  0.63000000  1.0
  H  H17  1  0.80074000  0.51859000  0.77466000  1.0
  H  H18  1  0.86001000  0.49267000  0.86037000  1.0
  H  H19  1  0.75601000  0.20206000  0.71595000  1.0
  H  H20  1  0.91300000  0.13071000  0.76633000  1.0
  H  H21  1  0.96441000  0.10801000  0.85282000  1.0
  H  H22  1  0.87283000  0.48091000  0.69830000  1.0
  H  H23  1  0.81058000  0.50463000  0.61277000  1.0
  H  H24  1  0.55544000  0.72867000  0.62263000  1.0
  H  H25  1  0.27875000  0.18726000  0.20624000  1.0
  H  H26  1  0.21068000  0.77478000  0.78595000  1.0
  H  H27  1  0.19221000  0.84184000  0.87043000  1.0
  H  H28  1  0.53497000  0.78037000  0.70908000  1.0
  H  H29  1  0.44929000  0.93858000  0.75787000  1.0
  H  H30  1  0.15797000  0.84280000  0.70761000  1.0
  H  H31  1  0.18168000  0.78626000  0.62158000  1.0
  H  H32  1  0.29399000  0.20264000  0.29413000  1.0
  H  H33  1  0.99732000  0.30979000  0.29558000  1.0
  H  H34  1  0.03025000  0.31101000  0.20789000  1.0
  H  H35  1  0.67499000  0.32784000  0.18418000  1.0
  H  H36  1  0.64219000  0.32688000  0.27191000  1.0
  H  H37  1  0.63140000  0.87222000  0.82961000  1.0
  H  H38  1  0.57735000  0.88353000  0.89048000  1.0
  H  H39  1  0.61167000  0.99945000  0.86606000  1.0
  H  H40  1  0.68700000  0.70924000  0.24532000  1.0
  H  H41  1  0.65383000  0.58358000  0.23461000  1.0
  H  H42  1  0.73051000  0.58663000  0.28829000  1.0
  H  H43  1  0.68871000  0.70865000  0.46580000  1.0
  H  H44  1  0.98273000  0.96112000  0.01225000  1.0
  C  C45  1  0.38048000  0.72699000  0.42946000  1.0
  C  C46  1  0.29913000  0.25710000  0.22118000  1.0
  C  C47  1  0.30771000  0.26548000  0.27012000  1.0
  C  C48  1  0.33514000  0.35472000  0.28980000  1.0
  C  C49  1  0.31743000  0.33772000  0.18977000  1.0
  C  C50  1  0.30586000  0.32892000  0.13996000  1.0
  C  C51  1  0.34434000  0.36446000  0.33970000  1.0
  C  C52  1  0.29354000  0.31797000  0.09748000  1.0
  C  C53  1  0.77054000  0.33719000  0.38179000  1.0
  C  C54  1  0.92763000  0.31274000  0.27101000  1.0
  C  C55  1  0.94577000  0.31381000  0.22210000  1.0
  C  C56  1  0.38038000  0.39717000  0.43020000  1.0
  C  C57  1  0.74553000  0.32299000  0.20873000  1.0
  C  C58  1  0.72752000  0.32184000  0.25764000  1.0
  C  C59  1  0.81789000  0.31736000  0.28956000  1.0
  C  C60  1  0.85495000  0.31906000  0.19018000  1.0
  C  C61  1  0.87546000  0.31757000  0.14038000  1.0
  C  C62  1  0.79483000  0.32443000  0.33929000  1.0
  C  C63  1  0.89643000  0.31258000  0.09764000  1.0
  C  C64  1  0.34992000  0.78340000  0.38307000  1.0
  C  C65  1  0.44473000  0.78099000  0.26409000  1.0
  C  C66  1  0.44165000  0.80114000  0.21497000  1.0
  C  C67  1  0.71943000  0.37269000  0.42904000  1.0
  C  C68  1  0.21863000  0.93564000  0.21962000  1.0
  C  C69  1  0.22211000  0.91600000  0.26855000  1.0
  C  C70  1  0.33374000  0.83905000  0.29176000  1.0
  C  C71  1  0.32877000  0.87777000  0.19245000  1.0
  C  C72  1  0.32556000  0.89637000  0.14247000  1.0
  C  C73  1  0.33881000  0.81302000  0.34104000  1.0
  C  C74  1  0.31983000  0.91451000  0.09950000  1.0
  C  C75  1  0.36044000  0.37223000  0.61477000  1.0
  C  C76  1  0.27838000  0.47054000  0.64304000  1.0
  C  C77  1  0.27303000  0.45395000  0.69191000  1.0
  C  C78  1  0.38956000  0.71389000  0.56664000  1.0
  C  C79  1  0.34706000  0.34043000  0.71470000  1.0
  C  C80  1  0.42792000  0.24264000  0.68521000  1.0
  C  C81  1  0.43510000  0.25805000  0.63617000  1.0
  C  C82  1  0.43509000  0.27625000  0.79783000  1.0
  C  C83  1  0.41750000  0.26819000  0.84658000  1.0
  C  C84  1  0.19575000  0.37721000  0.83566000  1.0
  C  C85  1  0.21357000  0.38226000  0.78680000  1.0
  C  C86  1  0.33339000  0.33123000  0.76695000  1.0
  C  C87  1  0.29785000  0.31802000  0.86589000  1.0
  C  C88  1  0.75434000  0.36342000  0.61632000  1.0
  C  C89  1  0.37840000  0.39344000  0.56369000  1.0
  C  C90  1  0.74040000  0.27717000  0.64534000  1.0
  C  C91  1  0.77145000  0.26628000  0.69329000  1.0
  C  C92  1  0.81901000  0.33966000  0.71336000  1.0
  C  C93  1  0.83364000  0.42510000  0.68368000  1.0
  C  C94  1  0.80087000  0.43774000  0.63587000  1.0
  C  C95  1  0.83868000  0.42786000  0.79140000  1.0
  C  C96  1  0.87013000  0.41431000  0.83943000  1.0
  C  C97  1  0.92793000  0.19735000  0.83511000  1.0
  C  C98  1  0.89807000  0.21103000  0.78706000  1.0
  C  C99  1  0.85222000  0.32651000  0.76429000  1.0
  C  C100  1  0.71105000  0.38346000  0.56619000  1.0
  C  C101  1  0.91438000  0.29896000  0.86168000  1.0
  C  C102  1  0.36984000  0.75481000  0.61707000  1.0
  C  C103  1  0.46896000  0.75437000  0.64181000  1.0
  C  C104  1  0.45649000  0.78390000  0.68986000  1.0
  C  C105  1  0.34484000  0.81570000  0.71453000  1.0
  C  C106  1  0.24600000  0.81590000  0.68934000  1.0
  C  C107  1  0.25827000  0.78565000  0.64120000  1.0
  C  C108  1  0.25972000  0.82401000  0.79783000  1.0
  C  C109  1  0.25082000  0.85918000  0.84520000  1.0
  C  C110  1  0.39063000  0.94396000  0.82999000  1.0
  C  C111  1  0.35358000  0.37482000  0.38246000  1.0
  C  C112  1  0.39685000  0.91084000  0.78227000  1.0
  C  C113  1  0.33322000  0.84982000  0.76531000  1.0
  C  C114  1  0.31649000  0.91847000  0.86253000  1.0
  C  C115  1  0.94455000  0.28731000  0.04963000  1.0
  C  C116  1  0.27222000  0.29103000  0.04964000  1.0
  C  C117  1  0.29198000  0.95769000  0.05107000  1.0
  C  C118  1  0.95551000  0.27843000  0.91209000  1.0
  C  C119  1  0.27511000  0.29696000  0.91638000  1.0
  C  C120  1  0.29417000  0.96199000  0.91267000  1.0
  C  C121  1  0.35528000  0.43518000  0.25859000  1.0
  C  C122  1  0.34664000  0.42671000  0.20903000  1.0
  C  C123  1  0.57516000  0.93570000  0.85807000  1.0
  C  C124  1  0.66118000  0.64309000  0.26204000  1.0
  Cl  Cl125  1  0.39142000  0.54184000  0.28225000  1.0
  Cl  Cl126  1  0.52134000  0.09671000  0.70841000  1.0
  Cl  Cl127  1  0.37187000  0.52322000  0.17115000  1.0
  O  O128  1  0.69451000  0.47946000  0.44213000  1.0
  O  O129  1  0.30214000  0.49604000  0.54487000  1.0
  O  O130  1  0.47382000  0.31102000  0.54221000  1.0
  O  O131  1  0.68133000  0.30444000  0.54840000  1.0
  O  O132  1  0.50188000  0.50547000  0.49653000  1.0
  O  O133  1  0.18687000  0.97915000  0.03607000  1.0
  O  O134  1  0.96906000  0.18381000  0.03276000  1.0
  O  O135  1  0.96375000  0.37126000  0.02895000  1.0
  O  O136  1  0.17186000  0.36689000  0.02957000  1.0
  O  O137  1  0.35362000  0.18903000  0.03238000  1.0
  O  O138  1  0.37354000  0.97599000  0.02772000  1.0
  O  O139  1  0.48772000  0.69718000  0.44461000  1.0
  O  O140  1  0.19705000  0.97186000  0.93281000  1.0
  O  O141  1  0.98164000  0.17507000  0.93043000  1.0
  O  O142  1  0.96662000  0.36550000  0.93339000  1.0
  O  O143  1  0.16956000  0.37043000  0.93451000  1.0
  O  O144  1  0.35772000  0.20254000  0.93813000  1.0
  O  O145  1  0.37228000  0.99027000  0.93240000  1.0
  O  O146  1  0.16445000  0.16943000  0.98262000  1.0
  O  O147  1  0.29775000  0.70685000  0.45107000  1.0
  O  O148  1  0.30375000  0.49808000  0.44964000  1.0
  O  O149  1  0.48242000  0.31689000  0.44791000  1.0
  O  O150  1  0.69866000  0.29381000  0.45300000  1.0
  O  O151  1  0.70137000  0.47831000  0.54470000  1.0
  O  O152  1  0.49166000  0.69085000  0.54729000  1.0
  O  O153  1  0.30275000  0.69953000  0.54634000  1.0
  O  O154  1  0.45068000  0.00986000  0.84233000  1.0
  O  O155  1  0.54788000  0.70560000  0.28847000  1.0
  O  O156  1  0.68818000  0.66770000  0.49537000  1.0
  O  O157  1  0.00355000  0.98190000  0.98129000  1.0
