# generated using pymatgen
data_Dy2H20C12O19
_symmetry_space_group_name_H-M   'P 1'
_cell_length_a   8.82067000
_cell_length_b   9.72761000
_cell_length_c   15.04340000
_cell_angle_alpha   90.00000000
_cell_angle_beta   90.00000000
_cell_angle_gamma   116.96100000
_symmetry_Int_Tables_number   1
_chemical_formula_structural   Dy2H20C12O19
_chemical_formula_sum   'Dy4 H40 C24 O38'
_cell_volume   1150.49598955
_cell_formula_units_Z   2
loop_
 _symmetry_equiv_pos_site_id
 _symmetry_equiv_pos_as_xyz
  1  'x, y, z'
loop_
 _atom_site_type_symbol
 _atom_site_label
 _atom_site_symmetry_multiplicity
 _atom_site_fract_x
 _atom_site_fract_y
 _atom_site_fract_z
 _atom_site_occupancy
  Dy  Dy0  1  0.61856000  0.23738000  0.99998000  1.0
  Dy  Dy1  1  0.38144000  0.76262000  0.49998000  1.0
  Dy  Dy2  1  0.99659000  0.99998000  0.75003000  1.0
  Dy  Dy3  1  0.00341000  0.00002000  0.25003000  1.0
  H  H4  1  0.74970000  0.61479000  0.87635000  1.0
  H  H5  1  0.25029000  0.38521000  0.37635000  1.0
  H  H6  1  0.13506000  0.38557000  0.62358000  1.0
  H  H7  1  0.86494000  0.61443000  0.12358000  1.0
  H  H8  1  0.89341000  0.58891000  0.80266000  1.0
  H  H9  1  0.10659000  0.41109000  0.30266000  1.0
  H  H10  1  0.30451000  0.41115000  0.69728000  1.0
  H  H11  1  0.69549000  0.58885000  0.19728000  1.0
  H  H12  1  0.59773000  0.36640000  0.72407000  1.0
  H  H13  1  0.40227000  0.63360000  0.22407000  1.0
  H  H14  1  0.23205000  0.63393000  0.77594000  1.0
  H  H15  1  0.76796000  0.36607000  0.27594000  1.0
  H  H16  1  0.52623000  0.46190000  0.80241000  1.0
  H  H17  1  0.47376000  0.53810000  0.30241000  1.0
  H  H18  1  0.06488000  0.53838000  0.69770000  1.0
  H  H19  1  0.93512000  0.46162000  0.19770000  1.0
  H  H20  1  0.40368000  0.82911000  0.88162000  1.0
  H  H21  1  0.59632000  0.17090000  0.38162000  1.0
  H  H22  1  0.57456000  0.17088000  0.61831000  1.0
  H  H23  1  0.42544000  0.82913000  0.11831000  1.0
  H  H24  1  0.51557000  0.76619000  0.95958000  1.0
  H  H25  1  0.48443000  0.23381000  0.45958000  1.0
  H  H26  1  0.74958000  0.23383000  0.54050000  1.0
  H  H27  1  0.25042000  0.76617000  0.04050000  1.0
  H  H28  1  0.19229000  0.14621000  0.58384000  1.0
  H  H29  1  0.80771000  0.85379000  0.08384000  1.0
  H  H30  1  0.04619000  0.85376000  0.91614000  1.0
  H  H31  1  0.95381000  0.14625000  0.41614000  1.0
  H  H32  1  0.16511000  0.97564000  0.59631000  1.0
  H  H33  1  0.83489000  0.02435000  0.09631000  1.0
  H  H34  1  0.18950000  0.02434000  0.90367000  1.0
  H  H35  1  0.81050000  0.97566000  0.40367000  1.0
  H  H36  1  0.68940000  0.74602000  0.74561000  1.0
  H  H37  1  0.31060000  0.25398000  0.24561000  1.0
  H  H38  1  0.94329000  0.25389000  0.75441000  1.0
  H  H39  1  0.05671000  0.74611000  0.25441000  1.0
  H  H40  1  0.71365000  0.78944000  0.64606000  1.0
  H  H41  1  0.28635000  0.21056000  0.14606000  1.0
  H  H42  1  0.92416000  0.21063000  0.85397000  1.0
  H  H43  1  0.07584000  0.78937000  0.35397000  1.0
  C  C44  1  0.92915000  0.56016000  0.94263000  1.0
  C  C45  1  0.07084000  0.43983000  0.44263000  1.0
  C  C46  1  0.36902000  0.43984000  0.55729000  1.0
  C  C47  1  0.63098000  0.56016000  0.05729000  1.0
  C  C48  1  0.81650000  0.54446000  0.86308000  1.0
  C  C49  1  0.18350000  0.45554000  0.36308000  1.0
  C  C50  1  0.27221000  0.45570000  0.63686000  1.0
  C  C51  1  0.72779000  0.54430000  0.13686000  1.0
  C  C52  1  0.56084000  0.36680000  0.79401000  1.0
  C  C53  1  0.43917000  0.63320000  0.29401000  1.0
  C  C54  1  0.19460000  0.63347000  0.70602000  1.0
  C  C55  1  0.80541000  0.36653000  0.20602000  1.0
  C  C56  1  0.40420000  0.21906000  0.81672000  1.0
  C  C57  1  0.59580000  0.78094000  0.31672000  1.0
  C  C58  1  0.18560000  0.78115000  0.68331000  1.0
  C  C59  1  0.81440000  0.21885000  0.18331000  1.0
  C  C60  1  0.50618000  0.86668000  0.93171000  1.0
  C  C61  1  0.49382000  0.13332000  0.43171000  1.0
  C  C62  1  0.63967000  0.13331000  0.56832000  1.0
  C  C63  1  0.36033000  0.86668000  0.06832000  1.0
  C  C64  1  0.67449000  0.97115000  0.88871000  1.0
  C  C65  1  0.32551000  0.02885000  0.38871000  1.0
  C  C66  1  0.70347000  0.02885000  0.61135000  1.0
  C  C67  1  0.29653000  0.97115000  0.11135000  1.0
  O  O68  1  0.89213000  0.44016000  0.99014000  1.0
  O  O69  1  0.10787000  0.55985000  0.49014000  1.0
  O  O70  1  0.45233000  0.55985000  0.50984000  1.0
  O  O71  1  0.54766000  0.44015000  0.00984000  1.0
  O  O72  1  0.04772000  0.69262000  0.95725000  1.0
  O  O73  1  0.95228000  0.30738000  0.45724000  1.0
  O  O74  1  0.35471000  0.30728000  0.54261000  1.0
  O  O75  1  0.64528000  0.69272000  0.04261000  1.0
  O  O76  1  0.69472000  0.38608000  0.85308000  1.0
  O  O77  1  0.30528000  0.61393000  0.35308000  1.0
  O  O78  1  0.30903000  0.61413000  0.64687000  1.0
  O  O79  1  0.69097000  0.38587000  0.14687000  1.0
  O  O80  1  0.40388000  0.15151000  0.88946000  1.0
  O  O81  1  0.59612000  0.84849000  0.38947000  1.0
  O  O82  1  0.25266000  0.84862000  0.61051000  1.0
  O  O83  1  0.74734000  0.15138000  0.11051000  1.0
  O  O84  1  0.28255000  0.17554000  0.76242000  1.0
  O  O85  1  0.71745000  0.82446000  0.26242000  1.0
  O  O86  1  0.10749000  0.82469000  0.73762000  1.0
  O  O87  1  0.89251000  0.17531000  0.23762000  1.0
  O  O88  1  0.47662000  0.95366000  0.99996000  1.0
  O  O89  1  0.52338000  0.04634000  0.49997000  1.0
  O  O90  1  0.74372000  0.11398000  0.91002000  1.0
  O  O91  1  0.25629000  0.88602000  0.41001000  1.0
  O  O92  1  0.63003000  0.88606000  0.58997000  1.0
  O  O93  1  0.36997000  0.11394000  0.08997000  1.0
  O  O94  1  0.73643000  0.91110000  0.83421000  1.0
  O  O95  1  0.26358000  0.08890000  0.33421000  1.0
  O  O96  1  0.82532000  0.08890000  0.66593000  1.0
  O  O97  1  0.17468000  0.91110000  0.16592000  1.0
  O  O98  1  0.10657000  0.04131000  0.60463000  1.0
  O  O99  1  0.89343000  0.95868000  0.10463000  1.0
  O  O100  1  0.06528000  0.95864000  0.89539000  1.0
  O  O101  1  0.93472000  0.04137000  0.39539000  1.0
  O  O102  1  0.76654000  0.75729000  0.69611000  1.0
  O  O103  1  0.23346000  0.24271000  0.19612000  1.0
  O  O104  1  0.00918000  0.24268000  0.80392000  1.0
  O  O105  1  0.99082000  0.75732000  0.30392000  1.0
