# generated using pymatgen
data_AlH16C17(NO)6
_symmetry_space_group_name_H-M   'P 1'
_cell_length_a   6.62774000
_cell_length_b   20.24670000
_cell_length_c   22.98350000
_cell_angle_alpha   87.37770000
_cell_angle_beta   89.99040000
_cell_angle_gamma   89.98380000
_symmetry_Int_Tables_number   1
_chemical_formula_structural   AlH16C17(NO)6
_chemical_formula_sum   'Al4 H64 C68 N24 O24'
_cell_volume   3080.92296065
_cell_formula_units_Z   4
loop_
 _symmetry_equiv_pos_site_id
 _symmetry_equiv_pos_as_xyz
  1  'x, y, z'
loop_
 _atom_site_type_symbol
 _atom_site_label
 _atom_site_symmetry_multiplicity
 _atom_site_fract_x
 _atom_site_fract_y
 _atom_site_fract_z
 _atom_site_occupancy
  Al  Al0  1  0.20947000  0.24959000  0.75120000  1.0
  Al  Al1  1  0.78837000  0.75025000  0.24917000  1.0
  Al  Al2  1  0.70947000  0.25044000  0.74879000  1.0
  Al  Al3  1  0.28838000  0.74979000  0.25083000  1.0
  H  H4  1  0.57664000  0.65456000  0.43381000  1.0
  H  H5  1  0.70248000  0.68803000  0.37517000  1.0
  H  H6  1  0.29366000  0.31182000  0.62564000  1.0
  H  H7  1  0.43536000  0.36075000  0.58306000  1.0
  H  H8  1  0.07697000  0.84538000  0.06598000  1.0
  H  H9  1  0.20244000  0.81198000  0.12474000  1.0
  H  H10  1  0.79377000  0.18817000  0.87437000  1.0
  H  H11  1  0.93535000  0.13928000  0.91703000  1.0
  H  H12  1  0.37996000  0.61775000  0.33193000  1.0
  H  H13  1  0.45387000  0.53912000  0.36259000  1.0
  H  H14  1  0.54546000  0.46089000  0.63682000  1.0
  H  H15  1  0.62029000  0.38358000  0.66828000  1.0
  H  H16  1  0.95351000  0.96097000  0.13752000  1.0
  H  H17  1  0.87969000  0.88234000  0.16816000  1.0
  H  H18  1  0.04589000  0.03905000  0.86309000  1.0
  H  H19  1  0.12044000  0.11639000  0.83169000  1.0
  H  H20  1  0.16376000  0.46264000  0.32234000  1.0
  H  H21  1  0.18497000  0.37999000  0.35401000  1.0
  H  H22  1  0.37222000  0.41112000  0.30300000  1.0
  H  H23  1  0.63198000  0.57952000  0.70224000  1.0
  H  H24  1  0.83197000  0.52628000  0.67985000  1.0
  H  H25  1  0.83078000  0.61172000  0.65543000  1.0
  H  H26  1  0.66294000  0.03741000  0.17771000  1.0
  H  H27  1  0.68376000  0.12001000  0.14604000  1.0
  H  H28  1  0.87112000  0.08901000  0.19708000  1.0
  H  H29  1  0.13328000  0.92040000  0.79759000  1.0
  H  H30  1  0.33283000  0.97372000  0.82000000  1.0
  H  H31  1  0.33225000  0.88832000  0.84441000  1.0
  H  H32  1  0.37479000  0.32168000  0.50339000  1.0
  H  H33  1  0.47720000  0.35524000  0.43963000  1.0
  H  H34  1  0.55554000  0.64709000  0.57046000  1.0
  H  H35  1  0.67214000  0.68727000  0.51207000  1.0
  H  H36  1  0.87428000  0.17840000  0.99668000  1.0
  H  H37  1  0.97642000  0.14487000  0.06048000  1.0
  H  H38  1  0.05684000  0.85276000  0.92932000  1.0
  H  H39  1  0.17325000  0.81263000  0.98775000  1.0
  H  H40  1  0.36420000  0.57037000  0.92681000  1.0
  H  H41  1  0.23308000  0.63786000  0.94508000  1.0
  H  H42  1  0.66091000  0.41535000  0.07828000  1.0
  H  H43  1  0.77754000  0.35553000  0.04347000  1.0
  H  H44  1  0.86410000  0.92947000  0.57323000  1.0
  H  H45  1  0.73297000  0.86202000  0.55491000  1.0
  H  H46  1  0.16153000  0.08496000  0.42171000  1.0
  H  H47  1  0.27792000  0.14458000  0.45679000  1.0
  H  H48  1  0.79882000  0.61190000  0.90589000  1.0
  H  H49  1  0.85095000  0.54710000  0.86690000  1.0
  H  H50  1  0.10118000  0.42489000  0.12938000  1.0
  H  H51  1  0.32294000  0.44917000  0.10273000  1.0
  H  H52  1  0.29875000  0.88811000  0.59413000  1.0
  H  H53  1  0.35086000  0.95290000  0.63313000  1.0
  H  H54  1  0.60229000  0.07491000  0.37061000  1.0
  H  H55  1  0.82376000  0.05073000  0.39754000  1.0
  H  H56  1  0.32059000  0.40658000  0.93338000  1.0
  H  H57  1  0.46343000  0.43189000  0.98791000  1.0
  H  H58  1  0.53354000  0.56576000  0.01177000  1.0
  H  H59  1  0.67009000  0.58937000  0.06822000  1.0
  H  H60  1  0.82076000  0.09325000  0.56668000  1.0
  H  H61  1  0.96349000  0.06800000  0.51209000  1.0
  H  H62  1  0.03364000  0.93426000  0.48828000  1.0
  H  H63  1  0.17007000  0.91074000  0.43178000  1.0
  H  H64  1  0.46077000  0.32765000  0.77665000  1.0
  H  H65  1  0.53744000  0.67194000  0.22442000  1.0
  H  H66  1  0.96090000  0.17239000  0.72335000  1.0
  H  H67  1  0.03737000  0.82808000  0.27560000  1.0
  C  C68  1  0.45724000  0.17302000  0.67200000  1.0
  C  C69  1  0.54019000  0.82824000  0.32707000  1.0
  C  C70  1  0.95713000  0.32701000  0.82800000  1.0
  C  C71  1  0.04022000  0.67181000  0.17291000  1.0
  C  C72  1  0.46367000  0.16874000  0.83294000  1.0
  C  C73  1  0.53546000  0.83043000  0.16626000  1.0
  C  C74  1  0.96358000  0.33129000  0.66706000  1.0
  C  C75  1  0.03560000  0.66959000  0.33373000  1.0
  C  C76  1  0.86593000  0.62397000  0.42510000  1.0
  C  C77  1  0.13728000  0.37810000  0.57654000  1.0
  C  C78  1  0.36608000  0.87602000  0.07483000  1.0
  C  C79  1  0.63728000  0.12191000  0.92347000  1.0
  C  C80  1  0.03087000  0.62354000  0.38502000  1.0
  C  C81  1  0.96998000  0.37720000  0.61562000  1.0
  C  C82  1  0.53086000  0.87648000  0.11497000  1.0
  C  C83  1  0.47007000  0.12281000  0.88437000  1.0
  C  C84  1  0.18815000  0.57545000  0.39292000  1.0
  C  C85  1  0.81204000  0.42482000  0.60681000  1.0
  C  C86  1  0.68801000  0.92459000  0.10712000  1.0
  C  C87  1  0.31231000  0.07513000  0.89313000  1.0
  C  C88  1  0.15934000  0.52122000  0.43421000  1.0
  C  C89  1  0.84396000  0.47983000  0.56700000  1.0
  C  C90  1  0.65921000  0.97881000  0.06582000  1.0
  C  C91  1  0.34439000  0.02012000  0.93292000  1.0
  C  C92  1  0.00723000  0.52600000  0.47762000  1.0
  C  C93  1  0.99660000  0.47570000  0.52360000  1.0
  C  C94  1  0.50733000  0.97399000  0.02237000  1.0
  C  C95  1  0.49678000  0.02429000  0.97636000  1.0
  C  C96  1  0.86645000  0.58003000  0.47512000  1.0
  C  C97  1  0.13576000  0.42143000  0.52619000  1.0
  C  C98  1  0.36674000  0.91993000  0.02481000  1.0
  C  C99  1  0.63567000  0.07858000  0.97382000  1.0
  C  C100  1  0.27650000  0.46189000  0.43354000  1.0
  C  C101  1  0.72702000  0.53913000  0.56809000  1.0
  C  C102  1  0.77619000  0.03817000  0.06651000  1.0
  C  C103  1  0.22761000  0.96078000  0.93180000  1.0
  C  C104  1  0.26472000  0.41204000  0.47644000  1.0
  C  C105  1  0.73469000  0.58810000  0.52439000  1.0
  C  C106  1  0.76440000  0.08801000  0.02361000  1.0
  C  C107  1  0.23531000  0.91182000  0.97548000  1.0
  C  C108  1  0.90481000  0.53222000  0.95369000  1.0
  C  C109  1  0.09186000  0.46520000  0.04692000  1.0
  C  C110  1  0.40476000  0.96777000  0.54635000  1.0
  C  C111  1  0.59211000  0.03474000  0.45312000  1.0
  C  C112  1  0.12519000  0.54825000  0.97868000  1.0
  C  C113  1  0.87458000  0.44994000  0.02199000  1.0
  C  C114  1  0.62517000  0.95167000  0.52135000  1.0
  C  C115  1  0.37478000  0.05008000  0.47806000  1.0
  C  C116  1  0.04377000  0.62648000  0.12702000  1.0
  C  C117  1  0.95261000  0.37239000  0.87395000  1.0
  C  C118  1  0.54368000  0.87357000  0.37296000  1.0
  C  C119  1  0.45280000  0.12762000  0.62607000  1.0
  C  C120  1  0.82056000  0.52563000  0.01801000  1.0
  C  C121  1  0.17679000  0.47245000  0.98297000  1.0
  C  C122  1  0.32061000  0.97439000  0.48203000  1.0
  C  C123  1  0.67690000  0.02746000  0.51708000  1.0
  C  C124  1  0.03355000  0.54382000  0.04278000  1.0
  C  C125  1  0.96224000  0.45605000  0.95751000  1.0
  C  C126  1  0.53359000  0.95615000  0.45726000  1.0
  C  C127  1  0.46234000  0.04393000  0.54254000  1.0
  C  C128  1  0.05097000  0.58864000  0.08711000  1.0
  C  C129  1  0.94278000  0.41124000  0.91294000  1.0
  C  C130  1  0.55092000  0.91136000  0.41289000  1.0
  C  C131  1  0.44290000  0.08876000  0.58708000  1.0
  C  C132  1  0.26998000  0.42401000  0.33829000  1.0
  C  C133  1  0.73488000  0.56848000  0.66651000  1.0
  C  C134  1  0.76904000  0.07605000  0.16176000  1.0
  C  C135  1  0.23593000  0.93149000  0.83336000  1.0
  N  N136  1  0.71175000  0.66986000  0.41717000  1.0
  N  N137  1  0.30171000  0.33525000  0.58546000  1.0
  N  N138  1  0.21193000  0.83014000  0.08274000  1.0
  N  N139  1  0.80168000  0.16475000  0.91456000  1.0
  N  N140  1  0.36089000  0.57896000  0.36097000  1.0
  N  N141  1  0.63146000  0.41939000  0.63594000  1.0
  N  N142  1  0.86059000  0.92114000  0.13912000  1.0
  N  N143  1  0.13176000  0.08055000  0.86400000  1.0
  N  N144  1  0.35719000  0.35180000  0.46704000  1.0
  N  N145  1  0.61585000  0.64441000  0.53003000  1.0
  N  N146  1  0.85653000  0.14829000  0.03303000  1.0
  N  N147  1  0.11676000  0.85547000  0.96979000  1.0
  N  N148  1  0.27887000  0.59151000  0.95816000  1.0
  N  N149  1  0.72669000  0.40310000  0.04011000  1.0
  N  N150  1  0.77878000  0.90837000  0.54187000  1.0
  N  N151  1  0.22700000  0.09701000  0.45998000  1.0
  N  N152  1  0.79616000  0.56149000  0.90586000  1.0
  N  N153  1  0.18724000  0.42870000  0.09254000  1.0
  N  N154  1  0.29608000  0.93851000  0.59417000  1.0
  N  N155  1  0.68783000  0.07120000  0.40754000  1.0
  N  N156  1  0.35207000  0.44538000  0.95872000  1.0
  N  N157  1  0.64105000  0.55123000  0.04186000  1.0
  N  N158  1  0.85223000  0.05447000  0.54131000  1.0
  N  N159  1  0.14105000  0.94886000  0.45818000  1.0
  O  O160  1  0.63078000  0.18875000  0.80994000  1.0
  O  O161  1  0.36729000  0.81057000  0.18881000  1.0
  O  O162  1  0.13071000  0.31134000  0.69010000  1.0
  O  O163  1  0.86744000  0.68936000  0.31111000  1.0
  O  O164  1  0.28731000  0.19073000  0.69208000  1.0
  O  O165  1  0.71046000  0.80999000  0.30750000  1.0
  O  O166  1  0.78726000  0.30935000  0.80789000  1.0
  O  O167  1  0.21042000  0.68995000  0.19256000  1.0
  O  O168  1  0.29154000  0.18601000  0.81110000  1.0
  O  O169  1  0.70682000  0.81283000  0.18837000  1.0
  O  O170  1  0.79145000  0.31398000  0.68887000  1.0
  O  O171  1  0.20697000  0.68729000  0.31170000  1.0
  O  O172  1  0.12978000  0.30800000  0.81064000  1.0
  O  O173  1  0.86770000  0.69061000  0.19069000  1.0
  O  O174  1  0.62985000  0.19199000  0.68938000  1.0
  O  O175  1  0.36773000  0.80955000  0.30921000  1.0
  O  O176  1  0.45891000  0.29192000  0.74984000  1.0
  O  O177  1  0.53867000  0.70808000  0.25081000  1.0
  O  O178  1  0.95896000  0.20812000  0.75016000  1.0
  O  O179  1  0.03862000  0.79195000  0.24921000  1.0
  O  O180  1  0.39373000  0.44787000  0.38443000  1.0
  O  O181  1  0.61051000  0.55301000  0.61757000  1.0
  O  O182  1  0.89314000  0.05223000  0.11565000  1.0
  O  O183  1  0.11141000  0.94691000  0.88229000  1.0
