# generated using pymatgen
data_Zn3H24C28(NO9)2
_symmetry_space_group_name_H-M   'P 1'
_cell_length_a   6.16660000
_cell_length_b   15.13070000
_cell_length_c   16.56870000
_cell_angle_alpha   94.71870000
_cell_angle_beta   89.99780000
_cell_angle_gamma   101.76100000
_symmetry_Int_Tables_number   1
_chemical_formula_structural   Zn3H24C28(NO9)2
_chemical_formula_sum   'Zn6 H48 C56 N4 O36'
_cell_volume   1508.13560959
_cell_formula_units_Z   2
loop_
 _symmetry_equiv_pos_site_id
 _symmetry_equiv_pos_as_xyz
  1  'x, y, z'
loop_
 _atom_site_type_symbol
 _atom_site_label
 _atom_site_symmetry_multiplicity
 _atom_site_fract_x
 _atom_site_fract_y
 _atom_site_fract_z
 _atom_site_occupancy
  Zn  Zn0  1  0.57193000  0.33849000  0.75559000  1.0
  Zn  Zn1  1  0.23270000  0.66153000  0.74447000  1.0
  Zn  Zn2  1  0.42807000  0.66151000  0.24441000  1.0
  Zn  Zn3  1  0.76730000  0.33847000  0.25553000  1.0
  Zn  Zn4  1  0.37631000  0.99994000  0.24995000  1.0
  Zn  Zn5  1  0.62369000  0.00006000  0.75005000  1.0
  H  H6  1  0.35518000  0.16570000  0.72459000  1.0
  H  H7  1  0.18925000  0.83436000  0.77545000  1.0
  H  H8  1  0.64482000  0.83430000  0.27541000  1.0
  H  H9  1  0.81076000  0.16564000  0.22455000  1.0
  H  H10  1  0.19271000  0.23904000  0.72977000  1.0
  H  H11  1  0.95323000  0.76112000  0.77014000  1.0
  H  H12  1  0.80729000  0.76096000  0.27023000  1.0
  H  H13  1  0.04677000  0.23888000  0.22986000  1.0
  H  H14  1  0.43347000  0.48635000  0.72423000  1.0
  H  H15  1  0.94702000  0.51357000  0.77593000  1.0
  H  H16  1  0.56653000  0.51365000  0.27577000  1.0
  H  H17  1  0.05298000  0.48643000  0.22407000  1.0
  H  H18  1  0.25741000  0.43660000  0.79007000  1.0
  H  H19  1  0.82040000  0.56322000  0.71008000  1.0
  H  H20  1  0.74259000  0.56340000  0.20993000  1.0
  H  H21  1  0.17960000  0.43678000  0.28992000  1.0
  H  H22  1  0.27185000  0.14975000  0.20339000  1.0
  H  H23  1  0.12191000  0.85012000  0.29661000  1.0
  H  H24  1  0.72815000  0.85025000  0.79661000  1.0
  H  H25  1  0.87809000  0.14987000  0.70339000  1.0
  H  H26  1  0.08901000  0.06887000  0.16082000  1.0
  H  H27  1  0.01992000  0.93103000  0.33907000  1.0
  H  H28  1  0.91099000  0.93113000  0.83918000  1.0
  H  H29  1  0.98008000  0.06897000  0.66093000  1.0
  H  H30  1  0.81283000  0.08324000  0.51376000  1.0
  H  H31  1  0.72984000  0.91674000  0.98611000  1.0
  H  H32  1  0.18717000  0.91676000  0.48624000  1.0
  H  H33  1  0.27016000  0.08326000  0.01389000  1.0
  H  H34  1  0.03452000  0.47326000  0.57885000  1.0
  H  H35  1  0.56128000  0.52688000  0.92079000  1.0
  H  H36  1  0.96548000  0.52674000  0.42115000  1.0
  H  H37  1  0.43872000  0.47312000  0.07922000  1.0
  H  H38  1  0.64082000  0.21522000  0.56586000  1.0
  H  H39  1  0.42565000  0.78484000  0.93396000  1.0
  H  H40  1  0.35918000  0.78478000  0.43414000  1.0
  H  H41  1  0.57435000  0.21516000  0.06604000  1.0
  H  H42  1  0.16808000  0.20524000  0.58497000  1.0
  H  H43  1  0.96276000  0.79495000  0.91483000  1.0
  H  H44  1  0.83192000  0.79476000  0.41503000  1.0
  H  H45  1  0.03724000  0.20505000  0.08517000  1.0
  H  H46  1  0.24368000  0.17085000  0.34680000  1.0
  H  H47  1  0.07273000  0.82931000  0.15297000  1.0
  H  H48  1  0.75632000  0.82915000  0.65319000  1.0
  H  H49  1  0.92727000  0.17069000  0.84703000  1.0
  H  H50  1  0.27130000  0.49514000  0.45655000  1.0
  H  H51  1  0.77611000  0.50495000  0.04307000  1.0
  H  H52  1  0.72870000  0.50486000  0.54345000  1.0
  H  H53  1  0.22389000  0.49505000  0.95693000  1.0
  C  C54  1  0.92559000  0.32097000  0.65741000  1.0
  C  C55  1  0.60439000  0.67921000  0.84240000  1.0
  C  C56  1  0.07441000  0.67903000  0.34259000  1.0
  C  C57  1  0.39561000  0.32079000  0.15760000  1.0
  C  C58  1  0.61349000  0.05931000  0.40517000  1.0
  C  C59  1  0.55440000  0.94069000  0.09470000  1.0
  C  C60  1  0.38650000  0.94069000  0.59482000  1.0
  C  C61  1  0.44560000  0.05931000  0.90530000  1.0
  C  C62  1  0.08170000  0.33734000  0.58867000  1.0
  C  C63  1  0.74432000  0.66282000  0.91106000  1.0
  C  C64  1  0.91831000  0.66266000  0.41134000  1.0
  C  C65  1  0.25568000  0.33718000  0.08894000  1.0
  C  C66  1  0.68619000  0.10572000  0.47949000  1.0
  C  C67  1  0.58067000  0.89429000  0.02038000  1.0
  C  C68  1  0.31381000  0.89428000  0.52051000  1.0
  C  C69  1  0.41933000  0.10571000  0.97962000  1.0
  C  C70  1  0.70121000  0.97753000  0.37287000  1.0
  C  C71  1  0.72396000  0.02243000  0.12704000  1.0
  C  C72  1  0.29879000  0.02247000  0.62713000  1.0
  C  C73  1  0.27604000  0.97757000  0.87296000  1.0
  C  C74  1  0.11260000  0.41947000  0.55282000  1.0
  C  C75  1  0.69315000  0.58066000  0.94684000  1.0
  C  C76  1  0.88740000  0.58053000  0.44718000  1.0
  C  C77  1  0.30685000  0.41934000  0.05316000  1.0
  C  C78  1  0.59164000  0.17841000  0.50739000  1.0
  C  C79  1  0.41330000  0.82165000  0.99244000  1.0
  C  C80  1  0.40836000  0.82159000  0.49261000  1.0
  C  C81  1  0.58669000  0.17835000  0.00756000  1.0
  C  C82  1  0.19171000  0.26975000  0.55787000  1.0
  C  C83  1  0.92193000  0.73041000  0.94189000  1.0
  C  C84  1  0.80829000  0.73025000  0.44214000  1.0
  C  C85  1  0.07807000  0.26959000  0.05811000  1.0
  C  C86  1  0.43245000  0.20514000  0.45996000  1.0
  C  C87  1  0.22725000  0.79497000  0.03982000  1.0
  C  C88  1  0.56755000  0.79486000  0.54004000  1.0
  C  C89  1  0.77276000  0.20503000  0.96018000  1.0
  C  C90  1  0.32549000  0.28115000  0.48951000  1.0
  C  C91  1  0.04426000  0.71900000  0.01024000  1.0
  C  C92  1  0.67451000  0.71885000  0.51048000  1.0
  C  C93  1  0.95575000  0.28100000  0.98976000  1.0
  C  C94  1  0.36991000  0.15462000  0.38586000  1.0
  C  C95  1  0.21528000  0.84548000  0.11393000  1.0
  C  C96  1  0.63009000  0.84538000  0.61414000  1.0
  C  C97  1  0.78472000  0.15452000  0.88607000  1.0
  C  C98  1  0.34781000  0.36289000  0.45182000  1.0
  C  C99  1  0.98484000  0.63722000  0.04791000  1.0
  C  C100  1  0.65219000  0.63711000  0.54818000  1.0
  C  C101  1  0.01516000  0.36278000  0.95209000  1.0
  C  C102  1  0.24390000  0.43151000  0.48506000  1.0
  C  C103  1  0.81237000  0.56860000  0.01461000  1.0
  C  C104  1  0.75610000  0.56849000  0.51494000  1.0
  C  C105  1  0.18763000  0.43140000  0.98539000  1.0
  C  C106  1  0.48200000  0.38252000  0.37769000  1.0
  C  C107  1  0.09925000  0.61761000  0.12208000  1.0
  C  C108  1  0.51799000  0.61748000  0.62231000  1.0
  C  C109  1  0.90076000  0.38239000  0.87792000  1.0
  N  N110  1  0.45757000  0.08372000  0.35977000  1.0
  N  N111  1  0.37398000  0.91630000  0.14007000  1.0
  N  N112  1  0.54243000  0.91628000  0.64023000  1.0
  N  N113  1  0.62601000  0.08370000  0.85992000  1.0
  O  O114  1  0.76760000  0.36500000  0.66177000  1.0
  O  O115  1  0.40233000  0.63522000  0.83820000  1.0
  O  O116  1  0.23240000  0.63499000  0.33824000  1.0
  O  O117  1  0.59768000  0.36478000  0.16180000  1.0
  O  O118  1  0.33723000  0.22748000  0.74913000  1.0
  O  O119  1  0.10943000  0.77261000  0.75088000  1.0
  O  O120  1  0.66277000  0.77252000  0.25087000  1.0
  O  O121  1  0.89057000  0.22739000  0.24912000  1.0
  O  O122  1  0.86667000  0.96044000  0.40835000  1.0
  O  O123  1  0.90653000  0.03954000  0.09156000  1.0
  O  O124  1  0.13333000  0.03956000  0.59165000  1.0
  O  O125  1  0.09347000  0.96046000  0.90844000  1.0
  O  O126  1  0.38484000  0.43113000  0.75428000  1.0
  O  O127  1  0.95331000  0.56878000  0.74589000  1.0
  O  O128  1  0.61516000  0.56887000  0.24572000  1.0
  O  O129  1  0.04669000  0.43122000  0.25411000  1.0
  O  O130  1  0.19453000  0.08680000  0.20875000  1.0
  O  O131  1  0.10756000  0.91305000  0.29117000  1.0
  O  O132  1  0.80547000  0.91320000  0.79125000  1.0
  O  O133  1  0.89244000  0.08695000  0.70883000  1.0
  O  O134  1  0.94732000  0.26398000  0.70735000  1.0
  O  O135  1  0.68289000  0.73619000  0.79240000  1.0
  O  O136  1  0.05268000  0.73602000  0.29265000  1.0
  O  O137  1  0.31711000  0.26381000  0.20760000  1.0
  O  O138  1  0.59902000  0.93071000  0.31090000  1.0
  O  O139  1  0.66860000  0.06923000  0.18903000  1.0
  O  O140  1  0.40097000  0.06929000  0.68910000  1.0
  O  O141  1  0.33140000  0.93077000  0.81097000  1.0
  O  O142  1  0.42803000  0.43806000  0.33178000  1.0
  O  O143  1  0.98975000  0.56200000  0.16795000  1.0
  O  O144  1  0.57196000  0.56194000  0.66822000  1.0
  O  O145  1  0.01025000  0.43800000  0.83206000  1.0
  O  O146  1  0.64539000  0.34310000  0.36532000  1.0
  O  O147  1  0.30197000  0.65712000  0.13457000  1.0
  O  O148  1  0.35461000  0.65690000  0.63468000  1.0
  O  O149  1  0.69803000  0.34288000  0.86543000  1.0
