# generated using pymatgen
data_Cu2H10C15NO8
_symmetry_space_group_name_H-M   'P 1'
_cell_length_a   8.18917000
_cell_length_b   10.08990000
_cell_length_c   10.83820000
_cell_angle_alpha   63.02080000
_cell_angle_beta   72.91310000
_cell_angle_gamma   75.34900000
_symmetry_Int_Tables_number   1
_chemical_formula_structural   Cu2H10C15NO8
_chemical_formula_sum   'Cu4 H20 C30 N2 O16'
_cell_volume   755.28989831
_cell_formula_units_Z   2
loop_
 _symmetry_equiv_pos_site_id
 _symmetry_equiv_pos_as_xyz
  1  'x, y, z'
loop_
 _atom_site_type_symbol
 _atom_site_label
 _atom_site_symmetry_multiplicity
 _atom_site_fract_x
 _atom_site_fract_y
 _atom_site_fract_z
 _atom_site_occupancy
  Cu  Cu0  1  0.00560000  0.63724000  0.85552000  1.0
  Cu  Cu1  1  0.99440000  0.36276000  0.14448000  1.0
  Cu  Cu2  1  0.18284000  0.30633000  0.84341000  1.0
  Cu  Cu3  1  0.81716000  0.69366000  0.15659000  1.0
  H  H4  1  0.04661000  0.89961000  0.42952000  1.0
  H  H5  1  0.95339000  0.10038000  0.57049000  1.0
  H  H6  1  0.25516000  0.85794000  0.03160000  1.0
  H  H7  1  0.74485000  0.14207000  0.96840000  1.0
  H  H8  1  0.23002000  0.46281000  0.42378000  1.0
  H  H9  1  0.76996000  0.53720000  0.57621000  1.0
  H  H10  1  0.43315000  0.38222000  0.11028000  1.0
  H  H11  1  0.56684000  0.61778000  0.88973000  1.0
  H  H12  1  0.37563000  0.35969000  0.28869000  1.0
  H  H13  1  0.62437000  0.64031000  0.71130000  1.0
  H  H14  1  0.16674000  0.01900000  0.84982000  1.0
  H  H15  1  0.83326000  0.98101000  0.15017000  1.0
  H  H16  1  0.28157000  0.88176000  0.69635000  1.0
  H  H17  1  0.71843000  0.11824000  0.30365000  1.0
  H  H18  1  0.63013000  0.21460000  0.43958000  1.0
  H  H19  1  0.36987000  0.78541000  0.56042000  1.0
  H  H20  1  0.49763000  0.33564000  0.60635000  1.0
  H  H21  1  0.50237000  0.66436000  0.39365000  1.0
  H  H22  1  0.88345000  0.40732000  0.93306000  1.0
  H  H23  1  0.11656000  0.59267000  0.06695000  1.0
  C  C24  1  0.13488000  0.67423000  0.44069000  1.0
  C  C25  1  0.86511000  0.32577000  0.55931000  1.0
  C  C26  1  0.10285000  0.83056000  0.36998000  1.0
  C  C27  1  0.89715000  0.16944000  0.63002000  1.0
  C  C28  1  0.14744000  0.89724000  0.22177000  1.0
  C  C29  1  0.85258000  0.10276000  0.77823000  1.0
  C  C30  1  0.21791000  0.80748000  0.14632000  1.0
  C  C31  1  0.78209000  0.19252000  0.85368000  1.0
  C  C32  1  0.24469000  0.65157000  0.21780000  1.0
  C  C33  1  0.75531000  0.34843000  0.78220000  1.0
  C  C34  1  0.20723000  0.58401000  0.36517000  1.0
  C  C35  1  0.79276000  0.41600000  0.63483000  1.0
  C  C36  1  0.09905000  0.59897000  0.59919000  1.0
  C  C37  1  0.90094000  0.40103000  0.40081000  1.0
  C  C38  1  0.11890000  0.06481000  0.14042000  1.0
  C  C39  1  0.88110000  0.93519000  0.85958000  1.0
  C  C40  1  0.42243000  0.43796000  0.17952000  1.0
  C  C41  1  0.57757000  0.56204000  0.82048000  1.0
  C  C42  1  0.60003000  0.47505000  0.16418000  1.0
  C  C43  1  0.39997000  0.52496000  0.83582000  1.0
  C  C44  1  0.26893000  0.05792000  0.75693000  1.0
  C  C45  1  0.73108000  0.94208000  0.24308000  1.0
  C  C46  1  0.33397000  0.98294000  0.66869000  1.0
  C  C47  1  0.66605000  0.01705000  0.33131000  1.0
  C  C48  1  0.46533000  0.03733000  0.54940000  1.0
  C  C49  1  0.53469000  0.96266000  0.45061000  1.0
  C  C50  1  0.52736000  0.16551000  0.52876000  1.0
  C  C51  1  0.47265000  0.83449000  0.47124000  1.0
  C  C52  1  0.45390000  0.23501000  0.62140000  1.0
  C  C53  1  0.54610000  0.76499000  0.37860000  1.0
  N  N54  1  0.32511000  0.18312000  0.73352000  1.0
  N  N55  1  0.67489000  0.81688000  0.26648000  1.0
  O  O56  1  0.06301000  0.14434000  0.21151000  1.0
  O  O57  1  0.93700000  0.85565000  0.78850000  1.0
  O  O58  1  0.15113000  0.11100000  0.00614000  1.0
  O  O59  1  0.84888000  0.88900000  0.99386000  1.0
  O  O60  1  0.71289000  0.36024000  0.20320000  1.0
  O  O61  1  0.28711000  0.63977000  0.79680000  1.0
  O  O62  1  0.61893000  0.61151000  0.11392000  1.0
  O  O63  1  0.38106000  0.38850000  0.88608000  1.0
  O  O64  1  0.18621000  0.47012000  0.65128000  1.0
  O  O65  1  0.81377000  0.52987000  0.34872000  1.0
  O  O66  1  0.98828000  0.66985000  0.66666667  1.0
  O  O67  1  0.01172000  0.33015000  0.33337000  1.0
  O  O68  1  0.99746000  0.41496000  0.94254000  1.0
  O  O69  1  0.00255000  0.58506000  0.05744000  1.0
  O  O70  1  0.29990000  0.57165000  0.13451000  1.0
  O  O71  1  0.70011000  0.42836000  0.86549000  1.0
