# generated using pymatgen
data_CdH12C13(NO)2
_symmetry_space_group_name_H-M   'P 1'
_cell_length_a   10.74400000
_cell_length_b   18.29310000
_cell_length_c   18.29296746
_cell_angle_alpha   85.05541992
_cell_angle_beta   72.92325127
_cell_angle_gamma   72.92080000
_symmetry_Int_Tables_number   1
_chemical_formula_structural   CdH12C13(NO)2
_chemical_formula_sum   'Cd8 H96 C104 N16 O16'
_cell_volume   3285.24547138
_cell_formula_units_Z   8
loop_
 _symmetry_equiv_pos_site_id
 _symmetry_equiv_pos_as_xyz
  1  'x, y, z'
loop_
 _atom_site_type_symbol
 _atom_site_label
 _atom_site_symmetry_multiplicity
 _atom_site_fract_x
 _atom_site_fract_y
 _atom_site_fract_z
 _atom_site_occupancy
  Cd  Cd0  1  0.25648000  0.33064000  0.22490000  1.0
  Cd  Cd1  1  0.48138000  0.27508000  0.33063000  1.0
  Cd  Cd2  1  0.81202000  0.16936000  0.27510000  1.0
  Cd  Cd3  1  0.08714000  0.22493000  0.16935000  1.0
  Cd  Cd4  1  0.74352000  0.66936000  0.77510000  1.0
  Cd  Cd5  1  0.51862000  0.72492000  0.66937000  1.0
  Cd  Cd6  1  0.18798000  0.83064000  0.72490000  1.0
  Cd  Cd7  1  0.91286000  0.77507000  0.83065000  1.0
  H  H8  1  0.81795000  0.10193000  0.11448000  1.0
  H  H9  1  0.93256000  0.38546000  0.10187000  1.0
  H  H10  1  0.03446000  0.39807000  0.38551000  1.0
  H  H11  1  0.41983000  0.11457000  0.39804000  1.0
  H  H12  1  0.18206000  0.89807000  0.88551000  1.0
  H  H13  1  0.06744000  0.61454000  0.89813000  1.0
  H  H14  1  0.96554000  0.60192000  0.61449000  1.0
  H  H15  1  0.58017000  0.88543000  0.60196000  1.0
  H  H16  1  0.90078000  0.05570000  0.98004000  1.0
  H  H17  1  0.88098000  0.51994000  0.05572000  1.0
  H  H18  1  0.93666000  0.44427000  0.51998000  1.0
  H  H19  1  0.45653000  0.98012000  0.44430000  1.0
  H  H20  1  0.09922000  0.94430000  0.01996000  1.0
  H  H21  1  0.11902000  0.48006000  0.94428000  1.0
  H  H22  1  0.06334000  0.55573000  0.48002000  1.0
  H  H23  1  0.54347000  0.01988000  0.55570000  1.0
  H  H24  1  0.53695000  0.20424000  0.93590000  1.0
  H  H25  1  0.47301000  0.56408000  0.20423000  1.0
  H  H26  1  0.67714000  0.29581000  0.56404000  1.0
  H  H27  1  0.24133000  0.93586000  0.29578000  1.0
  H  H28  1  0.46305000  0.79576000  0.06410000  1.0
  H  H29  1  0.52699000  0.43592000  0.79577000  1.0
  H  H30  1  0.32286000  0.70419000  0.43596000  1.0
  H  H31  1  0.75867000  0.06414000  0.70422000  1.0
  H  H32  1  0.45735000  0.25228000  0.06880000  1.0
  H  H33  1  0.52625000  0.43115000  0.25218000  1.0
  H  H34  1  0.77840000  0.24782000  0.43114000  1.0
  H  H35  1  0.20964000  0.06877000  0.24773000  1.0
  H  H36  1  0.54265000  0.74772000  0.93120000  1.0
  H  H37  1  0.47375000  0.56885000  0.74782000  1.0
  H  H38  1  0.22160000  0.75218000  0.56886000  1.0
  H  H39  1  0.79036000  0.93123000  0.75227000  1.0
  H  H40  1  0.68775000  0.11603000  0.84255000  1.0
  H  H41  1  0.53050000  0.65743000  0.11605000  1.0
  H  H42  1  0.64637000  0.38401000  0.65743000  1.0
  H  H43  1  0.30398000  0.84259000  0.38396000  1.0
  H  H44  1  0.31225000  0.88397000  0.15745000  1.0
  H  H45  1  0.46950000  0.34257000  0.88395000  1.0
  H  H46  1  0.35362000  0.61599000  0.34257000  1.0
  H  H47  1  0.69601000  0.15742000  0.61604000  1.0
  H  H48  1  0.83898000  0.13962000  0.83267000  1.0
  H  H49  1  0.67182000  0.66735000  0.13964000  1.0
  H  H50  1  0.81132000  0.36039000  0.66732000  1.0
  H  H51  1  0.47882000  0.83271000  0.36032000  1.0
  H  H52  1  0.16102000  0.86037000  0.16733000  1.0
  H  H53  1  0.32818000  0.33265000  0.86036000  1.0
  H  H54  1  0.18868000  0.63961000  0.33268000  1.0
  H  H55  1  0.52118000  0.16729000  0.63968000  1.0
  H  H56  1  0.05222000  0.06437000  0.70539000  1.0
  H  H57  1  0.75769000  0.79455000  0.06431000  1.0
  H  H58  1  0.82205000  0.43566000  0.79452000  1.0
  H  H59  1  0.61660000  0.70537000  0.43564000  1.0
  H  H60  1  0.94777000  0.93563000  0.29461000  1.0
  H  H61  1  0.24232000  0.20545000  0.93569000  1.0
  H  H62  1  0.17795000  0.56434000  0.20548000  1.0
  H  H63  1  0.38340000  0.29463000  0.56436000  1.0
  H  H64  1  0.18652000  0.99502000  0.73191000  1.0
  H  H65  1  0.91853000  0.76807000  0.99499000  1.0
  H  H66  1  0.91357000  0.50498000  0.76803000  1.0
  H  H67  1  0.68163000  0.73186000  0.50496000  1.0
  H  H68  1  0.81348000  0.00498000  0.26809000  1.0
  H  H69  1  0.08147000  0.23193000  0.00501000  1.0
  H  H70  1  0.08643000  0.49502000  0.23197000  1.0
  H  H71  1  0.31837000  0.26814000  0.49504000  1.0
  H  H72  1  0.09529000  0.07793000  0.78882000  1.0
  H  H73  1  0.88426000  0.71118000  0.07793000  1.0
  H  H74  1  0.96225000  0.42204000  0.71115000  1.0
  H  H75  1  0.67331000  0.78878000  0.42205000  1.0
  H  H76  1  0.90471000  0.92207000  0.21118000  1.0
  H  H77  1  0.11574000  0.28882000  0.92207000  1.0
  H  H78  1  0.03775000  0.57796000  0.28885000  1.0
  H  H79  1  0.32671000  0.21122000  0.57794000  1.0
  H  H80  1  0.66498000  0.97074000  0.98768000  1.0
  H  H81  1  0.65262000  0.51227000  0.97077000  1.0
  H  H82  1  0.62351000  0.52928000  0.51223000  1.0
  H  H83  1  0.13575000  0.98778000  0.52921000  1.0
  H  H84  1  0.33502000  0.02926000  0.01232000  1.0
  H  H85  1  0.34738000  0.48773000  0.02923000  1.0
  H  H86  1  0.37650000  0.47072000  0.48777000  1.0
  H  H87  1  0.86425000  0.01222000  0.47079000  1.0
  H  H88  1  0.67548000  0.89086000  0.93417000  1.0
  H  H89  1  0.60968000  0.56585000  0.89090000  1.0
  H  H90  1  0.50063000  0.60917000  0.56578000  1.0
  H  H91  1  0.06653000  0.93420000  0.60909000  1.0
  H  H92  1  0.32452000  0.10914000  0.06583000  1.0
  H  H93  1  0.39032000  0.43415000  0.10910000  1.0
  H  H94  1  0.49937000  0.39083000  0.43422000  1.0
  H  H95  1  0.93347000  0.06580000  0.39091000  1.0
  H  H96  1  0.59630000  0.98494000  0.90891000  1.0
  H  H97  1  0.50521000  0.59109000  0.98497000  1.0
  H  H98  1  0.49026000  0.51509000  0.59101000  1.0
  H  H99  1  0.08132000  0.90898000  0.51503000  1.0
  H  H100  1  0.40370000  0.01506000  0.09109000  1.0
  H  H101  1  0.49479000  0.40891000  0.01503000  1.0
  H  H102  1  0.50974000  0.48491000  0.40899000  1.0
  H  H103  1  0.91868000  0.09102000  0.48497000  1.0
  C  C104  1  0.58318000  0.21095000  0.17966000  1.0
  C  C105  1  0.76294000  0.32034000  0.21093000  1.0
  C  C106  1  0.97387000  0.28904000  0.32036000  1.0
  C  C107  1  0.29424000  0.17960000  0.28894000  1.0
  C  C108  1  0.41682000  0.78905000  0.82034000  1.0
  C  C109  1  0.23706000  0.67966000  0.78907000  1.0
  C  C110  1  0.02613000  0.71096000  0.67964000  1.0
  C  C111  1  0.70576000  0.82040000  0.71106000  1.0
  C  C112  1  0.63250000  0.18085000  0.10019000  1.0
  C  C113  1  0.73285000  0.39979000  0.18080000  1.0
  C  C114  1  0.91360000  0.31919000  0.39979000  1.0
  C  C115  1  0.31340000  0.10018000  0.31912000  1.0
  C  C116  1  0.36750000  0.81915000  0.89981000  1.0
  C  C117  1  0.26715000  0.60022000  0.81920000  1.0
  C  C118  1  0.08640000  0.68081000  0.60021000  1.0
  C  C119  1  0.68660000  0.89982000  0.68088000  1.0
  C  C120  1  0.75680000  0.12446000  0.07506000  1.0
  C  C121  1  0.83202000  0.42489000  0.12443000  1.0
  C  C122  1  0.95643000  0.37555000  0.42491000  1.0
  C  C123  1  0.38125000  0.07514000  0.37553000  1.0
  C  C124  1  0.24320000  0.87554000  0.92494000  1.0
  C  C125  1  0.16798000  0.57511000  0.87557000  1.0
  C  C126  1  0.04357000  0.62445000  0.57509000  1.0
  C  C127  1  0.61876000  0.92486000  0.62447000  1.0
  C  C128  1  0.80322000  0.09891000  0.99962000  1.0
  C  C129  1  0.80300000  0.50036000  0.09893000  1.0
  C  C130  1  0.90187000  0.40108000  0.50038000  1.0
  C  C131  1  0.40219000  0.99968000  0.40109000  1.0
  C  C132  1  0.19678000  0.90109000  0.00038000  1.0
  C  C133  1  0.19700000  0.49964000  0.90107000  1.0
  C  C134  1  0.09813000  0.59892000  0.49962000  1.0
  C  C135  1  0.59781000  0.00032000  0.59891000  1.0
  C  C136  1  0.72585000  0.12770000  0.94823000  1.0
  C  C137  1  0.67428000  0.55176000  0.12774000  1.0
  C  C138  1  0.80188000  0.37232000  0.55174000  1.0
  C  C139  1  0.35368000  0.94828000  0.37230000  1.0
  C  C140  1  0.27415000  0.87230000  0.05177000  1.0
  C  C141  1  0.32572000  0.44824000  0.87226000  1.0
  C  C142  1  0.19812000  0.62768000  0.44826000  1.0
  C  C143  1  0.64633000  0.05172000  0.62770000  1.0
  C  C144  1  0.60010000  0.18231000  0.97456000  1.0
  C  C145  1  0.57482000  0.52542000  0.18230000  1.0
  C  C146  1  0.75701000  0.31775000  0.52539000  1.0
  C  C147  1  0.28252000  0.97454000  0.31769000  1.0
  C  C148  1  0.39990000  0.81769000  0.02544000  1.0
  C  C149  1  0.42518000  0.47458000  0.81770000  1.0
  C  C150  1  0.24299000  0.68225000  0.47461000  1.0
  C  C151  1  0.71748000  0.02546000  0.68231000  1.0
  C  C152  1  0.55448000  0.20938000  0.04924000  1.0
  C  C153  1  0.60387000  0.45072000  0.20932000  1.0
  C  C154  1  0.81312000  0.29069000  0.45071000  1.0
  C  C155  1  0.26390000  0.04922000  0.29061000  1.0
  C  C156  1  0.44553000  0.79062000  0.95075000  1.0
  C  C157  1  0.39612000  0.54928000  0.79069000  1.0
  C  C158  1  0.18688000  0.70931000  0.54929000  1.0
  C  C159  1  0.73610000  0.95078000  0.70939000  1.0
  C  C160  1  0.77639000  0.10295000  0.86530000  1.0
  C  C161  1  0.64189000  0.63467000  0.10300000  1.0
  C  C162  1  0.74473000  0.39705000  0.63466000  1.0
  C  C163  1  0.37957000  0.86535000  0.39700000  1.0
  C  C164  1  0.22361000  0.89704000  0.13470000  1.0
  C  C165  1  0.35810000  0.36533000  0.89700000  1.0
  C  C166  1  0.25527000  0.60295000  0.36534000  1.0
  C  C167  1  0.62042000  0.13465000  0.60300000  1.0
  C  C168  1  0.85675000  0.02110000  0.84990000  1.0
  C  C169  1  0.70680000  0.65002000  0.02114000  1.0
  C  C170  1  0.72787000  0.47888000  0.65004000  1.0
  C  C171  1  0.37805000  0.84994000  0.47885000  1.0
  C  C172  1  0.14325000  0.97890000  0.15010000  1.0
  C  C173  1  0.29320000  0.34998000  0.97886000  1.0
  C  C174  1  0.27213000  0.52112000  0.34996000  1.0
  C  C175  1  0.62195000  0.15006000  0.52115000  1.0
  C  C176  1  0.98825000  0.99288000  0.80084000  1.0
  C  C177  1  0.78927000  0.69905000  0.99289000  1.0
  C  C178  1  0.78218000  0.50710000  0.69906000  1.0
  C  C179  1  0.48122000  0.80083000  0.50711000  1.0
  C  C180  1  0.01175000  0.00712000  0.19916000  1.0
  C  C181  1  0.21073000  0.30094000  0.00711000  1.0
  C  C182  1  0.21782000  0.49290000  0.30094000  1.0
  C  C183  1  0.51878000  0.19917000  0.49289000  1.0
  C  C184  1  0.08514000  0.03475000  0.75442000  1.0
  C  C185  1  0.83971000  0.74554000  0.03472000  1.0
  C  C186  1  0.87449000  0.46524000  0.74551000  1.0
  C  C187  1  0.61999000  0.75438000  0.46524000  1.0
  C  C188  1  0.91486000  0.96525000  0.24558000  1.0
  C  C189  1  0.16029000  0.25446000  0.96528000  1.0
  C  C190  1  0.12551000  0.53476000  0.25449000  1.0
  C  C191  1  0.38001000  0.24562000  0.53476000  1.0
  C  C192  1  0.81364000  0.95571000  0.87755000  1.0
  C  C193  1  0.69126000  0.62239000  0.95578000  1.0
  C  C194  1  0.64701000  0.54427000  0.62241000  1.0
  C  C195  1  0.26950000  0.87760000  0.54420000  1.0
  C  C196  1  0.18636000  0.04428000  0.12245000  1.0
  C  C197  1  0.30874000  0.37761000  0.04422000  1.0
  C  C198  1  0.35299000  0.45573000  0.37759000  1.0
  C  C199  1  0.73050000  0.12240000  0.45580000  1.0
  C  C200  1  0.68127000  0.95009000  0.92994000  1.0
  C  C201  1  0.61122000  0.57003000  0.95014000  1.0
  C  C202  1  0.56143000  0.54993000  0.56997000  1.0
  C  C203  1  0.13148000  0.93003000  0.54984000  1.0
  C  C204  1  0.31873000  0.04991000  0.07006000  1.0
  C  C205  1  0.38878000  0.42997000  0.04986000  1.0
  C  C206  1  0.43857000  0.45007000  0.43003000  1.0
  C  C207  1  0.86852000  0.06997000  0.45016000  1.0
  N  N208  1  0.91391000  0.89297000  0.84656000  1.0
  N  N209  1  0.76049000  0.65337000  0.89301000  1.0
  N  N210  1  0.65354000  0.60702000  0.65340000  1.0
  N  N211  1  0.30690000  0.84658000  0.60697000  1.0
  N  N212  1  0.08609000  0.10703000  0.15344000  1.0
  N  N213  1  0.23951000  0.34663000  0.10699000  1.0
  N  N214  1  0.34646000  0.39298000  0.34660000  1.0
  N  N215  1  0.69310000  0.15342000  0.39303000  1.0
  N  N216  1  0.02040000  0.91568000  0.79946000  1.0
  N  N217  1  0.81994000  0.70046000  0.91569000  1.0
  N  N218  1  0.73569000  0.58430000  0.70048000  1.0
  N  N219  1  0.43608000  0.79943000  0.58430000  1.0
  N  N220  1  0.97960000  0.08432000  0.20054000  1.0
  N  N221  1  0.18006000  0.29954000  0.08431000  1.0
  N  N222  1  0.26431000  0.41570000  0.29952000  1.0
  N  N223  1  0.56392000  0.20057000  0.41570000  1.0
  O  O224  1  0.50122000  0.27839000  0.19366000  1.0
  O  O225  1  0.69491000  0.30638000  0.27836000  1.0
  O  O226  1  0.97333000  0.22160000  0.30638000  1.0
  O  O227  1  0.27978000  0.19352000  0.22149000  1.0
  O  O228  1  0.49878000  0.72161000  0.80634000  1.0
  O  O229  1  0.30509000  0.69362000  0.72164000  1.0
  O  O230  1  0.02667000  0.77840000  0.69362000  1.0
  O  O231  1  0.72022000  0.80648000  0.77851000  1.0
  O  O232  1  0.62375000  0.16947000  0.23289000  1.0
  O  O233  1  0.85674000  0.26708000  0.16950000  1.0
  O  O234  1  0.02623000  0.33049000  0.26711000  1.0
  O  O235  1  0.29326000  0.23289000  0.33037000  1.0
  O  O236  1  0.37625000  0.83053000  0.76711000  1.0
  O  O237  1  0.14326000  0.73292000  0.83050000  1.0
  O  O238  1  0.97377000  0.66951000  0.73289000  1.0
  O  O239  1  0.70675000  0.76711000  0.66962000  1.0
