# generated using pymatgen
data_Zr3H25C46Cl5O16
_symmetry_space_group_name_H-M   'P 1'
_cell_length_a   18.99167377
_cell_length_b   19.15837304
_cell_length_c   19.15850000
_cell_angle_alpha   90.47463902
_cell_angle_beta   119.64045143
_cell_angle_gamma   119.63832610
_symmetry_Int_Tables_number   1
_chemical_formula_structural   Zr3H25C46Cl5O16
_chemical_formula_sum   'Zr6 H50 C92 Cl10 O32'
_cell_volume   4962.22316451
_cell_formula_units_Z   2
loop_
 _symmetry_equiv_pos_site_id
 _symmetry_equiv_pos_as_xyz
  1  'x, y, z'
loop_
 _atom_site_type_symbol
 _atom_site_label
 _atom_site_symmetry_multiplicity
 _atom_site_fract_x
 _atom_site_fract_y
 _atom_site_fract_z
 _atom_site_occupancy
  Zr  Zr0  1  0.49986000  0.90726000  0.90727000  1.0
  Zr  Zr1  1  0.50086000  0.09273000  0.09275000  1.0
  Zr  Zr2  1  0.68566000  0.09135000  0.09140000  1.0
  Zr  Zr3  1  0.31503000  0.90858000  0.90865000  1.0
  Zr  Zr4  1  0.50029000  0.90818000  0.09179000  1.0
  Zr  Zr5  1  0.50031000  0.09176000  0.90822000  1.0
  H  H6  1  0.64610000  0.92683000  0.07127000  1.0
  H  H7  1  0.35461000  0.92872000  0.07320000  1.0
  H  H8  1  0.64611000  0.21745000  0.07279000  1.0
  H  H9  1  0.35452000  0.92717000  0.78253000  1.0
  H  H10  1  0.50006000  0.45438000  0.11363000  1.0
  H  H11  1  0.50110000  0.54594000  0.88673000  1.0
  H  H12  1  0.49672000  0.68149000  0.10332000  1.0
  H  H13  1  0.49912000  0.55473000  0.11136000  1.0
  H  H14  1  0.49686000  0.31519000  0.89320000  1.0
  H  H15  1  0.49935000  0.44437000  0.88766000  1.0
  H  H16  1  0.49876000  0.11309000  0.45366000  1.0
  H  H17  1  0.49982000  0.88620000  0.54521000  1.0
  H  H18  1  0.50339000  0.10673000  0.68473000  1.0
  H  H19  1  0.50057000  0.11218000  0.55536000  1.0
  H  H20  1  0.50341000  0.89652000  0.31840000  1.0
  H  H21  1  0.50074000  0.88847000  0.44500000  1.0
  H  H22  1  0.83915000  0.45269000  0.88697000  1.0
  H  H23  1  0.16128000  0.54823000  0.11399000  1.0
  H  H24  1  0.07573000  0.67901000  0.89211000  1.0
  H  H25  1  0.94146000  0.55243000  0.88731000  1.0
  H  H26  1  0.92483000  0.31762000  0.10455000  1.0
  H  H27  1  0.05898000  0.44734000  0.11249000  1.0
  H  H28  1  0.83900000  0.88610000  0.45201000  1.0
  H  H29  1  0.16116000  0.11313000  0.54756000  1.0
  H  H30  1  0.07569000  0.89552000  0.68261000  1.0
  H  H31  1  0.94146000  0.88766000  0.55306000  1.0
  H  H32  1  0.92476000  0.10792000  0.32121000  1.0
  H  H33  1  0.05894000  0.11280000  0.44794000  1.0
  H  H34  1  0.29080000  0.11177000  0.10884000  1.0
  H  H35  1  0.07019000  0.89096000  0.88799000  1.0
  H  H36  1  0.71003000  0.89124000  0.88818000  1.0
  H  H37  1  0.93067000  0.11211000  0.10903000  1.0
  H  H38  1  0.06859000  0.45382000  0.45318000  1.0
  H  H39  1  0.93190000  0.54692000  0.54632000  1.0
  H  H40  1  0.28776000  0.68042000  0.68360000  1.0
  H  H41  1  0.16734000  0.55416000  0.55485000  1.0
  H  H42  1  0.71268000  0.31623000  0.31956000  1.0
  H  H43  1  0.83296000  0.44502000  0.44581000  1.0
  H  H44  1  0.17068000  0.19748000  0.26258000  1.0
  H  H45  1  0.06277000  0.19393000  0.19447000  1.0
  H  H46  1  0.17068000  0.26259000  0.19814000  1.0
  H  H47  1  0.29094000  0.26233000  0.19770000  1.0
  H  H48  1  0.32568000  0.19295000  0.19416000  1.0
  H  H49  1  0.28992000  0.19738000  0.26246000  1.0
  H  H50  1  0.70999000  0.80236000  0.73763000  1.0
  H  H51  1  0.67508000  0.80584000  0.80692000  1.0
  H  H52  1  0.71099000  0.73761000  0.80260000  1.0
  H  H53  1  0.83024000  0.73746000  0.80257000  1.0
  H  H54  1  0.93817000  0.80561000  0.80621000  1.0
  H  H55  1  0.83025000  0.80187000  0.73743000  1.0
  C  C56  1  0.49582000  0.76333000  0.99439000  1.0
  C  C57  1  0.50470000  0.00559000  0.23665000  1.0
  C  C58  1  0.49603000  0.23239000  0.00128000  1.0
  C  C59  1  0.50446000  0.99867000  0.76753000  1.0
  C  C60  1  0.73679000  0.00212000  0.99791000  1.0
  C  C61  1  0.26172000  0.76341000  0.76765000  1.0
  C  C62  1  0.26403000  0.00210000  0.99794000  1.0
  C  C63  1  0.73894000  0.23236000  0.23662000  1.0
  C  C64  1  0.73245000  0.99930000  0.23618000  1.0
  C  C65  1  0.73264000  0.23136000  0.99461000  1.0
  C  C66  1  0.26794000  0.00538000  0.76868000  1.0
  C  C67  1  0.26806000  0.76384000  0.00066000  1.0
  C  C68  1  0.49668000  0.31067000  0.00443000  1.0
  C  C69  1  0.49716000  0.68606000  0.99223000  1.0
  C  C70  1  0.49784000  0.35209000  0.06671000  1.0
  C  C71  1  0.49929000  0.42548000  0.06400000  1.0
  C  C72  1  0.49881000  0.64603000  0.93136000  1.0
  C  C73  1  0.50005000  0.57398000  0.93543000  1.0
  C  C74  1  0.49762000  0.65040000  0.05620000  1.0
  C  C75  1  0.49896000  0.57889000  0.06012000  1.0
  C  C76  1  0.49748000  0.34699000  0.94109000  1.0
  C  C77  1  0.49893000  0.41989000  0.93860000  1.0
  C  C78  1  0.49960000  0.46107000  0.00042000  1.0
  C  C79  1  0.49980000  0.53844000  0.99905000  1.0
  C  C80  1  0.50305000  0.00766000  0.31377000  1.0
  C  C81  1  0.50357000  0.99550000  0.68914000  1.0
  C  C82  1  0.50128000  0.06851000  0.35370000  1.0
  C  C83  1  0.49987000  0.06440000  0.42568000  1.0
  C  C84  1  0.50233000  0.93321000  0.64766000  1.0
  C  C85  1  0.50068000  0.93586000  0.57418000  1.0
  C  C86  1  0.50268000  0.05882000  0.65283000  1.0
  C  C87  1  0.50106000  0.06127000  0.57986000  1.0
  C  C88  1  0.50246000  0.94365000  0.34941000  1.0
  C  C89  1  0.50100000  0.93974000  0.42086000  1.0
  C  C90  1  0.50011000  0.00080000  0.46124000  1.0
  C  C91  1  0.50032000  0.99943000  0.53862000  1.0
  C  C92  1  0.80729000  0.31049000  0.99273000  1.0
  C  C93  1  0.19329000  0.68614000  0.00395000  1.0
  C  C94  1  0.78521000  0.35107000  0.93181000  1.0
  C  C95  1  0.86096000  0.42469000  0.93586000  1.0
  C  C96  1  0.21531000  0.64717000  0.06649000  1.0
  C  C97  1  0.13951000  0.57523000  0.06410000  1.0
  C  C98  1  0.09273000  0.64912000  0.94050000  1.0
  C  C99  1  0.01764000  0.57769000  0.93834000  1.0
  C  C100  1  0.90780000  0.34842000  0.05706000  1.0
  C  C101  1  0.98284000  0.42161000  0.06099000  1.0
  C  C102  1  0.96104000  0.46149000  0.99956000  1.0
  C  C103  1  0.03942000  0.53862000  0.00056000  1.0
  C  C104  1  0.80715000  0.99606000  0.31398000  1.0
  C  C105  1  0.19319000  0.00734000  0.68969000  1.0
  C  C106  1  0.78507000  0.93357000  0.35300000  1.0
  C  C107  1  0.86083000  0.93597000  0.42501000  1.0
  C  C108  1  0.21519000  0.06828000  0.64911000  1.0
  C  C109  1  0.13940000  0.06424000  0.57557000  1.0
  C  C110  1  0.09270000  0.94303000  0.65185000  1.0
  C  C111  1  0.01760000  0.93912000  0.57871000  1.0
  C  C112  1  0.90771000  0.05953000  0.35109000  1.0
  C  C113  1  0.98276000  0.06174000  0.42262000  1.0
  C  C114  1  0.96092000  0.99951000  0.46167000  1.0
  C  C115  1  0.03933000  0.00054000  0.53881000  1.0
  C  C116  1  0.21222000  0.06426000  0.06186000  1.0
  C  C117  1  0.14022000  0.06550000  0.06434000  1.0
  C  C118  1  0.16663000  0.13009000  0.12980000  1.0
  C  C119  1  0.08607000  0.93800000  0.93557000  1.0
  C  C120  1  0.01036000  0.93553000  0.93435000  1.0
  C  C121  1  0.90687000  0.87020000  0.86984000  1.0
  C  C122  1  0.78863000  0.93823000  0.93573000  1.0
  C  C123  1  0.86061000  0.93571000  0.93451000  1.0
  C  C124  1  0.83416000  0.87025000  0.86989000  1.0
  C  C125  1  0.91476000  0.06450000  0.06198000  1.0
  C  C126  1  0.99047000  0.06569000  0.06448000  1.0
  C  C127  1  0.09393000  0.13018000  0.12983000  1.0
  C  C128  1  0.18544000  0.00156000  0.99824000  1.0
  C  C129  1  0.03772000  0.00046000  0.99949000  1.0
  C  C130  1  0.81536000  0.00182000  0.99843000  1.0
  C  C131  1  0.96309000  0.00054000  0.99955000  1.0
  C  C132  1  0.81955000  0.31084000  0.31403000  1.0
  C  C133  1  0.18101000  0.68605000  0.68912000  1.0
  C  C134  1  0.92200000  0.35205000  0.35381000  1.0
  C  C135  1  0.99093000  0.42532000  0.42565000  1.0
  C  C136  1  0.07856000  0.64629000  0.64797000  1.0
  C  C137  1  0.00953000  0.57442000  0.57471000  1.0
  C  C138  1  0.20884000  0.64990000  0.65230000  1.0
  C  C139  1  0.14018000  0.57855000  0.57954000  1.0
  C  C140  1  0.79161000  0.34758000  0.35014000  1.0
  C  C141  1  0.86019000  0.42037000  0.42147000  1.0
  C  C142  1  0.96247000  0.46126000  0.46152000  1.0
  C  C143  1  0.03791000  0.53848000  0.53873000  1.0
  C  C144  1  0.12487000  0.19889000  0.19912000  1.0
  C  C145  1  0.27357000  0.19853000  0.19891000  1.0
  C  C146  1  0.72724000  0.80113000  0.80141000  1.0
  C  C147  1  0.87599000  0.80092000  0.80117000  1.0
  Cl  Cl148  1  0.49754000  0.31812000  0.15024000  1.0
  Cl  Cl149  1  0.49965000  0.68026000  0.84809000  1.0
  Cl  Cl150  1  0.50041000  0.15173000  0.31939000  1.0
  Cl  Cl151  1  0.50263000  0.84965000  0.68157000  1.0
  Cl  Cl152  1  0.66651000  0.31583000  0.84833000  1.0
  Cl  Cl153  1  0.33399000  0.68259000  0.15019000  1.0
  Cl  Cl154  1  0.66635000  0.84993000  0.31756000  1.0
  Cl  Cl155  1  0.33384000  0.15179000  0.68430000  1.0
  Cl  Cl156  1  0.97214000  0.31782000  0.31927000  1.0
  Cl  Cl157  1  0.02854000  0.68086000  0.68234000  1.0
  O  O158  1  0.49454000  0.79495000  0.93577000  1.0
  O  O159  1  0.50618000  0.06429000  0.20510000  1.0
  O  O160  1  0.49649000  0.20040000  0.05950000  1.0
  O  O161  1  0.50419000  0.94051000  0.79956000  1.0
  O  O162  1  0.76511000  0.06134000  0.05751000  1.0
  O  O163  1  0.23607000  0.79605000  0.80073000  1.0
  O  O164  1  0.23571000  0.94251000  0.93871000  1.0
  O  O165  1  0.76462000  0.19926000  0.20402000  1.0
  O  O166  1  0.64153000  0.94182000  0.20369000  1.0
  O  O167  1  0.64170000  0.19833000  0.93663000  1.0
  O  O168  1  0.35886000  0.06331000  0.80159000  1.0
  O  O169  1  0.35896000  0.79627000  0.05811000  1.0
  O  O170  1  0.76469000  0.20295000  0.05450000  1.0
  O  O171  1  0.23596000  0.94545000  0.79708000  1.0
  O  O172  1  0.23603000  0.79306000  0.94160000  1.0
  O  O173  1  0.76451000  0.05830000  0.20692000  1.0
  O  O174  1  0.64681000  0.94301000  0.93927000  1.0
  O  O175  1  0.64993000  0.20458000  0.20782000  1.0
  O  O176  1  0.35400000  0.06075000  0.05706000  1.0
  O  O177  1  0.35071000  0.79212000  0.79545000  1.0
  O  O178  1  0.50386000  0.05857000  0.79632000  1.0
  O  O179  1  0.49730000  0.79307000  0.05533000  1.0
  O  O180  1  0.50325000  0.94465000  0.20696000  1.0
  O  O181  1  0.49667000  0.20366000  0.94138000  1.0
  O  O182  1  0.39560000  0.94785000  0.84430000  1.0
  O  O183  1  0.60510000  0.15569000  0.05212000  1.0
  O  O184  1  0.39606000  0.94861000  0.05241000  1.0
  O  O185  1  0.60463000  0.94760000  0.05137000  1.0
  O  O186  1  0.57746000  0.03837000  0.11451000  1.0
  O  O187  1  0.42319000  0.88545000  0.96161000  1.0
  O  O188  1  0.42362000  0.03836000  0.96238000  1.0
  O  O189  1  0.57707000  0.03761000  0.96163000  1.0
