# generated using pymatgen
data_NaZnH7C11O8
_symmetry_space_group_name_H-M   'P 1'
_cell_length_a   6.71556000
_cell_length_b   10.13490000
_cell_length_c   18.07740000
_cell_angle_alpha   101.55000000
_cell_angle_beta   90.00000000
_cell_angle_gamma   90.00000000
_symmetry_Int_Tables_number   1
_chemical_formula_structural   NaZnH7C11O8
_chemical_formula_sum   'Na4 Zn4 H28 C44 O32'
_cell_volume   1205.46081241
_cell_formula_units_Z   4
loop_
 _symmetry_equiv_pos_site_id
 _symmetry_equiv_pos_as_xyz
  1  'x, y, z'
loop_
 _atom_site_type_symbol
 _atom_site_label
 _atom_site_symmetry_multiplicity
 _atom_site_fract_x
 _atom_site_fract_y
 _atom_site_fract_z
 _atom_site_occupancy
  Na  Na0  1  0.75094000  0.02505000  0.01478000  1.0
  Na  Na1  1  0.25095000  0.97495000  0.48522000  1.0
  Na  Na2  1  0.24906000  0.97495000  0.98522000  1.0
  Na  Na3  1  0.74906000  0.02505000  0.51478000  1.0
  Zn  Zn4  1  0.19322000  0.64302000  0.84093000  1.0
  Zn  Zn5  1  0.69322000  0.35698000  0.65907000  1.0
  Zn  Zn6  1  0.80678000  0.35698000  0.15907000  1.0
  Zn  Zn7  1  0.30678000  0.64302000  0.34093000  1.0
  H  H8  1  0.84113000  0.93968000  0.81804000  1.0
  H  H9  1  0.34113000  0.06031000  0.68196000  1.0
  H  H10  1  0.15888000  0.06031000  0.18196000  1.0
  H  H11  1  0.65887000  0.93968000  0.31804000  1.0
  H  H12  1  0.30321000  0.53735000  0.63723000  1.0
  H  H13  1  0.80321000  0.46265000  0.86277000  1.0
  H  H14  1  0.69679000  0.46265000  0.36277000  1.0
  H  H15  1  0.19679000  0.53735000  0.13723000  1.0
  H  H16  1  0.14749000  0.67424000  0.62211000  1.0
  H  H17  1  0.64749000  0.32576000  0.87789000  1.0
  H  H18  1  0.85251000  0.32576000  0.37789000  1.0
  H  H19  1  0.35251000  0.67425000  0.12211000  1.0
  H  H20  1  0.00177000  0.89912000  0.69110000  1.0
  H  H21  1  0.50177000  0.10088000  0.80890000  1.0
  H  H22  1  0.99823000  0.10088000  0.30890000  1.0
  H  H23  1  0.49822000  0.89912000  0.19110000  1.0
  H  H24  1  0.48870000  0.66960000  0.59850000  1.0
  H  H25  1  0.98870000  0.33040000  0.90150000  1.0
  H  H26  1  0.51131000  0.33040000  0.40150000  1.0
  H  H27  1  0.01130000  0.66960000  0.09850000  1.0
  H  H28  1  0.73232000  0.57270000  0.52564000  1.0
  H  H29  1  0.23232000  0.42731000  0.97436000  1.0
  H  H30  1  0.26768000  0.42731000  0.47436000  1.0
  H  H31  1  0.76768000  0.57270000  0.02564000  1.0
  H  H32  1  0.88454000  0.64758000  0.46465000  1.0
  H  H33  1  0.38454000  0.35242000  0.03535000  1.0
  H  H34  1  0.11546000  0.35242000  0.53535000  1.0
  H  H35  1  0.61546000  0.64758000  0.96465000  1.0
  C  C36  1  0.76519000  0.88040000  0.76922000  1.0
  C  C37  1  0.26519000  0.11960000  0.73078000  1.0
  C  C38  1  0.23481000  0.11960000  0.23078000  1.0
  C  C39  1  0.73480000  0.88040000  0.26922000  1.0
  C  C40  1  0.57544000  0.82937000  0.78123000  1.0
  C  C41  1  0.07544000  0.17063000  0.71877000  1.0
  C  C42  1  0.42456000  0.17063000  0.21877000  1.0
  C  C43  1  0.92455000  0.82937000  0.28123000  1.0
  C  C44  1  0.47749000  0.75284000  0.71756000  1.0
  C  C45  1  0.97749000  0.24716000  0.78244000  1.0
  C  C46  1  0.52251000  0.24716000  0.28244000  1.0
  C  C47  1  0.02251000  0.75284000  0.21756000  1.0
  C  C48  1  0.48980000  0.86663000  0.85847000  1.0
  C  C49  1  0.98980000  0.13337000  0.64153000  1.0
  C  C50  1  0.51020000  0.13337000  0.14153000  1.0
  C  C51  1  0.01019000  0.86663000  0.35847000  1.0
  C  C52  1  0.19914000  0.61667000  0.66397000  1.0
  C  C53  1  0.69914000  0.38333000  0.83603000  1.0
  C  C54  1  0.80086000  0.38333000  0.33603000  1.0
  C  C55  1  0.30086000  0.61667000  0.16397000  1.0
  C  C56  1  0.85502000  0.85893000  0.69897000  1.0
  C  C57  1  0.35502000  0.14107000  0.80103000  1.0
  C  C58  1  0.14499000  0.14107000  0.30103000  1.0
  C  C59  1  0.64498000  0.85893000  0.19897000  1.0
  C  C60  1  0.02356000  0.54789000  0.69255000  1.0
  C  C61  1  0.52356000  0.45211000  0.80745000  1.0
  C  C62  1  0.97644000  0.45211000  0.30744000  1.0
  C  C63  1  0.47644000  0.54789000  0.19255000  1.0
  C  C64  1  0.75414000  0.78273000  0.63694000  1.0
  C  C65  1  0.25413000  0.21727000  0.86306000  1.0
  C  C66  1  0.24587000  0.21727000  0.36306000  1.0
  C  C67  1  0.74586000  0.78273000  0.13694000  1.0
  C  C68  1  0.56622000  0.72935000  0.64628000  1.0
  C  C69  1  0.06621000  0.27065000  0.85372000  1.0
  C  C70  1  0.43379000  0.27065000  0.35372000  1.0
  C  C71  1  0.93379000  0.72935000  0.14628000  1.0
  C  C72  1  0.76699000  0.66778000  0.50777000  1.0
  C  C73  1  0.26699000  0.33222000  0.99223000  1.0
  C  C74  1  0.23301000  0.33222000  0.49223000  1.0
  C  C75  1  0.73301000  0.66779000  0.00777000  1.0
  C  C76  1  0.58293000  0.71865000  0.47190000  1.0
  C  C77  1  0.08293000  0.28135000  0.02810000  1.0
  C  C78  1  0.41707000  0.28135000  0.52810000  1.0
  C  C79  1  0.91707000  0.71866000  0.97190000  1.0
  O  O80  1  0.29075000  0.70367000  0.72700000  1.0
  O  O81  1  0.79075000  0.29633000  0.77300000  1.0
  O  O82  1  0.70925000  0.29633000  0.27300000  1.0
  O  O83  1  0.20925000  0.70367000  0.22700000  1.0
  O  O84  1  0.99540000  0.55686000  0.76271000  1.0
  O  O85  1  0.49540000  0.44313000  0.73729000  1.0
  O  O86  1  0.00460000  0.44314000  0.23729000  1.0
  O  O87  1  0.50460000  0.55686000  0.26271000  1.0
  O  O88  1  0.31840000  0.81940000  0.87475000  1.0
  O  O89  1  0.81841000  0.18060000  0.62524000  1.0
  O  O90  1  0.68160000  0.18060000  0.12525000  1.0
  O  O91  1  0.18159000  0.81940000  0.37476000  1.0
  O  O92  1  0.58088000  0.94989000  0.90798000  1.0
  O  O93  1  0.08088000  0.05010000  0.59202000  1.0
  O  O94  1  0.41912000  0.05011000  0.09202000  1.0
  O  O95  1  0.91912000  0.94990000  0.40798000  1.0
  O  O96  1  0.91500000  0.47983000  0.64095000  1.0
  O  O97  1  0.41499000  0.52017000  0.85905000  1.0
  O  O98  1  0.08501000  0.52017000  0.35905000  1.0
  O  O99  1  0.58500000  0.47984000  0.14095000  1.0
  O  O100  1  0.85078000  0.76335000  0.56901000  1.0
  O  O101  1  0.35078000  0.23665000  0.93099000  1.0
  O  O102  1  0.14923000  0.23665000  0.43099000  1.0
  O  O103  1  0.64922000  0.76335000  0.06901000  1.0
  O  O104  1  0.49591000  0.62496000  0.42443000  1.0
  O  O105  1  0.99591000  0.37504000  0.07557000  1.0
  O  O106  1  0.50410000  0.37504000  0.57557000  1.0
  O  O107  1  0.00410000  0.62496000  0.92443000  1.0
  O  O108  1  0.53336000  0.84004000  0.48920000  1.0
  O  O109  1  0.03336000  0.15996000  0.01080000  1.0
  O  O110  1  0.46664000  0.15996000  0.51081000  1.0
  O  O111  1  0.96664000  0.84004000  0.98920000  1.0
