# generated using pymatgen
data_AlH9C24(NO4)3
_symmetry_space_group_name_H-M   'P 1'
_cell_length_a   4.02392000
_cell_length_b   28.97921577
_cell_length_c   28.97610000
_cell_angle_alpha   59.99667122
_cell_angle_beta   89.99710000
_cell_angle_gamma   89.99950006
_symmetry_Int_Tables_number   1
_chemical_formula_structural   AlH9C24(NO4)3
_chemical_formula_sum   'Al2 H18 C48 N6 O24'
_cell_volume   2926.11884177
_cell_formula_units_Z   2
loop_
 _symmetry_equiv_pos_site_id
 _symmetry_equiv_pos_as_xyz
  1  'x, y, z'
loop_
 _atom_site_type_symbol
 _atom_site_label
 _atom_site_symmetry_multiplicity
 _atom_site_fract_x
 _atom_site_fract_y
 _atom_site_fract_z
 _atom_site_occupancy
  Al  Al0  1  0.04268000  0.50001000  0.99998000  1.0
  Al  Al1  1  0.04321000  0.16665000  0.66669000  1.0
  H  H2  1  0.85214000  0.30078000  0.51749000  1.0
  H  H3  1  0.84473000  0.34857000  0.41789000  1.0
  H  H4  1  0.25266000  0.17570000  0.52130000  1.0
  H  H5  1  0.25226000  0.49094000  0.14539000  1.0
  H  H6  1  0.85183000  0.36587000  0.14918000  1.0
  H  H7  1  0.84468000  0.31810000  0.24877000  1.0
  H  H8  1  0.85214000  0.18172000  0.80083000  1.0
  H  H9  1  0.84484000  0.23354000  0.84859000  1.0
  H  H10  1  0.25261000  0.30299000  0.67573000  1.0
  H  H11  1  0.25225000  0.36368000  0.99092000  1.0
  H  H12  1  0.85190000  0.48496000  0.86584000  1.0
  H  H13  1  0.84477000  0.43315000  0.81807000  1.0
  H  H14  1  0.85216000  0.01748000  0.68173000  1.0
  H  H15  1  0.84486000  0.91790000  0.73352000  1.0
  H  H16  1  0.25257000  0.02124000  0.80304000  1.0
  H  H17  1  0.25224000  0.64542000  0.86365000  1.0
  H  H18  1  0.85183000  0.64919000  0.98495000  1.0
  H  H19  1  0.84473000  0.74877000  0.93313000  1.0
  C  C20  1  0.54469000  0.58166000  0.95901000  1.0
  C  C21  1  0.54467000  0.45933000  0.08164000  1.0
  C  C22  1  0.54472000  0.45903000  0.95931000  1.0
  C  C23  1  0.54523000  0.20730000  0.58504000  1.0
  C  C24  1  0.54517000  0.20765000  0.70734000  1.0
  C  C25  1  0.54517000  0.08500000  0.70769000  1.0
  C  C26  1  0.55262000  0.23529000  0.52582000  1.0
  C  C27  1  0.72215000  0.28390000  0.49636000  1.0
  C  C28  1  0.71998000  0.31031000  0.44113000  1.0
  C  C29  1  0.55851000  0.28812000  0.41324000  1.0
  C  C30  1  0.39664000  0.23854000  0.44403000  1.0
  C  C31  1  0.38787000  0.21299000  0.49926000  1.0
  C  C32  1  0.56068000  0.31713000  0.35718000  1.0
  C  C33  1  0.56071000  0.34954000  0.30950000  1.0
  C  C34  1  0.55847000  0.37854000  0.25345000  1.0
  C  C35  1  0.39653000  0.42812000  0.22266000  1.0
  C  C36  1  0.38757000  0.45365000  0.16743000  1.0
  C  C37  1  0.55224000  0.43135000  0.14086000  1.0
  C  C38  1  0.72189000  0.38276000  0.17031000  1.0
  C  C39  1  0.71988000  0.35635000  0.22555000  1.0
  C  C40  1  0.55258000  0.23888000  0.73532000  1.0
  C  C41  1  0.72214000  0.21974000  0.78392000  1.0
  C  C42  1  0.72003000  0.24857000  0.81032000  1.0
  C  C43  1  0.55860000  0.29865000  0.78813000  1.0
  C  C44  1  0.39670000  0.31743000  0.73855000  1.0
  C  C45  1  0.38785000  0.28774000  0.71302000  1.0
  C  C46  1  0.56086000  0.32570000  0.81712000  1.0
  C  C47  1  0.56091000  0.34098000  0.84953000  1.0
  C  C48  1  0.55862000  0.36803000  0.87852000  1.0
  C  C49  1  0.39663000  0.34925000  0.92809000  1.0
  C  C50  1  0.38763000  0.37893000  0.95363000  1.0
  C  C51  1  0.55233000  0.42780000  0.93133000  1.0
  C  C52  1  0.72198000  0.44695000  0.88273000  1.0
  C  C53  1  0.71998000  0.41812000  0.85632000  1.0
  C  C54  1  0.55261000  0.02579000  0.73891000  1.0
  C  C55  1  0.72219000  0.99635000  0.71975000  1.0
  C  C56  1  0.72009000  0.94112000  0.74856000  1.0
  C  C57  1  0.55868000  0.91321000  0.79865000  1.0
  C  C58  1  0.39673000  0.94399000  0.81746000  1.0
  C  C59  1  0.38786000  0.99921000  0.78778000  1.0
  C  C60  1  0.56090000  0.85717000  0.82569000  1.0
  C  C61  1  0.56088000  0.80949000  0.84096000  1.0
  C  C62  1  0.55857000  0.75344000  0.86802000  1.0
  C  C63  1  0.39657000  0.72266000  0.84922000  1.0
  C  C64  1  0.38757000  0.66744000  0.87891000  1.0
  C  C65  1  0.55226000  0.64087000  0.92778000  1.0
  C  C66  1  0.72192000  0.67031000  0.94694000  1.0
  C  C67  1  0.71994000  0.72554000  0.91811000  1.0
  N  N68  1  0.21837000  0.21333000  0.41800000  1.0
  N  N69  1  0.21839000  0.45334000  0.24868000  1.0
  N  N70  1  0.21846000  0.36867000  0.71333000  1.0
  N  N71  1  0.21842000  0.29800000  0.95332000  1.0
  N  N72  1  0.21847000  0.91795000  0.86870000  1.0
  N  N73  1  0.21844000  0.74870000  0.79797000  1.0
  O  O74  1  0.30662000  0.44958000  0.99196000  1.0
  O  O75  1  0.30663000  0.55846000  0.94955000  1.0
  O  O76  1  0.30658000  0.49198000  0.05844000  1.0
  O  O77  1  0.77669000  0.49295000  0.94889000  1.0
  O  O78  1  0.77665000  0.44892000  0.05814000  1.0
  O  O79  1  0.77668000  0.55816000  0.99292000  1.0
  O  O80  1  0.30715000  0.10821000  0.71714000  1.0
  O  O81  1  0.30723000  0.17463000  0.60826000  1.0
  O  O82  1  0.30717000  0.21709000  0.67468000  1.0
  O  O83  1  0.77722000  0.10849000  0.67378000  1.0
  O  O84  1  0.77721000  0.17374000  0.71777000  1.0
  O  O85  1  0.77728000  0.21772000  0.60852000  1.0
  O  O86  1  0.23369000  0.23528000  0.36875000  1.0
  O  O87  1  0.05920000  0.17206000  0.44690000  1.0
  O  O88  1  0.23390000  0.43142000  0.29793000  1.0
  O  O89  1  0.05911000  0.49460000  0.21978000  1.0
  O  O90  1  0.23381000  0.39598000  0.73527000  1.0
  O  O91  1  0.05930000  0.38104000  0.67207000  1.0
  O  O92  1  0.23392000  0.27069000  0.93139000  1.0
  O  O93  1  0.05915000  0.28563000  0.99458000  1.0
  O  O94  1  0.23399000  0.86871000  0.89601000  1.0
  O  O95  1  0.05910000  0.94683000  0.88107000  1.0
  O  O96  1  0.23398000  0.79794000  0.77065000  1.0
  O  O97  1  0.05915000  0.71982000  0.78559000  1.0
