# generated using pymatgen
data_CoH22C32N4O7
_symmetry_space_group_name_H-M   'P 1'
_cell_length_a   9.86803000
_cell_length_b   11.34500000
_cell_length_c   13.38600000
_cell_angle_alpha   89.36980000
_cell_angle_beta   76.57980000
_cell_angle_gamma   68.71840000
_symmetry_Int_Tables_number   1
_chemical_formula_structural   CoH22C32N4O7
_chemical_formula_sum   'Co2 H44 C64 N8 O14'
_cell_volume   1353.83555808
_cell_formula_units_Z   2
loop_
 _symmetry_equiv_pos_site_id
 _symmetry_equiv_pos_as_xyz
  1  'x, y, z'
loop_
 _atom_site_type_symbol
 _atom_site_label
 _atom_site_symmetry_multiplicity
 _atom_site_fract_x
 _atom_site_fract_y
 _atom_site_fract_z
 _atom_site_occupancy
  Co  Co0  1  0.33256000  0.92105000  0.07157000  1.0
  Co  Co1  1  0.66743000  0.07896000  0.92843000  1.0
  H  H2  1  0.20041000  0.86319000  0.90500000  1.0
  H  H3  1  0.79959000  0.13681000  0.09500000  1.0
  H  H4  1  0.23535000  0.68167000  0.78642000  1.0
  H  H5  1  0.76465000  0.31833000  0.21358000  1.0
  H  H6  1  0.63395000  0.46961000  0.88646000  1.0
  H  H7  1  0.36605000  0.53039000  0.11354000  1.0
  H  H8  1  0.58423000  0.66177000  0.00031000  1.0
  H  H9  1  0.41577000  0.33823000  0.99969000  1.0
  H  H10  1  0.42231000  0.42740000  0.48381000  1.0
  H  H11  1  0.57769000  0.57261000  0.51619000  1.0
  H  H12  1  0.57689000  0.24794000  0.35067000  1.0
  H  H13  1  0.42311000  0.75206000  0.64933000  1.0
  H  H14  1  0.73721000  0.01362000  0.58616000  1.0
  H  H15  1  0.26279000  0.98638000  0.41384000  1.0
  H  H16  1  0.59315000  0.19413000  0.71773000  1.0
  H  H17  1  0.40685000  0.80587000  0.28227000  1.0
  H  H18  1  0.64292000  0.85123000  0.39736000  1.0
  H  H19  1  0.35708000  0.14877000  0.60264000  1.0
  H  H20  1  0.78879000  0.62433000  0.39892000  1.0
  H  H21  1  0.21121000  0.37567000  0.60108000  1.0
  H  H22  1  0.17835000  0.70926000  0.40915000  1.0
  H  H23  1  0.82165000  0.29074000  0.59085000  1.0
  H  H24  1  0.02873000  0.94042000  0.40592000  1.0
  H  H25  1  0.97127000  0.05958000  0.59408000  1.0
  H  H26  1  0.90694000  0.27532000  0.32726000  1.0
  H  H27  1  0.09306000  0.72468000  0.67273000  1.0
  H  H28  1  0.03207000  0.06961000  0.21847000  1.0
  H  H29  1  0.96793000  0.93039000  0.78153000  1.0
  H  H30  1  0.44951000  0.09350000  0.17795000  1.0
  H  H31  1  0.55049000  0.90650000  0.82205000  1.0
  H  H32  1  0.34360000  0.29772000  0.28680000  1.0
  H  H33  1  0.65640000  0.70228000  0.71320000  1.0
  H  H34  1  0.28003000  0.38427000  0.88671000  1.0
  H  H35  1  0.71997000  0.61573000  0.11329000  1.0
  H  H36  1  0.04241000  0.53138000  0.85051000  1.0
  H  H37  1  0.95759000  0.46861000  0.14949000  1.0
  H  H38  1  0.84803000  0.44821000  0.82970000  1.0
  H  H39  1  0.15197000  0.55178000  0.17030000  1.0
  H  H40  1  0.11350000  0.08084000  0.90441000  1.0
  H  H41  1  0.88651000  0.91916000  0.09559000  1.0
  H  H42  1  0.58000000  0.38301000  0.76189000  1.0
  H  H43  1  0.42000000  0.61700000  0.23811000  1.0
  H  H44  1  0.92541000  0.46255000  0.36687000  1.0
  H  H45  1  0.07459000  0.53745000  0.63313000  1.0
  C  C46  1  0.29734000  0.77500000  0.89760000  1.0
  C  C47  1  0.70266000  0.22500000  0.10240000  1.0
  C  C48  1  0.31588000  0.67354000  0.83160000  1.0
  C  C49  1  0.68412000  0.32646000  0.16840000  1.0
  C  C50  1  0.44147000  0.56072000  0.82463000  1.0
  C  C51  1  0.55853000  0.43928000  0.17537000  1.0
  C  C52  1  0.53850000  0.55689000  0.88772000  1.0
  C  C53  1  0.46150000  0.44311000  0.11228000  1.0
  C  C54  1  0.51057000  0.66274000  0.95080000  1.0
  C  C55  1  0.48942000  0.33726000  0.04920000  1.0
  C  C56  1  0.41453000  0.43955000  0.68191000  1.0
  C  C57  1  0.58547000  0.56045000  0.31809000  1.0
  C  C58  1  0.50187000  0.32502000  0.60897000  1.0
  C  C59  1  0.49813000  0.67498000  0.39103000  1.0
  C  C60  1  0.49476000  0.33806000  0.50554000  1.0
  C  C61  1  0.50524000  0.66194000  0.49446000  1.0
  C  C62  1  0.57887000  0.23831000  0.43140000  1.0
  C  C63  1  0.42113000  0.76169000  0.56860000  1.0
  C  C64  1  0.66891000  0.12259000  0.46013000  1.0
  C  C65  1  0.33109000  0.87741000  0.53987000  1.0
  C  C66  1  0.67181000  0.10544000  0.56352000  1.0
  C  C67  1  0.32819000  0.89456000  0.43648000  1.0
  C  C68  1  0.58998000  0.20774000  0.63736000  1.0
  C  C69  1  0.41002000  0.79226000  0.36264000  1.0
  C  C70  1  0.82908000  0.90707000  0.39954000  1.0
  C  C71  1  0.17092000  0.09293000  0.60046000  1.0
  C  C72  1  0.75986000  0.81941000  0.40095000  1.0
  C  C73  1  0.24014000  0.18059000  0.59905000  1.0
  C  C74  1  0.84417000  0.69121000  0.40152000  1.0
  C  C75  1  0.15583000  0.30879000  0.59848000  1.0
  C  C76  1  0.99649000  0.65040000  0.40169000  1.0
  C  C77  1  0.00351000  0.34960000  0.59831000  1.0
  C  C78  1  0.06059000  0.74128000  0.40792000  1.0
  C  C79  1  0.93941000  0.25872000  0.59208000  1.0
  C  C80  1  0.97759000  0.86983000  0.40636000  1.0
  C  C81  1  0.02241000  0.13017000  0.59364000  1.0
  C  C82  1  0.10000000  0.51450000  0.38338000  1.0
  C  C83  1  0.90000000  0.48550000  0.61662000  1.0
  C  C84  1  0.11443000  0.30729000  0.31212000  1.0
  C  C85  1  0.88557000  0.69271000  0.68788000  1.0
  C  C86  1  0.02796000  0.23772000  0.29531000  1.0
  C  C87  1  0.97204000  0.76228000  0.70469000  1.0
  C  C88  1  0.09692000  0.12360000  0.23506000  1.0
  C  C89  1  0.90308000  0.87640000  0.76494000  1.0
  C  C90  1  0.32946000  0.13602000  0.21302000  1.0
  C  C91  1  0.67054000  0.86399000  0.78698000  1.0
  C  C92  1  0.27073000  0.25080000  0.27300000  1.0
  C  C93  1  0.72927000  0.74920000  0.72700000  1.0
  C  C94  1  0.35310000  0.13297000  0.91964000  1.0
  C  C95  1  0.64690000  0.86703000  0.08036000  1.0
  C  C96  1  0.21253000  0.22278000  0.89686000  1.0
  C  C97  1  0.78747000  0.77722000  0.10314000  1.0
  C  C98  1  0.19190000  0.35007000  0.88163000  1.0
  C  C99  1  0.80810000  0.64993000  0.11837000  1.0
  C  C100  1  0.05924000  0.43193000  0.86041000  1.0
  C  C101  1  0.94076000  0.56806000  0.13959000  1.0
  C  C102  1  0.94956000  0.38597000  0.84998000  1.0
  C  C103  1  0.05044000  0.61403000  0.15002000  1.0
  C  C104  1  0.96900000  0.25892000  0.86481000  1.0
  C  C105  1  0.03100000  0.74108000  0.13519000  1.0
  C  C106  1  0.09942000  0.17871000  0.89054000  1.0
  C  C107  1  0.90058000  0.82129000  0.10946000  1.0
  C  C108  1  0.85040000  0.20946000  0.85625000  1.0
  C  C109  1  0.14960000  0.79054000  0.14375000  1.0
  N  N110  1  0.39211000  0.77192000  0.95661000  1.0
  N  N111  1  0.60789000  0.22808000  0.04339000  1.0
  N  N112  1  0.48030000  0.45354000  0.75879000  1.0
  N  N113  1  0.51970000  0.54646000  0.24121000  1.0
  N  N114  1  0.03844000  0.42916000  0.36037000  1.0
  N  N115  1  0.96156000  0.57084000  0.63963000  1.0
  N  N116  1  0.24595000  0.07289000  0.19126000  1.0
  N  N117  1  0.75405000  0.92711000  0.80874000  1.0
  O  O118  1  0.29408000  0.51931000  0.67061000  1.0
  O  O119  1  0.70592000  0.48069000  0.32939000  1.0
  O  O120  1  0.75142000  0.03134000  0.38032000  1.0
  O  O121  1  0.24858000  0.96866000  0.61968000  1.0
  O  O122  1  0.23433000  0.48117000  0.38311000  1.0
  O  O123  1  0.76567000  0.51883000  0.61689000  1.0
  O  O124  1  0.34865000  0.03391000  0.96358000  1.0
  O  O125  1  0.65135000  0.96609000  0.03642000  1.0
  O  O126  1  0.47193000  0.15793000  0.89062000  1.0
  O  O127  1  0.52807000  0.84206000  0.10938000  1.0
  O  O128  1  0.86622000  0.09860000  0.88894000  1.0
  O  O129  1  0.13378000  0.90139000  0.11106000  1.0
  O  O130  1  0.73979000  0.27496000  0.82223000  1.0
  O  O131  1  0.26021000  0.72504000  0.17778000  1.0
