# generated using pymatgen
data_CuH7C6IN3O
_symmetry_space_group_name_H-M   'P 1'
_cell_length_a   4.59830000
_cell_length_b   9.96266000
_cell_length_c   19.66390000
_cell_angle_alpha   77.98700000
_cell_angle_beta   89.99840000
_cell_angle_gamma   89.99610000
_symmetry_Int_Tables_number   1
_chemical_formula_structural   CuH7C6IN3O
_chemical_formula_sum   'Cu4 H28 C24 I4 N12 O4'
_cell_volume   881.10102073
_cell_formula_units_Z   4
loop_
 _symmetry_equiv_pos_site_id
 _symmetry_equiv_pos_as_xyz
  1  'x, y, z'
loop_
 _atom_site_type_symbol
 _atom_site_label
 _atom_site_symmetry_multiplicity
 _atom_site_fract_x
 _atom_site_fract_y
 _atom_site_fract_z
 _atom_site_occupancy
  Cu  Cu0  1  0.32783000  0.47538000  0.79066000  1.0
  Cu  Cu1  1  0.82788000  0.52461000  0.70932000  1.0
  Cu  Cu2  1  0.67216000  0.52464000  0.20934000  1.0
  Cu  Cu3  1  0.17210000  0.47539000  0.29068000  1.0
  H  H4  1  0.72579000  0.24400000  0.84061000  1.0
  H  H5  1  0.22580000  0.75600000  0.65938000  1.0
  H  H6  1  0.27420000  0.75602000  0.15938000  1.0
  H  H7  1  0.77421000  0.24400000  0.34062000  1.0
  H  H8  1  0.87527000  0.09625000  0.95409000  1.0
  H  H9  1  0.37531000  0.90373000  0.54591000  1.0
  H  H10  1  0.12469000  0.90374000  0.04591000  1.0
  H  H11  1  0.62472000  0.09627000  0.45409000  1.0
  H  H12  1  0.29298000  0.33407000  0.05551000  1.0
  H  H13  1  0.79305000  0.66596000  0.44448000  1.0
  H  H14  1  0.70699000  0.66593000  0.94449000  1.0
  H  H15  1  0.20698000  0.33403000  0.55552000  1.0
  H  H16  1  0.16762000  0.47112000  0.93741000  1.0
  H  H17  1  0.66765000  0.52890000  0.56258000  1.0
  H  H18  1  0.83238000  0.52888000  0.06259000  1.0
  H  H19  1  0.33235000  0.47110000  0.43742000  1.0
  H  H20  1  0.27855000  0.10644000  0.12283000  1.0
  H  H21  1  0.77857000  0.89356000  0.37717000  1.0
  H  H22  1  0.72143000  0.89355000  0.87717000  1.0
  H  H23  1  0.22146000  0.10643000  0.62283000  1.0
  H  H24  1  0.66995000  0.92199000  0.18823000  1.0
  H  H25  1  0.16992000  0.07802000  0.31176000  1.0
  H  H26  1  0.33005000  0.07801000  0.81177000  1.0
  H  H27  1  0.83009000  0.92198000  0.68824000  1.0
  H  H28  1  0.70791000  0.05171000  0.22553000  1.0
  H  H29  1  0.20792000  0.94828000  0.27447000  1.0
  H  H30  1  0.29208000  0.94829000  0.77447000  1.0
  H  H31  1  0.79211000  0.05172000  0.72553000  1.0
  C  C32  1  0.63438000  0.25962000  0.88964000  1.0
  C  C33  1  0.13442000  0.74037000  0.61035000  1.0
  C  C34  1  0.36560000  0.74038000  0.11036000  1.0
  C  C35  1  0.86560000  0.25963000  0.38965000  1.0
  C  C36  1  0.71720000  0.17823000  0.95284000  1.0
  C  C37  1  0.21724000  0.82177000  0.54715000  1.0
  C  C38  1  0.28277000  0.82177000  0.04716000  1.0
  C  C39  1  0.78279000  0.17823000  0.45284000  1.0
  C  C40  1  0.59270000  0.20215000  0.01418000  1.0
  C  C41  1  0.09274000  0.79786000  0.48581000  1.0
  C  C42  1  0.40727000  0.79785000  0.98582000  1.0
  C  C43  1  0.90729000  0.20213000  0.51419000  1.0
  C  C44  1  0.39154000  0.30906000  0.00922000  1.0
  C  C45  1  0.89160000  0.69095000  0.49077000  1.0
  C  C46  1  0.60842000  0.69093000  0.99078000  1.0
  C  C47  1  0.10843000  0.30905000  0.50923000  1.0
  C  C48  1  0.32237000  0.38631000  0.94385000  1.0
  C  C49  1  0.82242000  0.61371000  0.55614000  1.0
  C  C50  1  0.67762000  0.61370000  0.05615000  1.0
  C  C51  1  0.17760000  0.38629000  0.44386000  1.0
  C  C52  1  0.69103000  0.11618000  0.08189000  1.0
  C  C53  1  0.19106000  0.88383000  0.41811000  1.0
  C  C54  1  0.30894000  0.88382000  0.91811000  1.0
  C  C55  1  0.80898000  0.11616000  0.58189000  1.0
  I  I56  1  0.44103000  0.34952000  0.69460000  1.0
  I  I57  1  0.94092000  0.65046000  0.80540000  1.0
  I  I58  1  0.55891000  0.65049000  0.30540000  1.0
  I  I59  1  0.05905000  0.34954000  0.19461000  1.0
  N  N60  1  0.43924000  0.36253000  0.88463000  1.0
  N  N61  1  0.93929000  0.63748000  0.61536000  1.0
  N  N62  1  0.56074000  0.63748000  0.11537000  1.0
  N  N63  1  0.06072000  0.36252000  0.38464000  1.0
  N  N64  1  0.49674000  0.09339000  0.13405000  1.0
  N  N65  1  0.99675000  0.90662000  0.36595000  1.0
  N  N66  1  0.50324000  0.90661000  0.86596000  1.0
  N  N67  1  0.00327000  0.09338000  0.63405000  1.0
  N  N68  1  0.56011000  0.00567000  0.19810000  1.0
  N  N69  1  0.06009000  0.99433000  0.30190000  1.0
  N  N70  1  0.43988000  0.99433000  0.80191000  1.0
  N  N71  1  0.93992000  0.00566000  0.69810000  1.0
  O  O72  1  0.94343000  0.06806000  0.08823000  1.0
  O  O73  1  0.44345000  0.93195000  0.41177000  1.0
  O  O74  1  0.05655000  0.93194000  0.91177000  1.0
  O  O75  1  0.55660000  0.06803000  0.58823000  1.0
