# generated using pymatgen
data_Zn3H5C15NO15
_symmetry_space_group_name_H-M   'P 1'
_cell_length_a   18.13650000
_cell_length_b   18.16490000
_cell_length_c   21.83630000
_cell_angle_alpha   92.36850000
_cell_angle_beta   90.44780000
_cell_angle_gamma   89.75210000
_symmetry_Int_Tables_number   1
_chemical_formula_structural   Zn3H5C15NO15
_chemical_formula_sum   'Zn12 H20 C60 N4 O60'
_cell_volume   7187.49601626
_cell_formula_units_Z   4
loop_
 _symmetry_equiv_pos_site_id
 _symmetry_equiv_pos_as_xyz
  1  'x, y, z'
loop_
 _atom_site_type_symbol
 _atom_site_label
 _atom_site_symmetry_multiplicity
 _atom_site_fract_x
 _atom_site_fract_y
 _atom_site_fract_z
 _atom_site_occupancy
  Zn  Zn0  1  0.92348000  0.98989000  0.49733000  1.0
  Zn  Zn1  1  0.07270000  0.98452000  0.50259000  1.0
  Zn  Zn2  1  0.42882000  0.49227000  0.00460000  1.0
  Zn  Zn3  1  0.57865000  0.49401000  0.00245000  1.0
  Zn  Zn4  1  0.98309000  0.92008000  0.99653000  1.0
  Zn  Zn5  1  0.97815000  0.07137000  0.99672000  1.0
  Zn  Zn6  1  0.51525000  0.42088000  0.50009000  1.0
  Zn  Zn7  1  0.51662000  0.57251000  0.50134000  1.0
  Zn  Zn8  1  0.01471000  0.48235000  0.43999000  1.0
  Zn  Zn9  1  0.01800000  0.48734000  0.56568000  1.0
  Zn  Zn10  1  0.48228000  0.98909000  0.94026000  1.0
  Zn  Zn11  1  0.47869000  0.99413000  0.06590000  1.0
  H  H12  1  0.03274000  0.92097000  0.18432000  1.0
  H  H13  1  0.90633000  0.12243000  0.80328000  1.0
  H  H14  1  0.47001000  0.42244000  0.68833000  1.0
  H  H15  1  0.48464000  0.63360000  0.30440000  1.0
  H  H16  1  0.92582000  0.00771000  0.29700000  1.0
  H  H17  1  0.01415000  0.02098000  0.69964000  1.0
  H  H18  1  0.57851000  0.51279000  0.80192000  1.0
  H  H19  1  0.59703000  0.52871000  0.20439000  1.0
  H  H20  1  0.16631000  0.97774000  0.23115000  1.0
  H  H21  1  0.14753000  0.88022000  0.22625000  1.0
  H  H22  1  0.20508000  0.91806000  0.28649000  1.0
  H  H23  1  0.78834000  0.14950000  0.75623000  1.0
  H  H24  1  0.77613000  0.05227000  0.76669000  1.0
  H  H25  1  0.73106000  0.09603000  0.70437000  1.0
  H  H26  1  0.36175000  0.37395000  0.73235000  1.0
  H  H27  1  0.33849000  0.47071000  0.73443000  1.0
  H  H28  1  0.30366000  0.41200000  0.79154000  1.0
  H  H29  1  0.36177000  0.64318000  0.25881000  1.0
  H  H30  1  0.35009000  0.54538000  0.24456000  1.0
  H  H31  1  0.31604000  0.60924000  0.19041000  1.0
  C  C32  1  0.04271000  0.12508000  0.50678000  1.0
  C  C33  1  0.02161000  0.84791000  0.51226000  1.0
  C  C34  1  0.45972000  0.63201000  0.00877000  1.0
  C  C35  1  0.47746000  0.35465000  0.01474000  1.0
  C  C36  1  0.97832000  0.98477000  0.38408000  1.0
  C  C37  1  0.95990000  0.01211000  0.61217000  1.0
  C  C38  1  0.52640000  0.48964000  0.88844000  1.0
  C  C39  1  0.54020000  0.51862000  0.11610000  1.0
  C  C40  1  0.02304000  0.97174000  0.21179000  1.0
  C  C41  1  0.92004000  0.06958000  0.78035000  1.0
  C  C42  1  0.48127000  0.47274000  0.71601000  1.0
  C  C43  1  0.49543000  0.57970000  0.28209000  1.0
  C  C44  1  0.00330000  0.03035000  0.17982000  1.0
  C  C45  1  0.94875000  0.01750000  0.81546000  1.0
  C  C46  1  0.50131000  0.53098000  0.68410000  1.0
  C  C47  1  0.51136000  0.52387000  0.31833000  1.0
  C  C48  1  0.03318000  0.96915000  0.27849000  1.0
  C  C49  1  0.90597000  0.05830000  0.71417000  1.0
  C  C50  1  0.47254000  0.47015000  0.78259000  1.0
  C  C51  1  0.48874000  0.56973000  0.21513000  1.0
  C  C52  1  0.97738000  0.98939000  0.31720000  1.0
  C  C53  1  0.96096000  0.03022000  0.67794000  1.0
  C  C54  1  0.52767000  0.49317000  0.82157000  1.0
  C  C55  1  0.54463000  0.53886000  0.18162000  1.0
  C  C56  1  0.04615000  0.20379000  0.51827000  1.0
  C  C57  1  0.02139000  0.76950000  0.52109000  1.0
  C  C58  1  0.45574000  0.71074000  0.01969000  1.0
  C  C59  1  0.47650000  0.27607000  0.02232000  1.0
  C  C60  1  0.04035000  0.27016000  0.52685000  1.0
  C  C61  1  0.01905000  0.70314000  0.52644000  1.0
  C  C62  1  0.45993000  0.77719000  0.02798000  1.0
  C  C63  1  0.47842000  0.20959000  0.02691000  1.0
  C  C64  1  0.11873000  0.97083000  0.98272000  1.0
  C  C65  1  0.84348000  0.96244000  0.99736000  1.0
  C  C66  1  0.65345000  0.46636000  0.49655000  1.0
  C  C67  1  0.37789000  0.46661000  0.48968000  1.0
  C  C68  1  0.99307000  0.02669000  0.11188000  1.0
  C  C69  1  0.96338000  0.02380000  0.88253000  1.0
  C  C70  1  0.50940000  0.52726000  0.61615000  1.0
  C  C71  1  0.51584000  0.52726000  0.38630000  1.0
  C  C72  1  0.15418000  0.48081000  0.47341000  1.0
  C  C73  1  0.87757000  0.47511000  0.48150000  1.0
  C  C74  1  0.61935000  0.97820000  0.98262000  1.0
  C  C75  1  0.34254000  0.98785000  0.97199000  1.0
  C  C76  1  0.02959000  0.34851000  0.52863000  1.0
  C  C77  1  0.01655000  0.62405000  0.52641000  1.0
  C  C78  1  0.46872000  0.85560000  0.02960000  1.0
  C  C79  1  0.48088000  0.13054000  0.02660000  1.0
  C  C80  1  0.19714000  0.97268000  0.97396000  1.0
  C  C81  1  0.76457000  0.96140000  0.99053000  1.0
  C  C82  1  0.73204000  0.46498000  0.48881000  1.0
  C  C83  1  0.29960000  0.46688000  0.47942000  1.0
  C  C84  1  0.79848000  0.46870000  0.48274000  1.0
  C  C85  1  0.23323000  0.47290000  0.47293000  1.0
  C  C86  1  0.26356000  0.97944000  0.96972000  1.0
  C  C87  1  0.69816000  0.96784000  0.98445000  1.0
  C  C88  1  0.15695000  0.92840000  0.25750000  1.0
  C  C89  1  0.78092000  0.09517000  0.73289000  1.0
  C  C90  1  0.35068000  0.42297000  0.76220000  1.0
  C  C91  1  0.36002000  0.59828000  0.22344000  1.0
  N  N92  1  0.99325000  0.10399000  0.20997000  1.0
  N  N93  1  0.96413000  0.94201000  0.78978000  1.0
  N  N94  1  0.51397000  0.60437000  0.71396000  1.0
  N  N95  1  0.52073000  0.44778000  0.29196000  1.0
  O  O96  1  0.97886000  0.09959000  0.49673000  1.0
  O  O97  1  0.08535000  0.87862000  0.51173000  1.0
  O  O98  1  0.95939000  0.87852000  0.50530000  1.0
  O  O99  1  0.10336000  0.08793000  0.50805000  1.0
  O  O100  1  0.39871000  0.59576000  0.00811000  1.0
  O  O101  1  0.54021000  0.38383000  0.00918000  1.0
  O  O102  1  0.41425000  0.38697000  0.01380000  1.0
  O  O103  1  0.52368000  0.60567000  0.00105000  1.0
  O  O104  1  0.91410000  0.98943000  0.40998000  1.0
  O  O105  1  0.02257000  0.99636000  0.58861000  1.0
  O  O106  1  0.89845000  0.01110000  0.58150000  1.0
  O  O107  1  0.03903000  0.97754000  0.41284000  1.0
  O  O108  1  0.46547000  0.48359000  0.91619000  1.0
  O  O109  1  0.60249000  0.51315000  0.08719000  1.0
  O  O110  1  0.47788000  0.50525000  0.09129000  1.0
  O  O111  1  0.59037000  0.49404000  0.91557000  1.0
  O  O112  1  0.08855000  0.90709000  0.98618000  1.0
  O  O113  1  0.87244000  0.02592000  0.00232000  1.0
  O  O114  1  0.08632000  0.03292000  0.98727000  1.0
  O  O115  1  0.87797000  0.90034000  0.99753000  1.0
  O  O116  1  0.62041000  0.40384000  0.49817000  1.0
  O  O117  1  0.40835000  0.52924000  0.49613000  1.0
  O  O118  1  0.62349000  0.52959000  0.50122000  1.0
  O  O119  1  0.41034000  0.40348000  0.49191000  1.0
  O  O120  1  0.99269000  0.96288000  0.08616000  1.0
  O  O121  1  0.96371000  0.08830000  0.90917000  1.0
  O  O122  1  0.51031000  0.46358000  0.59027000  1.0
  O  O123  1  0.51534000  0.59125000  0.41393000  1.0
  O  O124  1  0.98702000  0.08818000  0.08528000  1.0
  O  O125  1  0.97277000  0.96345000  0.90852000  1.0
  O  O126  1  0.51308000  0.58899000  0.58966000  1.0
  O  O127  1  0.51812000  0.46600000  0.41172000  1.0
  O  O128  1  0.11975000  0.48009000  0.42164000  1.0
  O  O129  1  0.90924000  0.48049000  0.53347000  1.0
  O  O130  1  0.12575000  0.48773000  0.52615000  1.0
  O  O131  1  0.90851000  0.47526000  0.42872000  1.0
  O  O132  1  0.58832000  0.97957000  0.92946000  1.0
  O  O133  1  0.37053000  0.99510000  0.02523000  1.0
  O  O134  1  0.58795000  0.98557000  0.03416000  1.0
  O  O135  1  0.37738000  0.98706000  0.92084000  1.0
  O  O136  1  0.02193000  0.37725000  0.47694000  1.0
  O  O137  1  0.01808000  0.59342000  0.57860000  1.0
  O  O138  1  0.47547000  0.88431000  0.97795000  1.0
  O  O139  1  0.47915000  0.09989000  0.07875000  1.0
  O  O140  1  0.02813000  0.38339000  0.58133000  1.0
  O  O141  1  0.01315000  0.59093000  0.47406000  1.0
  O  O142  1  0.46952000  0.89066000  0.08225000  1.0
  O  O143  1  0.48454000  0.09751000  0.97427000  1.0
  O  O144  1  0.04960000  0.13867000  0.22423000  1.0
  O  O145  1  0.92888000  0.12468000  0.21749000  1.0
  O  O146  1  0.02985000  0.92637000  0.78205000  1.0
  O  O147  1  0.91089000  0.90121000  0.77985000  1.0
  O  O148  1  0.57916000  0.62288000  0.72035000  1.0
  O  O149  1  0.45915000  0.64101000  0.72896000  1.0
  O  O150  1  0.58467000  0.42463000  0.28831000  1.0
  O  O151  1  0.46408000  0.41390000  0.27727000  1.0
  O  O152  1  0.09650000  0.93934000  0.29935000  1.0
  O  O153  1  0.84032000  0.07890000  0.69097000  1.0
  O  O154  1  0.41134000  0.43788000  0.80370000  1.0
  O  O155  1  0.42687000  0.59514000  0.18803000  1.0
