# generated using pymatgen
data_ZnH20C30(N2O3)2
_symmetry_space_group_name_H-M   'P 1'
_cell_length_a   7.19352000
_cell_length_b   12.53916223
_cell_length_c   17.85871733
_cell_angle_alpha   75.03902109
_cell_angle_beta   78.39723648
_cell_angle_gamma   73.37040155
_symmetry_Int_Tables_number   1
_chemical_formula_structural   ZnH20C30(N2O3)2
_chemical_formula_sum   'Zn2 H40 C60 N8 O12'
_cell_volume   1477.01794431
_cell_formula_units_Z   2
loop_
 _symmetry_equiv_pos_site_id
 _symmetry_equiv_pos_as_xyz
  1  'x, y, z'
loop_
 _atom_site_type_symbol
 _atom_site_label
 _atom_site_symmetry_multiplicity
 _atom_site_fract_x
 _atom_site_fract_y
 _atom_site_fract_z
 _atom_site_occupancy
  Zn  Zn0  1  0.90233000  0.74980000  0.24992000  1.0
  Zn  Zn1  1  0.09769000  0.25020000  0.75007000  1.0
  H  H2  1  0.02225000  0.15461000  0.13260000  1.0
  H  H3  1  0.30936000  0.34489000  0.36715000  1.0
  H  H4  1  0.97771000  0.84541000  0.86741000  1.0
  H  H5  1  0.69063000  0.65512000  0.63285000  1.0
  H  H6  1  0.12066000  0.75439000  0.37366000  1.0
  H  H7  1  0.24905000  0.74541000  0.12634000  1.0
  H  H8  1  0.87932000  0.24562000  0.62634000  1.0
  H  H9  1  0.75096000  0.25459000  0.87366000  1.0
  H  H10  1  0.09123000  0.26354000  0.02801000  1.0
  H  H11  1  0.38297000  0.23644000  0.47185000  1.0
  H  H12  1  0.90879000  0.73646000  0.97199000  1.0
  H  H13  1  0.61700000  0.76356000  0.52815000  1.0
  H  H14  1  0.31831000  0.88007000  0.39278000  1.0
  H  H15  1  0.59145000  0.61995000  0.10726000  1.0
  H  H16  1  0.68166000  0.11994000  0.60722000  1.0
  H  H17  1  0.40857000  0.38003000  0.89273000  1.0
  H  H18  1  0.31158000  0.06793000  0.29993000  1.0
  H  H19  1  0.67950000  0.43206000  0.20007000  1.0
  H  H20  1  0.68839000  0.93208000  0.70007000  1.0
  H  H21  1  0.32051000  0.56793000  0.79993000  1.0
  H  H22  1  0.93708000  0.98424000  0.17429000  1.0
  H  H23  1  0.09572000  0.51533000  0.32558000  1.0
  H  H24  1  0.06291000  0.01576000  0.82571000  1.0
  H  H25  1  0.90429000  0.48469000  0.67442000  1.0
  H  H26  1  0.02839000  0.36344000  0.89553000  1.0
  H  H27  1  0.28662000  0.13663000  0.60429000  1.0
  H  H28  1  0.97158000  0.63657000  0.10448000  1.0
  H  H29  1  0.71336000  0.86337000  0.39571000  1.0
  H  H30  1  0.94725000  0.54627000  0.79740000  1.0
  H  H31  1  0.28965000  0.95383000  0.70244000  1.0
  H  H32  1  0.05274000  0.45374000  0.20260000  1.0
  H  H33  1  0.71035000  0.04617000  0.29756000  1.0
  H  H34  1  0.84992000  0.00547000  0.96114000  1.0
  H  H35  1  0.81649000  0.49421000  0.53910000  1.0
  H  H36  1  0.15012000  0.99453000  0.03885000  1.0
  H  H37  1  0.18353000  0.50578000  0.46089000  1.0
  H  H38  1  0.60193000  0.11258000  0.86949000  1.0
  H  H39  1  0.58322000  0.38722000  0.63052000  1.0
  H  H40  1  0.39810000  0.88741000  0.13050000  1.0
  H  H41  1  0.41676000  0.61278000  0.36948000  1.0
  C  C42  1  0.12895000  0.83526000  0.33357000  1.0
  C  C43  1  0.29811000  0.66455000  0.16641000  1.0
  C  C44  1  0.87102000  0.16475000  0.66644000  1.0
  C  C45  1  0.70190000  0.33545000  0.83358000  1.0
  C  C46  1  0.06331000  0.34392000  0.04659000  1.0
  C  C47  1  0.45405000  0.15605000  0.45336000  1.0
  C  C48  1  0.93670000  0.65608000  0.95341000  1.0
  C  C49  1  0.54593000  0.84395000  0.54664000  1.0
  C  C50  1  0.23392000  0.90645000  0.34398000  1.0
  C  C51  1  0.48463000  0.59349000  0.15600000  1.0
  C  C52  1  0.76607000  0.09356000  0.65602000  1.0
  C  C53  1  0.51539000  0.40650000  0.84399000  1.0
  C  C54  1  0.23142000  0.01097000  0.29246000  1.0
  C  C55  1  0.53499000  0.48897000  0.20749000  1.0
  C  C56  1  0.76856000  0.98903000  0.70755000  1.0
  C  C57  1  0.46502000  0.51103000  0.79251000  1.0
  C  C58  1  0.12020000  0.04264000  0.23040000  1.0
  C  C59  1  0.39336000  0.45718000  0.26952000  1.0
  C  C60  1  0.87978000  0.95737000  0.76961000  1.0
  C  C61  1  0.60663000  0.54283000  0.73049000  1.0
  C  C62  1  0.02233000  0.96508000  0.22236000  1.0
  C  C63  1  0.20987000  0.53460000  0.27753000  1.0
  C  C64  1  0.97767000  0.03492000  0.77764000  1.0
  C  C65  1  0.79015000  0.46541000  0.72247000  1.0
  C  C66  1  0.13221000  0.24468000  0.18558000  1.0
  C  C67  1  0.56297000  0.25530000  0.31443000  1.0
  C  C68  1  0.86780000  0.75532000  0.81442000  1.0
  C  C69  1  0.43704000  0.74470000  0.68557000  1.0
  C  C70  1  0.07689000  0.34753000  0.12220000  1.0
  C  C71  1  0.54715000  0.15242000  0.37781000  1.0
  C  C72  1  0.92310000  0.65248000  0.87781000  1.0
  C  C73  1  0.45285000  0.84757000  0.62219000  1.0
  C  C74  1  0.01653000  0.44616000  0.98951000  1.0
  C  C75  1  0.45219000  0.05383000  0.51046000  1.0
  C  C76  1  0.98346000  0.55384000  0.01050000  1.0
  C  C77  1  0.54779000  0.94617000  0.48954000  1.0
  C  C78  1  0.00302000  0.44524000  0.91147000  1.0
  C  C79  1  0.35914000  0.05481000  0.58843000  1.0
  C  C80  1  0.99697000  0.55477000  0.08854000  1.0
  C  C81  1  0.64083000  0.94519000  0.41157000  1.0
  C  C82  1  0.95753000  0.54564000  0.85742000  1.0
  C  C83  1  0.35970000  0.95442000  0.64248000  1.0
  C  C84  1  0.04248000  0.45437000  0.14258000  1.0
  C  C85  1  0.64028000  0.04558000  0.35752000  1.0
  C  C86  1  0.78800000  0.87037000  0.10348000  1.0
  C  C87  1  0.76223000  0.62957000  0.39668000  1.0
  C  C88  1  0.21202000  0.12963000  0.89651000  1.0
  C  C89  1  0.23776000  0.37042000  0.60332000  1.0
  C  C90  1  0.63843000  0.93802000  0.05038000  1.0
  C  C91  1  0.62714000  0.56193000  0.44974000  1.0
  C  C92  1  0.36160000  0.06197000  0.94960000  1.0
  C  C93  1  0.37287000  0.43807000  0.55025000  1.0
  C  C94  1  0.69702000  0.00200000  0.97704000  1.0
  C  C95  1  0.67604000  0.49783000  0.52309000  1.0
  C  C96  1  0.30302000  0.99800000  0.02294000  1.0
  C  C97  1  0.32396000  0.50216000  0.47691000  1.0
  C  C98  1  0.55944000  0.06309000  0.92694000  1.0
  C  C99  1  0.54907000  0.43679000  0.57305000  1.0
  C  C100  1  0.44060000  0.93690000  0.07305000  1.0
  C  C101  1  0.45093000  0.56320000  0.42695000  1.0
  N  N102  1  0.02645000  0.86473000  0.27271000  1.0
  N  N103  1  0.16412000  0.63496000  0.22719000  1.0
  N  N104  1  0.97351000  0.13528000  0.72730000  1.0
  N  N105  1  0.83590000  0.36504000  0.77281000  1.0
  N  N106  1  0.10114000  0.14571000  0.17604000  1.0
  N  N107  1  0.42300000  0.35409000  0.32387000  1.0
  N  N108  1  0.89884000  0.85430000  0.82397000  1.0
  N  N109  1  0.57700000  0.64592000  0.67613000  1.0
  O  O110  1  0.20041000  0.24969000  0.24249000  1.0
  O  O111  1  0.69339000  0.25050000  0.25764000  1.0
  O  O112  1  0.79958000  0.75032000  0.75752000  1.0
  O  O113  1  0.30663000  0.74950000  0.74236000  1.0
  O  O114  1  0.71740000  0.83617000  0.17593000  1.0
  O  O115  1  0.73030000  0.66338000  0.32418000  1.0
  O  O116  1  0.28260000  0.16383000  0.82407000  1.0
  O  O117  1  0.26968000  0.33662000  0.67582000  1.0
  O  O118  1  0.96696000  0.84983000  0.07704000  1.0
  O  O119  1  0.89386000  0.65040000  0.42319000  1.0
  O  O120  1  0.03308000  0.15017000  0.92296000  1.0
  O  O121  1  0.10616000  0.34957000  0.57680000  1.0
