# generated using pymatgen
data_CdH20C26(IN3)2
_symmetry_space_group_name_H-M   'P 1'
_cell_length_a   9.33207000
_cell_length_b   12.27740000
_cell_length_c   12.90810000
_cell_angle_alpha   108.74500000
_cell_angle_beta   97.87720000
_cell_angle_gamma   108.07000000
_symmetry_Int_Tables_number   1
_chemical_formula_structural   CdH20C26(IN3)2
_chemical_formula_sum   'Cd2 H40 C52 I4 N12'
_cell_volume   1284.55196993
_cell_formula_units_Z   2
loop_
 _symmetry_equiv_pos_site_id
 _symmetry_equiv_pos_as_xyz
  1  'x, y, z'
loop_
 _atom_site_type_symbol
 _atom_site_label
 _atom_site_symmetry_multiplicity
 _atom_site_fract_x
 _atom_site_fract_y
 _atom_site_fract_z
 _atom_site_occupancy
  Cd  Cd0  1  0.14384000  0.76110000  0.22237000  1.0
  Cd  Cd1  1  0.85616000  0.23890000  0.77763000  1.0
  H  H2  1  0.44345000  0.83362000  0.42146000  1.0
  H  H3  1  0.55655000  0.16638000  0.57854000  1.0
  H  H4  1  0.61588000  0.73897000  0.48514000  1.0
  H  H5  1  0.38412000  0.26103000  0.51486000  1.0
  H  H6  1  0.40779000  0.42893000  0.15947000  1.0
  H  H7  1  0.59220000  0.57107000  0.84053000  1.0
  H  H8  1  0.24445000  0.53870000  0.10836000  1.0
  H  H9  1  0.75555000  0.46130000  0.89164000  1.0
  H  H10  1  0.84115000  0.73805000  0.41961000  1.0
  H  H11  1  0.15885000  0.26195000  0.58039000  1.0
  H  H12  1  0.06930000  0.83479000  0.58483000  1.0
  H  H13  1  0.93070000  0.16521000  0.41517000  1.0
  H  H14  1  0.94629000  0.52287000  0.66503000  1.0
  H  H15  1  0.05371000  0.47714000  0.33497000  1.0
  H  H16  1  0.70810000  0.41244000  0.50340000  1.0
  H  H17  1  0.29190000  0.58756000  0.49660000  1.0
  H  H18  1  0.76232000  0.37285000  0.25554000  1.0
  H  H19  1  0.23769000  0.62715000  0.74446000  1.0
  H  H20  1  0.66504000  0.14446000  0.16783000  1.0
  H  H21  1  0.33496000  0.85554000  0.83217000  1.0
  H  H22  1  0.23526000  0.12049000  0.26387000  1.0
  H  H23  1  0.76474000  0.87951000  0.73613000  1.0
  H  H24  1  0.33271000  0.35232000  0.34976000  1.0
  H  H25  1  0.66729000  0.64768000  0.65024000  1.0
  H  H26  1  0.29964000  0.06231000  0.99542000  1.0
  H  H27  1  0.70036000  0.93769000  0.00458000  1.0
  H  H28  1  0.05516000  0.94698000  0.83676000  1.0
  H  H29  1  0.94484000  0.05302000  0.16324000  1.0
  H  H30  1  0.86596000  0.74418000  0.82895000  1.0
  H  H31  1  0.13404000  0.25582000  0.17105000  1.0
  H  H32  1  0.92615000  0.67351000  0.98573000  1.0
  H  H33  1  0.07385000  0.32649000  0.01427000  1.0
  H  H34  1  0.62942000  0.04427000  0.33053000  1.0
  H  H35  1  0.37058000  0.95573000  0.66947000  1.0
  H  H36  1  0.80424000  0.92560000  0.32398000  1.0
  H  H37  1  0.19576000  0.07440000  0.67602000  1.0
  H  H38  1  0.74186000  0.73073000  0.15179000  1.0
  H  H39  1  0.25813000  0.26927000  0.84821000  1.0
  H  H40  1  0.50545000  0.66622000  0.99278000  1.0
  H  H41  1  0.49455000  0.33378000  0.00722000  1.0
  C  C42  1  0.43924000  0.74388000  0.36522000  1.0
  C  C43  1  0.56076000  0.25612000  0.63478000  1.0
  C  C44  1  0.53634000  0.69019000  0.40064000  1.0
  C  C45  1  0.46366000  0.30981000  0.59936000  1.0
  C  C46  1  0.52644000  0.57282000  0.32812000  1.0
  C  C47  1  0.47356000  0.42718000  0.67188000  1.0
  C  C48  1  0.41911000  0.51839000  0.22026000  1.0
  C  C49  1  0.58089000  0.48161000  0.77974000  1.0
  C  C50  1  0.32733000  0.57905000  0.19176000  1.0
  C  C51  1  0.67267000  0.42095000  0.80824000  1.0
  C  C52  1  0.74987000  0.56810000  0.45016000  1.0
  C  C53  1  0.25013000  0.43190000  0.54984000  1.0
  C  C54  1  0.85669000  0.68755000  0.47306000  1.0
  C  C55  1  0.14331000  0.31245000  0.52694000  1.0
  C  C56  1  0.98629000  0.74134000  0.56618000  1.0
  C  C57  1  0.01371000  0.25866000  0.43382000  1.0
  C  C58  1  0.91854000  0.56890000  0.60954000  1.0
  C  C59  1  0.08146000  0.43111000  0.39046000  1.0
  C  C60  1  0.78477000  0.50661000  0.51921000  1.0
  C  C61  1  0.21523000  0.49339000  0.48079000  1.0
  C  C62  1  0.55304000  0.37634000  0.30719000  1.0
  C  C63  1  0.44696000  0.62367000  0.69281000  1.0
  C  C64  1  0.64685000  0.31780000  0.25719000  1.0
  C  C65  1  0.35315000  0.68220000  0.74281000  1.0
  C  C66  1  0.59176000  0.18900000  0.20796000  1.0
  C  C67  1  0.40824000  0.81100000  0.79204000  1.0
  C  C68  1  0.44288000  0.11783000  0.20921000  1.0
  C  C69  1  0.55712000  0.88217000  0.79078000  1.0
  C  C70  1  0.34892000  0.17668000  0.25991000  1.0
  C  C71  1  0.65108000  0.82332000  0.74009000  1.0
  C  C72  1  0.40390000  0.30566000  0.30867000  1.0
  C  C73  1  0.59610000  0.69434000  0.69133000  1.0
  C  C74  1  0.24063000  0.92701000  0.07135000  1.0
  C  C75  1  0.75937000  0.07299000  0.92865000  1.0
  C  C76  1  0.21270000  0.97626000  0.99014000  1.0
  C  C77  1  0.78730000  0.02374000  0.00986000  1.0
  C  C78  1  0.07668000  0.91147000  0.90225000  1.0
  C  C79  1  0.92332000  0.08853000  0.09775000  1.0
  C  C80  1  0.97183000  0.79941000  0.89760000  1.0
  C  C81  1  0.02817000  0.20059000  0.10240000  1.0
  C  C82  1  0.00499000  0.75901000  0.98342000  1.0
  C  C83  1  0.99501000  0.24099000  0.01658000  1.0
  C  C84  1  0.48227000  0.91975000  0.16061000  1.0
  C  C85  1  0.51773000  0.08025000  0.83939000  1.0
  C  C86  1  0.60838000  0.96205000  0.25582000  1.0
  C  C87  1  0.39162000  0.03795000  0.74418000  1.0
  C  C88  1  0.70460000  0.89498000  0.25190000  1.0
  C  C89  1  0.29540000  0.10502000  0.74810000  1.0
  C  C90  1  0.67097000  0.78713000  0.15633000  1.0
  C  C91  1  0.32903000  0.21287000  0.84367000  1.0
  C  C92  1  0.54017000  0.75136000  0.06827000  1.0
  C  C93  1  0.45983000  0.24864000  0.93173000  1.0
  I  I94  1  0.88112000  0.54312000  0.14251000  1.0
  I  I95  1  0.11888000  0.45688000  0.85749000  1.0
  I  I96  1  0.17939000  0.96283000  0.41073000  1.0
  I  I97  1  0.82061000  0.03717000  0.58927000  1.0
  N  N98  1  0.33450000  0.68990000  0.26304000  1.0
  N  N99  1  0.66550000  0.31010000  0.73696000  1.0
  N  N100  1  0.61219000  0.50926000  0.36058000  1.0
  N  N101  1  0.38781000  0.49074000  0.63942000  1.0
  N  N102  1  0.01824000  0.68553000  0.63542000  1.0
  N  N103  1  0.98176000  0.31448000  0.36458000  1.0
  N  N104  1  0.13537000  0.82222000  0.06979000  1.0
  N  N105  1  0.86463000  0.17778000  0.93021000  1.0
  N  N106  1  0.38269000  0.98573000  0.15721000  1.0
  N  N107  1  0.61731000  0.01427000  0.84279000  1.0
  N  N108  1  0.44873000  0.81679000  0.06860000  1.0
  N  N109  1  0.55127000  0.18321000  0.93140000  1.0
