# generated using pymatgen
data_YbH14(C6O5)2
_symmetry_space_group_name_H-M   'P 1'
_cell_length_a   7.39278000
_cell_length_b   9.75255000
_cell_length_c   10.44870000
_cell_angle_alpha   88.77440000
_cell_angle_beta   80.82980000
_cell_angle_gamma   84.89420000
_symmetry_Int_Tables_number   1
_chemical_formula_structural   YbH14(C6O5)2
_chemical_formula_sum   'Yb2 H28 C24 O20'
_cell_volume   740.73610730
_cell_formula_units_Z   2
loop_
 _symmetry_equiv_pos_site_id
 _symmetry_equiv_pos_as_xyz
  1  'x, y, z'
loop_
 _atom_site_type_symbol
 _atom_site_label
 _atom_site_symmetry_multiplicity
 _atom_site_fract_x
 _atom_site_fract_y
 _atom_site_fract_z
 _atom_site_occupancy
  Yb  Yb0  1  0.78837000  0.74098000  0.96357000  1.0
  Yb  Yb1  1  0.21163000  0.25901000  0.03643000  1.0
  H  H2  1  0.95614000  0.88860000  0.73403000  1.0
  H  H3  1  0.04387000  0.11139000  0.26597000  1.0
  H  H4  1  0.14046000  0.83471000  0.79222000  1.0
  H  H5  1  0.85954000  0.16529000  0.20778000  1.0
  H  H6  1  0.87410000  0.02985000  0.94142000  1.0
  H  H7  1  0.12585000  0.97016000  0.05856000  1.0
  H  H8  1  0.74706000  0.02713000  0.07735000  1.0
  H  H9  1  0.25295000  0.97287000  0.92265000  1.0
  H  H10  1  0.15026000  0.59081000  0.93853000  1.0
  H  H11  1  0.84975000  0.40919000  0.06148000  1.0
  H  H12  1  0.12791000  0.65728000  0.07870000  1.0
  H  H13  1  0.87210000  0.34272000  0.92131000  1.0
  H  H14  1  0.41028000  0.77631000  0.95720000  1.0
  H  H15  1  0.58972000  0.22369000  0.04280000  1.0
  H  H16  1  0.40384000  0.70532000  0.09948000  1.0
  H  H17  1  0.59616000  0.29468000  0.90051000  1.0
  H  H18  1  0.84377000  0.78825000  0.40273000  1.0
  H  H19  1  0.15622000  0.21175000  0.59727000  1.0
  H  H20  1  0.85373000  0.71862000  0.63433000  1.0
  H  H21  1  0.14626000  0.28138000  0.36568000  1.0
  H  H22  1  0.68106000  0.32458000  0.56088000  1.0
  H  H23  1  0.31893000  0.67542000  0.43912000  1.0
  H  H24  1  0.67569000  0.39176000  0.32778000  1.0
  H  H25  1  0.32431000  0.60824000  0.67222000  1.0
  H  H26  1  0.26845000  0.84065000  0.59218000  1.0
  H  H27  1  0.73157000  0.15936000  0.40782000  1.0
  H  H28  1  0.73269000  0.06429000  0.63089000  1.0
  H  H29  1  0.26732000  0.93571000  0.36911000  1.0
  C  C30  1  0.75978000  0.59434000  0.35173000  1.0
  C  C31  1  0.24022000  0.40566000  0.64827000  1.0
  C  C32  1  0.80841000  0.68688000  0.43855000  1.0
  C  C33  1  0.19158000  0.31313000  0.56145000  1.0
  C  C34  1  0.81304000  0.64873000  0.56679000  1.0
  C  C35  1  0.18694000  0.35127000  0.43321000  1.0
  C  C36  1  0.76728000  0.51782000  0.61129000  1.0
  C  C37  1  0.23270000  0.48218000  0.38872000  1.0
  C  C38  1  0.71889000  0.42510000  0.52443000  1.0
  C  C39  1  0.28110000  0.57490000  0.47558000  1.0
  C  C40  1  0.71556000  0.46258000  0.39540000  1.0
  C  C41  1  0.28443000  0.53742000  0.60460000  1.0
  C  C42  1  0.75771000  0.64025000  0.21499000  1.0
  C  C43  1  0.24228000  0.35975000  0.78502000  1.0
  C  C44  1  0.77253000  0.47871000  0.75040000  1.0
  C  C45  1  0.22747000  0.52129000  0.24960000  1.0
  C  C46  1  0.50135000  0.94586000  0.62481000  1.0
  C  C47  1  0.49866000  0.05415000  0.37519000  1.0
  C  C48  1  0.36834000  0.91197000  0.55195000  1.0
  C  C49  1  0.63167000  0.08804000  0.44805000  1.0
  C  C50  1  0.63286000  0.03485000  0.57235000  1.0
  C  C51  1  0.36716000  0.96516000  0.42765000  1.0
  C  C52  1  0.50532000  0.88482000  0.75640000  1.0
  C  C53  1  0.49469000  0.11519000  0.24361000  1.0
  O  O54  1  0.77474000  0.76691000  0.18567000  1.0
  O  O55  1  0.22526000  0.23309000  0.81434000  1.0
  O  O56  1  0.74099000  0.55565000  0.12590000  1.0
  O  O57  1  0.25901000  0.44435000  0.87410000  1.0
  O  O58  1  0.78646000  0.57450000  0.82906000  1.0
  O  O59  1  0.21353000  0.42550000  0.17094000  1.0
  O  O60  1  0.76668000  0.35302000  0.78452000  1.0
  O  O61  1  0.23332000  0.64698000  0.21549000  1.0
  O  O62  1  0.65581000  0.87245000  0.79989000  1.0
  O  O63  1  0.34420000  0.12756000  0.20012000  1.0
  O  O64  1  0.35366000  0.84617000  0.81988000  1.0
  O  O65  1  0.64635000  0.15383000  0.18011000  1.0
  O  O66  1  0.00815000  0.82139000  0.79103000  1.0
  O  O67  1  0.99185000  0.17860000  0.20897000  1.0
  O  O68  1  0.81702000  0.96801000  0.00684000  1.0
  O  O69  1  0.18300000  0.03199000  0.99316000  1.0
  O  O70  1  0.08249000  0.66758000  0.99342000  1.0
  O  O71  1  0.91751000  0.33242000  0.00658000  1.0
  O  O72  1  0.48200000  0.75291000  0.02923000  1.0
  O  O73  1  0.51800000  0.24708000  0.97076000  1.0
