# generated using pymatgen
data_Zn3H25C30N7O12
_symmetry_space_group_name_H-M   'P 1'
_cell_length_a   18.61100000
_cell_length_b   18.62910000
_cell_length_c   18.73180000
_cell_angle_alpha   109.34700000
_cell_angle_beta   109.84600000
_cell_angle_gamma   108.83300000
_symmetry_Int_Tables_number   1
_chemical_formula_structural   Zn3H25C30N7O12
_chemical_formula_sum   'Zn6 H50 C60 N14 O24'
_cell_volume   5022.89645848
_cell_formula_units_Z   2
loop_
 _symmetry_equiv_pos_site_id
 _symmetry_equiv_pos_as_xyz
  1  'x, y, z'
loop_
 _atom_site_type_symbol
 _atom_site_label
 _atom_site_symmetry_multiplicity
 _atom_site_fract_x
 _atom_site_fract_y
 _atom_site_fract_z
 _atom_site_occupancy
  Zn  Zn0  1  0.99669000  0.05713000  0.55990000  1.0
  Zn  Zn1  1  0.00609000  0.93704000  0.44167000  1.0
  Zn  Zn2  1  0.43340000  0.93380000  0.99274000  1.0
  Zn  Zn3  1  0.55500000  0.06197000  0.99633000  1.0
  Zn  Zn4  1  0.56555000  0.48793000  0.55309000  1.0
  Zn  Zn5  1  0.43939000  0.50089000  0.44267000  1.0
  H  H6  1  0.27444000  0.91138000  0.68679000  1.0
  H  H7  1  0.41052000  0.23089000  0.52184000  1.0
  H  H8  1  0.26091000  0.41798000  0.45400000  1.0
  H  H9  1  0.17945000  0.42870000  0.46365000  1.0
  H  H10  1  0.07551000  0.23464000  0.55676000  1.0
  H  H11  1  0.15787000  0.33364000  0.62334000  1.0
  H  H12  1  0.08909000  0.24581000  0.43356000  1.0
  H  H13  1  0.54912000  0.82590000  0.08232000  1.0
  H  H14  1  0.61167000  0.78309000  0.12125000  1.0
  H  H15  1  0.77157000  0.20292000  0.28279000  1.0
  H  H16  1  0.96718000  0.25915000  0.47315000  1.0
  H  H17  1  0.75353000  0.87082000  0.24859000  1.0
  H  H18  1  0.93016000  0.22969000  0.36857000  1.0
  H  H19  1  0.82508000  0.19399000  0.45195000  1.0
  H  H20  1  0.29559000  0.07530000  0.70476000  1.0
  H  H21  1  0.77557000  0.58659000  0.47469000  1.0
  H  H22  1  0.55175000  0.69832000  0.47430000  1.0
  H  H23  1  0.55928000  0.79129000  0.53261000  1.0
  H  H24  1  0.78892000  0.93123000  0.59156000  1.0
  H  H25  1  0.68037000  0.97645000  0.89857000  1.0
  H  H26  1  0.72009000  0.93775000  0.83449000  1.0
  H  H27  1  0.66812000  0.72711000  0.70704000  1.0
  H  H28  1  0.70364000  0.18073000  0.32944000  1.0
  H  H29  1  0.72587000  0.82085000  0.80273000  1.0
  H  H30  1  0.30205000  0.79697000  0.75968000  1.0
  H  H31  1  0.30816000  0.78592000  0.67155000  1.0
  H  H32  1  0.38153000  0.20662000  0.87925000  1.0
  H  H33  1  0.39066000  0.18307000  0.95836000  1.0
  H  H34  1  0.55110000  0.37097000  0.12286000  1.0
  H  H35  1  0.55364000  0.27471000  0.07953000  1.0
  H  H36  1  0.49686000  0.40149000  0.22042000  1.0
  H  H37  1  0.46057000  0.19868000  0.36555000  1.0
  H  H38  1  0.34685000  0.15258000  0.29064000  1.0
  H  H39  1  0.87614000  0.69312000  0.45470000  1.0
  H  H40  1  0.48721000  0.03887000  0.21603000  1.0
  H  H41  1  0.54226000  0.12994000  0.30984000  1.0
  H  H42  1  0.35831000  0.04981000  0.17573000  1.0
  H  H43  1  0.18734000  0.11032000  0.92020000  1.0
  H  H44  1  0.12090000  0.09980000  0.82639000  1.0
  H  H45  1  0.15913000  0.92434000  0.83288000  1.0
  H  H46  1  0.07408000  0.79241000  0.64002000  1.0
  H  H47  1  0.06088000  0.84004000  0.57895000  1.0
  H  H48  1  0.23517000  0.03097000  0.47017000  1.0
  H  H49  1  0.33958000  0.08236000  0.48755000  1.0
  H  H50  1  0.69957000  0.82487000  0.62033000  1.0
  H  H51  1  0.25064000  0.41568000  0.58640000  1.0
  H  H52  1  0.70355000  0.87252000  0.47950000  1.0
  H  H53  1  0.30162000  0.63956000  0.57794000  1.0
  H  H54  1  0.31730000  0.57783000  0.63147000  1.0
  H  H55  1  0.33951000  0.69095000  0.76531000  1.0
  C  C56  1  0.13001000  0.09025000  0.48798000  1.0
  C  C57  1  0.26884000  0.30835000  0.51723000  1.0
  C  C58  1  0.22141000  0.36148000  0.51928000  1.0
  C  C59  1  0.10972000  0.02370000  0.65035000  1.0
  C  C60  1  0.14245000  0.27844000  0.50141000  1.0
  C  C61  1  0.79662000  0.08049000  0.33712000  1.0
  C  C62  1  0.80864000  0.00870000  0.33048000  1.0
  C  C63  1  0.74511000  0.92760000  0.25531000  1.0
  C  C64  1  0.67030000  0.91644000  0.18889000  1.0
  C  C65  1  0.66131000  0.99105000  0.19457000  1.0
  C  C66  1  0.72610000  0.07090000  0.26927000  1.0
  C  C67  1  0.19010000  0.95921000  0.80546000  1.0
  C  C68  1  0.75128000  0.16637000  0.31430000  1.0
  C  C69  1  0.83165000  0.17921000  0.39329000  1.0
  C  C70  1  0.77354000  0.80229000  0.51220000  1.0
  C  C71  1  0.89312000  0.85347000  0.47909000  1.0
  C  C72  1  0.83239000  0.78701000  0.48774000  1.0
  C  C73  1  0.83101000  0.70731000  0.47381000  1.0
  C  C74  1  0.77408000  0.64707000  0.48471000  1.0
  C  C75  1  0.71297000  0.66213000  0.50664000  1.0
  C  C76  1  0.71510000  0.74120000  0.52047000  1.0
  C  C77  1  0.67720000  0.79900000  0.54987000  1.0
  C  C78  1  0.15632000  0.92348000  0.70557000  1.0
  C  C79  1  0.74032000  0.86606000  0.53469000  1.0
  C  C80  1  0.52829000  0.90926000  0.88462000  1.0
  C  C81  1  0.35111000  0.97218000  0.87919000  1.0
  C  C82  1  0.49966000  0.13696000  0.09589000  1.0
  C  C83  1  0.88317000  0.01428000  0.39952000  1.0
  C  C84  1  0.59128000  0.98598000  0.12185000  1.0
  C  C85  1  0.45627000  0.38114000  0.34282000  1.0
  C  C86  1  0.41439000  0.37981000  0.52697000  1.0
  C  C87  1  0.50379000  0.62673000  0.60472000  1.0
  C  C88  1  0.64548000  0.59670000  0.51058000  1.0
  C  C89  1  0.17114000  0.01636000  0.71802000  1.0
  C  C90  1  0.44714000  0.76486000  0.75062000  1.0
  C  C91  1  0.52644000  0.84216000  0.81347000  1.0
  C  C92  1  0.60082000  0.84967000  0.80478000  1.0
  C  C93  1  0.59521000  0.77662000  0.74034000  1.0
  C  C94  1  0.51311000  0.70172000  0.67525000  1.0
  C  C95  1  0.26700000  0.04213000  0.73462000  1.0
  C  C96  1  0.43952000  0.69984000  0.68086000  1.0
  C  C97  1  0.34130000  0.64393000  0.63969000  1.0
  C  C98  1  0.34972000  0.71563000  0.72175000  1.0
  C  C99  1  0.44948000  0.17753000  0.20201000  1.0
  C  C100  1  0.20273000  0.23819000  0.50791000  1.0
  C  C101  1  0.48261000  0.19897000  0.15078000  1.0
  C  C102  1  0.49895000  0.28214000  0.15758000  1.0
  C  C103  1  0.48319000  0.33797000  0.21559000  1.0
  C  C104  1  0.45541000  0.31619000  0.26982000  1.0
  C  C105  1  0.43828000  0.23424000  0.26132000  1.0
  C  C106  1  0.41252000  0.17479000  0.29769000  1.0
  C  C107  1  0.25337000  0.95124000  0.72289000  1.0
  C  C108  1  0.42188000  0.10750000  0.22825000  1.0
  C  C109  1  0.28552000  0.98616000  0.82347000  1.0
  C  C110  1  0.30174000  0.07976000  0.83437000  1.0
  C  C111  1  0.20522000  0.16193000  0.49984000  1.0
  C  C112  1  0.20374000  0.05221000  0.81750000  1.0
  C  C113  1  0.28228000  0.15931000  0.50385000  1.0
  C  C114  1  0.35129000  0.23304000  0.51731000  1.0
  C  C115  1  0.34525000  0.30743000  0.52222000  1.0
  N  N116  1  0.20362000  0.38671000  0.45234000  1.0
  N  N117  1  0.52626000  0.30708000  0.10578000  1.0
  N  N118  1  0.48105000  0.07792000  0.26412000  1.0
  N  N119  1  0.18145000  0.11006000  0.86406000  1.0
  N  N120  1  0.07540000  0.84741000  0.63951000  1.0
  N  N121  1  0.29161000  0.08773000  0.49890000  1.0
  N  N122  1  0.10740000  0.29295000  0.56029000  1.0
  N  N123  1  0.60999000  0.83504000  0.11623000  1.0
  N  N124  1  0.91599000  0.24563000  0.41777000  1.0
  N  N125  1  0.58335000  0.76381000  0.49670000  1.0
  N  N126  1  0.68289000  0.92371000  0.86223000  1.0
  N  N127  1  0.67308000  0.78560000  0.74118000  1.0
  N  N128  1  0.29267000  0.75277000  0.70276000  1.0
  N  N129  1  0.37990000  0.15954000  0.89597000  1.0
  O  O130  1  0.08834000  0.11169000  0.52482000  1.0
  O  O131  1  0.41040000  0.41897000  0.32754000  1.0
  O  O132  1  0.49507000  0.39924000  0.56941000  1.0
  O  O133  1  0.10853000  0.00980000  0.44037000  1.0
  O  O134  1  0.38911000  0.41862000  0.48771000  1.0
  O  O135  1  0.55655000  0.59728000  0.62356000  1.0
  O  O136  1  0.44060000  0.59555000  0.52721000  1.0
  O  O137  1  0.66889000  0.55957000  0.55423000  1.0
  O  O138  1  0.56760000  0.58262000  0.47076000  1.0
  O  O139  1  0.07776000  0.07471000  0.67049000  1.0
  O  O140  1  0.09168000  0.97698000  0.57291000  1.0
  O  O141  1  0.58402000  0.99120000  0.91932000  1.0
  O  O142  1  0.90701000  0.93087000  0.51885000  1.0
  O  O143  1  0.92769000  0.83029000  0.43254000  1.0
  O  O144  1  0.91252000  0.07145000  0.47905000  1.0
  O  O145  1  0.91193000  0.96236000  0.37655000  1.0
  O  O146  1  0.47261000  0.88180000  0.90728000  1.0
  O  O147  1  0.32621000  0.91823000  0.90653000  1.0
  O  O148  1  0.42975000  0.01497000  0.89759000  1.0
  O  O149  1  0.46133000  0.05822000  0.07880000  1.0
  O  O150  1  0.55280000  0.16427000  0.06848000  1.0
  O  O151  1  0.51121000  0.92420000  0.08547000  1.0
  O  O152  1  0.61431000  0.04241000  0.09892000  1.0
  O  O153  1  0.50435000  0.39524000  0.41826000  1.0
