# generated using pymatgen
data_AgH7C11SN3O2F3
_symmetry_space_group_name_H-M   'P 1'
_cell_length_a   8.37470000
_cell_length_b   8.98389000
_cell_length_c   10.53540000
_cell_angle_alpha   93.36220000
_cell_angle_beta   112.41000000
_cell_angle_gamma   114.37000000
_symmetry_Int_Tables_number   1
_chemical_formula_structural   AgH7C11SN3O2F3
_chemical_formula_sum   'Ag2 H14 C22 S2 N6 O4 F6'
_cell_volume   645.18002156
_cell_formula_units_Z   2
loop_
 _symmetry_equiv_pos_site_id
 _symmetry_equiv_pos_as_xyz
  1  'x, y, z'
loop_
 _atom_site_type_symbol
 _atom_site_label
 _atom_site_symmetry_multiplicity
 _atom_site_fract_x
 _atom_site_fract_y
 _atom_site_fract_z
 _atom_site_occupancy
  Ag  Ag0  1  0.23201000  0.45449000  0.93569000  1.0
  Ag  Ag1  1  0.76799000  0.54551000  0.06431000  1.0
  H  H2  1  0.45528000  0.21774000  0.01924000  1.0
  H  H3  1  0.54472000  0.78225000  0.98076000  1.0
  H  H4  1  0.44417000  0.99321000  0.15196000  1.0
  H  H5  1  0.55583000  0.00678000  0.84804000  1.0
  H  H6  1  0.22754000  0.91686000  0.27368000  1.0
  H  H7  1  0.77246000  0.08314000  0.72631000  1.0
  H  H8  1  0.02011000  0.06151000  0.25146000  1.0
  H  H9  1  0.97990000  0.93849000  0.74854000  1.0
  H  H10  1  0.44658000  0.57776000  0.58121000  1.0
  H  H11  1  0.55341000  0.42224000  0.41880000  1.0
  H  H12  1  0.27883000  0.74609000  0.61460000  1.0
  H  H13  1  0.72117000  0.25392000  0.38539000  1.0
  H  H14  1  0.98671000  0.71797000  0.39640000  1.0
  H  H15  1  0.01329000  0.28203000  0.60360000  1.0
  C  C16  1  0.56881000  0.70808000  0.23109000  1.0
  C  C17  1  0.43118000  0.29192000  0.76891000  1.0
  C  C18  1  0.36167000  0.17960000  0.07287000  1.0
  C  C19  1  0.63833000  0.82040000  0.92713000  1.0
  C  C20  1  0.35708000  0.05686000  0.14826000  1.0
  C  C21  1  0.64293000  0.94313000  0.85174000  1.0
  C  C22  1  0.23446000  0.01310000  0.21475000  1.0
  C  C23  1  0.76555000  0.98690000  0.78525000  1.0
  C  C24  1  0.11929000  0.09254000  0.20278000  1.0
  C  C25  1  0.88071000  0.90746000  0.79722000  1.0
  C  C26  1  0.13314000  0.21398000  0.12519000  1.0
  C  C27  1  0.86687000  0.78602000  0.87482000  1.0
  C  C28  1  0.09362000  0.45588000  0.26171000  1.0
  C  C29  1  0.90637000  0.54411000  0.73829000  1.0
  C  C30  1  0.31714000  0.57002000  0.49419000  1.0
  C  C31  1  0.68285000  0.42998000  0.50581000  1.0
  C  C32  1  0.22635000  0.66376000  0.51226000  1.0
  C  C33  1  0.77365000  0.33624000  0.48774000  1.0
  C  C34  1  0.06724000  0.64968000  0.39319000  1.0
  C  C35  1  0.93276000  0.35033000  0.60681000  1.0
  C  C36  1  0.67295000  0.86078000  0.36318000  1.0
  C  C37  1  0.32705000  0.13922000  0.63682000  1.0
  S  S38  1  0.98164000  0.31320000  0.09503000  1.0
  S  S39  1  0.01836000  0.68679000  0.90497000  1.0
  N  N40  1  0.25076000  0.25691000  0.06068000  1.0
  N  N41  1  0.74925000  0.74309000  0.93933000  1.0
  N  N42  1  0.25106000  0.46549000  0.36872000  1.0
  N  N43  1  0.74893000  0.53450000  0.63128000  1.0
  N  N44  1  0.99998000  0.54654000  0.26622000  1.0
  N  N45  1  0.00001000  0.45345000  0.73378000  1.0
  O  O46  1  0.42040000  0.70384000  0.13232000  1.0
  O  O47  1  0.57960000  0.29616000  0.86768000  1.0
  O  O48  1  0.64900000  0.61637000  0.23719000  1.0
  O  O49  1  0.35099000  0.38363000  0.76281000  1.0
  F  F50  1  0.54703000  0.88447000  0.40399000  1.0
  F  F51  1  0.45298000  0.11554000  0.59602000  1.0
  F  F52  1  0.80825000  0.84945000  0.47913000  1.0
  F  F53  1  0.19175000  0.15055000  0.52087000  1.0
  F  F54  1  0.77124000  0.00790000  0.33046000  1.0
  F  F55  1  0.22876000  0.99211000  0.66953000  1.0
