# generated using pymatgen
data_TbH14(C2O)6
_symmetry_space_group_name_H-M   'P 1'
_cell_length_a   7.52205000
_cell_length_b   9.62828000
_cell_length_c   9.62824000
_cell_angle_alpha   98.42640000
_cell_angle_beta   89.99970000
_cell_angle_gamma   89.99940000
_symmetry_Int_Tables_number   1
_chemical_formula_structural   TbH14(C2O)6
_chemical_formula_sum   'Tb2 H28 C24 O12'
_cell_volume   689.79191761
_cell_formula_units_Z   2
loop_
 _symmetry_equiv_pos_site_id
 _symmetry_equiv_pos_as_xyz
  1  'x, y, z'
loop_
 _atom_site_type_symbol
 _atom_site_label
 _atom_site_symmetry_multiplicity
 _atom_site_fract_x
 _atom_site_fract_y
 _atom_site_fract_z
 _atom_site_occupancy
  Tb  Tb0  1  0.58070000  0.04532000  0.04532000  1.0
  Tb  Tb1  1  0.08071000  0.95468000  0.95468000  1.0
  H  H2  1  0.57501000  0.26575000  0.59255000  1.0
  H  H3  1  0.07501000  0.73425000  0.40745000  1.0
  H  H4  1  0.07500000  0.40745000  0.73425000  1.0
  H  H5  1  0.57499000  0.59255000  0.26575000  1.0
  H  H6  1  0.62717000  0.27076000  0.78273000  1.0
  H  H7  1  0.12718000  0.72925000  0.21727000  1.0
  H  H8  1  0.12716000  0.21727000  0.72925000  1.0
  H  H9  1  0.62716000  0.78273000  0.27075000  1.0
  H  H10  1  0.70492000  0.08033000  0.42061000  1.0
  H  H11  1  0.20492000  0.91967000  0.57939000  1.0
  H  H12  1  0.20492000  0.57939000  0.91967000  1.0
  H  H13  1  0.70492000  0.42062000  0.08033000  1.0
  H  H14  1  0.92594000  0.04358000  0.47203000  1.0
  H  H15  1  0.42594000  0.95642000  0.52798000  1.0
  H  H16  1  0.42593000  0.52797000  0.95641000  1.0
  H  H17  1  0.92593000  0.47203000  0.04358000  1.0
  H  H18  1  0.75618000  0.92206000  0.48756000  1.0
  H  H19  1  0.25618000  0.07794000  0.51244000  1.0
  H  H20  1  0.25617000  0.51244000  0.07794000  1.0
  H  H21  1  0.75618000  0.48756000  0.92206000  1.0
  H  H22  1  0.91474000  0.48358000  0.48358000  1.0
  H  H23  1  0.41476000  0.51643000  0.51642000  1.0
  H  H24  1  0.73697000  0.37968000  0.37968000  1.0
  H  H25  1  0.23699000  0.62033000  0.62032000  1.0
  H  H26  1  0.26857000  0.39781000  0.27068000  1.0
  H  H27  1  0.76859000  0.60220000  0.72933000  1.0
  H  H28  1  0.76859000  0.72933000  0.60221000  1.0
  H  H29  1  0.26857000  0.27065000  0.39779000  1.0
  C  C30  1  0.64365000  0.22013000  0.67471000  1.0
  C  C31  1  0.14365000  0.77986000  0.32529000  1.0
  C  C32  1  0.14363000  0.32529000  0.77987000  1.0
  C  C33  1  0.64363000  0.67471000  0.22013000  1.0
  C  C34  1  0.78446000  0.03519000  0.49774000  1.0
  C  C35  1  0.28446000  0.96481000  0.50226000  1.0
  C  C36  1  0.28445000  0.50226000  0.96481000  1.0
  C  C37  1  0.78445000  0.49775000  0.03519000  1.0
  C  C38  1  0.74775000  0.10649000  0.64371000  1.0
  C  C39  1  0.24776000  0.89351000  0.35629000  1.0
  C  C40  1  0.24775000  0.35629000  0.89351000  1.0
  C  C41  1  0.74774000  0.64371000  0.10649000  1.0
  C  C42  1  0.84201000  0.04979000  0.75880000  1.0
  C  C43  1  0.34201000  0.95021000  0.24120000  1.0
  C  C44  1  0.34200000  0.24120000  0.95020000  1.0
  C  C45  1  0.84200000  0.75880000  0.04980000  1.0
  C  C46  1  0.87797000  0.39983000  0.39982000  1.0
  C  C47  1  0.37799000  0.60018000  0.60018000  1.0
  C  C48  1  0.19278000  0.33963000  0.33963000  1.0
  C  C49  1  0.69280000  0.66037000  0.66037000  1.0
  C  C50  1  0.00004000  0.32192000  0.32192000  1.0
  C  C51  1  0.50006000  0.67808000  0.67808000  1.0
  C  C52  1  0.93784000  0.20766000  0.20767000  1.0
  C  C53  1  0.43786000  0.79233000  0.79233000  1.0
  O  O54  1  0.80718000  0.09338000  0.89011000  1.0
  O  O55  1  0.30718000  0.90662000  0.10989000  1.0
  O  O56  1  0.30718000  0.10989000  0.90662000  1.0
  O  O57  1  0.80717000  0.89011000  0.09339000  1.0
  O  O58  1  0.96457000  0.95964000  0.72802000  1.0
  O  O59  1  0.46456000  0.04036000  0.27198000  1.0
  O  O60  1  0.46456000  0.27198000  0.04035000  1.0
  O  O61  1  0.96457000  0.72802000  0.95965000  1.0
  O  O62  1  0.77258000  0.18833000  0.18833000  1.0
  O  O63  1  0.27261000  0.81167000  0.81167000  1.0
  O  O64  1  0.05989000  0.13692000  0.13692000  1.0
  O  O65  1  0.55991000  0.86308000  0.86308000  1.0
