# generated using pymatgen
data_CoH18C20(N4O3)2
_symmetry_space_group_name_H-M   'P 1'
_cell_length_a   8.02303000
_cell_length_b   8.20353000
_cell_length_c   10.09890000
_cell_angle_alpha   85.94990000
_cell_angle_beta   75.95450000
_cell_angle_gamma   62.87710000
_symmetry_Int_Tables_number   1
_chemical_formula_structural   CoH18C20(N4O3)2
_chemical_formula_sum   'Co1 H18 C20 N8 O6'
_cell_volume   573.28333401
_cell_formula_units_Z   1
loop_
 _symmetry_equiv_pos_site_id
 _symmetry_equiv_pos_as_xyz
  1  'x, y, z'
loop_
 _atom_site_type_symbol
 _atom_site_label
 _atom_site_symmetry_multiplicity
 _atom_site_fract_x
 _atom_site_fract_y
 _atom_site_fract_z
 _atom_site_occupancy
  Co  Co0  1  0.00000000  0.00000000  0.00000000  1.0
  H  H1  1  0.08293000  0.57814000  0.80752000  1.0
  H  H2  1  0.91708000  0.42186000  0.19249000  1.0
  H  H3  1  0.11236000  0.35584000  0.76567000  1.0
  H  H4  1  0.88765000  0.64415000  0.23433000  1.0
  H  H5  1  0.24140000  0.37852000  0.52437000  1.0
  H  H6  1  0.75860000  0.62148000  0.47563000  1.0
  H  H7  1  0.32199000  0.62559000  0.43571000  1.0
  H  H8  1  0.67801000  0.37441000  0.56429000  1.0
  H  H9  1  0.37737000  0.41004000  0.62505000  1.0
  H  H10  1  0.62262000  0.58997000  0.37494000  1.0
  H  H11  1  0.06824000  0.71379000  0.49752000  1.0
  H  H12  1  0.93176000  0.28621000  0.50247000  1.0
  H  H13  1  0.98960000  0.11080000  0.25564000  1.0
  H  H14  1  0.01041000  0.88920000  0.74436000  1.0
  H  H15  1  0.24118000  0.86919000  0.56489000  1.0
  H  H16  1  0.75883000  0.13081000  0.43510000  1.0
  H  H17  1  0.20947000  0.96309000  0.18520000  1.0
  H  H18  1  0.79053000  0.03690000  0.81480000  1.0
  C  C19  1  0.39856000  0.89618000  0.82421000  1.0
  C  C20  1  0.60145000  0.10382000  0.17578000  1.0
  C  C21  1  0.64374000  0.91270000  0.63669000  1.0
  C  C22  1  0.35626000  0.08730000  0.36331000  1.0
  C  C23  1  0.73632000  0.66364000  0.79191000  1.0
  C  C24  1  0.26367000  0.33636000  0.20809000  1.0
  C  C25  1  0.59142000  0.82421000  0.75208000  1.0
  C  C26  1  0.40858000  0.17579000  0.24792000  1.0
  C  C27  1  0.08683000  0.49175000  0.72745000  1.0
  C  C28  1  0.91317000  0.50825000  0.27255000  1.0
  C  C29  1  0.23713000  0.47385000  0.59754000  1.0
  C  C30  1  0.76287000  0.52616000  0.40245000  1.0
  C  C31  1  0.20604000  0.65300000  0.52869000  1.0
  C  C32  1  0.79396000  0.34698000  0.47130000  1.0
  C  C33  1  0.71394000  0.58769000  0.92215000  1.0
  C  C34  1  0.28606000  0.41231000  0.07786000  1.0
  C  C35  1  0.81889000  0.40058000  0.94036000  1.0
  C  C36  1  0.18110000  0.59943000  0.05964000  1.0
  C  C37  1  0.57819000  0.69142000  0.03948000  1.0
  C  C38  1  0.42179000  0.30859000  0.96053000  1.0
  N  N39  1  0.23947000  0.94961000  0.88731000  1.0
  N  N40  1  0.76052000  0.05039000  0.11269000  1.0
  N  N41  1  0.69186000  0.98260000  0.54032000  1.0
  N  N42  1  0.30814000  0.01740000  0.45967000  1.0
  N  N43  1  0.90024000  0.24497000  0.96030000  1.0
  N  N44  1  0.09976000  0.75503000  0.03970000  1.0
  N  N45  1  0.46986000  0.77211000  0.14043000  1.0
  N  N46  1  0.53015000  0.22788000  0.85956000  1.0
  O  O47  1  0.09383000  0.07021000  0.16899000  1.0
  O  O48  1  0.90618000  0.92978000  0.83102000  1.0
  O  O49  1  0.89788000  0.58201000  0.69354000  1.0
  O  O50  1  0.10211000  0.41800000  0.30646000  1.0
  O  O51  1  0.20748000  0.77855000  0.62036000  1.0
  O  O52  1  0.79252000  0.22146000  0.37964000  1.0
