# generated using pymatgen
data_AlH9C11NO7
_symmetry_space_group_name_H-M   'P 1'
_cell_length_a   6.63686000
_cell_length_b   10.90220000
_cell_length_c   11.16969818
_cell_angle_alpha   87.24500621
_cell_angle_beta   73.95367127
_cell_angle_gamma   73.26620000
_symmetry_Int_Tables_number   1
_chemical_formula_structural   AlH9C11NO7
_chemical_formula_sum   'Al2 H18 C22 N2 O14'
_cell_volume   743.38233852
_cell_formula_units_Z   2
loop_
 _symmetry_equiv_pos_site_id
 _symmetry_equiv_pos_as_xyz
  1  'x, y, z'
loop_
 _atom_site_type_symbol
 _atom_site_label
 _atom_site_symmetry_multiplicity
 _atom_site_fract_x
 _atom_site_fract_y
 _atom_site_fract_z
 _atom_site_occupancy
  Al  Al0  1  0.48629000  0.50400000  0.50036000  1.0
  Al  Al1  1  0.98993000  0.50081000  0.49558000  1.0
  H  H2  1  0.68457000  0.65971000  0.45961000  1.0
  H  H3  1  0.28687000  0.34967000  0.55314000  1.0
  H  H4  1  0.87517000  0.64060000  0.77990000  1.0
  H  H5  1  0.58061000  0.66825000  0.24249000  1.0
  H  H6  1  0.20632000  0.41071000  0.10544000  1.0
  H  H7  1  0.32666000  0.41361000  0.87236000  1.0
  H  H8  1  0.87668000  0.14571000  0.68288000  1.0
  H  H9  1  0.14839000  0.12740000  0.59160000  1.0
  H  H10  1  0.22099000  0.90902000  0.63421000  1.0
  H  H11  1  0.94007000  0.92825000  0.70396000  1.0
  H  H12  1  0.36018000  0.88809000  0.39605000  1.0
  H  H13  1  0.19159000  0.86386000  0.30677000  1.0
  H  H14  1  0.24976000  0.10569000  0.35832000  1.0
  H  H15  1  0.05967000  0.08161000  0.28428000  1.0
  H  H16  1  0.59579000  0.11823000  0.57234000  1.0
  H  H17  1  0.67129000  0.10021000  0.40836000  1.0
  H  H18  1  0.78749000  0.88032000  0.41984000  1.0
  H  H19  1  0.69684000  0.89587000  0.58401000  1.0
  C  C20  1  0.11461000  0.73492000  0.51715000  1.0
  C  C21  1  0.34653000  0.50837000  0.27024000  1.0
  C  C22  1  0.86011000  0.27190000  0.47455000  1.0
  C  C23  1  0.62966000  0.50476000  0.72640000  1.0
  C  C24  1  0.56070000  0.51435000  0.86656000  1.0
  C  C25  1  0.65086000  0.57971000  0.93742000  1.0
  C  C26  1  0.39891000  0.45852000  0.92815000  1.0
  C  C27  1  0.80859000  0.64528000  0.88069000  1.0
  C  C28  1  0.87321000  0.71742000  0.95241000  1.0
  C  C29  1  0.41618000  0.51737000  0.13101000  1.0
  C  C30  1  0.32940000  0.45821000  0.05895000  1.0
  C  C31  1  0.57107000  0.58467000  0.07154000  1.0
  C  C32  1  0.63932000  0.66251000  0.14154000  1.0
  C  C33  1  0.78442000  0.72834000  0.08289000  1.0
  C  C34  1  0.00385000  0.09381000  0.60136000  1.0
  C  C35  1  0.05764000  0.94774000  0.62015000  1.0
  C  C36  1  0.04091000  0.87951000  0.50709000  1.0
  C  C37  1  0.19229000  0.91680000  0.38782000  1.0
  C  C38  1  0.11511000  0.06283000  0.36928000  1.0
  C  C39  1  0.92459000  0.12736000  0.48254000  1.0
  C  C40  1  0.73122000  0.07339000  0.49111000  1.0
  C  C41  1  0.80258000  0.92619000  0.50086000  1.0
  N  N42  1  0.02021000  0.79388000  0.89154000  1.0
  N  N43  1  0.85517000  0.80456000  0.15908000  1.0
  O  O44  1  0.31452000  0.68062000  0.51274000  1.0
  O  O45  1  0.14848000  0.51072000  0.32082000  1.0
  O  O46  1  0.00828000  0.32769000  0.46541000  1.0
  O  O47  1  0.48214000  0.50399000  0.67440000  1.0
  O  O48  1  0.66111000  0.33010000  0.48193000  1.0
  O  O49  1  0.82943000  0.49487000  0.67104000  1.0
  O  O50  1  0.97291000  0.67457000  0.52621000  1.0
  O  O51  1  0.49368000  0.49843000  0.32584000  1.0
  O  O52  1  0.72863000  0.56663000  0.45304000  1.0
  O  O53  1  0.24429000  0.44194000  0.54501000  1.0
  O  O54  1  0.18520000  0.74027000  0.80839000  1.0
  O  O55  1  0.96436000  0.90814000  0.92657000  1.0
  O  O56  1  0.70986000  0.88171000  0.23692000  1.0
  O  O57  1  0.05471000  0.78480000  0.14158000  1.0
