# generated using pymatgen
data_NiH12C16(N4O)2
_symmetry_space_group_name_H-M   'P 1'
_cell_length_a   7.07081000
_cell_length_b   10.09010000
_cell_length_c   12.13990000
_cell_angle_alpha   90.00000000
_cell_angle_beta   90.00030000
_cell_angle_gamma   104.90900000
_symmetry_Int_Tables_number   1
_chemical_formula_structural   NiH12C16(N4O)2
_chemical_formula_sum   'Ni2 H24 C32 N16 O4'
_cell_volume   836.96589428
_cell_formula_units_Z   2
loop_
 _symmetry_equiv_pos_site_id
 _symmetry_equiv_pos_as_xyz
  1  'x, y, z'
loop_
 _atom_site_type_symbol
 _atom_site_label
 _atom_site_symmetry_multiplicity
 _atom_site_fract_x
 _atom_site_fract_y
 _atom_site_fract_z
 _atom_site_occupancy
  Ni  Ni0  1  0.00000000  0.00000000  0.00000000  1.0
  Ni  Ni1  1  0.50000000  0.50000000  0.50000000  1.0
  H  H2  1  0.97471000  0.21641000  0.20029000  1.0
  H  H3  1  0.47472000  0.71640000  0.29971000  1.0
  H  H4  1  0.02529000  0.78359000  0.79972000  1.0
  H  H5  1  0.52528000  0.28359000  0.70029000  1.0
  H  H6  1  0.85500000  0.20788000  0.39710000  1.0
  H  H7  1  0.35501000  0.70788000  0.10290000  1.0
  H  H8  1  0.14499000  0.79212000  0.60291000  1.0
  H  H9  1  0.64499000  0.29211000  0.89710000  1.0
  H  H10  1  0.56194000  0.15730000  0.51834000  1.0
  H  H11  1  0.06194000  0.65730000  0.98166000  1.0
  H  H12  1  0.43805000  0.84269000  0.48167000  1.0
  H  H13  1  0.93805000  0.34269000  0.01834000  1.0
  H  H14  1  0.33129000  0.06284000  0.46816000  1.0
  H  H15  1  0.83129000  0.56283000  0.03184000  1.0
  H  H16  1  0.66871000  0.93716000  0.53184000  1.0
  H  H17  1  0.16871000  0.43717000  0.96816000  1.0
  H  H18  1  0.30718000  0.94811000  0.28320000  1.0
  H  H19  1  0.80719000  0.44811000  0.21680000  1.0
  H  H20  1  0.69281000  0.05189000  0.71680000  1.0
  H  H21  1  0.19281000  0.55189000  0.78320000  1.0
  H  H22  1  0.44592000  0.96845000  0.09171000  1.0
  H  H23  1  0.94592000  0.46845000  0.40829000  1.0
  H  H24  1  0.55408000  0.03155000  0.90829000  1.0
  H  H25  1  0.05408000  0.53155000  0.59171000  1.0
  C  C26  1  0.82929000  0.15973000  0.22574000  1.0
  C  C27  1  0.32929000  0.65973000  0.27426000  1.0
  C  C28  1  0.17071000  0.84027000  0.77427000  1.0
  C  C29  1  0.67071000  0.34027000  0.72574000  1.0
  C  C30  1  0.76002000  0.15209000  0.33259000  1.0
  C  C31  1  0.26001000  0.65209000  0.16741000  1.0
  C  C32  1  0.23998000  0.84791000  0.66742000  1.0
  C  C33  1  0.73998000  0.34791000  0.83258000  1.0
  C  C34  1  0.56885000  0.07664000  0.35684000  1.0
  C  C35  1  0.06885000  0.57663000  0.14316000  1.0
  C  C36  1  0.43114000  0.92336000  0.64316000  1.0
  C  C37  1  0.93115000  0.42336000  0.85684000  1.0
  C  C38  1  0.48775000  0.06566000  0.47129000  1.0
  C  C39  1  0.98775000  0.56566000  0.02871000  1.0
  C  C40  1  0.51225000  0.93434000  0.52871000  1.0
  C  C41  1  0.01225000  0.43434000  0.97129000  1.0
  C  C42  1  0.45648000  0.00824000  0.26925000  1.0
  C  C43  1  0.95647000  0.50824000  0.23075000  1.0
  C  C44  1  0.54352000  0.99176000  0.73075000  1.0
  C  C45  1  0.04352000  0.49176000  0.76925000  1.0
  C  C46  1  0.52965000  0.01642000  0.16316000  1.0
  C  C47  1  0.02965000  0.51642000  0.33684000  1.0
  C  C48  1  0.47035000  0.98359000  0.83684000  1.0
  C  C49  1  0.97035000  0.48358000  0.66316000  1.0
  C  C50  1  0.67570000  0.75380000  0.89289000  1.0
  C  C51  1  0.17569000  0.25379000  0.60711000  1.0
  C  C52  1  0.32431000  0.24621000  0.10711000  1.0
  C  C53  1  0.82432000  0.74621000  0.39289000  1.0
  C  C54  1  0.54208000  0.62600000  0.74156000  1.0
  C  C55  1  0.04207000  0.12599000  0.75844000  1.0
  C  C56  1  0.45793000  0.37400000  0.25845000  1.0
  C  C57  1  0.95794000  0.87401000  0.24155000  1.0
  N  N58  1  0.71391000  0.09356000  0.14224000  1.0
  N  N59  1  0.21391000  0.59355000  0.35776000  1.0
  N  N60  1  0.28609000  0.90644000  0.85777000  1.0
  N  N61  1  0.78609000  0.40644000  0.64224000  1.0
  N  N62  1  0.78529000  0.83924000  0.94401000  1.0
  N  N63  1  0.28529000  0.33923000  0.55598000  1.0
  N  N64  1  0.21471000  0.16077000  0.05598000  1.0
  N  N65  1  0.71470000  0.66076000  0.44402000  1.0
  N  N66  1  0.54619000  0.65575000  0.84556000  1.0
  N  N67  1  0.04617000  0.15573000  0.65443000  1.0
  N  N68  1  0.45383000  0.34426000  0.15443000  1.0
  N  N69  1  0.95383000  0.84426000  0.34557000  1.0
  N  N70  1  0.51766000  0.58791000  0.64972000  1.0
  N  N71  1  0.01766000  0.08791000  0.85028000  1.0
  N  N72  1  0.48234000  0.41209000  0.35028000  1.0
  N  N73  1  0.98235000  0.91209000  0.14973000  1.0
  O  O74  1  0.78073000  0.10538000  0.03958000  1.0
  O  O75  1  0.28073000  0.60538000  0.46042000  1.0
  O  O76  1  0.21928000  0.89462000  0.96043000  1.0
  O  O77  1  0.71927000  0.39462000  0.53958000  1.0
