# generated using pymatgen
data_Li2MgH20C11N2O11
_symmetry_space_group_name_H-M   'P 1'
_cell_length_a   7.44177000
_cell_length_b   9.19117000
_cell_length_c   12.64300000
_cell_angle_alpha   89.99970000
_cell_angle_beta   89.99980000
_cell_angle_gamma   88.59240000
_symmetry_Int_Tables_number   1
_chemical_formula_structural   Li2MgH20C11N2O11
_chemical_formula_sum   'Li4 Mg2 H40 C22 N4 O22'
_cell_volume   864.50220981
_cell_formula_units_Z   2
loop_
 _symmetry_equiv_pos_site_id
 _symmetry_equiv_pos_as_xyz
  1  'x, y, z'
loop_
 _atom_site_type_symbol
 _atom_site_label
 _atom_site_symmetry_multiplicity
 _atom_site_fract_x
 _atom_site_fract_y
 _atom_site_fract_z
 _atom_site_occupancy
  Li  Li0  1  0.59420000  0.91744000  0.23893000  1.0
  Li  Li1  1  0.40580000  0.08256000  0.73893000  1.0
  Li  Li2  1  0.53864000  0.70487000  0.42766000  1.0
  Li  Li3  1  0.46137000  0.29513000  0.92766000  1.0
  Mg  Mg4  1  0.89459000  0.19610000  0.31412000  1.0
  Mg  Mg5  1  0.10540000  0.80390000  0.81412000  1.0
  H  H6  1  0.54800000  0.05372000  0.06510000  1.0
  H  H7  1  0.45201000  0.94628000  0.56510000  1.0
  H  H8  1  0.73396000  0.09976000  0.11201000  1.0
  H  H9  1  0.26605000  0.90025000  0.61201000  1.0
  H  H10  1  0.27121000  0.79033000  0.34407000  1.0
  H  H11  1  0.72879000  0.20967000  0.84408000  1.0
  H  H12  1  0.18683000  0.69831000  0.44164000  1.0
  H  H13  1  0.81318000  0.30170000  0.94164000  1.0
  H  H14  1  0.71629000  0.59455000  0.29164000  1.0
  H  H15  1  0.28372000  0.40544000  0.79163000  1.0
  H  H16  1  0.82707000  0.72802000  0.32293000  1.0
  H  H17  1  0.17294000  0.27197000  0.82292000  1.0
  H  H18  1  0.84615000  0.03621000  0.59929000  1.0
  H  H19  1  0.15386000  0.96378000  0.09929000  1.0
  H  H20  1  0.00525000  0.98975000  0.49906000  1.0
  H  H21  1  0.99476000  0.01025000  0.99906000  1.0
  H  H22  1  0.73392000  0.32205000  0.60001000  1.0
  H  H23  1  0.26608000  0.67794000  0.10000000  1.0
  H  H24  1  0.61599000  0.21543000  0.50858000  1.0
  H  H25  1  0.38400000  0.78456000  0.00856000  1.0
  H  H26  1  0.41975000  0.19917000  0.27752000  1.0
  H  H27  1  0.58025000  0.80084000  0.77751000  1.0
  H  H28  1  0.29719000  0.18344000  0.15922000  1.0
  H  H29  1  0.70281000  0.81657000  0.65922000  1.0
  H  H30  1  0.23012000  0.43059000  0.14957000  1.0
  H  H31  1  0.76988000  0.56941000  0.64957000  1.0
  H  H32  1  0.03935000  0.49104000  0.22456000  1.0
  H  H33  1  0.96065000  0.50896000  0.72456000  1.0
  H  H34  1  0.08018000  0.21950000  0.61633000  1.0
  H  H35  1  0.91982000  0.78050000  0.11633000  1.0
  H  H36  1  0.01612000  0.38602000  0.55429000  1.0
  H  H37  1  0.98387000  0.61398000  0.05428000  1.0
  H  H38  1  0.27644000  0.16223000  0.45663000  1.0
  H  H39  1  0.72356000  0.83778000  0.95662000  1.0
  H  H40  1  0.33011000  0.31848000  0.52840000  1.0
  H  H41  1  0.66988000  0.68153000  0.02840000  1.0
  H  H42  1  0.13214000  0.46514000  0.39129000  1.0
  H  H43  1  0.86784000  0.53486000  0.89129000  1.0
  H  H44  1  0.35584000  0.41440000  0.36047000  1.0
  H  H45  1  0.64415000  0.58560000  0.86047000  1.0
  C  C46  1  0.87867000  0.04992000  0.51534000  1.0
  C  C47  1  0.12133000  0.95008000  0.01533000  1.0
  C  C48  1  0.73295000  0.98276000  0.44725000  1.0
  C  C49  1  0.26705000  0.01723000  0.94724000  1.0
  C  C50  1  0.73263000  0.28594000  0.51702000  1.0
  C  C51  1  0.26737000  0.71405000  0.01701000  1.0
  C  C52  1  0.69715000  0.41447000  0.44316000  1.0
  C  C53  1  0.30284000  0.58552000  0.94315000  1.0
  C  C54  1  0.28410000  0.18111000  0.24601000  1.0
  C  C55  1  0.71590000  0.81889000  0.74601000  1.0
  C  C56  1  0.22667000  0.02810000  0.27365000  1.0
  C  C57  1  0.77335000  0.97189000  0.77365000  1.0
  C  C58  1  0.11056000  0.39425000  0.19266000  1.0
  C  C59  1  0.88943000  0.60575000  0.69266000  1.0
  C  C60  1  0.98245000  0.32033000  0.11462000  1.0
  C  C61  1  0.01755000  0.67968000  0.61462000  1.0
  C  C62  1  0.05537000  0.27207000  0.53915000  1.0
  C  C63  1  0.94463000  0.72793000  0.03915000  1.0
  C  C64  1  0.22886000  0.27357000  0.47486000  1.0
  C  C65  1  0.77114000  0.72644000  0.97486000  1.0
  C  C66  1  0.22177000  0.37102000  0.37635000  1.0
  C  C67  1  0.77822000  0.62898000  0.87635000  1.0
  N  N68  1  0.89793000  0.20397000  0.48770000  1.0
  N  N69  1  0.10207000  0.79603000  0.98769000  1.0
  N  N70  1  0.15506000  0.29555000  0.28120000  1.0
  N  N71  1  0.84493000  0.70445000  0.78120000  1.0
  O  O72  1  0.70870000  0.03510000  0.35374000  1.0
  O  O73  1  0.29131000  0.96490000  0.85374000  1.0
  O  O74  1  0.64527000  0.87923000  0.48533000  1.0
  O  O75  1  0.35474000  0.12077000  0.98533000  1.0
  O  O76  1  0.75433000  0.40024000  0.34712000  1.0
  O  O77  1  0.24566000  0.59975000  0.84712000  1.0
  O  O78  1  0.60833000  0.52077000  0.47920000  1.0
  O  O79  1  0.39164000  0.47922000  0.97920000  1.0
  O  O80  1  0.06698000  0.01057000  0.30554000  1.0
  O  O81  1  0.93301000  0.98942000  0.80554000  1.0
  O  O82  1  0.34035000  0.92458000  0.25883000  1.0
  O  O83  1  0.65965000  0.07543000  0.75884000  1.0
  O  O84  1  0.87602000  0.22668000  0.15557000  1.0
  O  O85  1  0.12398000  0.77332000  0.65557000  1.0
  O  O86  1  0.98622000  0.35543000  0.01902000  1.0
  O  O87  1  0.01377000  0.64459000  0.51901000  1.0
  O  O88  1  0.64898000  0.01765000  0.10878000  1.0
  O  O89  1  0.35104000  0.98235000  0.60878000  1.0
  O  O90  1  0.29373000  0.71070000  0.39546000  1.0
  O  O91  1  0.70627000  0.28930000  0.89546000  1.0
  O  O92  1  0.71371000  0.70301000  0.28941000  1.0
  O  O93  1  0.28631000  0.29698000  0.78941000  1.0
