# generated using pymatgen
data_CuH6C12SN3O
_symmetry_space_group_name_H-M   'P 1'
_cell_length_a   5.66967000
_cell_length_b   7.67468000
_cell_length_c   12.58200000
_cell_angle_alpha   88.62890000
_cell_angle_beta   89.98640000
_cell_angle_gamma   89.96270000
_symmetry_Int_Tables_number   1
_chemical_formula_structural   CuH6C12SN3O
_chemical_formula_sum   'Cu2 H12 C24 S2 N6 O2'
_cell_volume   547.32246465
_cell_formula_units_Z   2
loop_
 _symmetry_equiv_pos_site_id
 _symmetry_equiv_pos_as_xyz
  1  'x, y, z'
loop_
 _atom_site_type_symbol
 _atom_site_label
 _atom_site_symmetry_multiplicity
 _atom_site_fract_x
 _atom_site_fract_y
 _atom_site_fract_z
 _atom_site_occupancy
  Cu  Cu0  1  0.13307000  0.52985000  0.97823000  1.0
  Cu  Cu1  1  0.86436000  0.02747000  0.47446000  1.0
  H  H2  1  0.03630000  0.62919000  0.73064000  1.0
  H  H3  1  0.96282000  0.13540000  0.77773000  1.0
  H  H4  1  0.96489000  0.12844000  0.23057000  1.0
  H  H5  1  0.03717000  0.63118000  0.27538000  1.0
  H  H6  1  0.69578000  0.77821000  0.64709000  1.0
  H  H7  1  0.31365000  0.27255000  0.85554000  1.0
  H  H8  1  0.30550000  0.27760000  0.14742000  1.0
  H  H9  1  0.68666000  0.76750000  0.35450000  1.0
  H  H10  1  0.39437000  0.92988000  0.75929000  1.0
  H  H11  1  0.61144000  0.42637000  0.73768000  1.0
  H  H12  1  0.60595000  0.42886000  0.26023000  1.0
  H  H13  1  0.38936000  0.92486000  0.23833000  1.0
  C  C14  1  0.62931000  0.39318000  0.00190000  1.0
  C  C15  1  0.36927000  0.89048000  0.49995000  1.0
  C  C16  1  0.90916000  0.69786000  0.77943000  1.0
  C  C17  1  0.09108000  0.20087000  0.72589000  1.0
  C  C18  1  0.09182000  0.19670000  0.27956000  1.0
  C  C19  1  0.90924000  0.69853000  0.22429000  1.0
  C  C20  1  0.71606000  0.78245000  0.73294000  1.0
  C  C21  1  0.28905000  0.28067000  0.76987000  1.0
  C  C22  1  0.28483000  0.28138000  0.23326000  1.0
  C  C23  1  0.71147000  0.77788000  0.26889000  1.0
  C  C24  1  0.54911000  0.86891000  0.79548000  1.0
  C  C25  1  0.45494000  0.36629000  0.70426000  1.0
  C  C26  1  0.45121000  0.36744000  0.29608000  1.0
  C  C27  1  0.54558000  0.86541000  0.20410000  1.0
  C  C28  1  0.59015000  0.86914000  0.90435000  1.0
  C  C29  1  0.41129000  0.36678000  0.59565000  1.0
  C  C30  1  0.40961000  0.36693000  0.40488000  1.0
  C  C31  1  0.58883000  0.86807000  0.09539000  1.0
  C  C32  1  0.78984000  0.78099000  0.94352000  1.0
  C  C33  1  0.20929000  0.27928000  0.56006000  1.0
  C  C34  1  0.21009000  0.27864000  0.44419000  1.0
  C  C35  1  0.79071000  0.78108000  0.05922000  1.0
  C  C36  1  0.45513000  0.93495000  0.99916000  1.0
  C  C37  1  0.54456000  0.43305000  0.49937000  1.0
  S  S38  1  0.88072000  0.29052000  0.00379000  1.0
  S  S39  1  0.11777000  0.78830000  0.50226000  1.0
  N  N40  1  0.44558000  0.46712000  0.00036000  1.0
  N  N41  1  0.55306000  0.96414000  0.49818000  1.0
  N  N42  1  0.94719000  0.69337000  0.88623000  1.0
  N  N43  1  0.04887000  0.19733000  0.62013000  1.0
  N  N44  1  0.05323000  0.19159000  0.38639000  1.0
  N  N45  1  0.95117000  0.69747000  0.11846000  1.0
  O  O46  1  0.27591000  0.02448000  0.99780000  1.0
  O  O47  1  0.72357000  0.52269000  0.49766000  1.0
