# generated using pymatgen
data_Ag4H18C28N4O9
_symmetry_space_group_name_H-M   'P 1'
_cell_length_a   5.98494000
_cell_length_b   14.44000000
_cell_length_c   17.17051359
_cell_angle_alpha   109.35054091
_cell_angle_beta   99.91823911
_cell_angle_gamma   90.03990000
_symmetry_Int_Tables_number   1
_chemical_formula_structural   Ag4H18C28N4O9
_chemical_formula_sum   'Ag8 H36 C56 N8 O18'
_cell_volume   1376.49954869
_cell_formula_units_Z   2
loop_
 _symmetry_equiv_pos_site_id
 _symmetry_equiv_pos_as_xyz
  1  'x, y, z'
loop_
 _atom_site_type_symbol
 _atom_site_label
 _atom_site_symmetry_multiplicity
 _atom_site_fract_x
 _atom_site_fract_y
 _atom_site_fract_z
 _atom_site_occupancy
  Ag  Ag0  1  0.84650000  0.38602000  0.17407000  1.0
  Ag  Ag1  1  0.32133000  0.88785000  0.17481000  1.0
  Ag  Ag2  1  0.35195000  0.67345000  0.10798000  1.0
  Ag  Ag3  1  0.76142000  0.17019000  0.10605000  1.0
  Ag  Ag4  1  0.74593000  0.57089000  0.04289000  1.0
  Ag  Ag5  1  0.30095000  0.07108000  0.04205000  1.0
  Ag  Ag6  1  0.41343000  0.47000000  0.10432000  1.0
  Ag  Ag7  1  0.68929000  0.96814000  0.10549000  1.0
  H  H8  1  0.59369000  0.45910000  0.31902000  1.0
  H  H9  1  0.71976000  0.95919000  0.31839000  1.0
  H  H10  1  0.64275000  0.47204000  0.47109000  1.0
  H  H11  1  0.82617000  0.97059000  0.46990000  1.0
  H  H12  1  0.28689000  0.33942000  0.44520000  1.0
  H  H13  1  0.15730000  0.83803000  0.44622000  1.0
  H  H14  1  0.21809000  0.33742000  0.29693000  1.0
  H  H15  1  0.07450000  0.83752000  0.29840000  1.0
  H  H16  1  0.04345000  0.37956000  0.78878000  1.0
  H  H17  1  0.74816000  0.87938000  0.78863000  1.0
  H  H18  1  0.71633000  0.30837000  0.67462000  1.0
  H  H19  1  0.96321000  0.80818000  0.67487000  1.0
  H  H20  1  0.37290000  0.23514000  0.70330000  1.0
  H  H21  1  0.33574000  0.73602000  0.70418000  1.0
  H  H22  1  0.37151000  0.23013000  0.84770000  1.0
  H  H23  1  0.47916000  0.73163000  0.84884000  1.0
  H  H24  1  0.99864000  0.62710000  0.92478000  1.0
  H  H25  1  0.93057000  0.12702000  0.92459000  1.0
  H  H26  1  0.93874000  0.62449000  0.77661000  1.0
  H  H27  1  0.83943000  0.12365000  0.77636000  1.0
  H  H28  1  0.26934000  0.48519000  0.73971000  1.0
  H  H29  1  0.47023000  0.98370000  0.73719000  1.0
  H  H30  1  0.35066000  0.50174000  0.89282000  1.0
  H  H31  1  0.54502000  0.00118000  0.89047000  1.0
  H  H32  1  0.38854000  0.58889000  0.42161000  1.0
  H  H33  1  0.03128000  0.08894000  0.42159000  1.0
  H  H34  1  0.17707000  0.64791000  0.53853000  1.0
  H  H35  1  0.35778000  0.14937000  0.53869000  1.0
  H  H36  1  0.79301000  0.71311000  0.51529000  1.0
  H  H37  1  0.71798000  0.21558000  0.51537000  1.0
  H  H38  1  0.62655000  0.71855000  0.37274000  1.0
  H  H39  1  0.74330000  0.22026000  0.37260000  1.0
  H  H40  1  0.28895000  0.26055000  0.14506000  1.0
  H  H41  1  0.85566000  0.76068000  0.14519000  1.0
  H  H42  1  0.17899000  0.28139000  0.06012000  1.0
  H  H43  1  0.88054000  0.78161000  0.06022000  1.0
  C  C44  1  0.74495000  0.43451000  0.35012000  1.0
  C  C45  1  0.60059000  0.93435000  0.34987000  1.0
  C  C46  1  0.77122000  0.44067000  0.43370000  1.0
  C  C47  1  0.65979000  0.93963000  0.43316000  1.0
  C  C48  1  0.96810000  0.40579000  0.46906000  1.0
  C  C49  1  0.49954000  0.90430000  0.46895000  1.0
  C  C50  1  0.13318000  0.36795000  0.42004000  1.0
  C  C51  1  0.28486000  0.86689000  0.42070000  1.0
  C  C52  1  0.09437000  0.36596000  0.33729000  1.0
  C  C53  1  0.23908000  0.86575000  0.33819000  1.0
  C  C54  1  0.99627000  0.40660000  0.55347000  1.0
  C  C55  1  0.55789000  0.90398000  0.55298000  1.0
  C  C56  1  0.09383000  0.38941000  0.95287000  1.0
  C  C57  1  0.85970000  0.89064000  0.95312000  1.0
  C  C58  1  0.89502000  0.34485000  0.88267000  1.0
  C  C59  1  0.98902000  0.84537000  0.88300000  1.0
  C  C60  1  0.89665000  0.34636000  0.80165000  1.0
  C  C61  1  0.90774000  0.84645000  0.80181000  1.0
  C  C62  1  0.71152000  0.30566000  0.73700000  1.0
  C  C63  1  0.02947000  0.80577000  0.73735000  1.0
  C  C64  1  0.52073000  0.26411000  0.75307000  1.0
  C  C65  1  0.23649000  0.76477000  0.75375000  1.0
  C  C66  1  0.51892000  0.26094000  0.83333000  1.0
  C  C67  1  0.31722000  0.76196000  0.83415000  1.0
  C  C68  1  0.70553000  0.30021000  0.89801000  1.0
  C  C69  1  0.19387000  0.80108000  0.89862000  1.0
  C  C70  1  0.70669000  0.29409000  0.98356000  1.0
  C  C71  1  0.27746000  0.79542000  0.98429000  1.0
  C  C72  1  0.83856000  0.59756000  0.88229000  1.0
  C  C73  1  0.04709000  0.09715000  0.88161000  1.0
  C  C74  1  0.80604000  0.59471000  0.79931000  1.0
  C  C75  1  0.99502000  0.09386000  0.79855000  1.0
  C  C76  1  0.59847000  0.55390000  0.74682000  1.0
  C  C77  1  0.14875000  0.05262000  0.74536000  1.0
  C  C78  1  0.43117000  0.51805000  0.77940000  1.0
  C  C79  1  0.34901000  0.01689000  0.77738000  1.0
  C  C80  1  0.47674000  0.52573000  0.86352000  1.0
  C  C81  1  0.38915000  0.02498000  0.86161000  1.0
  C  C82  1  0.55377000  0.55174000  0.66188000  1.0
  C  C83  1  0.10706000  0.05004000  0.66030000  1.0
  C  C84  1  0.25534000  0.59047000  0.25887000  1.0
  C  C85  1  0.00309000  0.08980000  0.25877000  1.0
  C  C86  1  0.12877000  0.62013000  0.33133000  1.0
  C  C87  1  0.20138000  0.12023000  0.33118000  1.0
  C  C88  1  0.22141000  0.61708000  0.41090000  1.0
  C  C89  1  0.18748000  0.11756000  0.41089000  1.0
  C  C90  1  0.10195000  0.65113000  0.47706000  1.0
  C  C91  1  0.37194000  0.15245000  0.47715000  1.0
  C  C92  1  0.88774000  0.68786000  0.46394000  1.0
  C  C93  1  0.57268000  0.18965000  0.46399000  1.0
  C  C94  1  0.79387000  0.69096000  0.38454000  1.0
  C  C95  1  0.58801000  0.19228000  0.38443000  1.0
  C  C96  1  0.91299000  0.65707000  0.31830000  1.0
  C  C97  1  0.40382000  0.15758000  0.31806000  1.0
  C  C98  1  0.81210000  0.65926000  0.23276000  1.0
  C  C99  1  0.42006000  0.15985000  0.23247000  1.0
  N  N100  1  0.90363000  0.39815000  0.30302000  1.0
  N  N101  1  0.39429000  0.89833000  0.30346000  1.0
  N  N102  1  0.01554000  0.40548000  0.62198000  1.0
  N  N103  1  0.60932000  0.90186000  0.62110000  1.0
  N  N104  1  0.67695000  0.56398000  0.91377000  1.0
  N  N105  1  0.24046000  0.06354000  0.91253000  1.0
  N  N106  1  0.51349000  0.55184000  0.59290000  1.0
  N  N107  1  0.07738000  0.04987000  0.59124000  1.0
  O  O108  1  0.27581000  0.65661000  0.22644000  1.0
  O  O109  1  0.94814000  0.15556000  0.22620000  1.0
  O  O110  1  0.14695000  0.25542000  0.10398000  1.0
  O  O111  1  0.95668000  0.75583000  0.10409000  1.0
  O  O112  1  0.32642000  0.50429000  0.23599000  1.0
  O  O113  1  0.91126000  0.00320000  0.23608000  1.0
  O  O114  1  0.74330000  0.73878000  0.22528000  1.0
  O  O115  1  0.48027000  0.23955000  0.22504000  1.0
  O  O116  1  0.80472000  0.57643000  0.17252000  1.0
  O  O117  1  0.36820000  0.07704000  0.17211000  1.0
  O  O118  1  0.20740000  0.33215000  0.98492000  1.0
  O  O119  1  0.77776000  0.83391000  0.98579000  1.0
  O  O120  1  0.13826000  0.48161000  0.97574000  1.0
  O  O121  1  0.83820000  0.98272000  0.97518000  1.0
  O  O122  1  0.66613000  0.21063000  0.98856000  1.0
  O  O123  1  0.32514000  0.71232000  0.98963000  1.0
  O  O124  1  0.75743000  0.37543000  0.04476000  1.0
  O  O125  1  0.28566000  0.87687000  0.04529000  1.0
