# generated using pymatgen
data_SrH18C20(N6O)2
_symmetry_space_group_name_H-M   'P 1'
_cell_length_a   8.05063000
_cell_length_b   8.06710000
_cell_length_c   8.98489000
_cell_angle_alpha   101.77100000
_cell_angle_beta   91.75400000
_cell_angle_gamma   108.13100000
_symmetry_Int_Tables_number   1
_chemical_formula_structural   SrH18C20(N6O)2
_chemical_formula_sum   'Sr1 H18 C20 N12 O2'
_cell_volume   540.10698217
_cell_formula_units_Z   1
loop_
 _symmetry_equiv_pos_site_id
 _symmetry_equiv_pos_as_xyz
  1  'x, y, z'
loop_
 _atom_site_type_symbol
 _atom_site_label
 _atom_site_symmetry_multiplicity
 _atom_site_fract_x
 _atom_site_fract_y
 _atom_site_fract_z
 _atom_site_occupancy
  Sr  Sr0  1  0.50000000  0.50000000  0.50000000  1.0
  H  H1  1  0.15030000  0.24234000  0.61711000  1.0
  H  H2  1  0.84969000  0.75766000  0.38289000  1.0
  H  H3  1  0.25568000  0.11989000  0.53751000  1.0
  H  H4  1  0.74431000  0.88011000  0.46249000  1.0
  H  H5  1  0.14595000  0.46062000  0.89808000  1.0
  H  H6  1  0.85405000  0.53937000  0.10192000  1.0
  H  H7  1  0.32293000  0.75837000  0.05155000  1.0
  H  H8  1  0.67707000  0.24163000  0.94844000  1.0
  H  H9  1  0.05311000  0.00547000  0.78675000  1.0
  H  H10  1  0.94690000  0.99453000  0.21326000  1.0
  H  H11  1  0.88799000  0.71111000  0.62871000  1.0
  H  H12  1  0.11201000  0.28890000  0.37130000  1.0
  H  H13  1  0.35969000  0.01718000  0.23670000  1.0
  H  H14  1  0.64032000  0.98282000  0.76330000  1.0
  H  H15  1  0.42908000  0.51021000  0.11770000  1.0
  H  H16  1  0.57093000  0.48979000  0.88230000  1.0
  H  H17  1  0.27939000  0.23763000  0.86042000  1.0
  H  H18  1  0.72061000  0.76237000  0.13958000  1.0
  C  C19  1  0.89474000  0.38980000  0.66042000  1.0
  C  C20  1  0.10526000  0.61020000  0.33958000  1.0
  C  C21  1  0.00417000  0.56366000  0.75166000  1.0
  C  C22  1  0.99583000  0.43635000  0.24834000  1.0
  C  C23  1  0.12825000  0.58021000  0.87170000  1.0
  C  C24  1  0.87175000  0.41979000  0.12830000  1.0
  C  C25  1  0.22575000  0.74782000  0.96003000  1.0
  C  C26  1  0.77426000  0.25218000  0.03996000  1.0
  C  C27  1  0.19944000  0.90165000  0.92990000  1.0
  C  C28  1  0.80056000  0.09836000  0.07011000  1.0
  C  C29  1  0.07641000  0.88711000  0.81058000  1.0
  C  C30  1  0.92359000  0.11289000  0.18942000  1.0
  C  C31  1  0.98156000  0.71987000  0.72218000  1.0
  C  C32  1  0.01844000  0.28013000  0.27782000  1.0
  C  C33  1  0.36106000  0.11589000  0.17064000  1.0
  C  C34  1  0.63895000  0.88411000  0.82936000  1.0
  C  C35  1  0.39210000  0.36653000  0.10439000  1.0
  C  C36  1  0.60790000  0.63346000  0.89561000  1.0
  C  C37  1  0.31467000  0.23436000  0.97702000  1.0
  C  C38  1  0.68534000  0.76564000  0.02298000  1.0
  N  N39  1  0.92939000  0.23436000  0.64387000  1.0
  N  N40  1  0.07061000  0.76565000  0.35613000  1.0
  N  N41  1  0.79132000  0.11096000  0.55123000  1.0
  N  N42  1  0.20867000  0.88904000  0.44877000  1.0
  N  N43  1  0.67846000  0.18739000  0.51369000  1.0
  N  N44  1  0.32154000  0.81261000  0.48631000  1.0
  N  N45  1  0.73988000  0.36313000  0.58033000  1.0
  N  N46  1  0.26012000  0.63687000  0.41967000  1.0
  N  N47  1  0.29373000  0.07409000  0.02065000  1.0
  N  N48  1  0.70628000  0.92591000  0.97935000  1.0
  N  N49  1  0.42081000  0.29188000  0.22408000  1.0
  N  N50  1  0.57920000  0.70811000  0.77592000  1.0
  O  O51  1  0.27114000  0.24728000  0.58987000  1.0
  O  O52  1  0.72885000  0.75272000  0.41014000  1.0
