# generated using pymatgen
data_ZnH9C11N3O5
_symmetry_space_group_name_H-M   'P 1'
_cell_length_a   10.21560000
_cell_length_b   10.24450000
_cell_length_c   11.70310000
_cell_angle_alpha   90.00000000
_cell_angle_beta   90.00000000
_cell_angle_gamma   92.71970000
_symmetry_Int_Tables_number   1
_chemical_formula_structural   ZnH9C11N3O5
_chemical_formula_sum   'Zn4 H36 C44 N12 O20'
_cell_volume   1223.39332213
_cell_formula_units_Z   4
loop_
 _symmetry_equiv_pos_site_id
 _symmetry_equiv_pos_as_xyz
  1  'x, y, z'
loop_
 _atom_site_type_symbol
 _atom_site_label
 _atom_site_symmetry_multiplicity
 _atom_site_fract_x
 _atom_site_fract_y
 _atom_site_fract_z
 _atom_site_occupancy
  Zn  Zn0  1  0.03480000  0.74637000  0.70827000  1.0
  Zn  Zn1  1  0.96520000  0.75363000  0.20827000  1.0
  Zn  Zn2  1  0.96520000  0.25363000  0.29173000  1.0
  Zn  Zn3  1  0.03480000  0.24637000  0.79173000  1.0
  H  H4  1  0.00193000  0.85187000  0.50471000  1.0
  H  H5  1  0.99807000  0.64813000  0.00471000  1.0
  H  H6  1  0.99807000  0.14813000  0.49529000  1.0
  H  H7  1  0.00193000  0.35187000  0.99529000  1.0
  H  H8  1  0.59455000  0.99255000  0.99475000  1.0
  H  H9  1  0.40545000  0.50745000  0.49475000  1.0
  H  H10  1  0.40545000  0.00745000  0.00525000  1.0
  H  H11  1  0.59455000  0.49255000  0.50525000  1.0
  H  H12  1  0.75472000  0.07051000  0.99770000  1.0
  H  H13  1  0.24528000  0.42949000  0.49769000  1.0
  H  H14  1  0.24528000  0.92949000  0.00231000  1.0
  H  H15  1  0.75472000  0.57051000  0.50231000  1.0
  H  H16  1  0.71068000  0.94801000  0.10011000  1.0
  H  H17  1  0.28932000  0.55199000  0.60011000  1.0
  H  H18  1  0.28932000  0.05199000  0.89989000  1.0
  H  H19  1  0.71068000  0.44801000  0.39989000  1.0
  H  H20  1  0.23480000  0.57881000  0.07730000  1.0
  H  H21  1  0.76520000  0.92119000  0.57730000  1.0
  H  H22  1  0.76520000  0.42119000  0.92270000  1.0
  H  H23  1  0.23480000  0.07881000  0.42270000  1.0
  H  H24  1  0.45866000  0.74232000  0.79622000  1.0
  H  H25  1  0.54134000  0.75768000  0.29621000  1.0
  H  H26  1  0.54134000  0.25768000  0.20379000  1.0
  H  H27  1  0.45866000  0.24232000  0.70379000  1.0
  H  H28  1  0.43520000  0.58116000  0.19701000  1.0
  H  H29  1  0.56480000  0.91884000  0.69701000  1.0
  H  H30  1  0.56480000  0.41884000  0.80299000  1.0
  H  H31  1  0.43520000  0.08116000  0.30299000  1.0
  H  H32  1  0.64949000  0.67097000  0.11736000  1.0
  H  H33  1  0.35051000  0.82903000  0.61736000  1.0
  H  H34  1  0.35051000  0.32903000  0.88264000  1.0
  H  H35  1  0.64949000  0.17097000  0.38264000  1.0
  H  H36  1  0.08448000  0.95100000  0.58388000  1.0
  H  H37  1  0.91552000  0.54900000  0.08388000  1.0
  H  H38  1  0.91553000  0.04900000  0.41612000  1.0
  H  H39  1  0.08448000  0.45100000  0.91612000  1.0
  C  C40  1  0.69872000  0.97800000  0.01068000  1.0
  C  C41  1  0.30128000  0.52200000  0.51067000  1.0
  C  C42  1  0.30128000  0.02200000  0.98933000  1.0
  C  C43  1  0.69872000  0.47800000  0.48933000  1.0
  C  C44  1  0.74872000  0.87964000  0.93124000  1.0
  C  C45  1  0.25128000  0.62036000  0.43124000  1.0
  C  C46  1  0.25128000  0.12037000  0.06876000  1.0
  C  C47  1  0.74872000  0.37964000  0.56876000  1.0
  C  C48  1  0.86129000  0.88020000  0.86524000  1.0
  C  C49  1  0.13871000  0.61980000  0.36524000  1.0
  C  C50  1  0.13871000  0.11980000  0.13476000  1.0
  C  C51  1  0.86129000  0.38020000  0.63476000  1.0
  C  C52  1  0.97155000  0.97683000  0.84682000  1.0
  C  C53  1  0.02845000  0.52316000  0.34682000  1.0
  C  C54  1  0.02846000  0.02316000  0.15318000  1.0
  C  C55  1  0.97155000  0.47684000  0.65318000  1.0
  C  C56  1  0.21221000  0.66414000  0.85932000  1.0
  C  C57  1  0.78778000  0.83586000  0.35932000  1.0
  C  C58  1  0.78779000  0.33586000  0.14068000  1.0
  C  C59  1  0.21221000  0.16414000  0.64068000  1.0
  C  C60  1  0.33407000  0.66119000  0.92978000  1.0
  C  C61  1  0.66592000  0.83881000  0.42977000  1.0
  C  C62  1  0.66593000  0.33881000  0.07023000  1.0
  C  C63  1  0.33407000  0.16119000  0.57022000  1.0
  C  C64  1  0.32810000  0.61646000  0.04281000  1.0
  C  C65  1  0.67191000  0.88354000  0.54281000  1.0
  C  C66  1  0.67190000  0.38354000  0.95719000  1.0
  C  C67  1  0.32810000  0.11646000  0.45719000  1.0
  C  C68  1  0.45396000  0.70797000  0.88413000  1.0
  C  C69  1  0.54604000  0.79204000  0.38413000  1.0
  C  C70  1  0.54604000  0.29204000  0.11587000  1.0
  C  C71  1  0.45396000  0.20796000  0.61587000  1.0
  C  C72  1  0.56536000  0.71066000  0.95252000  1.0
  C  C73  1  0.43464000  0.78934000  0.45252000  1.0
  C  C74  1  0.43464000  0.28935000  0.04748000  1.0
  C  C75  1  0.56536000  0.21066000  0.54748000  1.0
  C  C76  1  0.44085000  0.61900000  0.10997000  1.0
  C  C77  1  0.55915000  0.88100000  0.60997000  1.0
  C  C78  1  0.55915000  0.38100000  0.89003000  1.0
  C  C79  1  0.44085000  0.11900000  0.39003000  1.0
  C  C80  1  0.56063000  0.66696000  0.06573000  1.0
  C  C81  1  0.43937000  0.83304000  0.56573000  1.0
  C  C82  1  0.43937000  0.33304000  0.93427000  1.0
  C  C83  1  0.56063000  0.16696000  0.43427000  1.0
  N  N84  1  0.68727000  0.76166000  0.90646000  1.0
  N  N85  1  0.31272000  0.73834000  0.40646000  1.0
  N  N86  1  0.31273000  0.23834000  0.09354000  1.0
  N  N87  1  0.68727000  0.26166000  0.59354000  1.0
  N  N88  1  0.75544000  0.69239000  0.82901000  1.0
  N  N89  1  0.24456000  0.80761000  0.32901000  1.0
  N  N90  1  0.24456000  0.30761000  0.17099000  1.0
  N  N91  1  0.75544000  0.19239000  0.67099000  1.0
  N  N92  1  0.86055000  0.76568000  0.80575000  1.0
  N  N93  1  0.13945000  0.73432000  0.30576000  1.0
  N  N94  1  0.13945000  0.23432000  0.19425000  1.0
  N  N95  1  0.86055000  0.26568000  0.69425000  1.0
  O  O96  1  0.10379000  0.62101000  0.90163000  1.0
  O  O97  1  0.89621000  0.87899000  0.40163000  1.0
  O  O98  1  0.89621000  0.37899000  0.09837000  1.0
  O  O99  1  0.10379000  0.12101000  0.59837000  1.0
  O  O100  1  0.22126000  0.71282000  0.75903000  1.0
  O  O101  1  0.77874000  0.78718000  0.25903000  1.0
  O  O102  1  0.77874000  0.28718000  0.24097000  1.0
  O  O103  1  0.22126000  0.21282000  0.74097000  1.0
  O  O104  1  0.06858000  0.93631000  0.79258000  1.0
  O  O105  1  0.93142000  0.56369000  0.29258000  1.0
  O  O106  1  0.93142000  0.06369000  0.20742000  1.0
  O  O107  1  0.06858000  0.43631000  0.70742000  1.0
  O  O108  1  0.95878000  0.09302000  0.88364000  1.0
  O  O109  1  0.04122000  0.40698000  0.38364000  1.0
  O  O110  1  0.04122000  0.90698000  0.11636000  1.0
  O  O111  1  0.95878000  0.59302000  0.61636000  1.0
  O  O112  1  0.07075000  0.85660000  0.56520000  1.0
  O  O113  1  0.92925000  0.64340000  0.06520000  1.0
  O  O114  1  0.92925000  0.14340000  0.43480000  1.0
  O  O115  1  0.07075000  0.35660000  0.93480000  1.0
