# generated using pymatgen
data_LaH14C12N3O10
_symmetry_space_group_name_H-M   'P 1'
_cell_length_a   4.62778000
_cell_length_b   11.89610000
_cell_length_c   15.69110000
_cell_angle_alpha   85.49120000
_cell_angle_beta   84.70640000
_cell_angle_gamma   83.57900000
_symmetry_Int_Tables_number   1
_chemical_formula_structural   LaH14C12N3O10
_chemical_formula_sum   'La2 H28 C24 N6 O20'
_cell_volume   852.71648033
_cell_formula_units_Z   2
loop_
 _symmetry_equiv_pos_site_id
 _symmetry_equiv_pos_as_xyz
  1  'x, y, z'
loop_
 _atom_site_type_symbol
 _atom_site_label
 _atom_site_symmetry_multiplicity
 _atom_site_fract_x
 _atom_site_fract_y
 _atom_site_fract_z
 _atom_site_occupancy
  La  La0  1  0.17309000  0.22846000  0.32828000  1.0
  La  La1  1  0.82692000  0.77154000  0.67172000  1.0
  H  H2  1  0.54237000  0.89470000  0.43793000  1.0
  H  H3  1  0.45761000  0.10528000  0.56207000  1.0
  H  H4  1  0.52114000  0.89562000  0.32481000  1.0
  H  H5  1  0.47887000  0.10438000  0.67518000  1.0
  H  H6  1  0.11198000  0.84166000  0.24866000  1.0
  H  H7  1  0.88803000  0.15834000  0.75134000  1.0
  H  H8  1  0.82903000  0.75567000  0.25039000  1.0
  H  H9  1  0.17099000  0.24434000  0.74961000  1.0
  H  H10  1  0.45211000  0.70414000  0.47075000  1.0
  H  H11  1  0.54790000  0.29586000  0.52925000  1.0
  H  H12  1  0.19340000  0.60417000  0.48099000  1.0
  H  H13  1  0.80662000  0.39583000  0.51901000  1.0
  H  H14  1  0.75887000  0.55074000  0.39956000  1.0
  H  H15  1  0.24114000  0.44926000  0.60043000  1.0
  H  H16  1  0.71711000  0.54155000  0.28933000  1.0
  H  H17  1  0.28289000  0.45845000  0.71067000  1.0
  H  H18  1  0.99560000  0.16007000  0.05764000  1.0
  H  H19  1  0.00440000  0.83993000  0.94236000  1.0
  H  H20  1  0.04083000  0.03491000  0.12699000  1.0
  H  H21  1  0.95916000  0.96509000  0.87300000  1.0
  H  H22  1  0.43365000  0.19197000  0.00921000  1.0
  H  H23  1  0.56635000  0.80804000  0.99079000  1.0
  H  H24  1  0.73063000  0.14920000  0.93571000  1.0
  H  H25  1  0.26935000  0.85081000  0.06428000  1.0
  H  H26  1  0.06744000  0.38144000  0.17368000  1.0
  H  H27  1  0.93255000  0.61855000  0.82632000  1.0
  H  H28  1  0.24496000  0.47533000  0.20718000  1.0
  H  H29  1  0.75503000  0.52466000  0.79281000  1.0
  C  C30  1  0.77694000  0.01828000  0.36322000  1.0
  C  C31  1  0.22305000  0.98172000  0.63679000  1.0
  C  C32  1  0.66755000  0.90092000  0.37525000  1.0
  C  C33  1  0.33245000  0.09908000  0.62475000  1.0
  C  C34  1  0.01130000  0.77163000  0.28617000  1.0
  C  C35  1  0.98871000  0.22837000  0.71383000  1.0
  C  C36  1  0.23166000  0.66814000  0.28453000  1.0
  C  C37  1  0.76834000  0.33186000  0.71546000  1.0
  C  C38  1  0.02557000  0.76944000  0.44271000  1.0
  C  C39  1  0.97443000  0.23056000  0.55730000  1.0
  C  C40  1  0.27216000  0.67572000  0.43971000  1.0
  C  C41  1  0.72786000  0.32428000  0.56029000  1.0
  C  C42  1  0.59976000  0.54187000  0.35331000  1.0
  C  C43  1  0.40025000  0.45813000  0.64669000  1.0
  C  C44  1  0.48110000  0.42695000  0.37282000  1.0
  C  C45  1  0.51887000  0.57305000  0.62719000  1.0
  C  C46  1  0.72001000  0.16011000  0.17547000  1.0
  C  C47  1  0.28000000  0.83989000  0.82453000  1.0
  C  C48  1  0.87902000  0.09893000  0.09963000  1.0
  C  C49  1  0.12097000  0.90108000  0.90036000  1.0
  C  C50  1  0.64424000  0.93585000  0.06985000  1.0
  C  C51  1  0.35573000  0.06417000  0.93015000  1.0
  C  C52  1  0.55885000  0.11704000  0.98166000  1.0
  C  C53  1  0.44113000  0.88297000  0.01834000  1.0
  N  N54  1  0.90085000  0.80769000  0.37083000  1.0
  N  N55  1  0.09915000  0.19231000  0.62917000  1.0
  N  N56  1  0.37496000  0.63735000  0.35546000  1.0
  N  N57  1  0.62505000  0.36265000  0.64454000  1.0
  N  N58  1  0.69271000  0.04500000  0.04953000  1.0
  N  N59  1  0.30728000  0.95501000  0.95047000  1.0
  O  O60  1  0.59373000  0.10184000  0.38223000  1.0
  O  O61  1  0.40626000  0.89815000  0.61777000  1.0
  O  O62  1  0.03975000  0.02588000  0.33475000  1.0
  O  O63  1  0.96027000  0.97412000  0.66527000  1.0
  O  O64  1  0.93710000  0.80764000  0.51378000  1.0
  O  O65  1  0.06289000  0.19236000  0.48622000  1.0
  O  O66  1  0.28569000  0.61839000  0.21682000  1.0
  O  O67  1  0.71431000  0.38161000  0.78318000  1.0
  O  O68  1  0.21668000  0.42263000  0.40113000  1.0
  O  O69  1  0.78333000  0.57738000  0.59888000  1.0
  O  O70  1  0.65418000  0.33884000  0.35700000  1.0
  O  O71  1  0.34582000  0.66115000  0.64301000  1.0
  O  O72  1  0.86358000  0.22944000  0.20743000  1.0
  O  O73  1  0.13642000  0.77056000  0.79257000  1.0
  O  O74  1  0.46729000  0.13657000  0.20221000  1.0
  O  O75  1  0.53271000  0.86343000  0.79780000  1.0
  O  O76  1  0.76340000  0.87608000  0.12803000  1.0
  O  O77  1  0.23656000  0.12393000  0.87197000  1.0
  O  O78  1  0.22411000  0.39310000  0.20847000  1.0
  O  O79  1  0.77591000  0.60690000  0.79152000  1.0
