# generated using pymatgen
data_AgH9C9N2O
_symmetry_space_group_name_H-M   'P 1'
_cell_length_a   12.15700000
_cell_length_b   12.19640000
_cell_length_c   19.18710000
_cell_angle_alpha   83.76140000
_cell_angle_beta   82.17260000
_cell_angle_gamma   70.26020000
_symmetry_Int_Tables_number   1
_chemical_formula_structural   AgH9C9N2O
_chemical_formula_sum   'Ag8 H72 C72 N16 O8'
_cell_volume   2646.77808166
_cell_formula_units_Z   8
loop_
 _symmetry_equiv_pos_site_id
 _symmetry_equiv_pos_as_xyz
  1  'x, y, z'
loop_
 _atom_site_type_symbol
 _atom_site_label
 _atom_site_symmetry_multiplicity
 _atom_site_fract_x
 _atom_site_fract_y
 _atom_site_fract_z
 _atom_site_occupancy
  Ag  Ag0  1  0.04793000  0.28399000  0.62701000  1.0
  Ag  Ag1  1  0.04350000  0.78634000  0.62003000  1.0
  Ag  Ag2  1  0.64095000  0.23696000  0.52779000  1.0
  Ag  Ag3  1  0.62026000  0.74298000  0.53553000  1.0
  Ag  Ag4  1  0.25153000  0.61770000  0.13784000  1.0
  Ag  Ag5  1  0.74641000  0.64060000  0.12631000  1.0
  Ag  Ag6  1  0.08826000  0.19591000  0.03740000  1.0
  Ag  Ag7  1  0.57591000  0.23577000  0.03275000  1.0
  H  H8  1  0.93512000  0.30733000  0.47350000  1.0
  H  H9  1  0.86650000  0.24247000  0.37255000  1.0
  H  H10  1  0.86521000  0.04064000  0.37213000  1.0
  H  H11  1  0.93413000  0.89400000  0.47164000  1.0
  H  H12  1  0.08048000  0.92298000  0.71502000  1.0
  H  H13  1  0.25644000  0.04681000  0.64950000  1.0
  H  H14  1  0.27040000  0.89872000  0.63974000  1.0
  H  H15  1  0.27744000  0.94244000  0.72399000  1.0
  H  H16  1  0.07449000  0.71177000  0.78552000  1.0
  H  H17  1  0.08922000  0.58769000  0.89813000  1.0
  H  H18  1  0.10271000  0.37928000  0.90043000  1.0
  H  H19  1  0.09560000  0.29088000  0.79061000  1.0
  H  H20  1  0.11423000  0.45293000  0.51994000  1.0
  H  H21  1  0.87955000  0.65148000  0.54431000  1.0
  H  H22  1  0.89849000  0.50009000  0.55213000  1.0
  H  H23  1  0.93087000  0.56822000  0.46811000  1.0
  H  H24  1  0.10320000  0.07802000  0.77518000  1.0
  H  H25  1  0.18543000  0.60985000  0.51324000  1.0
  H  H26  1  0.58737000  0.23761000  0.36448000  1.0
  H  H27  1  0.54765000  0.16312000  0.25775000  1.0
  H  H28  1  0.52989000  0.96622000  0.26123000  1.0
  H  H29  1  0.55537000  0.83428000  0.37158000  1.0
  H  H30  1  0.68684000  0.03727000  0.61906000  1.0
  H  H31  1  0.51599000  0.89618000  0.64500000  1.0
  H  H32  1  0.47713000  0.04965000  0.65140000  1.0
  H  H33  1  0.56892000  0.95001000  0.71194000  1.0
  H  H34  1  0.72959000  0.63863000  0.68461000  1.0
  H  H35  1  0.82991000  0.48531000  0.77392000  1.0
  H  H36  1  0.84516000  0.27874000  0.76846000  1.0
  H  H37  1  0.76265000  0.21641000  0.67377000  1.0
  H  H38  1  0.50569000  0.62291000  0.46953000  1.0
  H  H39  1  0.70611000  0.42052000  0.40330000  1.0
  H  H40  1  0.71059000  0.56384000  0.41009000  1.0
  H  H41  1  0.61164000  0.54295000  0.35630000  1.0
  H  H42  1  0.81996000  0.85882000  0.59572000  1.0
  H  H43  1  0.44737000  0.44511000  0.50441000  1.0
  H  H44  1  0.36291000  0.49573000  0.98932000  1.0
  H  H45  1  0.50254000  0.44603000  0.87982000  1.0
  H  H46  1  0.69536000  0.47546000  0.86809000  1.0
  H  H47  1  0.76089000  0.54973000  0.96642000  1.0
  H  H48  1  0.55920000  0.65404000  0.22588000  1.0
  H  H49  1  0.33592000  0.83274000  0.17168000  1.0
  H  H50  1  0.47904000  0.84644000  0.16154000  1.0
  H  H51  1  0.40110000  0.84693000  0.24709000  1.0
  H  H52  1  0.72459000  0.72020000  0.29024000  1.0
  H  H53  1  0.79536000  0.74727000  0.40167000  1.0
  H  H54  1  0.00517000  0.72356000  0.40626000  1.0
  H  H55  1  0.14960000  0.67920000  0.29917000  1.0
  H  H56  1  0.09814000  0.64634000  0.03102000  1.0
  H  H57  1  0.12768000  0.44170000  0.07349000  1.0
  H  H58  1  0.06841000  0.46989000  0.99091000  1.0
  H  H59  1  0.97535000  0.46203000  0.07022000  1.0
  H  H60  1  0.36448000  0.67099000  0.28849000  1.0
  H  H61  1  0.89842000  0.76205000  0.01854000  1.0
  H  H62  1  0.19490000  0.11924000  0.87631000  1.0
  H  H63  1  0.32945000  0.10469000  0.76320000  1.0
  H  H64  1  0.51847000  0.14094000  0.75835000  1.0
  H  H65  1  0.58256000  0.19117000  0.86541000  1.0
  H  H66  1  0.21015000  0.25959000  0.12498000  1.0
  H  H67  1  0.46119000  0.09883000  0.14638000  1.0
  H  H68  1  0.33311000  0.05621000  0.15194000  1.0
  H  H69  1  0.34473000  0.14644000  0.21557000  1.0
  H  H70  1  0.55134000  0.35182000  0.17991000  1.0
  H  H71  1  0.60901000  0.43019000  0.27844000  1.0
  H  H72  1  0.81622000  0.42058000  0.28134000  1.0
  H  H73  1  0.97293000  0.32486000  0.18808000  1.0
  H  H74  1  0.79858000  0.10404000  0.96710000  1.0
  H  H75  1  0.95303000  0.25650000  0.91375000  1.0
  H  H76  1  0.80308000  0.28754000  0.90077000  1.0
  H  H77  1  0.91340000  0.16599000  0.86107000  1.0
  H  H78  1  0.33921000  0.34061000  0.17218000  1.0
  H  H79  1  0.97967000  0.00145000  0.02151000  1.0
  C  C80  1  0.97419000  0.13556000  0.52878000  1.0
  C  C81  1  0.93494000  0.21798000  0.47311000  1.0
  C  C82  1  0.89646000  0.18122000  0.41731000  1.0
  C  C83  1  0.89624000  0.06566000  0.41668000  1.0
  C  C84  1  0.93356000  0.98357000  0.47226000  1.0
  C  C85  1  0.97224000  0.01978000  0.52843000  1.0
  C  C86  1  0.04226000  0.03671000  0.62416000  1.0
  C  C87  1  0.10140000  0.00115000  0.69076000  1.0
  C  C88  1  0.23472000  0.97052000  0.67507000  1.0
  C  C89  1  0.07714000  0.56982000  0.72522000  1.0
  C  C90  1  0.07968000  0.62050000  0.78666000  1.0
  C  C91  1  0.08831000  0.55021000  0.84928000  1.0
  C  C92  1  0.09425000  0.43247000  0.85068000  1.0
  C  C93  1  0.09112000  0.38171000  0.78973000  1.0
  C  C94  1  0.08283000  0.45151000  0.72668000  1.0
  C  C95  1  0.07080000  0.52717000  0.61870000  1.0
  C  C96  1  0.06108000  0.53823000  0.54071000  1.0
  C  C97  1  0.93464000  0.56638000  0.52500000  1.0
  C  C98  1  0.59450000  0.07651000  0.42762000  1.0
  C  C99  1  0.57982000  0.15071000  0.36614000  1.0
  C  C100  1  0.55672000  0.10855000  0.30698000  1.0
  C  C101  1  0.54720000  0.99607000  0.30889000  1.0
  C  C102  1  0.56146000  0.92185000  0.36992000  1.0
  C  C103  1  0.58634000  0.96272000  0.42927000  1.0
  C  C104  1  0.62961000  0.98888000  0.53149000  1.0
  C  C105  1  0.65605000  0.96642000  0.60716000  1.0
  C  C106  1  0.54771000  0.96566000  0.65721000  1.0
  C  C107  1  0.68919000  0.51210000  0.62983000  1.0
  C  C108  1  0.73484000  0.54778000  0.68316000  1.0
  C  C109  1  0.79002000  0.46176000  0.73277000  1.0
  C  C110  1  0.79914000  0.34384000  0.72963000  1.0
  C  C111  1  0.75316000  0.30802000  0.67688000  1.0
  C  C112  1  0.69824000  0.39355000  0.62651000  1.0
  C  C113  1  0.61229000  0.49544000  0.53682000  1.0
  C  C114  1  0.55873000  0.52914000  0.46830000  1.0
  C  C115  1  0.65280000  0.51313000  0.40549000  1.0
  C  C116  1  0.48380000  0.55275000  0.03798000  1.0
  C  C117  1  0.44856000  0.50797000  0.98398000  1.0
  C  C118  1  0.52730000  0.48002000  0.92341000  1.0
  C  C119  1  0.63815000  0.49574000  0.91714000  1.0
  C  C120  1  0.67506000  0.53776000  0.97135000  1.0
  C  C121  1  0.59635000  0.56624000  0.03218000  1.0
  C  C122  1  0.50151000  0.62340000  0.13369000  1.0
  C  C123  1  0.47410000  0.67604000  0.20383000  1.0
  C  C124  1  0.41873000  0.80881000  0.19561000  1.0
  C  C125  1  0.89785000  0.68574000  0.23269000  1.0
  C  C126  1  0.81643000  0.71104000  0.29250000  1.0
  C  C127  1  0.85690000  0.72568000  0.35422000  1.0
  C  C128  1  0.97573000  0.71438000  0.35677000  1.0
  C  C129  1  0.05740000  0.68903000  0.29744000  1.0
  C  C130  1  0.01715000  0.67558000  0.23509000  1.0
  C  C131  1  0.99270000  0.64926000  0.12851000  1.0
  C  C132  1  0.02059000  0.62036000  0.05257000  1.0
  C  C133  1  0.04988000  0.48994000  0.04639000  1.0
  C  C134  1  0.31429000  0.16448000  0.93288000  1.0
  C  C135  1  0.27910000  0.13430000  0.87332000  1.0
  C  C136  1  0.35455000  0.12607000  0.81114000  1.0
  C  C137  1  0.46260000  0.14667000  0.80825000  1.0
  C  C138  1  0.49919000  0.17490000  0.86760000  1.0
  C  C139  1  0.42396000  0.18321000  0.93025000  1.0
  C  C140  1  0.33325000  0.21162000  0.03590000  1.0
  C  C141  1  0.30677000  0.23526000  0.11264000  1.0
  C  C142  1  0.36531000  0.12756000  0.15962000  1.0
  C  C143  1  0.73053000  0.29121000  0.13011000  1.0
  C  C144  1  0.64274000  0.34398000  0.18259000  1.0
  C  C145  1  0.67608000  0.38851000  0.23700000  1.0
  C  C146  1  0.79374000  0.38236000  0.23874000  1.0
  C  C147  1  0.88201000  0.32950000  0.18666000  1.0
  C  C148  1  0.84940000  0.28301000  0.13232000  1.0
  C  C149  1  0.83670000  0.20071000  0.03962000  1.0
  C  C150  1  0.87055000  0.13783000  0.97273000  1.0
  C  C151  1  0.88606000  0.21700000  0.90792000  1.0
  N  N152  1  0.02003000  0.14294000  0.58990000  1.0
  N  N153  1  0.01481000  0.95955000  0.59001000  1.0
  N  N154  1  0.06935000  0.61552000  0.65594000  1.0
  N  N155  1  0.07915000  0.42693000  0.65827000  1.0
  N  N156  1  0.62155000  0.09043000  0.49340000  1.0
  N  N157  1  0.60887000  0.90962000  0.49574000  1.0
  N  N158  1  0.63352000  0.57459000  0.57239000  1.0
  N  N159  1  0.64873000  0.38577000  0.56687000  1.0
  N  N160  1  0.42556000  0.59067000  0.10277000  1.0
  N  N161  1  0.60500000  0.61051000  0.09407000  1.0
  N  N162  1  0.88538000  0.66795000  0.16443000  1.0
  N  N163  1  0.07493000  0.65289000  0.16810000  1.0
  N  N164  1  0.25830000  0.18414000  0.00053000  1.0
  N  N165  1  0.43377000  0.21138000  0.99663000  1.0
  N  N166  1  0.72551000  0.23822000  0.07087000  1.0
  N  N167  1  0.91449000  0.22512000  0.07418000  1.0
  O  O168  1  0.05287000  0.09496000  0.73727000  1.0
  O  O169  1  0.10337000  0.62886000  0.50534000  1.0
  O  O170  1  0.74458000  0.85474000  0.61907000  1.0
  O  O171  1  0.48523000  0.46225000  0.45835000  1.0
  O  O172  1  0.39876000  0.62273000  0.24873000  1.0
  O  O173  1  0.92363000  0.67873000  0.01196000  1.0
  O  O174  1  0.34432000  0.33235000  0.12180000  1.0
  O  O175  1  0.98024000  0.04265000  0.97507000  1.0
