# generated using pymatgen
data_KHoH5C9NO10
_symmetry_space_group_name_H-M   'P 1'
_cell_length_a   6.57090000
_cell_length_b   12.50350000
_cell_length_c   14.05750000
_cell_angle_alpha   89.99900000
_cell_angle_beta   89.99990000
_cell_angle_gamma   89.99940000
_symmetry_Int_Tables_number   1
_chemical_formula_structural   KHoH5C9NO10
_chemical_formula_sum   'K4 Ho4 H20 C36 N4 O40'
_cell_volume   1154.95363063
_cell_formula_units_Z   4
loop_
 _symmetry_equiv_pos_site_id
 _symmetry_equiv_pos_as_xyz
  1  'x, y, z'
loop_
 _atom_site_type_symbol
 _atom_site_label
 _atom_site_symmetry_multiplicity
 _atom_site_fract_x
 _atom_site_fract_y
 _atom_site_fract_z
 _atom_site_occupancy
  K  K0  1  0.10225000  0.64267000  0.47252000  1.0
  K  K1  1  0.39780000  0.35730000  0.97251000  1.0
  K  K2  1  0.89778000  0.14268000  0.02751000  1.0
  K  K3  1  0.60226000  0.85734000  0.52750000  1.0
  Ho  Ho4  1  0.11292000  0.35321000  0.27541000  1.0
  Ho  Ho5  1  0.38707000  0.64680000  0.77541000  1.0
  Ho  Ho6  1  0.88708000  0.85320000  0.22459000  1.0
  Ho  Ho7  1  0.61292000  0.14680000  0.72459000  1.0
  H  H8  1  0.36110000  0.56363000  0.29452000  1.0
  H  H9  1  0.13890000  0.43637000  0.79452000  1.0
  H  H10  1  0.63890000  0.06362000  0.20548000  1.0
  H  H11  1  0.86110000  0.93637000  0.70548000  1.0
  H  H12  1  0.32979000  0.53766000  0.18529000  1.0
  H  H13  1  0.17020000  0.46233000  0.68529000  1.0
  H  H14  1  0.67020000  0.03766000  0.31472000  1.0
  H  H15  1  0.82978000  0.96234000  0.81471000  1.0
  H  H16  1  0.11339000  0.99868000  0.59409000  1.0
  H  H17  1  0.38660000  0.00131000  0.09409000  1.0
  H  H18  1  0.88663000  0.49869000  0.90591000  1.0
  H  H19  1  0.61340000  0.50131000  0.40591000  1.0
  H  H20  1  0.60907000  0.66570000  0.34418000  1.0
  H  H21  1  0.89093000  0.33430000  0.84417000  1.0
  H  H22  1  0.39093000  0.16570000  0.15583000  1.0
  H  H23  1  0.10907000  0.83430000  0.65583000  1.0
  H  H24  1  0.40739000  0.72654000  0.32951000  1.0
  H  H25  1  0.09260000  0.27345000  0.82951000  1.0
  H  H26  1  0.59260000  0.22654000  0.17049000  1.0
  H  H27  1  0.90740000  0.77346000  0.67049000  1.0
  C  C28  1  0.11413000  0.36224000  0.50477000  1.0
  C  C29  1  0.38587000  0.63775000  0.00479000  1.0
  C  C30  1  0.88586000  0.86225000  0.99522000  1.0
  C  C31  1  0.61413000  0.13776000  0.49523000  1.0
  C  C32  1  0.12031000  0.24253000  0.49004000  1.0
  C  C33  1  0.37968000  0.75747000  0.99004000  1.0
  C  C34  1  0.87967000  0.74253000  0.00996000  1.0
  C  C35  1  0.62031000  0.25748000  0.50996000  1.0
  C  C36  1  0.11890000  0.16703000  0.56398000  1.0
  C  C37  1  0.38109000  0.83297000  0.06398000  1.0
  C  C38  1  0.88110000  0.66703000  0.93601000  1.0
  C  C39  1  0.61890000  0.33297000  0.43602000  1.0
  C  C40  1  0.11330000  0.05911000  0.53857000  1.0
  C  C41  1  0.38670000  0.94089000  0.03857000  1.0
  C  C42  1  0.88672000  0.55911000  0.96143000  1.0
  C  C43  1  0.61330000  0.44089000  0.46143000  1.0
  C  C44  1  0.10715000  0.02791000  0.44308000  1.0
  C  C45  1  0.39286000  0.97209000  0.94308000  1.0
  C  C46  1  0.89287000  0.52791000  0.05691000  1.0
  C  C47  1  0.60715000  0.47210000  0.55691000  1.0
  C  C48  1  0.11636000  0.10879000  0.37382000  1.0
  C  C49  1  0.38364000  0.89120000  0.87381000  1.0
  C  C50  1  0.88365000  0.60879000  0.12618000  1.0
  C  C51  1  0.61636000  0.39121000  0.62618000  1.0
  C  C52  1  0.12935000  0.08915000  0.26820000  1.0
  C  C53  1  0.37064000  0.91086000  0.76819000  1.0
  C  C54  1  0.87064000  0.58914000  0.23180000  1.0
  C  C55  1  0.62935000  0.41086000  0.73180000  1.0
  C  C56  1  0.11911000  0.19526000  0.66833000  1.0
  C  C57  1  0.38088000  0.80475000  0.16833000  1.0
  C  C58  1  0.88089000  0.69526000  0.83167000  1.0
  C  C59  1  0.61911000  0.30474000  0.33167000  1.0
  C  C60  1  0.09271000  0.90979000  0.42191000  1.0
  C  C61  1  0.40731000  0.09020000  0.92190000  1.0
  C  C62  1  0.90733000  0.40979000  0.07809000  1.0
  C  C63  1  0.59271000  0.59021000  0.57809000  1.0
  N  N64  1  0.12260000  0.21200000  0.39881000  1.0
  N  N65  1  0.37739000  0.78800000  0.89881000  1.0
  N  N66  1  0.87738000  0.71200000  0.10119000  1.0
  N  N67  1  0.62260000  0.28801000  0.60119000  1.0
  O  O68  1  0.12125000  0.41953000  0.42857000  1.0
  O  O69  1  0.37876000  0.58047000  0.92857000  1.0
  O  O70  1  0.87874000  0.91953000  0.07143000  1.0
  O  O71  1  0.62125000  0.08047000  0.57143000  1.0
  O  O72  1  0.09824000  0.39741000  0.58758000  1.0
  O  O73  1  0.40176000  0.60259000  0.08758000  1.0
  O  O74  1  0.90174000  0.89742000  0.91242000  1.0
  O  O75  1  0.59824000  0.10259000  0.41242000  1.0
  O  O76  1  0.28631000  0.21519000  0.70945000  1.0
  O  O77  1  0.21368000  0.78481000  0.20945000  1.0
  O  O78  1  0.71368000  0.71519000  0.79055000  1.0
  O  O79  1  0.78632000  0.28481000  0.29055000  1.0
  O  O80  1  0.95017000  0.19224000  0.71125000  1.0
  O  O81  1  0.54983000  0.80776000  0.21125000  1.0
  O  O82  1  0.04982000  0.69223000  0.78874000  1.0
  O  O83  1  0.45017000  0.30776000  0.28875000  1.0
  O  O84  1  0.23932000  0.85211000  0.44556000  1.0
  O  O85  1  0.26068000  0.14788000  0.94555000  1.0
  O  O86  1  0.76071000  0.35211000  0.05444000  1.0
  O  O87  1  0.73932000  0.64789000  0.55444000  1.0
  O  O88  1  0.92384000  0.87539000  0.38619000  1.0
  O  O89  1  0.57618000  0.12461000  0.88619000  1.0
  O  O90  1  0.07619000  0.37539000  0.11381000  1.0
  O  O91  1  0.42384000  0.62461000  0.61381000  1.0
  O  O92  1  0.13184000  0.99449000  0.23762000  1.0
  O  O93  1  0.36815000  0.00551000  0.73762000  1.0
  O  O94  1  0.86815000  0.49449000  0.26238000  1.0
  O  O95  1  0.63185000  0.50552000  0.76238000  1.0
  O  O96  1  0.14394000  0.17236000  0.21490000  1.0
  O  O97  1  0.35605000  0.82765000  0.71489000  1.0
  O  O98  1  0.85606000  0.67235000  0.28510000  1.0
  O  O99  1  0.64393000  0.32765000  0.78510000  1.0
  O  O100  1  0.29736000  0.51141000  0.25011000  1.0
  O  O101  1  0.20263000  0.48859000  0.75011000  1.0
  O  O102  1  0.70262000  0.01141000  0.24990000  1.0
  O  O103  1  0.79736000  0.98859000  0.74989000  1.0
  O  O104  1  0.46396000  0.66442000  0.36336000  1.0
  O  O105  1  0.03604000  0.33558000  0.86336000  1.0
  O  O106  1  0.53604000  0.16442000  0.13664000  1.0
  O  O107  1  0.96397000  0.83558000  0.63664000  1.0
