# generated using pymatgen
data_CuH6C6(N2O)4
_symmetry_space_group_name_H-M   'P 1'
_cell_length_a   4.95516000
_cell_length_b   7.90675000
_cell_length_c   13.05590000
_cell_angle_alpha   89.99960000
_cell_angle_beta   89.99990000
_cell_angle_gamma   107.70000000
_symmetry_Int_Tables_number   1
_chemical_formula_structural   CuH6C6(N2O)4
_chemical_formula_sum   'Cu2 H12 C12 N16 O8'
_cell_volume   487.30527246
_cell_formula_units_Z   2
loop_
 _symmetry_equiv_pos_site_id
 _symmetry_equiv_pos_as_xyz
  1  'x, y, z'
loop_
 _atom_site_type_symbol
 _atom_site_label
 _atom_site_symmetry_multiplicity
 _atom_site_fract_x
 _atom_site_fract_y
 _atom_site_fract_z
 _atom_site_occupancy
  Cu  Cu0  1  0.50000000  0.50000000  0.00000000  1.0
  Cu  Cu1  1  0.00000000  0.00000000  0.50000000  1.0
  H  H2  1  0.28676000  0.03432000  0.94647000  1.0
  H  H3  1  0.21323000  0.46568000  0.44647000  1.0
  H  H4  1  0.71324000  0.96569000  0.05353000  1.0
  H  H5  1  0.78677000  0.53432000  0.55353000  1.0
  H  H6  1  0.43015000  0.88605000  0.87813000  1.0
  H  H7  1  0.06983000  0.61394000  0.37813000  1.0
  H  H8  1  0.56985000  0.11395000  0.12187000  1.0
  H  H9  1  0.93017000  0.38606000  0.62187000  1.0
  H  H10  1  0.25236000  0.81651000  0.68380000  1.0
  H  H11  1  0.24764000  0.68349000  0.18380000  1.0
  H  H12  1  0.74764000  0.18349000  0.31620000  1.0
  H  H13  1  0.75236000  0.31651000  0.81620000  1.0
  C  C14  1  0.05236000  0.75658000  0.96431000  1.0
  C  C15  1  0.44762000  0.74342000  0.46431000  1.0
  C  C16  1  0.94764000  0.24343000  0.03569000  1.0
  C  C17  1  0.55238000  0.25657000  0.53569000  1.0
  C  C18  1  0.23382000  0.91293000  0.89968000  1.0
  C  C19  1  0.26616000  0.58707000  0.39968000  1.0
  C  C20  1  0.76618000  0.08708000  0.10032000  1.0
  C  C21  1  0.73384000  0.41292000  0.60032000  1.0
  C  C22  1  0.11692000  0.89192000  0.71078000  1.0
  C  C23  1  0.38308000  0.60809000  0.21078000  1.0
  C  C24  1  0.88308000  0.10809000  0.28922000  1.0
  C  C25  1  0.61692000  0.39191000  0.78922000  1.0
  N  N26  1  0.09543000  0.94618000  0.80698000  1.0
  N  N27  1  0.40457000  0.55382000  0.30698000  1.0
  N  N28  1  0.90457000  0.05382000  0.19302000  1.0
  N  N29  1  0.59543000  0.44618000  0.69302000  1.0
  N  N30  1  0.90990000  0.04169000  0.80789000  1.0
  N  N31  1  0.59010000  0.45831000  0.30789000  1.0
  N  N32  1  0.09010000  0.95831000  0.19211000  1.0
  N  N33  1  0.40990000  0.54168000  0.69211000  1.0
  N  N34  1  0.82310000  0.04595000  0.71423000  1.0
  N  N35  1  0.67689000  0.45406000  0.21423000  1.0
  N  N36  1  0.17690000  0.95405000  0.28577000  1.0
  N  N37  1  0.32310000  0.54594000  0.78576000  1.0
  N  N38  1  0.94847000  0.95397000  0.65234000  1.0
  N  N39  1  0.55153000  0.54604000  0.15234000  1.0
  N  N40  1  0.05153000  0.04603000  0.34766000  1.0
  N  N41  1  0.44847000  0.45397000  0.84766000  1.0
  O  O42  1  0.78340000  0.72314000  0.95310000  1.0
  O  O43  1  0.71658000  0.77687000  0.45311000  1.0
  O  O44  1  0.21660000  0.27687000  0.04690000  1.0
  O  O45  1  0.28342000  0.22313000  0.54689000  1.0
  O  O46  1  0.18114000  0.68342000  0.02243000  1.0
  O  O47  1  0.31883000  0.81658000  0.52243000  1.0
  O  O48  1  0.81886000  0.31658000  0.97757000  1.0
  O  O49  1  0.68117000  0.18342000  0.47757000  1.0
