# generated using pymatgen
data_CoH12Ru6C18(NO4)6
_symmetry_space_group_name_H-M   'P 1'
_cell_length_a   10.97307229
_cell_length_b   10.97310000
_cell_length_c   10.97320000
_cell_angle_alpha   70.52800000
_cell_angle_beta   70.52873311
_cell_angle_gamma   109.47052845
_symmetry_Int_Tables_number   1
_chemical_formula_structural   CoH12Ru6C18(NO4)6
_chemical_formula_sum   'Co1 H12 Ru6 C18 N6 O24'
_cell_volume   1017.11080034
_cell_formula_units_Z   1
loop_
 _symmetry_equiv_pos_site_id
 _symmetry_equiv_pos_as_xyz
  1  'x, y, z'
loop_
 _atom_site_type_symbol
 _atom_site_label
 _atom_site_symmetry_multiplicity
 _atom_site_fract_x
 _atom_site_fract_y
 _atom_site_fract_z
 _atom_site_occupancy
  Co  Co0  1  0.00000000  0.00000000  0.00000000  1.0
  H  H1  1  0.00025000  0.29146000  0.29121000  1.0
  H  H2  1  0.70880000  0.29145000  0.99975000  1.0
  H  H3  1  0.99975000  0.70854000  0.70879000  1.0
  H  H4  1  0.70854000  0.70880000  0.58267000  1.0
  H  H5  1  0.41733000  0.70854000  0.29121000  1.0
  H  H6  1  0.29122000  0.70853000  0.00025000  1.0
  H  H7  1  0.58267000  0.29146000  0.70879000  1.0
  H  H8  1  0.29121000  0.29146000  0.41733000  1.0
  H  H9  1  0.29121000  0.99975000  0.29147000  1.0
  H  H10  1  0.70855000  0.41735000  0.29120000  1.0
  H  H11  1  0.29147000  0.58269000  0.70878000  1.0
  H  H12  1  0.70854000  0.99975000  0.70879000  1.0
  Ru  Ru13  1  1.00000000  0.59121000  0.40879000  1.0
  Ru  Ru14  1  0.40880000  0.40878000  0.00000000  1.0
  Ru  Ru15  1  0.00000000  0.40879000  0.59121000  1.0
  Ru  Ru16  1  0.59122000  0.59120000  0.00000000  1.0
  Ru  Ru17  1  0.59122000  0.00002000  0.40878000  1.0
  Ru  Ru18  1  0.40880000  0.00002000  0.59120000  1.0
  C  C19  1  0.00009000  0.35278000  0.35269000  1.0
  C  C20  1  0.64732000  0.35278000  0.99991000  1.0
  C  C21  1  0.99990000  0.64721000  0.64731000  1.0
  C  C22  1  0.64722000  0.64731000  0.70547000  1.0
  C  C23  1  0.29453000  0.64722000  0.35269000  1.0
  C  C24  1  0.35270000  0.64721000  0.00009000  1.0
  C  C25  1  0.70547000  0.35278000  0.64731000  1.0
  C  C26  1  0.35269000  0.35279000  0.29452000  1.0
  C  C27  1  0.35269000  0.99991000  0.35279000  1.0
  C  C28  1  0.64722000  0.29454000  0.35269000  1.0
  C  C29  1  0.35279000  0.70549000  0.64730000  1.0
  C  C30  1  0.64721000  0.99990000  0.64731000  1.0
  C  C31  1  0.00000000  0.85416000  0.14584000  1.0
  C  C32  1  0.14584000  0.14584000  0.99999000  1.0
  C  C33  1  0.00000000  0.14584000  0.85416000  1.0
  C  C34  1  0.85416000  0.85416000  0.00000000  1.0
  C  C35  1  0.85416000  0.00000000  0.14584000  1.0
  C  C36  1  0.14584000  1.00000000  0.85416000  1.0
  N  N37  1  0.00000000  0.76192000  0.23808000  1.0
  N  N38  1  0.23808000  0.23808000  0.00000000  1.0
  N  N39  1  0.00000000  0.23808000  0.76192000  1.0
  N  N40  1  0.76193000  0.76192000  0.00000000  1.0
  N  N41  1  0.76192000  1.00000000  0.23808000  1.0
  N  N42  1  0.23808000  1.00000000  0.76192000  1.0
  O  O43  1  0.00004000  0.47520000  0.29658000  1.0
  O  O44  1  0.52485000  0.29660000  0.99997000  1.0
  O  O45  1  0.99996000  0.70338000  0.52485000  1.0
  O  O46  1  0.52482000  0.52484000  0.77177000  1.0
  O  O47  1  0.22823000  0.52481000  0.47515000  1.0
  O  O48  1  0.29659000  0.52480000  0.00003000  1.0
  O  O49  1  0.00003000  0.29661000  0.47516000  1.0
  O  O50  1  0.70339000  0.70341000  0.77177000  1.0
  O  O51  1  0.77177000  0.29662000  0.70342000  1.0
  O  O52  1  0.70342000  0.47517000  0.99998000  1.0
  O  O53  1  0.47515000  0.47519000  0.22823000  1.0
  O  O54  1  0.22823000  0.70339000  0.29658000  1.0
  O  O55  1  0.47517000  0.70338000  0.00002000  1.0
  O  O56  1  0.99996000  0.52481000  0.70342000  1.0
  O  O57  1  0.29658000  0.29662000  0.22823000  1.0
  O  O58  1  0.77177000  0.47519000  0.52484000  1.0
  O  O59  1  0.47516000  0.99998000  0.29662000  1.0
  O  O60  1  0.70339000  0.22824000  0.29658000  1.0
  O  O61  1  0.47519000  0.77179000  0.52484000  1.0
  O  O62  1  0.29659000  0.99998000  0.47518000  1.0
  O  O63  1  0.52482000  0.22824000  0.47515000  1.0
  O  O64  1  0.52480000  0.99996000  0.70343000  1.0
  O  O65  1  0.29662000  0.77179000  0.70340000  1.0
  O  O66  1  0.70338000  0.99996000  0.52485000  1.0
