# generated using pymatgen
data_CdH15C11N7O3
_symmetry_space_group_name_H-M   'P 1'
_cell_length_a   12.04760000
_cell_length_b   12.84160000
_cell_length_c   12.95000000
_cell_angle_alpha   116.00400000
_cell_angle_beta   90.00000000
_cell_angle_gamma   90.00000000
_symmetry_Int_Tables_number   1
_chemical_formula_structural   CdH15C11N7O3
_chemical_formula_sum   'Cd4 H60 C44 N28 O12'
_cell_volume   1800.67296470
_cell_formula_units_Z   4
loop_
 _symmetry_equiv_pos_site_id
 _symmetry_equiv_pos_as_xyz
  1  'x, y, z'
loop_
 _atom_site_type_symbol
 _atom_site_label
 _atom_site_symmetry_multiplicity
 _atom_site_fract_x
 _atom_site_fract_y
 _atom_site_fract_z
 _atom_site_occupancy
  Cd  Cd0  1  0.76002000  0.81830000  0.40248000  1.0
  Cd  Cd1  1  0.26002000  0.68170000  0.09752000  1.0
  Cd  Cd2  1  0.23998000  0.18170000  0.59752000  1.0
  Cd  Cd3  1  0.73998000  0.31830000  0.90248000  1.0
  H  H4  1  0.95273000  0.13980000  0.84964000  1.0
  H  H5  1  0.45273000  0.36020000  0.65036000  1.0
  H  H6  1  0.04727000  0.86020000  0.15036000  1.0
  H  H7  1  0.54727000  0.63980000  0.34964000  1.0
  H  H8  1  0.03696000  0.24716000  0.83933000  1.0
  H  H9  1  0.53696000  0.25284000  0.66067000  1.0
  H  H10  1  0.96304000  0.75284000  0.16067000  1.0
  H  H11  1  0.46304000  0.74716000  0.33933000  1.0
  H  H12  1  0.16658000  0.54105000  0.39651000  1.0
  H  H13  1  0.66658000  0.95895000  0.10349000  1.0
  H  H14  1  0.83342000  0.45895000  0.60349000  1.0
  H  H15  1  0.33342000  0.04105000  0.89651000  1.0
  H  H16  1  0.06945000  0.54924000  0.50309000  1.0
  H  H17  1  0.56945000  0.95076000  0.99691000  1.0
  H  H18  1  0.93055000  0.45076000  0.49691000  1.0
  H  H19  1  0.43055000  0.04924000  0.00309000  1.0
  H  H20  1  0.94036000  0.74464000  0.58774000  1.0
  H  H21  1  0.44036000  0.75536000  0.91226000  1.0
  H  H22  1  0.05964000  0.25536000  0.41226000  1.0
  H  H23  1  0.55964000  0.24464000  0.08774000  1.0
  H  H24  1  0.98635000  0.86126000  0.56115000  1.0
  H  H25  1  0.48636000  0.63874000  0.93885000  1.0
  H  H26  1  0.01365000  0.13875000  0.43885000  1.0
  H  H27  1  0.51365000  0.36126000  0.06115000  1.0
  H  H28  1  0.13901000  0.74126000  0.43748000  1.0
  H  H29  1  0.63901000  0.75874000  0.06252000  1.0
  H  H30  1  0.86099000  0.25874000  0.56252000  1.0
  H  H31  1  0.36099000  0.24126000  0.93748000  1.0
  H  H32  1  0.14580000  0.74259000  0.57514000  1.0
  H  H33  1  0.64580000  0.75742000  0.92486000  1.0
  H  H34  1  0.85420000  0.25742000  0.42486000  1.0
  H  H35  1  0.35420000  0.24258000  0.07514000  1.0
  H  H36  1  0.19034000  0.34879000  0.99697000  1.0
  H  H37  1  0.69034000  0.15121000  0.50303000  1.0
  H  H38  1  0.80966000  0.65121000  0.00303000  1.0
  H  H39  1  0.30966000  0.84879000  0.49697000  1.0
  H  H40  1  0.18975000  0.32072000  0.11909000  1.0
  H  H41  1  0.68975000  0.17928000  0.38091000  1.0
  H  H42  1  0.81025000  0.67928000  0.88091000  1.0
  H  H43  1  0.31025000  0.82072000  0.61909000  1.0
  H  H44  1  0.62432000  0.59836000  0.12475000  1.0
  H  H45  1  0.12432000  0.90164000  0.37525000  1.0
  H  H46  1  0.37568000  0.40164000  0.87525000  1.0
  H  H47  1  0.87568000  0.09836000  0.62475000  1.0
  H  H48  1  0.01167000  0.46746000  0.28073000  1.0
  H  H49  1  0.51167000  0.03254000  0.21927000  1.0
  H  H50  1  0.98833000  0.53254000  0.71927000  1.0
  H  H51  1  0.48833000  0.96746000  0.78073000  1.0
  H  H52  1  0.04258000  0.17401000  0.03566000  1.0
  H  H53  1  0.54258000  0.32599000  0.46434000  1.0
  H  H54  1  0.95742000  0.82599000  0.96434000  1.0
  H  H55  1  0.45742000  0.67401000  0.53566000  1.0
  H  H56  1  0.14644000  0.14251000  0.92955000  1.0
  H  H57  1  0.64644000  0.35749000  0.57045000  1.0
  H  H58  1  0.85356000  0.85749000  0.07045000  1.0
  H  H59  1  0.35356000  0.64251000  0.42955000  1.0
  H  H60  1  0.08112000  0.49223000  0.15440000  1.0
  H  H61  1  0.58112000  0.00777000  0.34561000  1.0
  H  H62  1  0.91888000  0.50777000  0.84560000  1.0
  H  H63  1  0.41888000  0.99223000  0.65440000  1.0
  C  C64  1  0.94645000  0.39728000  0.06214000  1.0
  C  C65  1  0.44645000  0.10272000  0.43786000  1.0
  C  C66  1  0.05355000  0.60272000  0.93786000  1.0
  C  C67  1  0.55355000  0.89728000  0.56214000  1.0
  C  C68  1  0.70642000  0.57653000  0.14413000  1.0
  C  C69  1  0.20642000  0.92347000  0.35587000  1.0
  C  C70  1  0.29358000  0.42347000  0.85587000  1.0
  C  C71  1  0.79358000  0.07653000  0.64413000  1.0
  C  C72  1  0.92800000  0.61966000  0.34054000  1.0
  C  C73  1  0.42800000  0.88034000  0.15946000  1.0
  C  C74  1  0.07200000  0.38034000  0.65946000  1.0
  C  C75  1  0.57200000  0.11966000  0.84054000  1.0
  C  C76  1  0.86290000  0.48595000  0.12602000  1.0
  C  C77  1  0.36290000  0.01405000  0.37398000  1.0
  C  C78  1  0.13710000  0.51405000  0.87398000  1.0
  C  C79  1  0.63710000  0.98595000  0.62602000  1.0
  C  C80  1  0.85735000  0.57848000  0.23688000  1.0
  C  C81  1  0.35735000  0.92152000  0.26312000  1.0
  C  C82  1  0.14265000  0.42152000  0.76312000  1.0
  C  C83  1  0.64265000  0.07848000  0.73688000  1.0
  C  C84  1  0.99656000  0.22121000  0.90111000  1.0
  C  C85  1  0.49656000  0.27878000  0.59889000  1.0
  C  C86  1  0.00344000  0.77878000  0.09889000  1.0
  C  C87  1  0.50344000  0.72122000  0.40111000  1.0
  C  C88  1  0.08834000  0.58128000  0.43886000  1.0
  C  C89  1  0.58834000  0.91872000  0.06114000  1.0
  C  C90  1  0.91165000  0.41872000  0.56114000  1.0
  C  C91  1  0.41166000  0.08128000  0.93886000  1.0
  C  C92  1  0.98121000  0.76637000  0.52321000  1.0
  C  C93  1  0.48121000  0.73363000  0.97679000  1.0
  C  C94  1  0.01879000  0.23363000  0.47679000  1.0
  C  C95  1  0.51879000  0.26637000  0.02321000  1.0
  C  C96  1  0.09682000  0.71276000  0.49600000  1.0
  C  C97  1  0.59683000  0.78724000  0.00400000  1.0
  C  C98  1  0.90317000  0.28724000  0.50400000  1.0
  C  C99  1  0.40318000  0.21276000  0.99600000  1.0
  C  C100  1  0.13713000  0.32297000  0.05091000  1.0
  C  C101  1  0.63713000  0.17703000  0.44908000  1.0
  C  C102  1  0.86287000  0.67703000  0.94909000  1.0
  C  C103  1  0.36287000  0.82297000  0.55091000  1.0
  C  C104  1  0.08339000  0.20635000  0.97931000  1.0
  C  C105  1  0.58339000  0.29365000  0.52069000  1.0
  C  C106  1  0.91661000  0.79365000  0.02069000  1.0
  C  C107  1  0.41661000  0.70635000  0.47931000  1.0
  N  N108  1  0.00123000  0.54460000  0.35099000  1.0
  N  N109  1  0.50123000  0.95540000  0.14901000  1.0
  N  N110  1  0.99877000  0.45540000  0.64901000  1.0
  N  N111  1  0.49877000  0.04460000  0.85099000  1.0
  N  N112  1  0.91448000  0.30858000  0.96811000  1.0
  N  N113  1  0.41448000  0.19142000  0.53189000  1.0
  N  N114  1  0.08552000  0.69142000  0.03189000  1.0
  N  N115  1  0.58552000  0.80858000  0.46811000  1.0
  N  N116  1  0.76579000  0.48616000  0.06989000  1.0
  N  N117  1  0.26579000  0.01384000  0.43011000  1.0
  N  N118  1  0.23421000  0.51384000  0.93011000  1.0
  N  N119  1  0.73421000  0.98616000  0.56989000  1.0
  N  N120  1  0.75827000  0.63533000  0.24518000  1.0
  N  N121  1  0.25827000  0.86467000  0.25482000  1.0
  N  N122  1  0.24173000  0.36467000  0.75482000  1.0
  N  N123  1  0.74173000  0.13533000  0.74518000  1.0
  N  N124  1  0.91269000  0.72580000  0.41994000  1.0
  N  N125  1  0.41269000  0.77420000  0.08006000  1.0
  N  N126  1  0.08731000  0.27420000  0.58006000  1.0
  N  N127  1  0.58731000  0.22580000  0.91994000  1.0
  N  N128  1  0.81340000  0.97095000  0.29386000  1.0
  N  N129  1  0.31340000  0.52905000  0.20614000  1.0
  N  N130  1  0.18660000  0.02905000  0.70614000  1.0
  N  N131  1  0.68660000  0.47095000  0.79386000  1.0
  N  N132  1  0.05144000  0.41071000  0.10565000  1.0
  N  N133  1  0.55144000  0.08929000  0.39435000  1.0
  N  N134  1  0.94856000  0.58929000  0.89435000  1.0
  N  N135  1  0.44856000  0.91071000  0.60565000  1.0
  O  O136  1  0.89131000  0.95700000  0.35198000  1.0
  O  O137  1  0.39131000  0.54300000  0.14802000  1.0
  O  O138  1  0.10869000  0.04300000  0.64802000  1.0
  O  O139  1  0.60869000  0.45700000  0.85198000  1.0
  O  O140  1  0.72230000  0.91181000  0.28179000  1.0
  O  O141  1  0.22230000  0.58819000  0.21821000  1.0
  O  O142  1  0.27770000  0.08819000  0.71821000  1.0
  O  O143  1  0.77770000  0.41181000  0.78179000  1.0
  O  O144  1  0.82082000  0.03807000  0.24768000  1.0
  O  O145  1  0.32082000  0.46193000  0.25232000  1.0
  O  O146  1  0.17918000  0.96193000  0.75232000  1.0
  O  O147  1  0.67918000  0.53807000  0.74768000  1.0
