# generated using pymatgen
data_Zr3H26(C27O8)2
_symmetry_space_group_name_H-M   'P 1'
_cell_length_a   19.01930000
_cell_length_b   19.01925000
_cell_length_c   19.01930000
_cell_angle_alpha   59.99991304
_cell_angle_beta   60.00000000
_cell_angle_gamma   59.99973911
_symmetry_Int_Tables_number   1
_chemical_formula_structural   Zr3H26(C27O8)2
_chemical_formula_sum   'Zr6 H52 C108 O32'
_cell_volume   4864.81472727
_cell_formula_units_Z   2
loop_
 _symmetry_equiv_pos_site_id
 _symmetry_equiv_pos_as_xyz
  1  'x, y, z'
loop_
 _atom_site_type_symbol
 _atom_site_label
 _atom_site_symmetry_multiplicity
 _atom_site_fract_x
 _atom_site_fract_y
 _atom_site_fract_z
 _atom_site_occupancy
  Zr  Zr0  1  0.90705000  0.40703000  0.09296000  1.0
  Zr  Zr1  1  0.09296000  0.59296000  0.90704000  1.0
  Zr  Zr2  1  0.09296000  0.40704000  0.90704000  1.0
  Zr  Zr3  1  0.90704000  0.59296000  0.09296000  1.0
  Zr  Zr4  1  0.09296000  0.40704000  0.09296000  1.0
  Zr  Zr5  1  0.90704000  0.59296000  0.90704000  1.0
  H  H6  1  0.07319000  0.28045000  0.07318000  1.0
  H  H7  1  0.07319000  0.57318000  0.07318000  1.0
  H  H8  1  0.07319000  0.57318000  0.78045000  1.0
  H  H9  1  0.78046000  0.57318000  0.07318000  1.0
  H  H10  1  0.88669000  0.82195000  0.67920000  1.0
  H  H11  1  0.82090000  0.93490000  0.56501000  1.0
  H  H12  1  0.11216000  0.82195000  0.67920000  1.0
  H  H13  1  0.17919000  0.93490000  0.56501000  1.0
  H  H14  1  0.11216000  0.17920000  0.32195000  1.0
  H  H15  1  0.17918000  0.06501000  0.43490000  1.0
  H  H16  1  0.88669000  0.17920000  0.32195000  1.0
  H  H17  1  0.82090000  0.06501000  0.43490000  1.0
  H  H18  1  0.32195000  0.38669000  0.11216000  1.0
  H  H19  1  0.43491000  0.32090000  0.17918000  1.0
  H  H20  1  0.32195000  0.61216000  0.88669000  1.0
  H  H21  1  0.43490000  0.67919000  0.82090000  1.0
  H  H22  1  0.67919000  0.61216000  0.88670000  1.0
  H  H23  1  0.56500000  0.67919000  0.82091000  1.0
  H  H24  1  0.67920000  0.38669000  0.11216000  1.0
  H  H25  1  0.56502000  0.32090000  0.17918000  1.0
  H  H26  1  0.11216000  0.38669000  0.67920000  1.0
  H  H27  1  0.17919000  0.32090000  0.56501000  1.0
  H  H28  1  0.88669000  0.61216000  0.67920000  1.0
  H  H29  1  0.82090000  0.67919000  0.56501000  1.0
  H  H30  1  0.88669000  0.61216000  0.32195000  1.0
  H  H31  1  0.82090000  0.67919000  0.43490000  1.0
  H  H32  1  0.11215000  0.38670000  0.32195000  1.0
  H  H33  1  0.17919000  0.32090000  0.43490000  1.0
  H  H34  1  0.32195000  0.17920000  0.88669000  1.0
  H  H35  1  0.43491000  0.06501000  0.82090000  1.0
  H  H36  1  0.32195000  0.17920000  0.11216000  1.0
  H  H37  1  0.43491000  0.06501000  0.17918000  1.0
  H  H38  1  0.67919000  0.82195000  0.11216000  1.0
  H  H39  1  0.56502000  0.93490000  0.17918000  1.0
  H  H40  1  0.67920000  0.82195000  0.88669000  1.0
  H  H41  1  0.56501000  0.93490000  0.82090000  1.0
  H  H42  1  0.11216000  0.82195000  0.88669000  1.0
  H  H43  1  0.17919000  0.93490000  0.82090000  1.0
  H  H44  1  0.88669000  0.82195000  0.11216000  1.0
  H  H45  1  0.82090000  0.93490000  0.17919000  1.0
  H  H46  1  0.88669000  0.17920000  0.11216000  1.0
  H  H47  1  0.82090000  0.06501000  0.17919000  1.0
  H  H48  1  0.11216000  0.17920000  0.88669000  1.0
  H  H49  1  0.17919000  0.06501000  0.82090000  1.0
  H  H50  1  0.32195000  0.61216000  0.67920000  1.0
  H  H51  1  0.43490000  0.67919000  0.56501000  1.0
  H  H52  1  0.32196000  0.38669000  0.67920000  1.0
  H  H53  1  0.43491000  0.32090000  0.56501000  1.0
  H  H54  1  0.67920000  0.38669000  0.32195000  1.0
  H  H55  1  0.56502000  0.32090000  0.43490000  1.0
  H  H56  1  0.67920000  0.61216000  0.32195000  1.0
  H  H57  1  0.56501000  0.67919000  0.43490000  1.0
  C  C58  1  0.99812000  0.26550000  0.23827000  1.0
  C  C59  1  0.23828000  0.49811000  0.99811000  1.0
  C  C60  1  0.99812000  0.73827000  0.76550000  1.0
  C  C61  1  0.76551000  0.49811000  0.99811000  1.0
  C  C62  1  0.99812000  0.26550000  0.99811000  1.0
  C  C63  1  0.76551000  0.49811000  0.23827000  1.0
  C  C64  1  0.99812000  0.73827000  0.99811000  1.0
  C  C65  1  0.23828000  0.49811000  0.76550000  1.0
  C  C66  1  0.23828000  0.26550000  0.99811000  1.0
  C  C67  1  0.99812000  0.49811000  0.76550000  1.0
  C  C68  1  0.76551000  0.73827000  0.99811000  1.0
  C  C69  1  0.99812000  0.49811000  0.23827000  1.0
  C  C70  1  0.93565000  0.85181000  0.64912000  1.0
  C  C71  1  0.93486000  0.92498000  0.57495000  1.0
  C  C72  1  0.87047000  0.96396000  0.53574000  1.0
  C  C73  1  0.06342000  0.85181000  0.64912000  1.0
  C  C74  1  0.06520000  0.92498000  0.57495000  1.0
  C  C75  1  0.12984000  0.96396000  0.53574000  1.0
  C  C76  1  0.06342000  0.14912000  0.35181000  1.0
  C  C77  1  0.06520000  0.07495000  0.42498000  1.0
  C  C78  1  0.12983000  0.03574000  0.46396000  1.0
  C  C79  1  0.93565000  0.14912000  0.35181000  1.0
  C  C80  1  0.93486000  0.07495000  0.42498000  1.0
  C  C81  1  0.87047000  0.03574000  0.46396000  1.0
  C  C82  1  0.99903000  0.81581000  0.68613000  1.0
  C  C83  1  0.00014000  0.96251000  0.53722000  1.0
  C  C84  1  0.99903000  0.18613000  0.31581000  1.0
  C  C85  1  0.00013000  0.03722000  0.46251000  1.0
  C  C86  1  0.35182000  0.43564000  0.06342000  1.0
  C  C87  1  0.42497000  0.43487000  0.06521000  1.0
  C  C88  1  0.46397000  0.37046000  0.12983000  1.0
  C  C89  1  0.35181000  0.56342000  0.93565000  1.0
  C  C90  1  0.42497000  0.56521000  0.93487000  1.0
  C  C91  1  0.46397000  0.62983000  0.87046000  1.0
  C  C92  1  0.64912000  0.56342000  0.93565000  1.0
  C  C93  1  0.57495000  0.56521000  0.93487000  1.0
  C  C94  1  0.53573000  0.62984000  0.87047000  1.0
  C  C95  1  0.64912000  0.43565000  0.06342000  1.0
  C  C96  1  0.57495000  0.43487000  0.06521000  1.0
  C  C97  1  0.53575000  0.37046000  0.12983000  1.0
  C  C98  1  0.31581000  0.49903000  0.99903000  1.0
  C  C99  1  0.46251000  0.50014000  0.00013000  1.0
  C  C100  1  0.68613000  0.49903000  0.99903000  1.0
  C  C101  1  0.53721000  0.50014000  0.00014000  1.0
  C  C102  1  0.06342000  0.43565000  0.64912000  1.0
  C  C103  1  0.06520000  0.43487000  0.57495000  1.0
  C  C104  1  0.12983000  0.37047000  0.53574000  1.0
  C  C105  1  0.93565000  0.56342000  0.64912000  1.0
  C  C106  1  0.93487000  0.56521000  0.57495000  1.0
  C  C107  1  0.87046000  0.62984000  0.53574000  1.0
  C  C108  1  0.93565000  0.56342000  0.35181000  1.0
  C  C109  1  0.93487000  0.56521000  0.42497000  1.0
  C  C110  1  0.87046000  0.62984000  0.46396000  1.0
  C  C111  1  0.06342000  0.43565000  0.35181000  1.0
  C  C112  1  0.06521000  0.43487000  0.42497000  1.0
  C  C113  1  0.12983000  0.37047000  0.46396000  1.0
  C  C114  1  0.99903000  0.49903000  0.68613000  1.0
  C  C115  1  0.00013000  0.50014000  0.53722000  1.0
  C  C116  1  0.99903000  0.49903000  0.31581000  1.0
  C  C117  1  0.00013000  0.50014000  0.46251000  1.0
  C  C118  1  0.35182000  0.14912000  0.93564000  1.0
  C  C119  1  0.42497000  0.07495000  0.93487000  1.0
  C  C120  1  0.46397000  0.03574000  0.87046000  1.0
  C  C121  1  0.35181000  0.14912000  0.06342000  1.0
  C  C122  1  0.42497000  0.07495000  0.06521000  1.0
  C  C123  1  0.46396000  0.03574000  0.12983000  1.0
  C  C124  1  0.64912000  0.85181000  0.06342000  1.0
  C  C125  1  0.57494000  0.92498000  0.06521000  1.0
  C  C126  1  0.53574000  0.96396000  0.12983000  1.0
  C  C127  1  0.64913000  0.85181000  0.93564000  1.0
  C  C128  1  0.57494000  0.92498000  0.93487000  1.0
  C  C129  1  0.53575000  0.96396000  0.87046000  1.0
  C  C130  1  0.31581000  0.18613000  0.99903000  1.0
  C  C131  1  0.46252000  0.03722000  0.00013000  1.0
  C  C132  1  0.68613000  0.81581000  0.99903000  1.0
  C  C133  1  0.53722000  0.96251000  0.00013000  1.0
  C  C134  1  0.06343000  0.85181000  0.93564000  1.0
  C  C135  1  0.06520000  0.92498000  0.93487000  1.0
  C  C136  1  0.12984000  0.96396000  0.87046000  1.0
  C  C137  1  0.93565000  0.85181000  0.06342000  1.0
  C  C138  1  0.93486000  0.92498000  0.06521000  1.0
  C  C139  1  0.87047000  0.96396000  0.12983000  1.0
  C  C140  1  0.93565000  0.14912000  0.06342000  1.0
  C  C141  1  0.93487000  0.07495000  0.06521000  1.0
  C  C142  1  0.87047000  0.03574000  0.12983000  1.0
  C  C143  1  0.06343000  0.14912000  0.93564000  1.0
  C  C144  1  0.06520000  0.07495000  0.93487000  1.0
  C  C145  1  0.12984000  0.03574000  0.87046000  1.0
  C  C146  1  0.99903000  0.81581000  0.99903000  1.0
  C  C147  1  0.00014000  0.96251000  0.00013000  1.0
  C  C148  1  0.99903000  0.18613000  0.99903000  1.0
  C  C149  1  0.00014000  0.03722000  0.00013000  1.0
  C  C150  1  0.35182000  0.56342000  0.64912000  1.0
  C  C151  1  0.42497000  0.56521000  0.57495000  1.0
  C  C152  1  0.46397000  0.62983000  0.53574000  1.0
  C  C153  1  0.35182000  0.43564000  0.64912000  1.0
  C  C154  1  0.42497000  0.43487000  0.57495000  1.0
  C  C155  1  0.46397000  0.37046000  0.53574000  1.0
  C  C156  1  0.64912000  0.43565000  0.35181000  1.0
  C  C157  1  0.57494000  0.43487000  0.42498000  1.0
  C  C158  1  0.53574000  0.37047000  0.46396000  1.0
  C  C159  1  0.64912000  0.56342000  0.35181000  1.0
  C  C160  1  0.57495000  0.56521000  0.42497000  1.0
  C  C161  1  0.53575000  0.62983000  0.46396000  1.0
  C  C162  1  0.31581000  0.49903000  0.68613000  1.0
  C  C163  1  0.46252000  0.50013000  0.53722000  1.0
  C  C164  1  0.68613000  0.49903000  0.31581000  1.0
  C  C165  1  0.53722000  0.50014000  0.46251000  1.0
  O  O166  1  0.93829000  0.29632000  0.20753000  1.0
  O  O167  1  0.20753000  0.55786000  0.93829000  1.0
  O  O168  1  0.05786000  0.70753000  0.79632000  1.0
  O  O169  1  0.79632000  0.43829000  0.05786000  1.0
  O  O170  1  0.05786000  0.29632000  0.93829000  1.0
  O  O171  1  0.79632000  0.55786000  0.20753000  1.0
  O  O172  1  0.93829000  0.70753000  0.05786000  1.0
  O  O173  1  0.20753000  0.43829000  0.79632000  1.0
  O  O174  1  0.20753000  0.29632000  0.05786000  1.0
  O  O175  1  0.93829000  0.55786000  0.79632000  1.0
  O  O176  1  0.79632000  0.70753000  0.93829000  1.0
  O  O177  1  0.05786000  0.43829000  0.20753000  1.0
  O  O178  1  0.05786000  0.43829000  0.79632000  1.0
  O  O179  1  0.79632000  0.70753000  0.05786000  1.0
  O  O180  1  0.93829000  0.55786000  0.20753000  1.0
  O  O181  1  0.20753000  0.29632000  0.93829000  1.0
  O  O182  1  0.93829000  0.29632000  0.05786000  1.0
  O  O183  1  0.20753000  0.55786000  0.79632000  1.0
  O  O184  1  0.05786000  0.70753000  0.93829000  1.0
  O  O185  1  0.79632000  0.43829000  0.20753000  1.0
  O  O186  1  0.79631000  0.55786000  0.93830000  1.0
  O  O187  1  0.05786000  0.29632000  0.20753000  1.0
  O  O188  1  0.20753000  0.43829000  0.05786000  1.0
  O  O189  1  0.93829000  0.70753000  0.79632000  1.0
  O  O190  1  0.84286000  0.55238000  0.05238000  1.0
  O  O191  1  0.05237000  0.55238000  0.84287000  1.0
  O  O192  1  0.05238000  0.55238000  0.05238000  1.0
  O  O193  1  0.05237000  0.34287000  0.05238000  1.0
  O  O194  1  0.11562000  0.46146000  0.96146000  1.0
  O  O195  1  0.96146000  0.46146000  0.11562000  1.0
  O  O196  1  0.96146000  0.61562000  0.96146000  1.0
  O  O197  1  0.96146000  0.46146000  0.96146000  1.0
