# generated using pymatgen
data_ZnH22C25N4O5
_symmetry_space_group_name_H-M   'P 1'
_cell_length_a   8.38672000
_cell_length_b   10.88710000
_cell_length_c   14.12202859
_cell_angle_alpha   83.60932426
_cell_angle_beta   72.75179744
_cell_angle_gamma   68.00650000
_symmetry_Int_Tables_number   1
_chemical_formula_structural   ZnH22C25N4O5
_chemical_formula_sum   'Zn2 H44 C50 N8 O10'
_cell_volume   1141.83633274
_cell_formula_units_Z   2
loop_
 _symmetry_equiv_pos_site_id
 _symmetry_equiv_pos_as_xyz
  1  'x, y, z'
loop_
 _atom_site_type_symbol
 _atom_site_label
 _atom_site_symmetry_multiplicity
 _atom_site_fract_x
 _atom_site_fract_y
 _atom_site_fract_z
 _atom_site_occupancy
  Zn  Zn0  1  0.93634000  0.25006000  0.12687000  1.0
  Zn  Zn1  1  0.06366000  0.74995000  0.87313000  1.0
  H  H2  1  0.23111000  0.51536000  0.96415000  1.0
  H  H3  1  0.80487000  0.98480000  0.96380000  1.0
  H  H4  1  0.76889000  0.48464000  0.03585000  1.0
  H  H5  1  0.19513000  0.01520000  0.03620000  1.0
  H  H6  1  0.39705000  0.35738000  0.93949000  1.0
  H  H7  1  0.66334000  0.14273000  0.93909000  1.0
  H  H8  1  0.60295000  0.64262000  0.06051000  1.0
  H  H9  1  0.33666000  0.85727000  0.06091000  1.0
  H  H10  1  0.51171000  0.39176000  0.07980000  1.0
  H  H11  1  0.40902000  0.10816000  0.07982000  1.0
  H  H12  1  0.48829000  0.60824000  0.92020000  1.0
  H  H13  1  0.59098000  0.89184000  0.92018000  1.0
  H  H14  1  0.35037000  0.55401000  0.09530000  1.0
  H  H15  1  0.55515000  0.94595000  0.09513000  1.0
  H  H16  1  0.64962000  0.44599000  0.90470000  1.0
  H  H17  1  0.44485000  0.05405000  0.90486000  1.0
  H  H18  1  0.50243000  0.32974000  0.24937000  1.0
  H  H19  1  0.24738000  0.17052000  0.24949000  1.0
  H  H20  1  0.49758000  0.67027000  0.75063000  1.0
  H  H21  1  0.75261000  0.82948000  0.75051000  1.0
  H  H22  1  0.88171000  0.50476000  0.23207000  1.0
  H  H23  1  0.88607000  0.99494000  0.23205000  1.0
  H  H24  1  0.11829000  0.49525000  0.76793000  1.0
  H  H25  1  0.11392000  0.00507000  0.76795000  1.0
  H  H26  1  0.55096000  0.65957000  0.35777000  1.0
  H  H27  1  0.09154000  0.84016000  0.35770000  1.0
  H  H28  1  0.44904000  0.34043000  0.64223000  1.0
  H  H29  1  0.90846000  0.15984000  0.64230000  1.0
  H  H30  1  0.19536000  0.51650000  0.25596000  1.0
  H  H31  1  0.54831000  0.98355000  0.25589000  1.0
  H  H32  1  0.80463000  0.48350000  0.74404000  1.0
  H  H33  1  0.45169000  0.01645000  0.74411000  1.0
  H  H34  1  0.87761000  0.63209000  0.34247000  1.0
  H  H35  1  0.77970000  0.86815000  0.34244000  1.0
  H  H36  1  0.12239000  0.36791000  0.65753000  1.0
  H  H37  1  0.22030000  0.13186000  0.65756000  1.0
  H  H38  1  0.01948000  0.70218000  0.59497000  1.0
  H  H39  1  0.38589000  0.79800000  0.59506000  1.0
  H  H40  1  0.98052000  0.29782000  0.40503000  1.0
  H  H41  1  0.61412000  0.20199000  0.40494000  1.0
  H  H42  1  0.34241000  0.59760000  0.50476000  1.0
  H  H43  1  0.15304000  0.90238000  0.50481000  1.0
  H  H44  1  0.65760000  0.40239000  0.49524000  1.0
  H  H45  1  0.84697000  0.09761000  0.49519000  1.0
  C  C46  1  0.18993000  0.37461000  0.07418000  1.0
  C  C47  1  0.73613000  0.12557000  0.07377000  1.0
  C  C48  1  0.81007000  0.62539000  0.92582000  1.0
  C  C49  1  0.26388000  0.87443000  0.92623000  1.0
  C  C50  1  0.31654000  0.43120000  0.99893000  1.0
  C  C51  1  0.68466000  0.06892000  0.99857000  1.0
  C  C52  1  0.68346000  0.56881000  0.00107000  1.0
  C  C53  1  0.31534000  0.93108000  0.00143000  1.0
  C  C54  1  0.43538000  0.47498000  0.04022000  1.0
  C  C55  1  0.52470000  0.02501000  0.04010000  1.0
  C  C56  1  0.56462000  0.52502000  0.95978000  1.0
  C  C57  1  0.47530000  0.97499000  0.95990000  1.0
  C  C58  1  0.56150000  0.39856000  0.26020000  1.0
  C  C59  1  0.17778000  0.10150000  0.26026000  1.0
  C  C60  1  0.43850000  0.60144000  0.73980000  1.0
  C  C61  1  0.82222000  0.89849000  0.73974000  1.0
  C  C62  1  0.75242000  0.49363000  0.25589000  1.0
  C  C63  1  0.99145000  0.00619000  0.25590000  1.0
  C  C64  1  0.24758000  0.50637000  0.74411000  1.0
  C  C65  1  0.00855000  0.99381000  0.74410000  1.0
  C  C66  1  0.59277000  0.56828000  0.31808000  1.0
  C  C67  1  0.08911000  0.93155000  0.31806000  1.0
  C  C68  1  0.40723000  0.43172000  0.68192000  1.0
  C  C69  1  0.91089000  0.06845000  0.68194000  1.0
  C  C70  1  0.28810000  0.55754000  0.37328000  1.0
  C  C71  1  0.33852000  0.94252000  0.37330000  1.0
  C  C72  1  0.71191000  0.44245000  0.62672000  1.0
  C  C73  1  0.66148000  0.05748000  0.62670000  1.0
  C  C74  1  0.15827000  0.56200000  0.32838000  1.0
  C  C75  1  0.51313000  0.93812000  0.32835000  1.0
  C  C76  1  0.84174000  0.43799000  0.67162000  1.0
  C  C77  1  0.48687000  0.06188000  0.67165000  1.0
  C  C78  1  0.97898000  0.62576000  0.37801000  1.0
  C  C79  1  0.64288000  0.87444000  0.37801000  1.0
  C  C80  1  0.02102000  0.37424000  0.62199000  1.0
  C  C81  1  0.35713000  0.12556000  0.62199000  1.0
  C  C82  1  0.92712000  0.68124000  0.47257000  1.0
  C  C83  1  0.60041000  0.81897000  0.47260000  1.0
  C  C84  1  0.07289000  0.31876000  0.52743000  1.0
  C  C85  1  0.39959000  0.18103000  0.52740000  1.0
  C  C86  1  0.05967000  0.66609000  0.51935000  1.0
  C  C87  1  0.42116000  0.83407000  0.51942000  1.0
  C  C88  1  0.94033000  0.33391000  0.48065000  1.0
  C  C89  1  0.57885000  0.16592000  0.48058000  1.0
  C  C90  1  0.23943000  0.60643000  0.46944000  1.0
  C  C91  1  0.29122000  0.89364000  0.46949000  1.0
  C  C92  1  0.76057000  0.39357000  0.53056000  1.0
  C  C93  1  0.70878000  0.10635000  0.53051000  1.0
  C  C94  1  0.73628000  0.75012000  0.52773000  1.0
  C  C95  1  0.26372000  0.24988000  0.47227000  1.0
  N  N96  1  0.73117000  0.38830000  0.22133000  1.0
  N  N97  1  0.04696000  0.11167000  0.22139000  1.0
  N  N98  1  0.26883000  0.61170000  0.77867000  1.0
  N  N99  1  0.95304000  0.88833000  0.77861000  1.0
  N  N100  1  0.47242000  0.50736000  0.32033000  1.0
  N  N101  1  0.20703000  0.99264000  0.32035000  1.0
  N  N102  1  0.52758000  0.49264000  0.67967000  1.0
  N  N103  1  0.79297000  0.00736000  0.67965000  1.0
  O  O104  1  0.10675000  0.32276000  0.03571000  1.0
  O  O105  1  0.85731000  0.17781000  0.03529000  1.0
  O  O106  1  0.89325000  0.67724000  0.96429000  1.0
  O  O107  1  0.14268000  0.82220000  0.96471000  1.0
  O  O108  1  0.16856000  0.38043000  0.16571000  1.0
  O  O109  1  0.66647000  0.11941000  0.16530000  1.0
  O  O110  1  0.83144000  0.61957000  0.83429000  1.0
  O  O111  1  0.33354000  0.88059000  0.83470000  1.0
  O  O112  1  0.69048000  0.75015000  0.61952000  1.0
  O  O113  1  0.30952000  0.24986000  0.38048000  1.0
