# generated using pymatgen
data_CdNiH10C14(N3O)2
_symmetry_space_group_name_H-M   'P 1'
_cell_length_a   7.85432000
_cell_length_b   10.52720000
_cell_length_c   10.55030000
_cell_angle_alpha   89.99990000
_cell_angle_beta   78.94300000
_cell_angle_gamma   89.99980000
_symmetry_Int_Tables_number   1
_chemical_formula_structural   CdNiH10C14(N3O)2
_chemical_formula_sum   'Cd2 Ni2 H20 C28 N12 O4'
_cell_volume   856.14760313
_cell_formula_units_Z   2
loop_
 _symmetry_equiv_pos_site_id
 _symmetry_equiv_pos_as_xyz
  1  'x, y, z'
loop_
 _atom_site_type_symbol
 _atom_site_label
 _atom_site_symmetry_multiplicity
 _atom_site_fract_x
 _atom_site_fract_y
 _atom_site_fract_z
 _atom_site_occupancy
  Cd  Cd0  1  0.50000000  0.00000000  0.50000000  1.0
  Cd  Cd1  1  0.50000000  0.50000000  1.00000000  1.0
  Ni  Ni2  1  0.49999000  0.50000000  0.50000000  1.0
  Ni  Ni3  1  0.50000000  0.00000000  1.00000000  1.0
  H  H4  1  0.12801000  0.60389000  0.15351000  1.0
  H  H5  1  0.87199000  0.10389000  0.34649000  1.0
  H  H6  1  0.87199000  0.39611000  0.84649000  1.0
  H  H7  1  0.12801000  0.89611000  0.65351000  1.0
  H  H8  1  0.12277000  0.90378000  0.41856000  1.0
  H  H9  1  0.87723000  0.40378000  0.08144000  1.0
  H  H10  1  0.87723000  0.09622000  0.58144000  1.0
  H  H11  1  0.12277000  0.59622000  0.91856000  1.0
  H  H12  1  0.66387000  0.80548000  0.26668000  1.0
  H  H13  1  0.33612000  0.30548000  0.23333000  1.0
  H  H14  1  0.33612000  0.19452000  0.73332000  1.0
  H  H15  1  0.66388000  0.69452000  0.76667000  1.0
  H  H16  1  0.83885000  0.63474000  0.13779000  1.0
  H  H17  1  0.16115000  0.13474000  0.36221000  1.0
  H  H18  1  0.16116000  0.36527000  0.86221000  1.0
  H  H19  1  0.83884000  0.86526000  0.63779000  1.0
  H  H20  1  0.27857000  0.72713000  0.28377000  1.0
  H  H21  1  0.72143000  0.22712000  0.21623000  1.0
  H  H22  1  0.72143000  0.27287000  0.71623000  1.0
  H  H23  1  0.27857000  0.77288000  0.78377000  1.0
  C  C24  1  0.05608000  0.84554000  0.35803000  1.0
  C  C25  1  0.94392000  0.34554000  0.14197000  1.0
  C  C26  1  0.94391000  0.15446000  0.64197000  1.0
  C  C27  1  0.05609000  0.65446000  0.85803000  1.0
  C  C28  1  0.79884000  0.79131000  0.27337000  1.0
  C  C29  1  0.20116000  0.29131000  0.22663000  1.0
  C  C30  1  0.20116000  0.20870000  0.72663000  1.0
  C  C31  1  0.79884000  0.70869000  0.77337000  1.0
  C  C32  1  0.89331000  0.69735000  0.20185000  1.0
  C  C33  1  0.10669000  0.19735000  0.29815000  1.0
  C  C34  1  0.10670000  0.30265000  0.79815000  1.0
  C  C35  1  0.89330000  0.80265000  0.70185000  1.0
  C  C36  1  0.46450000  0.67263000  0.50709000  1.0
  C  C37  1  0.53550000  0.17262000  0.99292000  1.0
  C  C38  1  0.53549000  0.32738000  0.49292000  1.0
  C  C39  1  0.46451000  0.82737000  0.00708000  1.0
  C  C40  1  0.14315000  0.74959000  0.28478000  1.0
  C  C41  1  0.85686000  0.24959000  0.21522000  1.0
  C  C42  1  0.85685000  0.25041000  0.71522000  1.0
  C  C43  1  0.14315000  0.75041000  0.78477000  1.0
  C  C44  1  0.87808000  0.87075000  0.35514000  1.0
  C  C45  1  0.12192000  0.37075000  0.14486000  1.0
  C  C46  1  0.12192000  0.12925000  0.64486000  1.0
  C  C47  1  0.87809000  0.62925000  0.85514000  1.0
  C  C48  1  0.52541000  0.50557000  0.32354000  1.0
  C  C49  1  0.47459000  0.00557000  0.17646000  1.0
  C  C50  1  0.47459000  0.49442000  0.67646000  1.0
  C  C51  1  0.52541000  0.99443000  0.82355000  1.0
  N  N52  1  0.06193000  0.67749000  0.20813000  1.0
  N  N53  1  0.93807000  0.17749000  0.29187000  1.0
  N  N54  1  0.93807000  0.32251000  0.79187000  1.0
  N  N55  1  0.06193000  0.82251000  0.70813000  1.0
  N  N56  1  0.44197000  0.78276000  0.51061000  1.0
  N  N57  1  0.55803000  0.28278000  0.98939000  1.0
  N  N58  1  0.55803000  0.21722000  0.48939000  1.0
  N  N59  1  0.44198000  0.71723000  0.01061000  1.0
  N  N60  1  0.54102000  0.50878000  0.21089000  1.0
  N  N61  1  0.45898000  0.00878000  0.28912000  1.0
  N  N62  1  0.45898000  0.49122000  0.78911000  1.0
  N  N63  1  0.54102000  0.99122000  0.71089000  1.0
  O  O64  1  0.79709000  0.96354000  0.42303000  1.0
  O  O65  1  0.20291000  0.46354000  0.07697000  1.0
  O  O66  1  0.20291000  0.03646000  0.57696000  1.0
  O  O67  1  0.79709000  0.53645000  0.92303000  1.0
