# generated using pymatgen
data_ZnH17C27(NO)6
_symmetry_space_group_name_H-M   'P 1'
_cell_length_a   8.79432000
_cell_length_b   12.10100000
_cell_length_c   12.77890000
_cell_angle_alpha   99.63070000
_cell_angle_beta   93.61320000
_cell_angle_gamma   105.32900000
_symmetry_Int_Tables_number   1
_chemical_formula_structural   ZnH17C27(NO)6
_chemical_formula_sum   'Zn2 H34 C54 N12 O12'
_cell_volume   1284.81411622
_cell_formula_units_Z   2
loop_
 _symmetry_equiv_pos_site_id
 _symmetry_equiv_pos_as_xyz
  1  'x, y, z'
loop_
 _atom_site_type_symbol
 _atom_site_label
 _atom_site_symmetry_multiplicity
 _atom_site_fract_x
 _atom_site_fract_y
 _atom_site_fract_z
 _atom_site_occupancy
  Zn  Zn0  1  0.82555000  0.33979000  0.06004000  1.0
  Zn  Zn1  1  0.17443000  0.66020000  0.93994000  1.0
  H  H2  1  0.77448000  0.10133000  0.40869000  1.0
  H  H3  1  0.22552000  0.89868000  0.59131000  1.0
  H  H4  1  0.02825000  0.70099000  0.59532000  1.0
  H  H5  1  0.97176000  0.29902000  0.40468000  1.0
  H  H6  1  0.06014000  0.61453000  0.24520000  1.0
  H  H7  1  0.93986000  0.38547000  0.75479000  1.0
  H  H8  1  0.95316000  0.93867000  0.23822000  1.0
  H  H9  1  0.04685000  0.06134000  0.76177000  1.0
  H  H10  1  0.84822000  0.77060000  0.50646000  1.0
  H  H11  1  0.15178000  0.22940000  0.49353000  1.0
  H  H12  1  0.80815000  0.49787000  0.87636000  1.0
  H  H13  1  0.19183000  0.50212000  0.12365000  1.0
  H  H14  1  0.71832000  0.70053000  0.92508000  1.0
  H  H15  1  0.28168000  0.29947000  0.07493000  1.0
  H  H16  1  0.65820000  0.51758000  0.18315000  1.0
  H  H17  1  0.34181000  0.48242000  0.81686000  1.0
  H  H18  1  0.68654000  0.84964000  0.03211000  1.0
  H  H19  1  0.31344000  0.15035000  0.96789000  1.0
  H  H20  1  0.47492000  0.96434000  0.30836000  1.0
  H  H21  1  0.52509000  0.03566000  0.69165000  1.0
  H  H22  1  0.51537000  0.61331000  0.24559000  1.0
  H  H23  1  0.48464000  0.38668000  0.75443000  1.0
  H  H24  1  0.79785000  0.06429000  0.05934000  1.0
  H  H25  1  0.20213000  0.93571000  0.94067000  1.0
  H  H26  1  0.49421000  0.27176000  0.14898000  1.0
  H  H27  1  0.50577000  0.72823000  0.85102000  1.0
  H  H28  1  0.36652000  0.05275000  0.19779000  1.0
  H  H29  1  0.63347000  0.94723000  0.80221000  1.0
  H  H30  1  0.51735000  0.63078000  0.42760000  1.0
  H  H31  1  0.48267000  0.36923000  0.57241000  1.0
  H  H32  1  0.38022000  0.68216000  0.61276000  1.0
  H  H33  1  0.61979000  0.31785000  0.38725000  1.0
  H  H34  1  0.31329000  0.91090000  0.41185000  1.0
  H  H35  1  0.68670000  0.08910000  0.58815000  1.0
  C  C36  1  0.88112000  0.42503000  0.27606000  1.0
  C  C37  1  0.11887000  0.57497000  0.72395000  1.0
  C  C38  1  0.95863000  0.47007000  0.38921000  1.0
  C  C39  1  0.04137000  0.52993000  0.61078000  1.0
  C  C40  1  0.97132000  0.58514000  0.44201000  1.0
  C  C41  1  0.02868000  0.41486000  0.55798000  1.0
  C  C42  1  0.01109000  0.61169000  0.55317000  1.0
  C  C43  1  0.98891000  0.38831000  0.44682000  1.0
  C  C44  1  0.95594000  0.67873000  0.38394000  1.0
  C  C45  1  0.04406000  0.32127000  0.61605000  1.0
  C  C46  1  0.01127000  0.68278000  0.28335000  1.0
  C  C47  1  0.98874000  0.31723000  0.71664000  1.0
  C  C48  1  0.00860000  0.77473000  0.23032000  1.0
  C  C49  1  0.99140000  0.22528000  0.76968000  1.0
  C  C50  1  0.95259000  0.86629000  0.27866000  1.0
  C  C51  1  0.04742000  0.13371000  0.72133000  1.0
  C  C52  1  0.89414000  0.86304000  0.37768000  1.0
  C  C53  1  0.10586000  0.13696000  0.62231000  1.0
  C  C54  1  0.89538000  0.76990000  0.42955000  1.0
  C  C55  1  0.10463000  0.23010000  0.57045000  1.0
  C  C56  1  0.06120000  0.77439000  0.12018000  1.0
  C  C57  1  0.93880000  0.22562000  0.87981000  1.0
  C  C58  1  0.82491000  0.95591000  0.42903000  1.0
  C  C59  1  0.17512000  0.04411000  0.57097000  1.0
  C  C60  1  0.75774000  0.53056000  0.94614000  1.0
  C  C61  1  0.24225000  0.46943000  0.05387000  1.0
  C  C62  1  0.71316000  0.63129000  0.96942000  1.0
  C  C63  1  0.28683000  0.36871000  0.03059000  1.0
  C  C64  1  0.67882000  0.53755000  0.10492000  1.0
  C  C65  1  0.32118000  0.46245000  0.89509000  1.0
  C  C66  1  0.60678000  0.72216000  0.13213000  1.0
  C  C67  1  0.39322000  0.27785000  0.86788000  1.0
  C  C68  1  0.62682000  0.83010000  0.10142000  1.0
  C  C69  1  0.37317000  0.16990000  0.89858000  1.0
  C  C70  1  0.56867000  0.91310000  0.16285000  1.0
  C  C71  1  0.43133000  0.08689000  0.83715000  1.0
  C  C72  1  0.50306000  0.89342000  0.25649000  1.0
  C  C73  1  0.49695000  0.10658000  0.74352000  1.0
  C  C74  1  0.48750000  0.78608000  0.28731000  1.0
  C  C75  1  0.51250000  0.21392000  0.71271000  1.0
  C  C76  1  0.53422000  0.69835000  0.22348000  1.0
  C  C77  1  0.46580000  0.30165000  0.77653000  1.0
  C  C78  1  0.69761000  0.09036000  0.08991000  1.0
  C  C79  1  0.30238000  0.90963000  0.91009000  1.0
  C  C80  1  0.53531000  0.19443000  0.13616000  1.0
  C  C81  1  0.46468000  0.80556000  0.86384000  1.0
  C  C82  1  0.47437000  0.08880000  0.16399000  1.0
  C  C83  1  0.52562000  0.91118000  0.83601000  1.0
  C  C84  1  0.45313000  0.69426000  0.45094000  1.0
  C  C85  1  0.54689000  0.30574000  0.54908000  1.0
  C  C86  1  0.38864000  0.72303000  0.54307000  1.0
  C  C87  1  0.61137000  0.27697000  0.45694000  1.0
  C  C88  1  0.35166000  0.84231000  0.44092000  1.0
  C  C89  1  0.64834000  0.15769000  0.55908000  1.0
  N  N90  1  0.73582000  0.47310000  0.03166000  1.0
  N  N91  1  0.26418000  0.52690000  0.96834000  1.0
  N  N92  1  0.66211000  0.63479000  0.07074000  1.0
  N  N93  1  0.33790000  0.36521000  0.92927000  1.0
  N  N94  1  0.57903000  0.02337000  0.13514000  1.0
  N  N95  1  0.42098000  0.97662000  0.86486000  1.0
  N  N96  1  0.67299000  0.19408000  0.08964000  1.0
  N  N97  1  0.32701000  0.80591000  0.91035000  1.0
  N  N98  1  0.42915000  0.77112000  0.38579000  1.0
  N  N99  1  0.57086000  0.22888000  0.61423000  1.0
  N  N100  1  0.32576000  0.81566000  0.53548000  1.0
  N  N101  1  0.67424000  0.18434000  0.46452000  1.0
  O  O102  1  0.73465000  0.41363000  0.26207000  1.0
  O  O103  1  0.26534000  0.58635000  0.73793000  1.0
  O  O104  1  0.96499000  0.39780000  0.20139000  1.0
  O  O105  1  0.03498000  0.60220000  0.79860000  1.0
  O  O106  1  0.09460000  0.67905000  0.07867000  1.0
  O  O107  1  0.90538000  0.32095000  0.92132000  1.0
  O  O108  1  0.06664000  0.85940000  0.07542000  1.0
  O  O109  1  0.93334000  0.14059000  0.92457000  1.0
  O  O110  1  0.83570000  0.04339000  0.37586000  1.0
  O  O111  1  0.16431000  0.95662000  0.62413000  1.0
  O  O112  1  0.76208000  0.94917000  0.51243000  1.0
  O  O113  1  0.23793000  0.05084000  0.48757000  1.0
