# generated using pymatgen
data_KTeH24C17SeN5O6
_symmetry_space_group_name_H-M   'P 1'
_cell_length_a   7.84329000
_cell_length_b   10.62660000
_cell_length_c   15.47170000
_cell_angle_alpha   104.73000000
_cell_angle_beta   90.01910000
_cell_angle_gamma   99.86990000
_symmetry_Int_Tables_number   1
_chemical_formula_structural   KTeH24C17SeN5O6
_chemical_formula_sum   'K2 Te2 H48 C34 Se2 N10 O12'
_cell_volume   1227.38273492
_cell_formula_units_Z   2
loop_
 _symmetry_equiv_pos_site_id
 _symmetry_equiv_pos_as_xyz
  1  'x, y, z'
loop_
 _atom_site_type_symbol
 _atom_site_label
 _atom_site_symmetry_multiplicity
 _atom_site_fract_x
 _atom_site_fract_y
 _atom_site_fract_z
 _atom_site_occupancy
  K  K0  1  0.96797000  0.30565000  0.68015000  1.0
  K  K1  1  0.03203000  0.69434000  0.31985000  1.0
  Te  Te2  1  0.87142000  0.91765000  0.88256000  1.0
  Te  Te3  1  0.12856000  0.08234000  0.11745000  1.0
  H  H4  1  0.89386000  0.23435000  0.37168000  1.0
  H  H5  1  0.10615000  0.76565000  0.62832000  1.0
  H  H6  1  0.99622000  0.38810000  0.44404000  1.0
  H  H7  1  0.00378000  0.61190000  0.55596000  1.0
  H  H8  1  0.66861000  0.35325000  0.43359000  1.0
  H  H9  1  0.33140000  0.64675000  0.56641000  1.0
  H  H10  1  0.66135000  0.21838000  0.48374000  1.0
  H  H11  1  0.33866000  0.78162000  0.51626000  1.0
  H  H12  1  0.51853000  0.33457000  0.60408000  1.0
  H  H13  1  0.48147000  0.66543000  0.39592000  1.0
  H  H14  1  0.53903000  0.48202000  0.56644000  1.0
  H  H15  1  0.46097000  0.51798000  0.43355000  1.0
  H  H16  1  0.73362000  0.60295000  0.70376000  1.0
  H  H17  1  0.26638000  0.39705000  0.29624000  1.0
  H  H18  1  0.51507000  0.54015000  0.72478000  1.0
  H  H19  1  0.48492000  0.45985000  0.27522000  1.0
  H  H20  1  0.57475000  0.51204000  0.86882000  1.0
  H  H21  1  0.42525000  0.48796000  0.13118000  1.0
  H  H22  1  0.79032000  0.59446000  0.86265000  1.0
  H  H23  1  0.20968000  0.40554000  0.13735000  1.0
  H  H24  1  0.75658000  0.44487000  0.96860000  1.0
  H  H25  1  0.24342000  0.55513000  0.03140000  1.0
  H  H26  1  0.69242000  0.30665000  0.87461000  1.0
  H  H27  1  0.30758000  0.69335000  0.12539000  1.0
  H  H28  1  0.92384000  0.21935000  0.90642000  1.0
  H  H29  1  0.07616000  0.78065000  0.09358000  1.0
  H  H30  1  0.02479000  0.35777000  0.99354000  1.0
  H  H31  1  0.97521000  0.64223000  0.00645000  1.0
  H  H32  1  0.27619000  0.38635000  0.88971000  1.0
  H  H33  1  0.72381000  0.61364000  0.11029000  1.0
  H  H34  1  0.24855000  0.23959000  0.92838000  1.0
  H  H35  1  0.75145000  0.76041000  0.07162000  1.0
  H  H36  1  0.37143000  0.11270000  0.79700000  1.0
  H  H37  1  0.62857000  0.88729000  0.20300000  1.0
  H  H38  1  0.42222000  0.26321000  0.76267000  1.0
  H  H39  1  0.57778000  0.73679000  0.23733000  1.0
  H  H40  1  0.40091000  0.05639000  0.63810000  1.0
  H  H41  1  0.59910000  0.94361000  0.36190000  1.0
  H  H42  1  0.17527000  0.01443000  0.65744000  1.0
  H  H43  1  0.82473000  0.98557000  0.34255000  1.0
  H  H44  1  0.14750000  0.02430000  0.50236000  1.0
  H  H45  1  0.85251000  0.97570000  0.49764000  1.0
  H  H46  1  0.36264000  0.10497000  0.49293000  1.0
  H  H47  1  0.63737000  0.89504000  0.50707000  1.0
  H  H48  1  0.24915000  0.31007000  0.48512000  1.0
  H  H49  1  0.75086000  0.68993000  0.51488000  1.0
  H  H50  1  0.16954000  0.16863000  0.39551000  1.0
  H  H51  1  0.83047000  0.83138000  0.60449000  1.0
  C  C52  1  0.17852000  0.82290000  0.90382000  1.0
  C  C53  1  0.82149000  0.17711000  0.09618000  1.0
  C  C54  1  0.66095000  0.99916000  0.71394000  1.0
  C  C55  1  0.33905000  0.00082000  0.28607000  1.0
  C  C56  1  0.91278000  0.29237000  0.44224000  1.0
  C  C57  1  0.08722000  0.70763000  0.55776000  1.0
  C  C58  1  0.10200000  0.74912000  0.81538000  1.0
  C  C59  1  0.89799000  0.25089000  0.18462000  1.0
  C  C60  1  0.73943000  0.31360000  0.47943000  1.0
  C  C61  1  0.26057000  0.68640000  0.52056000  1.0
  C  C62  1  0.33291000  0.79508000  0.93897000  1.0
  C  C63  1  0.66710000  0.20494000  0.06104000  1.0
  C  C64  1  0.60525000  0.42857000  0.60518000  1.0
  C  C65  1  0.39475000  0.57143000  0.39482000  1.0
  C  C66  1  0.17242000  0.64222000  0.76040000  1.0
  C  C67  1  0.82757000  0.35780000  0.23960000  1.0
  C  C68  1  0.63854000  0.51209000  0.69999000  1.0
  C  C69  1  0.36146000  0.48791000  0.30001000  1.0
  C  C70  1  0.70548000  0.49639000  0.84674000  1.0
  C  C71  1  0.29452000  0.50361000  0.15326000  1.0
  C  C72  1  0.77044000  0.40714000  0.89595000  1.0
  C  C73  1  0.22956000  0.59286000  0.10405000  1.0
  C  C74  1  0.01402000  0.31501000  0.92027000  1.0
  C  C75  1  0.98598000  0.68499000  0.07973000  1.0
  C  C76  1  0.18881000  0.29118000  0.88588000  1.0
  C  C77  1  0.81119000  0.70882000  0.11412000  1.0
  C  C78  1  0.32179000  0.17509000  0.75904000  1.0
  C  C79  1  0.67821000  0.82490000  0.24096000  1.0
  C  C80  1  0.28479000  0.09725000  0.66281000  1.0
  C  C81  1  0.71522000  0.90274000  0.33719000  1.0
  C  C82  1  0.23344000  0.12166000  0.51686000  1.0
  C  C83  1  0.76657000  0.87834000  0.48314000  1.0
  C  C84  1  0.16644000  0.21093000  0.46826000  1.0
  C  C85  1  0.83356000  0.78907000  0.53174000  1.0
  Se  Se86  1  0.55554000  0.85820000  0.75093000  1.0
  Se  Se87  1  0.44445000  0.14179000  0.24907000  1.0
  N  N88  1  0.95746000  0.77577000  0.78755000  1.0
  N  N89  1  0.04252000  0.22423000  0.21246000  1.0
  N  N90  1  0.73050000  0.08982000  0.68858000  1.0
  N  N91  1  0.26950000  0.91015000  0.31142000  1.0
  N  N92  1  0.09645000  0.91244000  0.95132000  1.0
  N  N93  1  0.90354000  0.08757000  0.04869000  1.0
  N  N94  1  0.45673000  0.76969000  0.96790000  1.0
  N  N95  1  0.54326000  0.23033000  0.03211000  1.0
  N  N96  1  0.22227000  0.55103000  0.71524000  1.0
  N  N97  1  0.77771000  0.44898000  0.28476000  1.0
  O  O98  1  0.76582000  0.40373000  0.56640000  1.0
  O  O99  1  0.23418000  0.59627000  0.43360000  1.0
  O  O100  1  0.70021000  0.43511000  0.75329000  1.0
  O  O101  1  0.29979000  0.56488000  0.24671000  1.0
  O  O102  1  0.94832000  0.40202000  0.87712000  1.0
  O  O103  1  0.05168000  0.59798000  0.12288000  1.0
  O  O104  1  0.16483000  0.21311000  0.79557000  1.0
  O  O105  1  0.83517000  0.78688000  0.20443000  1.0
  O  O106  1  0.24452000  0.18323000  0.61092000  1.0
  O  O107  1  0.75549000  0.81677000  0.38908000  1.0
  O  O108  1  0.99308000  0.22234000  0.49372000  1.0
  O  O109  1  0.00693000  0.77766000  0.50629000  1.0
