# generated using pymatgen
data_H14RhC17NO4
_symmetry_space_group_name_H-M   'P 1'
_cell_length_a   10.20510000
_cell_length_b   10.44010000
_cell_length_c   15.70410000
_cell_angle_alpha   79.46170000
_cell_angle_beta   81.01770000
_cell_angle_gamma   87.20870000
_symmetry_Int_Tables_number   1
_chemical_formula_structural   H14RhC17NO4
_chemical_formula_sum   'H56 Rh4 C68 N4 O16'
_cell_volume   1624.40715420
_cell_formula_units_Z   4
loop_
 _symmetry_equiv_pos_site_id
 _symmetry_equiv_pos_as_xyz
  1  'x, y, z'
loop_
 _atom_site_type_symbol
 _atom_site_label
 _atom_site_symmetry_multiplicity
 _atom_site_fract_x
 _atom_site_fract_y
 _atom_site_fract_z
 _atom_site_occupancy
  H  H0  1  0.37951000  0.95202000  0.47218000  1.0
  H  H1  1  0.62049000  0.04797000  0.52782000  1.0
  H  H2  1  0.27829000  0.14750000  0.53322000  1.0
  H  H3  1  0.72171000  0.85249000  0.46678000  1.0
  H  H4  1  0.19665000  0.12585000  0.69146000  1.0
  H  H5  1  0.80336000  0.87415000  0.30854000  1.0
  H  H6  1  0.22651000  0.91737000  0.79248000  1.0
  H  H7  1  0.77349000  0.08264000  0.20751000  1.0
  H  H8  1  0.32930000  0.72455000  0.73186000  1.0
  H  H9  1  0.67070000  0.27545000  0.26814000  1.0
  H  H10  1  0.23456000  0.51630000  0.27935000  1.0
  H  H11  1  0.76543000  0.48370000  0.72066000  1.0
  H  H12  1  0.04335000  0.44930000  0.21663000  1.0
  H  H13  1  0.95664000  0.55069000  0.78338000  1.0
  H  H14  1  0.86160000  0.32201000  0.31512000  1.0
  H  H15  1  0.13839000  0.67798000  0.68489000  1.0
  H  H16  1  0.86860000  0.26288000  0.47474000  1.0
  H  H17  1  0.13139000  0.73712000  0.52528000  1.0
  H  H18  1  0.06124000  0.32910000  0.53655000  1.0
  H  H19  1  0.93875000  0.67091000  0.46346000  1.0
  H  H20  1  0.03206000  0.97353000  0.30550000  1.0
  H  H21  1  0.96795000  0.02647000  0.69449000  1.0
  H  H22  1  0.13553000  0.03228000  0.42670000  1.0
  H  H23  1  0.86448000  0.96772000  0.57329000  1.0
  H  H24  1  0.33787000  0.16801000  0.39164000  1.0
  H  H25  1  0.66213000  0.83199000  0.60836000  1.0
  H  H26  1  0.43574000  0.24448000  0.23762000  1.0
  H  H27  1  0.56425000  0.75553000  0.76238000  1.0
  H  H28  1  0.33164000  0.18574000  0.11629000  1.0
  H  H29  1  0.66836000  0.81428000  0.88371000  1.0
  H  H30  1  0.06490000  0.53750000  0.05247000  1.0
  H  H31  1  0.93511000  0.46251000  0.94752000  1.0
  H  H32  1  0.18774000  0.33165000  0.02615000  1.0
  H  H33  1  0.81226000  0.66837000  0.97384000  1.0
  H  H34  1  0.41027000  0.34325000  0.93488000  1.0
  H  H35  1  0.58973000  0.65676000  0.06511000  1.0
  H  H36  1  0.50875000  0.55807000  0.86752000  1.0
  H  H37  1  0.49126000  0.44194000  0.13248000  1.0
  H  H38  1  0.38283000  0.76315000  0.89156000  1.0
  H  H39  1  0.61717000  0.23686000  0.10843000  1.0
  H  H40  1  0.20395000  0.43048000  0.68143000  1.0
  H  H41  1  0.79605000  0.56951000  0.31857000  1.0
  H  H42  1  0.06969000  0.30284000  0.81599000  1.0
  H  H43  1  0.93031000  0.69715000  0.18402000  1.0
  H  H44  1  0.36480000  0.03839000  0.95621000  1.0
  H  H45  1  0.63521000  0.96160000  0.04380000  1.0
  H  H46  1  0.52202000  0.10559000  0.90545000  1.0
  H  H47  1  0.47799000  0.89440000  0.09455000  1.0
  H  H48  1  0.45880000  0.97748000  0.86608000  1.0
  H  H49  1  0.54120000  0.02251000  0.13392000  1.0
  H  H50  1  0.61472000  0.23911000  0.66124000  1.0
  H  H51  1  0.38527000  0.76089000  0.33876000  1.0
  H  H52  1  0.59081000  0.08631000  0.73381000  1.0
  H  H53  1  0.40919000  0.91368000  0.26618000  1.0
  H  H54  1  0.64028000  0.22261000  0.77214000  1.0
  H  H55  1  0.35973000  0.77739000  0.22785000  1.0
  Rh  Rh56  1  0.46184000  0.43392000  0.57075000  1.0
  Rh  Rh57  1  0.53816000  0.56607000  0.42924000  1.0
  Rh  Rh58  1  0.08434000  0.06390000  0.94893000  1.0
  Rh  Rh59  1  0.91566000  0.93611000  0.05107000  1.0
  C  C60  1  0.40942000  0.70946000  0.56211000  1.0
  C  C61  1  0.59058000  0.29053000  0.43789000  1.0
  C  C62  1  0.35822000  0.82705000  0.59831000  1.0
  C  C63  1  0.64178000  0.17295000  0.40169000  1.0
  C  C64  1  0.34536000  0.94622000  0.54198000  1.0
  C  C65  1  0.65463000  0.05377000  0.45801000  1.0
  C  C66  1  0.28835000  0.05383000  0.57587000  1.0
  C  C67  1  0.71165000  0.94617000  0.42413000  1.0
  C  C68  1  0.24427000  0.04253000  0.66561000  1.0
  C  C69  1  0.75573000  0.95747000  0.33438000  1.0
  C  C70  1  0.26025000  0.92508000  0.72244000  1.0
  C  C71  1  0.73975000  0.07492000  0.27755000  1.0
  C  C72  1  0.31745000  0.81755000  0.68884000  1.0
  C  C73  1  0.68255000  0.18244000  0.31116000  1.0
  C  C74  1  0.27685000  0.46029000  0.44629000  1.0
  C  C75  1  0.72315000  0.53971000  0.55372000  1.0
  C  C76  1  0.15870000  0.42633000  0.41132000  1.0
  C  C77  1  0.84129000  0.57367000  0.58869000  1.0
  C  C78  1  0.15330000  0.46155000  0.32130000  1.0
  C  C79  1  0.84670000  0.53844000  0.67871000  1.0
  C  C80  1  0.04668000  0.42381000  0.28681000  1.0
  C  C81  1  0.95331000  0.57619000  0.71320000  1.0
  C  C82  1  0.94478000  0.35197000  0.34200000  1.0
  C  C83  1  0.05521000  0.64802000  0.65801000  1.0
  C  C84  1  0.94890000  0.31829000  0.43191000  1.0
  C  C85  1  0.05109000  0.68172000  0.56811000  1.0
  C  C86  1  0.05587000  0.35483000  0.46671000  1.0
  C  C87  1  0.94412000  0.64518000  0.53330000  1.0
  C  C88  1  0.11462000  0.04212000  0.13103000  1.0
  C  C89  1  0.88538000  0.95788000  0.86897000  1.0
  C  C90  1  0.17643000  0.07504000  0.20375000  1.0
  C  C91  1  0.82357000  0.92496000  0.79625000  1.0
  C  C92  1  0.12105000  0.03185000  0.29126000  1.0
  C  C93  1  0.87895000  0.96815000  0.70874000  1.0
  C  C94  1  0.17894000  0.06532000  0.35869000  1.0
  C  C95  1  0.82106000  0.93468000  0.64131000  1.0
  C  C96  1  0.29216000  0.14157000  0.33922000  1.0
  C  C97  1  0.70784000  0.85844000  0.66078000  1.0
  C  C98  1  0.34752000  0.18495000  0.25213000  1.0
  C  C99  1  0.65248000  0.81505000  0.74787000  1.0
  C  C100  1  0.28999000  0.15215000  0.18450000  1.0
  C  C101  1  0.71001000  0.84786000  0.81550000  1.0
  C  C102  1  0.14022000  0.78421000  0.98608000  1.0
  C  C103  1  0.85978000  0.21579000  0.01391000  1.0
  C  C104  1  0.21673000  0.66228000  0.97373000  1.0
  C  C105  1  0.78327000  0.33772000  0.02626000  1.0
  C  C106  1  0.16242000  0.54064000  0.01247000  1.0
  C  C107  1  0.83758000  0.45936000  0.98753000  1.0
  C  C108  1  0.23136000  0.42612000  0.99797000  1.0
  C  C109  1  0.76864000  0.57389000  0.00202000  1.0
  C  C110  1  0.35591000  0.43276000  0.94578000  1.0
  C  C111  1  0.64409000  0.56725000  0.05421000  1.0
  C  C112  1  0.41119000  0.55356000  0.90771000  1.0
  C  C113  1  0.58882000  0.44645000  0.09228000  1.0
  C  C114  1  0.34177000  0.66812000  0.92127000  1.0
  C  C115  1  0.65823000  0.33188000  0.07873000  1.0
  C  C116  1  0.24865000  0.35246000  0.72433000  1.0
  C  C117  1  0.75135000  0.64753000  0.27568000  1.0
  C  C118  1  0.17532000  0.28336000  0.79836000  1.0
  C  C119  1  0.82469000  0.71663000  0.20165000  1.0
  C  C120  1  0.36217000  0.16304000  0.83189000  1.0
  C  C121  1  0.63783000  0.83695000  0.16811000  1.0
  C  C122  1  0.43573000  0.22867000  0.75343000  1.0
  C  C123  1  0.56427000  0.77132000  0.24657000  1.0
  C  C124  1  0.42984000  0.06580000  0.89389000  1.0
  C  C125  1  0.57017000  0.93418000  0.10612000  1.0
  C  C126  1  0.57811000  0.19244000  0.72823000  1.0
  C  C127  1  0.42190000  0.80756000  0.27177000  1.0
  N  N128  1  0.37764000  0.32268000  0.69987000  1.0
  N  N129  1  0.62236000  0.67731000  0.30014000  1.0
  N  N130  1  0.23073000  0.18652000  0.85153000  1.0
  N  N131  1  0.76927000  0.81347000  0.14848000  1.0
  O  O132  1  0.46337000  0.72555000  0.48160000  1.0
  O  O133  1  0.53663000  0.27445000  0.51840000  1.0
  O  O134  1  0.39332000  0.59976000  0.61461000  1.0
  O  O135  1  0.60667000  0.40024000  0.38539000  1.0
  O  O136  1  0.36102000  0.53476000  0.39304000  1.0
  O  O137  1  0.63898000  0.46524000  0.60697000  1.0
  O  O138  1  0.28799000  0.41049000  0.52592000  1.0
  O  O139  1  0.71201000  0.58951000  0.47408000  1.0
  O  O140  1  0.01250000  0.96979000  0.15024000  1.0
  O  O141  1  0.98751000  0.03021000  0.84976000  1.0
  O  O142  1  0.16891000  0.09100000  0.05300000  1.0
  O  O143  1  0.83109000  0.90901000  0.94700000  1.0
  O  O144  1  0.03019000  0.77294000  0.03877000  1.0
  O  O145  1  0.96981000  0.22707000  0.96123000  1.0
  O  O146  1  0.18876000  0.89179000  0.94229000  1.0
  O  O147  1  0.81125000  0.10821000  0.05771000  1.0
