# generated using pymatgen
data_Hg2H18C23S3N9O2
_symmetry_space_group_name_H-M   'P 1'
_cell_length_a   9.03013000
_cell_length_b   11.93710000
_cell_length_c   14.48330000
_cell_angle_alpha   85.57250000
_cell_angle_beta   74.73790000
_cell_angle_gamma   87.54500000
_symmetry_Int_Tables_number   1
_chemical_formula_structural   Hg2H18C23S3N9O2
_chemical_formula_sum   'Hg4 H36 C46 S6 N18 O4'
_cell_volume   1501.23949695
_cell_formula_units_Z   2
loop_
 _symmetry_equiv_pos_site_id
 _symmetry_equiv_pos_as_xyz
  1  'x, y, z'
loop_
 _atom_site_type_symbol
 _atom_site_label
 _atom_site_symmetry_multiplicity
 _atom_site_fract_x
 _atom_site_fract_y
 _atom_site_fract_z
 _atom_site_occupancy
  Hg  Hg0  1  0.65187000  0.47910000  0.85670000  1.0
  Hg  Hg1  1  0.34813000  0.52091000  0.14330000  1.0
  Hg  Hg2  1  0.88128000  0.14526000  0.96019000  1.0
  Hg  Hg3  1  0.11871000  0.85475000  0.03981000  1.0
  H  H4  1  0.98597000  0.59361000  0.82694000  1.0
  H  H5  1  0.01403000  0.40639000  0.17306000  1.0
  H  H6  1  0.22286000  0.64303000  0.69604000  1.0
  H  H7  1  0.77714000  0.35697000  0.30396000  1.0
  H  H8  1  0.09016000  0.40192000  0.52678000  1.0
  H  H9  1  0.90984000  0.59808000  0.47323000  1.0
  H  H10  1  0.85623000  0.36514000  0.66250000  1.0
  H  H11  1  0.14378000  0.63486000  0.33749000  1.0
  H  H12  1  0.31814000  0.50713000  0.45442000  1.0
  H  H13  1  0.68186000  0.49287000  0.54558000  1.0
  H  H14  1  0.58561000  0.78040000  0.48922000  1.0
  H  H15  1  0.41439000  0.21960000  0.51078000  1.0
  H  H16  1  0.03231000  0.91715000  0.25010000  1.0
  H  H17  1  0.96768000  0.08285000  0.74990000  1.0
  H  H18  1  0.82538000  0.87792000  0.40219000  1.0
  H  H19  1  0.17462000  0.12208000  0.59781000  1.0
  H  H20  1  0.63762000  0.64377000  0.25220000  1.0
  H  H21  1  0.36238000  0.35623000  0.74780000  1.0
  H  H22  1  0.85222000  0.69222000  0.10587000  1.0
  H  H23  1  0.14778000  0.30778000  0.89413000  1.0
  H  H24  1  0.88236000  0.20172000  0.16224000  1.0
  H  H25  1  0.11764000  0.79828000  0.83776000  1.0
  H  H26  1  0.74066000  0.14638000  0.33414000  1.0
  H  H27  1  0.25935000  0.85362000  0.66586000  1.0
  H  H28  1  0.40673000  0.99070000  0.22138000  1.0
  H  H29  1  0.59327000  0.00930000  0.77862000  1.0
  H  H30  1  0.56256000  0.04851000  0.05737000  1.0
  H  H31  1  0.43744000  0.95149000  0.94263000  1.0
  H  H32  1  0.37365000  0.97579000  0.39630000  1.0
  H  H33  1  0.62635000  0.02421000  0.60370000  1.0
  H  H34  1  0.15449000  0.25871000  0.08754000  1.0
  H  H35  1  0.84551000  0.74130000  0.91246000  1.0
  H  H36  1  0.34764000  0.21286000  0.08294000  1.0
  H  H37  1  0.65236000  0.78714000  0.91706000  1.0
  H  H38  1  0.20448000  0.19491000  0.19199000  1.0
  H  H39  1  0.79552000  0.80509000  0.80801000  1.0
  C  C40  1  0.65780000  0.22754000  0.78304000  1.0
  C  C41  1  0.34220000  0.77246000  0.21696000  1.0
  C  C42  1  0.83553000  0.42513000  0.01943000  1.0
  C  C43  1  0.16448000  0.57487000  0.98057000  1.0
  C  C44  1  0.65738000  0.66367000  0.67865000  1.0
  C  C45  1  0.34262000  0.33632000  0.32134000  1.0
  C  C46  1  0.01200000  0.55514000  0.75832000  1.0
  C  C47  1  0.98800000  0.44486000  0.24168000  1.0
  C  C48  1  0.14273000  0.58243000  0.68599000  1.0
  C  C49  1  0.85727000  0.41756000  0.31401000  1.0
  C  C50  1  0.17120000  0.52986000  0.59924000  1.0
  C  C51  1  0.82881000  0.47014000  0.40076000  1.0
  C  C52  1  0.06875000  0.44809000  0.59139000  1.0
  C  C53  1  0.93125000  0.55190000  0.40861000  1.0
  C  C54  1  0.93935000  0.42685000  0.66680000  1.0
  C  C55  1  0.06065000  0.57314000  0.33320000  1.0
  C  C56  1  0.30012000  0.55739000  0.51707000  1.0
  C  C57  1  0.69988000  0.44261000  0.48293000  1.0
  C  C58  1  0.59367000  0.73199000  0.42672000  1.0
  C  C59  1  0.40633000  0.26801000  0.57328000  1.0
  C  C60  1  0.94156000  0.85830000  0.25423000  1.0
  C  C61  1  0.05844000  0.14170000  0.74578000  1.0
  C  C62  1  0.82693000  0.83546000  0.33797000  1.0
  C  C63  1  0.17306000  0.16454000  0.66203000  1.0
  C  C64  1  0.71453000  0.75720000  0.33912000  1.0
  C  C65  1  0.28546000  0.24280000  0.66088000  1.0
  C  C66  1  0.72289000  0.70469000  0.25413000  1.0
  C  C67  1  0.27710000  0.29531000  0.74588000  1.0
  C  C68  1  0.84019000  0.73127000  0.17316000  1.0
  C  C69  1  0.15980000  0.26873000  0.82685000  1.0
  C  C70  1  0.77755000  0.15393000  0.18057000  1.0
  C  C71  1  0.22245000  0.84607000  0.81943000  1.0
  C  C72  1  0.69936000  0.12325000  0.27417000  1.0
  C  C73  1  0.30064000  0.87675000  0.72583000  1.0
  C  C74  1  0.56517000  0.06062000  0.29101000  1.0
  C  C75  1  0.43483000  0.93939000  0.70899000  1.0
  C  C76  1  0.51172000  0.03641000  0.21261000  1.0
  C  C77  1  0.48828000  0.96359000  0.78739000  1.0
  C  C78  1  0.59717000  0.06891000  0.12056000  1.0
  C  C79  1  0.40283000  0.93110000  0.87944000  1.0
  C  C80  1  0.48349000  0.01736000  0.38669000  1.0
  C  C81  1  0.51650000  0.98265000  0.61331000  1.0
  C  C82  1  0.19326000  0.07846000  0.08841000  1.0
  C  C83  1  0.80674000  0.92154000  0.91159000  1.0
  C  C84  1  0.22599000  0.19402000  0.11367000  1.0
  C  C85  1  0.77401000  0.80599000  0.88633000  1.0
  S  S86  1  0.59780000  0.26922000  0.89383000  1.0
  S  S87  1  0.40220000  0.73078000  0.10617000  1.0
  S  S88  1  0.71702000  0.53250000  0.01348000  1.0
  S  S89  1  0.28299000  0.46749000  0.98652000  1.0
  S  S90  1  0.51366000  0.62020000  0.77032000  1.0
  S  S91  1  0.48634000  0.37979000  0.22968000  1.0
  N  N92  1  0.70040000  0.19499000  0.70536000  1.0
  N  N93  1  0.29959000  0.80502000  0.29464000  1.0
  N  N94  1  0.92171000  0.34904000  0.02502000  1.0
  N  N95  1  0.07831000  0.65095000  0.97498000  1.0
  N  N96  1  0.75649000  0.69614000  0.61233000  1.0
  N  N97  1  0.24351000  0.30387000  0.38767000  1.0
  N  N98  1  0.91043000  0.48027000  0.74845000  1.0
  N  N99  1  0.08957000  0.51973000  0.25155000  1.0
  N  N100  1  0.38897000  0.64013000  0.51615000  1.0
  N  N101  1  0.61103000  0.35987000  0.48385000  1.0
  N  N102  1  0.49918000  0.65262000  0.42926000  1.0
  N  N103  1  0.50082000  0.34738000  0.57074000  1.0
  N  N104  1  0.94733000  0.80686000  0.17362000  1.0
  N  N105  1  0.05267000  0.19314000  0.82638000  1.0
  N  N106  1  0.72816000  0.12497000  0.10561000  1.0
  N  N107  1  0.27184000  0.87504000  0.89439000  1.0
  N  N108  1  0.54507000  0.02379000  0.45734000  1.0
  N  N109  1  0.45493000  0.97621000  0.54266000  1.0
  O  O110  1  0.28002000  0.99599000  0.10259000  1.0
  O  O111  1  0.71999000  0.00401000  0.89741000  1.0
  O  O112  1  0.07733000  0.06665000  0.05511000  1.0
  O  O113  1  0.92267000  0.93335000  0.94490000  1.0
