# generated using pymatgen
data_ZnH8C9NO7
_symmetry_space_group_name_H-M   'P 1'
_cell_length_a   5.18757000
_cell_length_b   8.79916000
_cell_length_c   12.06950000
_cell_angle_alpha   104.06700000
_cell_angle_beta   95.96210000
_cell_angle_gamma   107.08000000
_symmetry_Int_Tables_number   1
_chemical_formula_structural   ZnH8C9NO7
_chemical_formula_sum   'Zn2 H16 C18 N2 O14'
_cell_volume   501.62875194
_cell_formula_units_Z   2
loop_
 _symmetry_equiv_pos_site_id
 _symmetry_equiv_pos_as_xyz
  1  'x, y, z'
loop_
 _atom_site_type_symbol
 _atom_site_label
 _atom_site_symmetry_multiplicity
 _atom_site_fract_x
 _atom_site_fract_y
 _atom_site_fract_z
 _atom_site_occupancy
  Zn  Zn0  1  0.05227000  0.82512000  0.99798000  1.0
  Zn  Zn1  1  0.94772000  0.17488000  0.00202000  1.0
  H  H2  1  0.77364000  0.88394000  0.43928000  1.0
  H  H3  1  0.22636000  0.11607000  0.56072000  1.0
  H  H4  1  0.33809000  0.86274000  0.19326000  1.0
  H  H5  1  0.66189000  0.13726000  0.80674000  1.0
  H  H6  1  0.19599000  0.66081000  0.13850000  1.0
  H  H7  1  0.80400000  0.33919000  0.86150000  1.0
  H  H8  1  0.57905000  0.72256000  0.07199000  1.0
  H  H9  1  0.42094000  0.27744000  0.92801000  1.0
  H  H10  1  0.75979000  0.59839000  0.06781000  1.0
  H  H11  1  0.24021000  0.40161000  0.93218000  1.0
  H  H12  1  0.81923000  0.68048000  0.28174000  1.0
  H  H13  1  0.18079000  0.31952000  0.71827000  1.0
  H  H14  1  0.03819000  0.27096000  0.36759000  1.0
  H  H15  1  0.96182000  0.72905000  0.63241000  1.0
  H  H16  1  0.14618000  0.57247000  0.46174000  1.0
  H  H17  1  0.85385000  0.42754000  0.53827000  1.0
  C  C18  1  0.48941000  0.64594000  0.37769000  1.0
  C  C19  1  0.51060000  0.35406000  0.62231000  1.0
  C  C20  1  0.64433000  0.59091000  0.29884000  1.0
  C  C21  1  0.35568000  0.40909000  0.70116000  1.0
  C  C22  1  0.58141000  0.42231000  0.24287000  1.0
  C  C23  1  0.41859000  0.57769000  0.75713000  1.0
  C  C24  1  0.36162000  0.30497000  0.26762000  1.0
  C  C25  1  0.63839000  0.69504000  0.73238000  1.0
  C  C26  1  0.20793000  0.36072000  0.34728000  1.0
  C  C27  1  0.79208000  0.63929000  0.65273000  1.0
  C  C28  1  0.26766000  0.52958000  0.40094000  1.0
  C  C29  1  0.73236000  0.47043000  0.59906000  1.0
  C  C30  1  0.75278000  0.37338000  0.15805000  1.0
  C  C31  1  0.24722000  0.62662000  0.84195000  1.0
  C  C32  1  0.28999000  0.12171000  0.21206000  1.0
  C  C33  1  0.70998000  0.87829000  0.78793000  1.0
  C  C34  1  0.41533000  0.90726000  0.47590000  1.0
  C  C35  1  0.58464000  0.09274000  0.52410000  1.0
  N  N36  1  0.57083000  0.81718000  0.43201000  1.0
  N  N37  1  0.42919000  0.18282000  0.56798000  1.0
  O  O38  1  0.31489000  0.76238000  0.12417000  1.0
  O  O39  1  0.68510000  0.23762000  0.87583000  1.0
  O  O40  1  0.73081000  0.21952000  0.12420000  1.0
  O  O41  1  0.26919000  0.78047000  0.87580000  1.0
  O  O42  1  0.91100000  0.48254000  0.12116000  1.0
  O  O43  1  0.08900000  0.51746000  0.87884000  1.0
  O  O44  1  0.71309000  0.67966000  0.03083000  1.0
  O  O45  1  0.28691000  0.32033000  0.96917000  1.0
  O  O46  1  0.15393000  0.06132000  0.10533000  1.0
  O  O47  1  0.84607000  0.93869000  0.89467000  1.0
  O  O48  1  0.35454000  0.03564000  0.27163000  1.0
  O  O49  1  0.64540000  0.96435000  0.72837000  1.0
  O  O50  1  0.16647000  0.85420000  0.47772000  1.0
  O  O51  1  0.83356000  0.14581000  0.52228000  1.0
