# generated using pymatgen
data_MnH16C12(O2F)4
_symmetry_space_group_name_H-M   'P 1'
_cell_length_a   8.41094000
_cell_length_b   8.41096000
_cell_length_c   13.48180000
_cell_angle_alpha   93.23680000
_cell_angle_beta   93.23720000
_cell_angle_gamma   115.32500000
_symmetry_Int_Tables_number   1
_chemical_formula_structural   MnH16C12(O2F)4
_chemical_formula_sum   'Mn2 H32 C24 O16 F8'
_cell_volume   857.28074080
_cell_formula_units_Z   2
loop_
 _symmetry_equiv_pos_site_id
 _symmetry_equiv_pos_as_xyz
  1  'x, y, z'
loop_
 _atom_site_type_symbol
 _atom_site_label
 _atom_site_symmetry_multiplicity
 _atom_site_fract_x
 _atom_site_fract_y
 _atom_site_fract_z
 _atom_site_occupancy
  Mn  Mn0  1  0.02674000  0.97326000  0.25000000  1.0
  Mn  Mn1  1  0.97326000  0.02674000  0.75000000  1.0
  H  H2  1  0.15208000  0.20062000  0.40803000  1.0
  H  H3  1  0.79938000  0.84792000  0.09197000  1.0
  H  H4  1  0.84793000  0.79939000  0.59198000  1.0
  H  H5  1  0.20062000  0.15207000  0.90803000  1.0
  H  H6  1  0.22725000  0.97686000  0.09042000  1.0
  H  H7  1  0.02314000  0.77274000  0.40958000  1.0
  H  H8  1  0.77276000  0.02314000  0.90958000  1.0
  H  H9  1  0.97686000  0.22724000  0.59042000  1.0
  H  H10  1  0.39198000  0.31245000  0.25418000  1.0
  H  H11  1  0.68755000  0.60801000  0.24582000  1.0
  H  H12  1  0.60802000  0.68755000  0.74582000  1.0
  H  H13  1  0.31245000  0.39199000  0.75418000  1.0
  H  H14  1  0.46381000  0.40628000  0.38087000  1.0
  H  H15  1  0.59372000  0.53618000  0.11913000  1.0
  H  H16  1  0.53619000  0.59372000  0.61912000  1.0
  H  H17  1  0.40628000  0.46382000  0.88088000  1.0
  H  H18  1  0.28778000  0.43222000  0.31343000  1.0
  H  H19  1  0.56778000  0.71222000  0.18656000  1.0
  H  H20  1  0.71223000  0.56779000  0.68656000  1.0
  H  H21  1  0.43221000  0.28778000  0.81344000  1.0
  H  H22  1  0.41557000  0.99370000  0.28140000  1.0
  H  H23  1  0.00630000  0.58443000  0.21860000  1.0
  H  H24  1  0.58443000  0.00629000  0.71860000  1.0
  H  H25  1  0.99371000  0.41557000  0.78140000  1.0
  H  H26  1  0.51503000  0.08922000  0.17218000  1.0
  H  H27  1  0.91077000  0.48496000  0.32782000  1.0
  H  H28  1  0.48497000  0.91077000  0.82782000  1.0
  H  H29  1  0.08923000  0.51503000  0.67218000  1.0
  H  H30  1  0.41087000  0.85466000  0.17490000  1.0
  H  H31  1  0.14533000  0.58913000  0.32510000  1.0
  H  H32  1  0.58914000  0.14533000  0.82510000  1.0
  H  H33  1  0.85467000  0.41086000  0.67490000  1.0
  C  C34  1  0.83959000  0.07631000  0.41988000  1.0
  C  C35  1  0.92369000  0.16040000  0.08012000  1.0
  C  C36  1  0.16041000  0.92370000  0.58012000  1.0
  C  C37  1  0.07632000  0.83959000  0.91988000  1.0
  C  C38  1  0.66527000  0.03847000  0.46127000  1.0
  C  C39  1  0.96153000  0.33473000  0.03873000  1.0
  C  C40  1  0.33473000  0.96154000  0.53873000  1.0
  C  C41  1  0.03846000  0.66527000  0.96127000  1.0
  C  C42  1  0.54134000  0.86474000  0.46769000  1.0
  C  C43  1  0.13527000  0.45866000  0.03231000  1.0
  C  C44  1  0.45866000  0.13526000  0.53230000  1.0
  C  C45  1  0.86474000  0.54135000  0.96769000  1.0
  C  C46  1  0.38048000  0.82742000  0.50626000  1.0
  C  C47  1  0.17259000  0.61952000  0.99374000  1.0
  C  C48  1  0.61951000  0.17259000  0.49373000  1.0
  C  C49  1  0.82742000  0.38049000  0.00627000  1.0
  C  C50  1  0.34947000  0.34236000  0.32534000  1.0
  C  C51  1  0.65764000  0.65053000  0.17466000  1.0
  C  C52  1  0.65054000  0.65765000  0.67465000  1.0
  C  C53  1  0.34236000  0.34947000  0.82535000  1.0
  C  C54  1  0.40439000  0.97835000  0.19970000  1.0
  C  C55  1  0.02165000  0.59561000  0.30030000  1.0
  C  C56  1  0.59561000  0.02164000  0.80029000  1.0
  C  C57  1  0.97835000  0.40439000  0.69970000  1.0
  O  O58  1  0.98040000  0.18464000  0.47119000  1.0
  O  O59  1  0.81535000  0.01960000  0.02881000  1.0
  O  O60  1  0.01960000  0.81536000  0.52882000  1.0
  O  O61  1  0.18464000  0.98039000  0.97118000  1.0
  O  O62  1  0.82973000  0.99476000  0.33663000  1.0
  O  O63  1  0.00525000  0.17027000  0.16337000  1.0
  O  O64  1  0.17027000  0.00526000  0.66337000  1.0
  O  O65  1  0.99474000  0.82972000  0.83662000  1.0
  O  O66  1  0.22518000  0.17835000  0.35734000  1.0
  O  O67  1  0.82166000  0.77482000  0.14266000  1.0
  O  O68  1  0.77482000  0.82166000  0.64266000  1.0
  O  O69  1  0.17834000  0.22519000  0.85734000  1.0
  O  O70  1  0.23851000  0.97489000  0.16509000  1.0
  O  O71  1  0.02511000  0.76149000  0.33491000  1.0
  O  O72  1  0.76150000  0.02510000  0.83491000  1.0
  O  O73  1  0.97490000  0.23851000  0.66509000  1.0
  F  F74  1  0.57782000  0.72823000  0.43860000  1.0
  F  F75  1  0.27177000  0.42218000  0.06140000  1.0
  F  F76  1  0.42218000  0.27178000  0.56140000  1.0
  F  F77  1  0.72823000  0.57783000  0.93860000  1.0
  F  F78  1  0.26873000  0.65578000  0.51421000  1.0
  F  F79  1  0.34423000  0.73126000  0.98580000  1.0
  F  F80  1  0.73125000  0.34423000  0.48578000  1.0
  F  F81  1  0.65577000  0.26876000  0.01422000  1.0
