# generated using pymatgen
data_CdH26C14(NO2)4
_symmetry_space_group_name_H-M   'P 1'
_cell_length_a   7.90224000
_cell_length_b   9.21511000
_cell_length_c   9.21513000
_cell_angle_alpha   69.38940000
_cell_angle_beta   84.30650000
_cell_angle_gamma   84.30830000
_symmetry_Int_Tables_number   1
_chemical_formula_structural   CdH26C14(NO2)4
_chemical_formula_sum   'Cd1 H26 C14 N4 O8'
_cell_volume   623.50765497
_cell_formula_units_Z   1
loop_
 _symmetry_equiv_pos_site_id
 _symmetry_equiv_pos_as_xyz
  1  'x, y, z'
loop_
 _atom_site_type_symbol
 _atom_site_label
 _atom_site_symmetry_multiplicity
 _atom_site_fract_x
 _atom_site_fract_y
 _atom_site_fract_z
 _atom_site_occupancy
  Cd  Cd0  1  0.99999000  0.30409000  0.69591000  1.0
  H  H1  1  0.63679000  0.67283000  0.40977000  1.0
  H  H2  1  0.36321000  0.59023000  0.32716000  1.0
  H  H3  1  0.72211000  0.63661000  0.23995000  1.0
  H  H4  1  0.27789000  0.76005000  0.36339000  1.0
  H  H5  1  0.85895000  0.62659000  0.38642000  1.0
  H  H6  1  0.14106000  0.61357000  0.37341000  1.0
  H  H7  1  0.58323000  0.40177000  0.42090000  1.0
  H  H8  1  0.41678000  0.57910000  0.59821000  1.0
  H  H9  1  0.04912000  0.19574000  0.23126000  1.0
  H  H10  1  0.95088000  0.76873000  0.80427000  1.0
  H  H11  1  0.96441000  0.95528000  0.20308000  1.0
  H  H12  1  0.03558000  0.79692000  0.04472000  1.0
  H  H13  1  0.81279000  0.00377000  0.50529000  1.0
  H  H14  1  0.18722000  0.49472000  0.99623000  1.0
  H  H15  1  0.02858000  0.94935000  0.46293000  1.0
  H  H16  1  0.97142000  0.53706000  0.05066000  1.0
  H  H17  1  0.86704000  0.82074000  0.48308000  1.0
  H  H18  1  0.13297000  0.51692000  0.17927000  1.0
  H  H19  1  0.66072000  0.28604000  0.67851000  1.0
  H  H20  1  0.33925000  0.32149000  0.71396000  1.0
  H  H21  1  0.68218000  0.46984000  0.65606000  1.0
  H  H22  1  0.31781000  0.34394000  0.53016000  1.0
  H  H23  1  0.68064000  0.29487000  0.24575000  1.0
  H  H24  1  0.31936000  0.75425000  0.70513000  1.0
  H  H25  1  0.68352000  0.07460000  0.13353000  1.0
  H  H26  1  0.31648000  0.86648000  0.92539000  1.0
  C  C27  1  0.73269000  0.60115000  0.36564000  1.0
  C  C28  1  0.26731000  0.63436000  0.39884000  1.0
  C  C29  1  0.70821000  0.42789000  0.44604000  1.0
  C  C30  1  0.29178000  0.55395000  0.57211000  1.0
  C  C31  1  0.84911000  0.33550000  0.38032000  1.0
  C  C32  1  0.15091000  0.61969000  0.66451000  1.0
  C  C33  1  0.91977000  0.18819000  0.20284000  1.0
  C  C34  1  0.08023000  0.79716000  0.81181000  1.0
  C  C35  1  0.87457000  0.01574000  0.26694000  1.0
  C  C36  1  0.12542000  0.73306000  0.98426000  1.0
  C  C37  1  0.89646000  0.94296000  0.43961000  1.0
  C  C38  1  0.10354000  0.56039000  0.05704000  1.0
  C  C39  1  0.90988000  0.24615000  0.02603000  1.0
  C  C40  1  0.09013000  0.97397000  0.75385000  1.0
  N  N41  1  0.72283000  0.38261000  0.61429000  1.0
  N  N42  1  0.27715000  0.38571000  0.61738000  1.0
  N  N43  1  0.80376000  0.28042000  0.27423000  1.0
  N  N44  1  0.19624000  0.72577000  0.71958000  1.0
  O  O45  1  0.99782000  0.31966000  0.42158000  1.0
  O  O46  1  0.00218000  0.57841000  0.68036000  1.0
  O  O47  1  0.70247000  0.00263000  0.23961000  1.0
  O  O48  1  0.29752000  0.76040000  0.99737000  1.0
  O  O49  1  0.05289000  0.25240000  0.94733000  1.0
  O  O50  1  0.94711000  0.05267000  0.74759000  1.0
  O  O51  1  0.76352000  0.27222000  0.97365000  1.0
  O  O52  1  0.23648000  0.02635000  0.72778000  1.0
