# generated using pymatgen
data_Co3PH12C18N15O4
_symmetry_space_group_name_H-M   'P 1'
_cell_length_a   4.36247000
_cell_length_b   12.84270000
_cell_length_c   12.84350000
_cell_angle_alpha   118.72300000
_cell_angle_beta   96.52360000
_cell_angle_gamma   96.48080000
_symmetry_Int_Tables_number   1
_chemical_formula_structural   Co3PH12C18N15O4
_chemical_formula_sum   'Co3 P1 H12 C18 N15 O4'
_cell_volume   615.25188681
_cell_formula_units_Z   1
loop_
 _symmetry_equiv_pos_site_id
 _symmetry_equiv_pos_as_xyz
  1  'x, y, z'
loop_
 _atom_site_type_symbol
 _atom_site_label
 _atom_site_symmetry_multiplicity
 _atom_site_fract_x
 _atom_site_fract_y
 _atom_site_fract_z
 _atom_site_occupancy
  Co  Co0  1  0.53498000  0.00601000  0.83834000  1.0
  Co  Co1  1  0.52892000  0.83239000  0.99396000  1.0
  Co  Co2  1  0.69636000  0.16171000  0.16754000  1.0
  P  P3  1  0.06491000  0.00004000  0.99993000  1.0
  H  H4  1  0.69935000  0.15088000  0.71260000  1.0
  H  H5  1  0.46959000  0.15018000  0.52424000  1.0
  H  H6  1  0.04544000  0.84718000  0.62629000  1.0
  H  H7  1  0.79639000  0.83171000  0.43464000  1.0
  H  H8  1  0.54858000  0.56161000  0.84906000  1.0
  H  H9  1  0.31922000  0.37402000  0.84976000  1.0
  H  H10  1  0.19845000  0.77914000  0.15274000  1.0
  H  H11  1  0.96476000  0.60304000  0.16828000  1.0
  H  H12  1  0.98620000  0.28721000  0.43844000  1.0
  H  H13  1  0.94558000  0.47570000  0.62605000  1.0
  H  H14  1  0.41884000  0.37367000  0.22097000  1.0
  H  H15  1  0.36193000  0.56540000  0.39708000  1.0
  C  C16  1  0.11292000  0.99049000  0.46373000  1.0
  C  C17  1  0.96161000  0.99068000  0.35672000  1.0
  C  C18  1  0.50033000  0.08159000  0.64776000  1.0
  C  C19  1  0.37035000  0.08121000  0.54380000  1.0
  C  C20  1  0.13824000  0.91108000  0.59962000  1.0
  C  C21  1  0.99918000  0.90292000  0.49267000  1.0
  C  C22  1  0.12233000  0.47328000  0.00949000  1.0
  C  C23  1  0.97104000  0.36616000  0.00940000  1.0
  C  C24  1  0.41880000  0.56609000  0.91837000  1.0
  C  C25  1  0.28908000  0.46256000  0.91875000  1.0
  C  C26  1  0.22723000  0.68853000  0.08887000  1.0
  C  C27  1  0.09627000  0.58979000  0.09705000  1.0
  C  C28  1  0.64909000  0.53618000  0.52679000  1.0
  C  C29  1  0.60485000  0.64321000  0.63391000  1.0
  C  C30  1  0.85221000  0.35211000  0.43397000  1.0
  C  C31  1  0.82660000  0.45613000  0.53752000  1.0
  C  C32  1  0.53843000  0.40034000  0.31155000  1.0
  C  C33  1  0.50649000  0.50730000  0.41028000  1.0
  N  N34  1  0.38503000  0.99893000  0.67706000  1.0
  N  N35  1  0.69984000  0.93347000  0.18262000  1.0
  N  N36  1  0.78851000  0.05459000  0.24145000  1.0
  N  N37  1  0.80316000  0.89163000  0.25385000  1.0
  N  N38  1  0.95554000  0.09231000  0.35022000  1.0
  N  N39  1  0.38626000  0.67808000  0.00102000  1.0
  N  N40  1  0.76676000  0.24932000  0.06665000  1.0
  N  N41  1  0.73356000  0.18710000  0.94549000  1.0
  N  N42  1  0.91218000  0.36232000  0.10850000  1.0
  N  N43  1  0.86267000  0.25812000  0.90775000  1.0
  N  N44  1  0.70745000  0.32282000  0.32203000  1.0
  N  N45  1  0.51775000  0.81735000  0.75077000  1.0
  N  N46  1  0.54661000  0.75840000  0.81299000  1.0
  N  N47  1  0.55008000  0.74621000  0.63777000  1.0
  N  N48  1  0.60450000  0.64956000  0.74192000  1.0
  O  O49  1  0.11624000  0.99587000  0.88060000  1.0
  O  O50  1  0.12045000  0.88489000  0.00412000  1.0
  O  O51  1  0.23567000  0.11935000  0.11511000  1.0
  O  O52  1  0.70386000  0.00010000  0.99994000  1.0
