# generated using pymatgen
data_Rb2NaH5C6O7
_symmetry_space_group_name_H-M   'P 1'
_cell_length_a   5.61336000
_cell_length_b   7.85565000
_cell_length_c   11.59750000
_cell_angle_alpha   82.55700000
_cell_angle_beta   89.42720000
_cell_angle_gamma   84.07720000
_symmetry_Int_Tables_number   1
_chemical_formula_structural   Rb2NaH5C6O7
_chemical_formula_sum   'Rb4 Na2 H10 C12 O14'
_cell_volume   504.39125651
_cell_formula_units_Z   2
loop_
 _symmetry_equiv_pos_site_id
 _symmetry_equiv_pos_as_xyz
  1  'x, y, z'
loop_
 _atom_site_type_symbol
 _atom_site_label
 _atom_site_symmetry_multiplicity
 _atom_site_fract_x
 _atom_site_fract_y
 _atom_site_fract_z
 _atom_site_occupancy
  Rb  Rb0  1  0.74007000  0.46287000  0.13171000  1.0
  Rb  Rb1  1  0.25995000  0.53712000  0.86829000  1.0
  Rb  Rb2  1  0.75484000  0.64001000  0.41095000  1.0
  Rb  Rb3  1  0.24513000  0.35999000  0.58904000  1.0
  Na  Na4  1  0.76186000  0.12823000  0.40053000  1.0
  Na  Na5  1  0.23815000  0.87177000  0.59947000  1.0
  H  H6  1  0.23910000  0.00918000  0.04214000  1.0
  H  H7  1  0.76090000  0.99083000  0.95786000  1.0
  H  H8  1  0.45628000  0.89187000  0.13978000  1.0
  H  H9  1  0.54373000  0.10814000  0.86022000  1.0
  H  H10  1  0.22523000  0.29542000  0.12498000  1.0
  H  H11  1  0.77477000  0.70458000  0.87501000  1.0
  H  H12  1  0.48849000  0.17905000  0.18895000  1.0
  H  H13  1  0.51150000  0.82096000  0.81105000  1.0
  H  H14  1  0.86510000  0.97732000  0.19189000  1.0
  H  H15  1  0.13491000  0.02268000  0.80811000  1.0
  C  C16  1  0.12933000  0.77242000  0.12569000  1.0
  C  C17  1  0.87067000  0.22757000  0.87431000  1.0
  C  C18  1  0.26395000  0.93200000  0.12853000  1.0
  C  C19  1  0.73605000  0.06800000  0.87147000  1.0
  C  C20  1  0.17380000  0.04865000  0.22102000  1.0
  C  C21  1  0.82621000  0.95135000  0.77898000  1.0
  C  C22  1  0.29811000  0.21514000  0.20412000  1.0
  C  C23  1  0.70188000  0.78486000  0.79588000  1.0
  C  C24  1  0.27126000  0.32164000  0.30667000  1.0
  C  C25  1  0.72873000  0.67837000  0.69334000  1.0
  C  C26  1  0.24312000  0.95140000  0.34386000  1.0
  C  C27  1  0.75689000  0.04860000  0.65614000  1.0
  O  O28  1  0.90744000  0.78402000  0.15507000  1.0
  O  O29  1  0.09256000  0.21597000  0.84493000  1.0
  O  O30  1  0.23973000  0.63949000  0.09118000  1.0
  O  O31  1  0.76028000  0.36050000  0.90883000  1.0
  O  O32  1  0.46105000  0.37143000  0.34568000  1.0
  O  O33  1  0.53894000  0.62858000  0.65432000  1.0
  O  O34  1  0.06265000  0.35259000  0.34772000  1.0
  O  O35  1  0.93734000  0.64740000  0.65229000  1.0
  O  O36  1  0.08118000  0.88707000  0.40740000  1.0
  O  O37  1  0.91883000  0.11292000  0.59259000  1.0
  O  O38  1  0.46193000  0.94335000  0.37257000  1.0
  O  O39  1  0.53808000  0.05666000  0.62744000  1.0
  O  O40  1  0.91977000  0.09071000  0.20838000  1.0
  O  O41  1  0.08024000  0.90929000  0.79162000  1.0
