# generated using pymatgen
data_ZnH28C24(NO)4
_symmetry_space_group_name_H-M   'P 1'
_cell_length_a   6.40921000
_cell_length_b   10.07290000
_cell_length_c   17.14900000
_cell_angle_alpha   89.99810000
_cell_angle_beta   89.99970000
_cell_angle_gamma   96.78810000
_symmetry_Int_Tables_number   1
_chemical_formula_structural   ZnH28C24(NO)4
_chemical_formula_sum   'Zn2 H56 C48 N8 O8'
_cell_volume   1099.36709350
_cell_formula_units_Z   2
loop_
 _symmetry_equiv_pos_site_id
 _symmetry_equiv_pos_as_xyz
  1  'x, y, z'
loop_
 _atom_site_type_symbol
 _atom_site_label
 _atom_site_symmetry_multiplicity
 _atom_site_fract_x
 _atom_site_fract_y
 _atom_site_fract_z
 _atom_site_occupancy
  Zn  Zn0  1  0.45121000  0.37274000  0.09958000  1.0
  Zn  Zn1  1  0.54879000  0.62725000  0.59957000  1.0
  H  H2  1  0.17536000  0.96615000  0.17824000  1.0
  H  H3  1  0.82462000  0.03383000  0.67822000  1.0
  H  H4  1  0.05804000  0.99474000  0.00872000  1.0
  H  H5  1  0.94197000  0.00529000  0.50870000  1.0
  H  H6  1  0.89529000  0.98172000  0.09140000  1.0
  H  H7  1  0.10471000  0.01829000  0.59138000  1.0
  H  H8  1  0.83018000  0.74730000  0.06516000  1.0
  H  H9  1  0.16983000  0.25272000  0.56515000  1.0
  H  H10  1  0.01837000  0.76345000  0.98993000  1.0
  H  H11  1  0.98165000  0.23659000  0.48991000  1.0
  H  H12  1  0.58151000  0.93000000  0.02540000  1.0
  H  H13  1  0.41849000  0.07002000  0.52539000  1.0
  H  H14  1  0.34598000  0.86347000  0.97759000  1.0
  H  H15  1  0.65403000  0.13658000  0.47758000  1.0
  H  H16  1  0.52126000  0.75438000  0.01292000  1.0
  H  H17  1  0.47872000  0.24565000  0.51291000  1.0
  H  H18  1  0.55846000  0.72473000  0.16636000  1.0
  H  H19  1  0.44152000  0.27525000  0.66636000  1.0
  H  H20  1  0.42675000  0.83003000  0.22771000  1.0
  H  H21  1  0.57323000  0.16993000  0.72770000  1.0
  H  H22  1  0.63297000  0.90133000  0.16641000  1.0
  H  H23  1  0.36702000  0.09865000  0.66640000  1.0
  H  H24  1  0.16570000  0.66930000  0.22651000  1.0
  H  H25  1  0.83429000  0.33068000  0.72648000  1.0
  H  H26  1  0.91799000  0.62274000  0.18172000  1.0
  H  H27  1  0.08200000  0.37726000  0.68171000  1.0
  H  H28  1  0.99206000  0.79134000  0.20844000  1.0
  H  H29  1  0.00792000  0.20865000  0.70843000  1.0
  H  H30  1  0.15198000  0.75975000  0.53964000  1.0
  H  H31  1  0.84803000  0.24024000  0.03965000  1.0
  H  H32  1  0.49749000  0.48348000  0.42841000  1.0
  H  H33  1  0.50252000  0.51651000  0.92842000  1.0
  H  H34  1  0.16749000  0.54488000  0.32960000  1.0
  H  H35  1  0.83250000  0.45510000  0.82961000  1.0
  H  H36  1  0.84093000  0.65595000  0.35810000  1.0
  H  H37  1  0.15907000  0.34405000  0.85811000  1.0
  H  H38  1  0.81295000  0.72152000  0.45264000  1.0
  H  H39  1  0.18705000  0.27847000  0.95266000  1.0
  H  H40  1  0.65990000  0.86373000  0.32415000  1.0
  H  H41  1  0.34010000  0.13627000  0.82414000  1.0
  H  H42  1  0.72389000  0.09578000  0.27591000  1.0
  H  H43  1  0.27612000  0.90424000  0.77590000  1.0
  H  H44  1  0.35595000  0.12621000  0.36628000  1.0
  H  H45  1  0.64407000  0.87377000  0.86630000  1.0
  H  H46  1  0.29414000  0.89330000  0.41178000  1.0
  H  H47  1  0.70586000  0.10667000  0.91181000  1.0
  H  H48  1  0.19803000  0.27519000  0.24124000  1.0
  H  H49  1  0.80199000  0.72484000  0.74124000  1.0
  H  H50  1  0.17353000  0.32984000  0.33916000  1.0
  H  H51  1  0.82648000  0.67017000  0.83916000  1.0
  H  H52  1  0.91921000  0.29151000  0.14751000  1.0
  H  H53  1  0.08078000  0.70850000  0.64751000  1.0
  H  H54  1  0.79259000  0.39669000  0.37983000  1.0
  H  H55  1  0.20741000  0.60330000  0.87983000  1.0
  H  H56  1  0.48050000  0.47601000  0.28063000  1.0
  H  H57  1  0.51949000  0.52398000  0.78062000  1.0
  C  C58  1  0.35608000  0.10243000  0.10768000  1.0
  C  C59  1  0.64392000  0.89756000  0.60765000  1.0
  C  C60  1  0.22715000  0.96607000  0.11678000  1.0
  C  C61  1  0.77284000  0.03392000  0.61676000  1.0
  C  C62  1  0.03000000  0.94197000  0.06437000  1.0
  C  C63  1  0.96999000  0.05805000  0.56435000  1.0
  C  C64  1  0.99152000  0.78877000  0.05101000  1.0
  C  C65  1  0.00848000  0.21125000  0.55099000  1.0
  C  C66  1  0.14886000  0.72688000  0.10389000  1.0
  C  C67  1  0.85113000  0.27312000  0.60388000  1.0
  C  C68  1  0.34271000  0.84039000  0.10508000  1.0
  C  C69  1  0.65728000  0.15961000  0.60507000  1.0
  C  C70  1  0.21849000  0.59557000  0.07269000  1.0
  C  C71  1  0.78151000  0.40443000  0.57269000  1.0
  C  C72  1  0.45419000  0.84738000  0.02544000  1.0
  C  C73  1  0.54581000  0.15265000  0.52543000  1.0
  C  C74  1  0.49977000  0.82266000  0.17010000  1.0
  C  C75  1  0.50021000  0.17732000  0.67009000  1.0
  C  C76  1  0.05156000  0.70155000  0.18526000  1.0
  C  C77  1  0.94844000  0.29843000  0.68524000  1.0
  C  C78  1  0.20003000  0.68840000  0.49808000  1.0
  C  C79  1  0.79996000  0.31159000  0.99809000  1.0
  C  C80  1  0.37594000  0.54852000  0.43593000  1.0
  C  C81  1  0.62405000  0.45146000  0.93594000  1.0
  C  C82  1  0.21489000  0.57643000  0.38791000  1.0
  C  C83  1  0.78510000  0.42355000  0.88792000  1.0
  C  C84  1  0.92040000  0.72208000  0.40258000  1.0
  C  C85  1  0.07961000  0.27791000  0.90259000  1.0
  C  C86  1  0.97147000  0.86237000  0.37154000  1.0
  C  C87  1  0.02853000  0.13763000  0.87155000  1.0
  C  C88  1  0.81284000  0.92143000  0.33360000  1.0
  C  C89  1  0.18716000  0.07857000  0.83360000  1.0
  C  C90  1  0.84860000  0.05275000  0.30683000  1.0
  C  C91  1  0.15142000  0.94726000  0.80683000  1.0
  C  C92  1  0.04396000  0.12753000  0.31883000  1.0
  C  C93  1  0.95606000  0.87249000  0.81884000  1.0
  C  C94  1  0.20341000  0.06826000  0.35612000  1.0
  C  C95  1  0.79661000  0.93174000  0.85613000  1.0
  C  C96  1  0.16817000  0.93649000  0.38183000  1.0
  C  C97  1  0.83184000  0.06350000  0.88185000  1.0
  C  C98  1  0.09296000  0.27039000  0.29211000  1.0
  C  C99  1  0.90706000  0.72963000  0.79211000  1.0
  C  C100  1  0.83604000  0.33247000  0.19507000  1.0
  C  C101  1  0.16398000  0.66756000  0.69506000  1.0
  C  C102  1  0.76938000  0.38885000  0.31695000  1.0
  C  C103  1  0.23064000  0.61116000  0.81694000  1.0
  C  C104  1  0.61521000  0.42435000  0.26788000  1.0
  C  C105  1  0.38479000  0.57565000  0.76787000  1.0
  N  N106  1  0.36520000  0.61990000  0.50433000  1.0
  N  N107  1  0.63480000  0.38008000  0.00434000  1.0
  N  N108  1  0.10444000  0.66320000  0.42872000  1.0
  N  N109  1  0.89555000  0.33678000  0.92873000  1.0
  N  N110  1  0.90893000  0.33233000  0.26903000  1.0
  N  N111  1  0.09108000  0.66768000  0.76903000  1.0
  N  N112  1  0.65712000  0.38734000  0.19228000  1.0
  N  N113  1  0.34289000  0.61267000  0.69227000  1.0
  O  O114  1  0.55251000  0.11652000  0.10786000  1.0
  O  O115  1  0.44749000  0.88346000  0.60783000  1.0
  O  O116  1  0.24721000  0.20491000  0.10316000  1.0
  O  O117  1  0.75280000  0.79508000  0.60314000  1.0
  O  O118  1  0.29818000  0.52379000  0.12586000  1.0
  O  O119  1  0.70181000  0.47619000  0.62586000  1.0
  O  O120  1  0.20496000  0.56414000  0.00210000  1.0
  O  O121  1  0.79504000  0.43589000  0.50209000  1.0
