# generated using pymatgen
data_Zn3H18C28S4(N2O)6
_symmetry_space_group_name_H-M   'P 1'
_cell_length_a   8.94040000
_cell_length_b   12.76270000
_cell_length_c   17.29285114
_cell_angle_alpha   68.81724536
_cell_angle_beta   75.04246045
_cell_angle_gamma   69.50800000
_symmetry_Int_Tables_number   1
_chemical_formula_structural   Zn3H18C28S4(N2O)6
_chemical_formula_sum   'Zn6 H36 C56 S8 N24 O12'
_cell_volume   1703.75468336
_cell_formula_units_Z   2
loop_
 _symmetry_equiv_pos_site_id
 _symmetry_equiv_pos_as_xyz
  1  'x, y, z'
loop_
 _atom_site_type_symbol
 _atom_site_label
 _atom_site_symmetry_multiplicity
 _atom_site_fract_x
 _atom_site_fract_y
 _atom_site_fract_z
 _atom_site_occupancy
  Zn  Zn0  1  0.16577000  0.75002000  0.25001000  1.0
  Zn  Zn1  1  0.83422000  0.24998000  0.74999000  1.0
  Zn  Zn2  1  0.96212000  0.82752000  0.41575000  1.0
  Zn  Zn3  1  0.20555000  0.67266000  0.08414000  1.0
  Zn  Zn4  1  0.03788000  0.17248000  0.58425000  1.0
  Zn  Zn5  1  0.79445000  0.32734000  0.91586000  1.0
  H  H6  1  0.96480000  0.80223000  0.15926000  1.0
  H  H7  1  0.92613000  0.69790000  0.34053000  1.0
  H  H8  1  0.03519000  0.19777000  0.84074000  1.0
  H  H9  1  0.07387000  0.30210000  0.65947000  1.0
  H  H10  1  0.55510000  0.13976000  0.58867000  1.0
  H  H11  1  0.28357000  0.36072000  0.91133000  1.0
  H  H12  1  0.44489000  0.86024000  0.41133000  1.0
  H  H13  1  0.71644000  0.63928000  0.08867000  1.0
  H  H14  1  0.36094000  0.24629000  0.68574000  1.0
  H  H15  1  0.29301000  0.25389000  0.81439000  1.0
  H  H16  1  0.63905000  0.75371000  0.31426000  1.0
  H  H17  1  0.70699000  0.74610000  0.18562000  1.0
  H  H18  1  0.18845000  0.95971000  0.82392000  1.0
  H  H19  1  0.97230000  0.54024000  0.67592000  1.0
  H  H20  1  0.81155000  0.04029000  0.17608000  1.0
  H  H21  1  0.02770000  0.45975000  0.32409000  1.0
  H  H22  1  0.37973000  0.83880000  0.73444000  1.0
  H  H23  1  0.95340000  0.66147000  0.76519000  1.0
  H  H24  1  0.62026000  0.16120000  0.26556000  1.0
  H  H25  1  0.04661000  0.33853000  0.23481000  1.0
  H  H26  1  0.62705000  0.95280000  0.06578000  1.0
  H  H27  1  0.64616000  0.54718000  0.43443000  1.0
  H  H28  1  0.37295000  0.04720000  0.93423000  1.0
  H  H29  1  0.35384000  0.45282000  0.56557000  1.0
  H  H30  1  0.78985000  0.08444000  0.96344000  1.0
  H  H31  1  0.83810000  0.41531000  0.53686000  1.0
  H  H32  1  0.21016000  0.91556000  0.03656000  1.0
  H  H33  1  0.16190000  0.58469000  0.46314000  1.0
  H  H34  1  0.45854000  0.37957000  0.01735000  1.0
  H  H35  1  0.85529000  0.12039000  0.48274000  1.0
  H  H36  1  0.54147000  0.62043000  0.98265000  1.0
  H  H37  1  0.14470000  0.87961000  0.51726000  1.0
  H  H38  1  0.28396000  0.26205000  0.12367000  1.0
  H  H39  1  0.66968000  0.23814000  0.37633000  1.0
  H  H40  1  0.71604000  0.73795000  0.87633000  1.0
  H  H41  1  0.33031000  0.76186000  0.62367000  1.0
  C  C42  1  0.59500000  0.91349000  0.59932000  1.0
  C  C43  1  0.10810000  0.58698000  0.90039000  1.0
  C  C44  1  0.40499000  0.08651000  0.40068000  1.0
  C  C45  1  0.89191000  0.41302000  0.09961000  1.0
  C  C46  1  0.71785000  0.75868000  0.55528000  1.0
  C  C47  1  0.03207000  0.74177000  0.94446000  1.0
  C  C48  1  0.28215000  0.24132000  0.44472000  1.0
  C  C49  1  0.96793000  0.25823000  0.05554000  1.0
  C  C50  1  0.48398000  0.97956000  0.65393000  1.0
  C  C51  1  0.11774000  0.52083000  0.84584000  1.0
  C  C52  1  0.51602000  0.02044000  0.34607000  1.0
  C  C53  1  0.88227000  0.47917000  0.15416000  1.0
  C  C54  1  0.47706000  0.09637000  0.64050000  1.0
  C  C55  1  0.21404000  0.40396000  0.85945000  1.0
  C  C56  1  0.52293000  0.90362000  0.35950000  1.0
  C  C57  1  0.78597000  0.59604000  0.14055000  1.0
  C  C58  1  0.36829000  0.15551000  0.69487000  1.0
  C  C59  1  0.21871000  0.34466000  0.80518000  1.0
  C  C60  1  0.63171000  0.84449000  0.30513000  1.0
  C  C61  1  0.78130000  0.65533000  0.19482000  1.0
  C  C62  1  0.27308000  0.99662000  0.77175000  1.0
  C  C63  1  0.04161000  0.50346000  0.72812000  1.0
  C  C64  1  0.72692000  0.00338000  0.22825000  1.0
  C  C65  1  0.95840000  0.49654000  0.27188000  1.0
  C  C66  1  0.37933000  0.92898000  0.72147000  1.0
  C  C67  1  0.03007000  0.57126000  0.77827000  1.0
  C  C68  1  0.62067000  0.07102000  0.27853000  1.0
  C  C69  1  0.96994000  0.42874000  0.22173000  1.0
  C  C70  1  0.34724000  0.02523000  0.16563000  1.0
  C  C71  1  0.53816000  0.47485000  0.33453000  1.0
  C  C72  1  0.65277000  0.97477000  0.83437000  1.0
  C  C73  1  0.46183000  0.52515000  0.66547000  1.0
  C  C74  1  0.15639000  0.98479000  0.26828000  1.0
  C  C75  1  0.40938000  0.51527000  0.23188000  1.0
  C  C76  1  0.84361000  0.01521000  0.73172000  1.0
  C  C77  1  0.59062000  0.48473000  0.76812000  1.0
  C  C78  1  0.44286000  0.09741000  0.10369000  1.0
  C  C79  1  0.64421000  0.40268000  0.39641000  1.0
  C  C80  1  0.55714000  0.90259000  0.89631000  1.0
  C  C81  1  0.35578000  0.59732000  0.60359000  1.0
  C  C82  1  0.58520000  0.04677000  0.05678000  1.0
  C  C83  1  0.68920000  0.45322000  0.44335000  1.0
  C  C84  1  0.41481000  0.95323000  0.94322000  1.0
  C  C85  1  0.31080000  0.54678000  0.55665000  1.0
  C  C86  1  0.67614000  0.11859000  0.00015000  1.0
  C  C87  1  0.79523000  0.38130000  0.50003000  1.0
  C  C88  1  0.32386000  0.88141000  0.99985000  1.0
  C  C89  1  0.20476000  0.61870000  0.49997000  1.0
  C  C90  1  0.49207000  0.28463000  0.03104000  1.0
  C  C91  1  0.80779000  0.21533000  0.46907000  1.0
  C  C92  1  0.50793000  0.71536000  0.96896000  1.0
  C  C93  1  0.19221000  0.78468000  0.53093000  1.0
  C  C94  1  0.39515000  0.21912000  0.08980000  1.0
  C  C95  1  0.70418000  0.28098000  0.41025000  1.0
  C  C96  1  0.60485000  0.78088000  0.91020000  1.0
  C  C97  1  0.29581000  0.71902000  0.58975000  1.0
  S  S98  1  0.77548000  0.62258000  0.55107000  1.0
  S  S99  1  0.94960000  0.87792000  0.94853000  1.0
  S  S100  1  0.22451000  0.37742000  0.44893000  1.0
  S  S101  1  0.05041000  0.12208000  0.05147000  1.0
  S  S102  1  0.99941000  0.01177000  0.34417000  1.0
  S  S103  1  0.35524000  0.48839000  0.15591000  1.0
  S  S104  1  0.00059000  0.98823000  0.65583000  1.0
  S  S105  1  0.64476000  0.51161000  0.84409000  1.0
  N  N106  1  0.77001000  0.85113000  0.50337000  1.0
  N  N107  1  0.12447000  0.64927000  0.99649000  1.0
  N  N108  1  0.22999000  0.14887000  0.49663000  1.0
  N  N109  1  0.87553000  0.35073000  0.00351000  1.0
  N  N110  1  0.69379000  0.94777000  0.53150000  1.0
  N  N111  1  0.17305000  0.55263000  0.96834000  1.0
  N  N112  1  0.30621000  0.05223000  0.46850000  1.0
  N  N113  1  0.82695000  0.44737000  0.03166000  1.0
  N  N114  1  0.26681000  0.10790000  0.75987000  1.0
  N  N115  1  0.13466000  0.39215000  0.74014000  1.0
  N  N116  1  0.73319000  0.89210000  0.24013000  1.0
  N  N117  1  0.86534000  0.60785000  0.25986000  1.0
  N  N118  1  0.23224000  0.89132000  0.24056000  1.0
  N  N119  1  0.36408000  0.60875000  0.25960000  1.0
  N  N120  1  0.76776000  0.10868000  0.75944000  1.0
  N  N121  1  0.63591000  0.39125000  0.74040000  1.0
  N  N122  1  0.35455000  0.91724000  0.17592000  1.0
  N  N123  1  0.44778000  0.58283000  0.32425000  1.0
  N  N124  1  0.64545000  0.08275000  0.82408000  1.0
  N  N125  1  0.55222000  0.41718000  0.67575000  1.0
  N  N126  1  0.63098000  0.23516000  0.98774000  1.0
  N  N127  1  0.85403000  0.26470000  0.51243000  1.0
  N  N128  1  0.36902000  0.76484000  0.01226000  1.0
  N  N129  1  0.14596000  0.73530000  0.48757000  1.0
  O  O130  1  0.60247000  0.79765000  0.61801000  1.0
  O  O131  1  0.01854000  0.70284000  0.88164000  1.0
  O  O132  1  0.39753000  0.20235000  0.38199000  1.0
  O  O133  1  0.98146000  0.29716000  0.11836000  1.0
  O  O134  1  0.22845000  0.07210000  0.22229000  1.0
  O  O135  1  0.52278000  0.42797000  0.27787000  1.0
  O  O136  1  0.77155000  0.92790000  0.77771000  1.0
  O  O137  1  0.47721000  0.57203000  0.72213000  1.0
  O  O138  1  0.08287000  0.77995000  0.14864000  1.0
  O  O139  1  0.01123000  0.72019000  0.35124000  1.0
  O  O140  1  0.91712000  0.22006000  0.85136000  1.0
  O  O141  1  0.98877000  0.27981000  0.64876000  1.0
