# generated using pymatgen
data_EuH21C30(N2O3)2
_symmetry_space_group_name_H-M   'P 1'
_cell_length_a   9.19661000
_cell_length_b   10.47190000
_cell_length_c   14.20500000
_cell_angle_alpha   105.45300000
_cell_angle_beta   91.73090000
_cell_angle_gamma   105.60900000
_symmetry_Int_Tables_number   1
_chemical_formula_structural   EuH21C30(N2O3)2
_chemical_formula_sum   'Eu2 H42 C60 N8 O12'
_cell_volume   1262.26881647
_cell_formula_units_Z   2
loop_
 _symmetry_equiv_pos_site_id
 _symmetry_equiv_pos_as_xyz
  1  'x, y, z'
loop_
 _atom_site_type_symbol
 _atom_site_label
 _atom_site_symmetry_multiplicity
 _atom_site_fract_x
 _atom_site_fract_y
 _atom_site_fract_z
 _atom_site_occupancy
  Eu  Eu0  1  0.05049000  0.18468000  0.09830000  1.0
  Eu  Eu1  1  0.94951000  0.81532000  0.90170000  1.0
  H  H2  1  0.34670000  0.37253000  0.32320000  1.0
  H  H3  1  0.65330000  0.62747000  0.67681000  1.0
  H  H4  1  0.10297000  0.10209000  0.31249000  1.0
  H  H5  1  0.89703000  0.89791000  0.68751000  1.0
  H  H6  1  0.99547000  0.07985000  0.46863000  1.0
  H  H7  1  0.00453000  0.92015000  0.53137000  1.0
  H  H8  1  0.74997000  0.13813000  0.50321000  1.0
  H  H9  1  0.25003000  0.86187000  0.49679000  1.0
  H  H10  1  0.47080000  0.42458000  0.18141000  1.0
  H  H11  1  0.52920000  0.57542000  0.81859000  1.0
  H  H12  1  0.63191000  0.46992000  0.04729000  1.0
  H  H13  1  0.36809000  0.53008000  0.95271000  1.0
  H  H14  1  0.85885000  0.38176000  0.02699000  1.0
  H  H15  1  0.14115000  0.61823000  0.97300000  1.0
  H  H16  1  0.21604000  0.46378000  0.44612000  1.0
  H  H17  1  0.78396000  0.53622000  0.55388000  1.0
  H  H18  1  0.04484000  0.51326000  0.57417000  1.0
  H  H19  1  0.95516000  0.48674000  0.42583000  1.0
  H  H20  1  0.03002000  0.41062000  0.71206000  1.0
  H  H21  1  0.96998000  0.58938000  0.28794000  1.0
  H  H22  1  0.35369000  0.19869000  0.59444000  1.0
  H  H23  1  0.64631000  0.80131000  0.40556000  1.0
  H  H24  1  0.16963000  0.30753000  0.81671000  1.0
  H  H25  1  0.83037000  0.69247000  0.18329000  1.0
  H  H26  1  0.29043000  0.20883000  0.76061000  1.0
  H  H27  1  0.70957000  0.79117000  0.23939000  1.0
  H  H28  1  0.09066000  0.14087000  0.73488000  1.0
  H  H29  1  0.90934000  0.85913000  0.26512000  1.0
  H  H30  1  0.65105000  0.96691000  0.70190000  1.0
  H  H31  1  0.34895000  0.03309000  0.29810000  1.0
  H  H32  1  0.53747000  0.08708000  0.60240000  1.0
  H  H33  1  0.46253000  0.91292000  0.39760000  1.0
  H  H34  1  0.60575000  0.34269000  0.64976000  1.0
  H  H35  1  0.39425000  0.65731000  0.35024000  1.0
  H  H36  1  0.90809000  0.36098000  0.89314000  1.0
  H  H37  1  0.09191000  0.63902000  0.10686000  1.0
  H  H38  1  0.37286000  0.05826000  0.82867000  1.0
  H  H39  1  0.62714000  0.94174000  0.17133000  1.0
  H  H40  1  0.43941000  0.99963000  0.92213000  1.0
  H  H41  1  0.56059000  0.00037000  0.07787000  1.0
  H  H42  1  0.50716000  0.17900000  0.92776000  1.0
  H  H43  1  0.49284000  0.82100000  0.07224000  1.0
  C  C44  1  0.99826000  0.12841000  0.33035000  1.0
  C  C45  1  0.00174000  0.87159000  0.66965000  1.0
  C  C46  1  0.93543000  0.11345000  0.41700000  1.0
  C  C47  1  0.06457000  0.88655000  0.58300000  1.0
  C  C48  1  0.80146000  0.14599000  0.43611000  1.0
  C  C49  1  0.19854000  0.85401000  0.56388000  1.0
  C  C50  1  0.73364000  0.19625000  0.36889000  1.0
  C  C51  1  0.26636000  0.80375000  0.63111000  1.0
  C  C52  1  0.59944000  0.23982000  0.38348000  1.0
  C  C53  1  0.40056000  0.76018000  0.61652000  1.0
  C  C54  1  0.54304000  0.29813000  0.31756000  1.0
  C  C55  1  0.45696000  0.70187000  0.68244000  1.0
  C  C56  1  0.61563000  0.31996000  0.23374000  1.0
  C  C57  1  0.38437000  0.68004000  0.76627000  1.0
  C  C58  1  0.57182000  0.38963000  0.17064000  1.0
  C  C59  1  0.42818000  0.61037000  0.82936000  1.0
  C  C60  1  0.65940000  0.41350000  0.09633000  1.0
  C  C61  1  0.34060000  0.58650000  0.90366000  1.0
  C  C62  1  0.78702000  0.36416000  0.08431000  1.0
  C  C63  1  0.21298000  0.63584000  0.91569000  1.0
  C  C64  1  0.74809000  0.27421000  0.21694000  1.0
  C  C65  1  0.25191000  0.72579000  0.78306000  1.0
  C  C66  1  0.80655000  0.21149000  0.28385000  1.0
  C  C67  1  0.19345000  0.78851000  0.71615000  1.0
  C  C68  1  0.40692000  0.29877000  0.44378000  1.0
  C  C69  1  0.59308000  0.70123000  0.55622000  1.0
  C  C70  1  0.29648000  0.32674000  0.51208000  1.0
  C  C71  1  0.70352000  0.67326000  0.48792000  1.0
  C  C72  1  0.20811000  0.41520000  0.50562000  1.0
  C  C73  1  0.79189000  0.58480000  0.49438000  1.0
  C  C74  1  0.11161000  0.44270000  0.57737000  1.0
  C  C75  1  0.88839000  0.55730000  0.42263000  1.0
  C  C76  1  0.10306000  0.38484000  0.65547000  1.0
  C  C77  1  0.89694000  0.61516000  0.34453000  1.0
  C  C78  1  0.19057000  0.29645000  0.66351000  1.0
  C  C79  1  0.80943000  0.70355000  0.33649000  1.0
  C  C80  1  0.28489000  0.26741000  0.59060000  1.0
  C  C81  1  0.71511000  0.73259000  0.40940000  1.0
  C  C82  1  0.18545000  0.23587000  0.74848000  1.0
  C  C83  1  0.81455000  0.76413000  0.25152000  1.0
  C  C84  1  0.85919000  0.09128000  0.86764000  1.0
  C  C85  1  0.14081000  0.90872000  0.13236000  1.0
  C  C86  1  0.78665000  0.15668000  0.80461000  1.0
  C  C87  1  0.21335000  0.84332000  0.19539000  1.0
  C  C88  1  0.68202000  0.07943000  0.72205000  1.0
  C  C89  1  0.31798000  0.92057000  0.27795000  1.0
  C  C90  1  0.61782000  0.14726000  0.66723000  1.0
  C  C91  1  0.38218000  0.85274000  0.33277000  1.0
  C  C92  1  0.65560000  0.29182000  0.69428000  1.0
  C  C93  1  0.34440000  0.70818000  0.30572000  1.0
  C  C94  1  0.75794000  0.36931000  0.77782000  1.0
  C  C95  1  0.24206000  0.63069000  0.22218000  1.0
  C  C96  1  0.82389000  0.30057000  0.83090000  1.0
  C  C97  1  0.17612000  0.69943000  0.16910000  1.0
  C  C98  1  0.80452000  0.52373000  0.81550000  1.0
  C  C99  1  0.19548000  0.47627000  0.18450000  1.0
  C  C100  1  0.27868000  0.11293000  0.96516000  1.0
  C  C101  1  0.72132000  0.88707000  0.03484000  1.0
  C  C102  1  0.40830000  0.08747000  0.90779000  1.0
  C  C103  1  0.59170000  0.91253000  0.09221000  1.0
  N  N104  1  0.93642000  0.17507000  0.26513000  1.0
  N  N105  1  0.06358000  0.82493000  0.73487000  1.0
  N  N106  1  0.82914000  0.29469000  0.14143000  1.0
  N  N107  1  0.17086000  0.70531000  0.85857000  1.0
  N  N108  1  0.51411000  0.24036000  0.46098000  1.0
  N  N109  1  0.48589000  0.75964000  0.53902000  1.0
  N  N110  1  0.42025000  0.33467000  0.35704000  1.0
  N  N111  1  0.57975000  0.66533000  0.64296000  1.0
  O  O112  1  0.94233000  0.17379000  0.94449000  1.0
  O  O113  1  0.05767000  0.82621000  0.05551000  1.0
  O  O114  1  0.83344000  0.96006000  0.84072000  1.0
  O  O115  1  0.16656000  0.03993000  0.15928000  1.0
  O  O116  1  0.87113000  0.57698000  0.90260000  1.0
  O  O117  1  0.12887000  0.42302000  0.09740000  1.0
  O  O118  1  0.78246000  0.60043000  0.76240000  1.0
  O  O119  1  0.21754000  0.39957000  0.23760000  1.0
  O  O120  1  0.29479000  0.22636000  0.03033000  1.0
  O  O121  1  0.70521000  0.77364000  0.96967000  1.0
  O  O122  1  0.15169000  0.01689000  0.94743000  1.0
  O  O123  1  0.84831000  0.98311000  0.05257000  1.0
