# generated using pymatgen
data_GdH22C24(NO4)2
_symmetry_space_group_name_H-M   'P 1'
_cell_length_a   9.68141000
_cell_length_b   17.11220000
_cell_length_c   19.83850000
_cell_angle_alpha   89.99990000
_cell_angle_beta   90.00010000
_cell_angle_gamma   89.99960000
_symmetry_Int_Tables_number   1
_chemical_formula_structural   GdH22C24(NO4)2
_chemical_formula_sum   'Gd4 H88 C96 N8 O32'
_cell_volume   3286.64874274
_cell_formula_units_Z   4
loop_
 _symmetry_equiv_pos_site_id
 _symmetry_equiv_pos_as_xyz
  1  'x, y, z'
loop_
 _atom_site_type_symbol
 _atom_site_label
 _atom_site_symmetry_multiplicity
 _atom_site_fract_x
 _atom_site_fract_y
 _atom_site_fract_z
 _atom_site_occupancy
  Gd  Gd0  1  0.47321000  0.25000000  0.25000000  1.0
  Gd  Gd1  1  0.02679000  0.75000000  0.75000000  1.0
  Gd  Gd2  1  0.52679000  0.75000000  0.75000000  1.0
  Gd  Gd3  1  0.97321000  0.25000000  0.25000000  1.0
  H  H4  1  0.34955000  0.10256000  0.58117000  1.0
  H  H5  1  0.22682000  0.15011000  0.08335000  1.0
  H  H6  1  0.29407000  0.07565000  0.98237000  1.0
  H  H7  1  0.39710000  0.12133000  0.45859000  1.0
  H  H8  1  0.97196000  0.23435000  0.56012000  1.0
  H  H9  1  0.01768000  0.24906000  0.43731000  1.0
  H  H10  1  0.13735000  0.15966000  0.63214000  1.0
  H  H11  1  0.63322000  0.97896000  0.10046000  1.0
  H  H12  1  0.54633000  0.05699000  0.19733000  1.0
  H  H13  1  0.68570000  0.13369000  0.29477000  1.0
  H  H14  1  0.53573000  0.11880000  0.32923000  1.0
  H  H15  1  0.34954000  0.39743000  0.91883000  1.0
  H  H16  1  0.22681000  0.34989000  0.41664000  1.0
  H  H17  1  0.29406000  0.42435000  0.51762000  1.0
  H  H18  1  0.39709000  0.37867000  0.04141000  1.0
  H  H19  1  0.97194000  0.26565000  0.93988000  1.0
  H  H20  1  0.01767000  0.25094000  0.06269000  1.0
  H  H21  1  0.13734000  0.34034000  0.86785000  1.0
  H  H22  1  0.63321000  0.52104000  0.39954000  1.0
  H  H23  1  0.54633000  0.44301000  0.30266000  1.0
  H  H24  1  0.68570000  0.36631000  0.20523000  1.0
  H  H25  1  0.53573000  0.38120000  0.17077000  1.0
  H  H26  1  0.15046000  0.89744000  0.08117000  1.0
  H  H27  1  0.27318000  0.84989000  0.58336000  1.0
  H  H28  1  0.20593000  0.92435000  0.48238000  1.0
  H  H29  1  0.10291000  0.87867000  0.95859000  1.0
  H  H30  1  0.52805000  0.76565000  0.06013000  1.0
  H  H31  1  0.48233000  0.75093000  0.93732000  1.0
  H  H32  1  0.36265000  0.84034000  0.13215000  1.0
  H  H33  1  0.86678000  0.02105000  0.60046000  1.0
  H  H34  1  0.95366000  0.94301000  0.69734000  1.0
  H  H35  1  0.81430000  0.86631000  0.79477000  1.0
  H  H36  1  0.96427000  0.88120000  0.82923000  1.0
  H  H37  1  0.15046000  0.60256000  0.41883000  1.0
  H  H38  1  0.27319000  0.65011000  0.91665000  1.0
  H  H39  1  0.20593000  0.57565000  0.01763000  1.0
  H  H40  1  0.10291000  0.62133000  0.54141000  1.0
  H  H41  1  0.52805000  0.73436000  0.43988000  1.0
  H  H42  1  0.48233000  0.74907000  0.56269000  1.0
  H  H43  1  0.36265000  0.65966000  0.36786000  1.0
  H  H44  1  0.86679000  0.47896000  0.89954000  1.0
  H  H45  1  0.95366000  0.55699000  0.80267000  1.0
  H  H46  1  0.81430000  0.63369000  0.70523000  1.0
  H  H47  1  0.96427000  0.61881000  0.67077000  1.0
  H  H48  1  0.65045000  0.89743000  0.41883000  1.0
  H  H49  1  0.77319000  0.84989000  0.91664000  1.0
  H  H50  1  0.70595000  0.92435000  0.01762000  1.0
  H  H51  1  0.60291000  0.87867000  0.54141000  1.0
  H  H52  1  0.02805000  0.76565000  0.43988000  1.0
  H  H53  1  0.98234000  0.75094000  0.56268000  1.0
  H  H54  1  0.86264000  0.84034000  0.36785000  1.0
  H  H55  1  0.36679000  0.02104000  0.89954000  1.0
  H  H56  1  0.45367000  0.94301000  0.80266000  1.0
  H  H57  1  0.31430000  0.86632000  0.70522000  1.0
  H  H58  1  0.46427000  0.88120000  0.67077000  1.0
  H  H59  1  0.65046000  0.60257000  0.08117000  1.0
  H  H60  1  0.77318000  0.65011000  0.58336000  1.0
  H  H61  1  0.70593000  0.57565000  0.48238000  1.0
  H  H62  1  0.60291000  0.62133000  0.95859000  1.0
  H  H63  1  0.02805000  0.73435000  0.06012000  1.0
  H  H64  1  0.98233000  0.74906000  0.93731000  1.0
  H  H65  1  0.86265000  0.65966000  0.13215000  1.0
  H  H66  1  0.36678000  0.47896000  0.60046000  1.0
  H  H67  1  0.45366000  0.55699000  0.69733000  1.0
  H  H68  1  0.31430000  0.63369000  0.79478000  1.0
  H  H69  1  0.46427000  0.61880000  0.82923000  1.0
  H  H70  1  0.84956000  0.10256000  0.91884000  1.0
  H  H71  1  0.72680000  0.15011000  0.41664000  1.0
  H  H72  1  0.79406000  0.07565000  0.51762000  1.0
  H  H73  1  0.89710000  0.12132000  0.04142000  1.0
  H  H74  1  0.47197000  0.23435000  0.93987000  1.0
  H  H75  1  0.51768000  0.24906000  0.06268000  1.0
  H  H76  1  0.63738000  0.15966000  0.86785000  1.0
  H  H77  1  0.13321000  0.97896000  0.39954000  1.0
  H  H78  1  0.04632000  0.05699000  0.30266000  1.0
  H  H79  1  0.18570000  0.13369000  0.20522000  1.0
  H  H80  1  0.03573000  0.11881000  0.17077000  1.0
  H  H81  1  0.84953000  0.39743000  0.58117000  1.0
  H  H82  1  0.72680000  0.34989000  0.08336000  1.0
  H  H83  1  0.79406000  0.42435000  0.98238000  1.0
  H  H84  1  0.89709000  0.37867000  0.45859000  1.0
  H  H85  1  0.47195000  0.26564000  0.56012000  1.0
  H  H86  1  0.51767000  0.25093000  0.43731000  1.0
  H  H87  1  0.63734000  0.34034000  0.63214000  1.0
  H  H88  1  0.13321000  0.52104000  0.10046000  1.0
  H  H89  1  0.04632000  0.44301000  0.19734000  1.0
  H  H90  1  0.18570000  0.36631000  0.29477000  1.0
  H  H91  1  0.03573000  0.38120000  0.32924000  1.0
  C  C92  1  0.23805000  0.19819000  0.36686000  1.0
  C  C93  1  0.47545000  0.02022000  0.02910000  1.0
  C  C94  1  0.21063000  0.18669000  0.44062000  1.0
  C  C95  1  0.27768000  0.13580000  0.54996000  1.0
  C  C96  1  0.31443000  0.11045000  0.08332000  1.0
  C  C97  1  0.35545000  0.06872000  0.02791000  1.0
  C  C98  1  0.30417000  0.14568000  0.48142000  1.0
  C  C99  1  0.06566000  0.20948000  0.53836000  1.0
  C  C100  1  0.09098000  0.21828000  0.46954000  1.0
  C  C101  1  0.15848000  0.16792000  0.57862000  1.0
  C  C102  1  0.54259000  0.01556000  0.09315000  1.0
  C  C103  1  0.49786000  0.05722000  0.14787000  1.0
  C  C104  1  0.23805000  0.30181000  0.13314000  1.0
  C  C105  1  0.47544000  0.47978000  0.47090000  1.0
  C  C106  1  0.21062000  0.31331000  0.05938000  1.0
  C  C107  1  0.27767000  0.36419000  0.95004000  1.0
  C  C108  1  0.31442000  0.38955000  0.41668000  1.0
  C  C109  1  0.35544000  0.43128000  0.47209000  1.0
  C  C110  1  0.30416000  0.35431000  0.01858000  1.0
  C  C111  1  0.06565000  0.29052000  0.96164000  1.0
  C  C112  1  0.09098000  0.28172000  0.03046000  1.0
  C  C113  1  0.15846000  0.33208000  0.92138000  1.0
  C  C114  1  0.54258000  0.48443000  0.40685000  1.0
  C  C115  1  0.49786000  0.44277000  0.35213000  1.0
  C  C116  1  0.26195000  0.80181000  0.86686000  1.0
  C  C117  1  0.02456000  0.97979000  0.52910000  1.0
  C  C118  1  0.28938000  0.81330000  0.94062000  1.0
  C  C119  1  0.22232000  0.86419000  0.04996000  1.0
  C  C120  1  0.18557000  0.88956000  0.58332000  1.0
  C  C121  1  0.14455000  0.93129000  0.52791000  1.0
  C  C122  1  0.19583000  0.85431000  0.98142000  1.0
  C  C123  1  0.43434000  0.79051000  0.03837000  1.0
  C  C124  1  0.40902000  0.78172000  0.96955000  1.0
  C  C125  1  0.34152000  0.83207000  0.07863000  1.0
  C  C126  1  0.95741000  0.98444000  0.59315000  1.0
  C  C127  1  0.00213000  0.94278000  0.64787000  1.0
  C  C128  1  0.26195000  0.69819000  0.63314000  1.0
  C  C129  1  0.02456000  0.52021000  0.97091000  1.0
  C  C130  1  0.28938000  0.68670000  0.55938000  1.0
  C  C131  1  0.22233000  0.63580000  0.45004000  1.0
  C  C132  1  0.18558000  0.61045000  0.91668000  1.0
  C  C133  1  0.14456000  0.56872000  0.97209000  1.0
  C  C134  1  0.19584000  0.64569000  0.51858000  1.0
  C  C135  1  0.43435000  0.70948000  0.46164000  1.0
  C  C136  1  0.40902000  0.71828000  0.53045000  1.0
  C  C137  1  0.34153000  0.66792000  0.42138000  1.0
  C  C138  1  0.95741000  0.51556000  0.90685000  1.0
  C  C139  1  0.00213000  0.55722000  0.85213000  1.0
  C  C140  1  0.76196000  0.80181000  0.63314000  1.0
  C  C141  1  0.52457000  0.97978000  0.97090000  1.0
  C  C142  1  0.78939000  0.81331000  0.55938000  1.0
  C  C143  1  0.72232000  0.86419000  0.45004000  1.0
  C  C144  1  0.68558000  0.88955000  0.91668000  1.0
  C  C145  1  0.64457000  0.93128000  0.97209000  1.0
  C  C146  1  0.69584000  0.85431000  0.51858000  1.0
  C  C147  1  0.93435000  0.79052000  0.46164000  1.0
  C  C148  1  0.90902000  0.78173000  0.53045000  1.0
  C  C149  1  0.84152000  0.83208000  0.42137000  1.0
  C  C150  1  0.45742000  0.98443000  0.90685000  1.0
  C  C151  1  0.50214000  0.94278000  0.85213000  1.0
  C  C152  1  0.76196000  0.69819000  0.86686000  1.0
  C  C153  1  0.52456000  0.52021000  0.52910000  1.0
  C  C154  1  0.78939000  0.68669000  0.94062000  1.0
  C  C155  1  0.72232000  0.63581000  0.04996000  1.0
  C  C156  1  0.68557000  0.61045000  0.58332000  1.0
  C  C157  1  0.64456000  0.56872000  0.52791000  1.0
  C  C158  1  0.69584000  0.64569000  0.98142000  1.0
  C  C159  1  0.93435000  0.70949000  0.03836000  1.0
  C  C160  1  0.90902000  0.71828000  0.96954000  1.0
  C  C161  1  0.84153000  0.66793000  0.07863000  1.0
  C  C162  1  0.45741000  0.51557000  0.59315000  1.0
  C  C163  1  0.50213000  0.55722000  0.64787000  1.0
  C  C164  1  0.73805000  0.19819000  0.13314000  1.0
  C  C165  1  0.97544000  0.02022000  0.47090000  1.0
  C  C166  1  0.71063000  0.18669000  0.05938000  1.0
  C  C167  1  0.77769000  0.13580000  0.95004000  1.0
  C  C168  1  0.81442000  0.11045000  0.41668000  1.0
  C  C169  1  0.85544000  0.06873000  0.47208000  1.0
  C  C170  1  0.80417000  0.14568000  0.01858000  1.0
  C  C171  1  0.56567000  0.20948000  0.96163000  1.0
  C  C172  1  0.59099000  0.21828000  0.03045000  1.0
  C  C173  1  0.65850000  0.16792000  0.92137000  1.0
  C  C174  1  0.04258000  0.01557000  0.40685000  1.0
  C  C175  1  0.99785000  0.05722000  0.35212000  1.0
  C  C176  1  0.73805000  0.30181000  0.36686000  1.0
  C  C177  1  0.97544000  0.47978000  0.02910000  1.0
  C  C178  1  0.71062000  0.31330000  0.44062000  1.0
  C  C179  1  0.77767000  0.36420000  0.54996000  1.0
  C  C180  1  0.81442000  0.38955000  0.08332000  1.0
  C  C181  1  0.85544000  0.43128000  0.02791000  1.0
  C  C182  1  0.80416000  0.35431000  0.48142000  1.0
  C  C183  1  0.56565000  0.29051000  0.53836000  1.0
  C  C184  1  0.59098000  0.28172000  0.46954000  1.0
  C  C185  1  0.65846000  0.33207000  0.57862000  1.0
  C  C186  1  0.04258000  0.48443000  0.09315000  1.0
  C  C187  1  0.99785000  0.44278000  0.14787000  1.0
  N  N188  1  0.38650000  0.10605000  0.14252000  1.0
  N  N189  1  0.38650000  0.39395000  0.35747000  1.0
  N  N190  1  0.11349000  0.89395000  0.64253000  1.0
  N  N191  1  0.11350000  0.60605000  0.85748000  1.0
  N  N192  1  0.61350000  0.89395000  0.85747000  1.0
  N  N193  1  0.61349000  0.60605000  0.64253000  1.0
  N  N194  1  0.88650000  0.10605000  0.35747000  1.0
  N  N195  1  0.88649000  0.39395000  0.14253000  1.0
  O  O196  1  0.34446000  0.14797000  0.19663000  1.0
  O  O197  1  0.36106000  0.18863000  0.34545000  1.0
  O  O198  1  0.13771000  0.21899000  0.32973000  1.0
  O  O199  1  0.58287000  0.12532000  0.28618000  1.0
  O  O200  1  0.34446000  0.35203000  0.30336000  1.0
  O  O201  1  0.36105000  0.31137000  0.15455000  1.0
  O  O202  1  0.13771000  0.28101000  0.17028000  1.0
  O  O203  1  0.58287000  0.37468000  0.21382000  1.0
  O  O204  1  0.15553000  0.85203000  0.69664000  1.0
  O  O205  1  0.13895000  0.81137000  0.84545000  1.0
  O  O206  1  0.36229000  0.78101000  0.82973000  1.0
  O  O207  1  0.91713000  0.87468000  0.78618000  1.0
  O  O208  1  0.15554000  0.64797000  0.80337000  1.0
  O  O209  1  0.13895000  0.68863000  0.65455000  1.0
  O  O210  1  0.36229000  0.71899000  0.67027000  1.0
  O  O211  1  0.91713000  0.62532000  0.71382000  1.0
  O  O212  1  0.65554000  0.85203000  0.80336000  1.0
  O  O213  1  0.63895000  0.81137000  0.65455000  1.0
  O  O214  1  0.86230000  0.78101000  0.67027000  1.0
  O  O215  1  0.41713000  0.87468000  0.71382000  1.0
  O  O216  1  0.65554000  0.64797000  0.69663000  1.0
  O  O217  1  0.63895000  0.68863000  0.84545000  1.0
  O  O218  1  0.86229000  0.71899000  0.82973000  1.0
  O  O219  1  0.41713000  0.62532000  0.78618000  1.0
  O  O220  1  0.84446000  0.14797000  0.30336000  1.0
  O  O221  1  0.86106000  0.18863000  0.15455000  1.0
  O  O222  1  0.63771000  0.21899000  0.17027000  1.0
  O  O223  1  0.08287000  0.12532000  0.21382000  1.0
  O  O224  1  0.84446000  0.35203000  0.19664000  1.0
  O  O225  1  0.86105000  0.31137000  0.34545000  1.0
  O  O226  1  0.63771000  0.28101000  0.32973000  1.0
  O  O227  1  0.08287000  0.37468000  0.28618000  1.0
