# generated using pymatgen
data_ZnH34C48(N2O5)2
_symmetry_space_group_name_H-M   'P 1'
_cell_length_a   7.03241000
_cell_length_b   17.70740000
_cell_length_c   21.42780000
_cell_angle_alpha   89.99920000
_cell_angle_beta   95.60870000
_cell_angle_gamma   89.99830000
_symmetry_Int_Tables_number   1
_chemical_formula_structural   ZnH34C48(N2O5)2
_chemical_formula_sum   'Zn2 H68 C96 N8 O20'
_cell_volume   2655.53737257
_cell_formula_units_Z   2
loop_
 _symmetry_equiv_pos_site_id
 _symmetry_equiv_pos_as_xyz
  1  'x, y, z'
loop_
 _atom_site_type_symbol
 _atom_site_label
 _atom_site_symmetry_multiplicity
 _atom_site_fract_x
 _atom_site_fract_y
 _atom_site_fract_z
 _atom_site_occupancy
  Zn  Zn0  1  0.99999000  0.50000000  0.00000000  1.0
  Zn  Zn1  1  0.49999000  0.00000000  0.50000000  1.0
  H  H2  1  0.38967000  0.59261000  0.32661000  1.0
  H  H3  1  0.11031000  0.09261000  0.17339000  1.0
  H  H4  1  0.61032000  0.40738000  0.67338000  1.0
  H  H5  1  0.88968000  0.90739000  0.82661000  1.0
  H  H6  1  0.36121000  0.47998000  0.39248000  1.0
  H  H7  1  0.13880000  0.97998000  0.10753000  1.0
  H  H8  1  0.63882000  0.52001000  0.60752000  1.0
  H  H9  1  0.86120000  0.02002000  0.89248000  1.0
  H  H10  1  0.16635000  0.61887000  0.53826000  1.0
  H  H11  1  0.33365000  0.11887000  0.96174000  1.0
  H  H12  1  0.83368000  0.38113000  0.46173000  1.0
  H  H13  1  0.66633000  0.88114000  0.03826000  1.0
  H  H14  1  0.19222000  0.73242000  0.47071000  1.0
  H  H15  1  0.30776000  0.23242000  0.02928000  1.0
  H  H16  1  0.80778000  0.26758000  0.52928000  1.0
  H  H17  1  0.69221000  0.76759000  0.97072000  1.0
  H  H18  1  0.29151000  0.38852000  0.44559000  1.0
  H  H19  1  0.20851000  0.88851000  0.05442000  1.0
  H  H20  1  0.70847000  0.61148000  0.55441000  1.0
  H  H21  1  0.79155000  0.11148000  0.94559000  1.0
  H  H22  1  0.20685000  0.31768000  0.63305000  1.0
  H  H23  1  0.29317000  0.81768000  0.86696000  1.0
  H  H24  1  0.79314000  0.68232000  0.36695000  1.0
  H  H25  1  0.70684000  0.18232000  0.13305000  1.0
  H  H26  1  0.28114000  0.36244000  0.72413000  1.0
  H  H27  1  0.21884000  0.86245000  0.77589000  1.0
  H  H28  1  0.71885000  0.63756000  0.27588000  1.0
  H  H29  1  0.78116000  0.13755000  0.22412000  1.0
  H  H30  1  0.18509000  0.39823000  0.82862000  1.0
  H  H31  1  0.31487000  0.89824000  0.67139000  1.0
  H  H32  1  0.81489000  0.60177000  0.17138000  1.0
  H  H33  1  0.68512000  0.10177000  0.32861000  1.0
  H  H34  1  0.90138000  0.59589000  0.74947000  1.0
  H  H35  1  0.59860000  0.09590000  0.75052000  1.0
  H  H36  1  0.09857000  0.40410000  0.25052000  1.0
  H  H37  1  0.40143000  0.90410000  0.24949000  1.0
  H  H38  1  0.00664000  0.56254000  0.64453000  1.0
  H  H39  1  0.49336000  0.06254000  0.85547000  1.0
  H  H40  1  0.99333000  0.43745000  0.35546000  1.0
  H  H41  1  0.50668000  0.93745000  0.14454000  1.0
  H  H42  1  0.10508000  0.21450000  0.58842000  1.0
  H  H43  1  0.39493000  0.71449000  0.91158000  1.0
  H  H44  1  0.89490000  0.78550000  0.41158000  1.0
  H  H45  1  0.60510000  0.28551000  0.08842000  1.0
  H  H46  1  0.20311000  0.08241000  0.56853000  1.0
  H  H47  1  0.29687000  0.58241000  0.93146000  1.0
  H  H48  1  0.79687000  0.91759000  0.43147000  1.0
  H  H49  1  0.70312000  0.41759000  0.06853000  1.0
  H  H50  1  0.54253000  0.14918000  0.43172000  1.0
  H  H51  1  0.95745000  0.64918000  0.06828000  1.0
  H  H52  1  0.45745000  0.85081000  0.56828000  1.0
  H  H53  1  0.04254000  0.35082000  0.93172000  1.0
  H  H54  1  0.46677000  0.28537000  0.44683000  1.0
  H  H55  1  0.03324000  0.78536000  0.05317000  1.0
  H  H56  1  0.53320000  0.71463000  0.55317000  1.0
  H  H57  1  0.96680000  0.21464000  0.94683000  1.0
  H  H58  1  0.27918000  0.84711000  0.35662000  1.0
  H  H59  1  0.22081000  0.34710000  0.14337000  1.0
  H  H60  1  0.72081000  0.15288000  0.64337000  1.0
  H  H61  1  0.77917000  0.65290000  0.85662000  1.0
  H  H62  1  0.66649000  0.58503000  0.98989000  1.0
  H  H63  1  0.83350000  0.08501000  0.51009000  1.0
  H  H64  1  0.33349000  0.41498000  0.01009000  1.0
  H  H65  1  0.16650000  0.91499000  0.48991000  1.0
  H  H66  1  0.73864000  0.55432000  0.92567000  1.0
  H  H67  1  0.76137000  0.05431000  0.57432000  1.0
  H  H68  1  0.26133000  0.44568000  0.07432000  1.0
  H  H69  1  0.23864000  0.94569000  0.42568000  1.0
  C  C70  1  0.32707000  0.73797000  0.35633000  1.0
  C  C71  1  0.17292000  0.23797000  0.14367000  1.0
  C  C72  1  0.67292000  0.26202000  0.64366000  1.0
  C  C73  1  0.82706000  0.76204000  0.85634000  1.0
  C  C74  1  0.29280000  0.66983000  0.39430000  1.0
  C  C75  1  0.20719000  0.16983000  0.10570000  1.0
  C  C76  1  0.70717000  0.33016000  0.60569000  1.0
  C  C77  1  0.79282000  0.83018000  0.89431000  1.0
  C  C78  1  0.33900000  0.59804000  0.37287000  1.0
  C  C79  1  0.16100000  0.09803000  0.12713000  1.0
  C  C80  1  0.66098000  0.40196000  0.62712000  1.0
  C  C81  1  0.83902000  0.90197000  0.87288000  1.0
  C  C82  1  0.32169000  0.53474000  0.41034000  1.0
  C  C83  1  0.17830000  0.03474000  0.08967000  1.0
  C  C84  1  0.67831000  0.46525000  0.58966000  1.0
  C  C85  1  0.82170000  0.96527000  0.91034000  1.0
  C  C86  1  0.25937000  0.54149000  0.47048000  1.0
  C  C87  1  0.24063000  0.04148000  0.02952000  1.0
  C  C88  1  0.74062000  0.45851000  0.52951000  1.0
  C  C89  1  0.75939000  0.95852000  0.97049000  1.0
  C  C90  1  0.21393000  0.61379000  0.49161000  1.0
  C  C91  1  0.28607000  0.11378000  0.00839000  1.0
  C  C92  1  0.78607000  0.38621000  0.50838000  1.0
  C  C93  1  0.71393000  0.88622000  0.99162000  1.0
  C  C94  1  0.22817000  0.67674000  0.45390000  1.0
  C  C95  1  0.27184000  0.17673000  0.04610000  1.0
  C  C96  1  0.77182000  0.32326000  0.54609000  1.0
  C  C97  1  0.72818000  0.82327000  0.95390000  1.0
  C  C98  1  0.24142000  0.47606000  0.51279000  1.0
  C  C99  1  0.25858000  0.97606000  0.98721000  1.0
  C  C100  1  0.75858000  0.52394000  0.48721000  1.0
  C  C101  1  0.74145000  0.02394000  0.01279000  1.0
  C  C102  1  0.26537000  0.40114000  0.49372000  1.0
  C  C103  1  0.23463000  0.90114000  0.00628000  1.0
  C  C104  1  0.73462000  0.59886000  0.50628000  1.0
  C  C105  1  0.76540000  0.09886000  0.99373000  1.0
  C  C106  1  0.25252000  0.34250000  0.53692000  1.0
  C  C107  1  0.24748000  0.84250000  0.96308000  1.0
  C  C108  1  0.74747000  0.65750000  0.46308000  1.0
  C  C109  1  0.75253000  0.15751000  0.03692000  1.0
  C  C110  1  0.21425000  0.36143000  0.59778000  1.0
  C  C111  1  0.28575000  0.86143000  0.90222000  1.0
  C  C112  1  0.78575000  0.63857000  0.40222000  1.0
  C  C113  1  0.71426000  0.13858000  0.09778000  1.0
  C  C114  1  0.18896000  0.43739000  0.61327000  1.0
  C  C115  1  0.31104000  0.93739000  0.88673000  1.0
  C  C116  1  0.81106000  0.56261000  0.38673000  1.0
  C  C117  1  0.68896000  0.06262000  0.11327000  1.0
  C  C118  1  0.14409000  0.45938000  0.67676000  1.0
  C  C119  1  0.35593000  0.95938000  0.82324000  1.0
  C  C120  1  0.85594000  0.54062000  0.32324000  1.0
  C  C121  1  0.64409000  0.04062000  0.17676000  1.0
  C  C122  1  0.19619000  0.41330000  0.72905000  1.0
  C  C123  1  0.30381000  0.91331000  0.77096000  1.0
  C  C124  1  0.80382000  0.58670000  0.27095000  1.0
  C  C125  1  0.69620000  0.08670000  0.22905000  1.0
  C  C126  1  0.14320000  0.43316000  0.78773000  1.0
  C  C127  1  0.35679000  0.93316000  0.71228000  1.0
  C  C128  1  0.85680000  0.56685000  0.21227000  1.0
  C  C129  1  0.64321000  0.06684000  0.28773000  1.0
  C  C130  1  0.03300000  0.49791000  0.79511000  1.0
  C  C131  1  0.46702000  0.99791000  0.70489000  1.0
  C  C132  1  0.96701000  0.50210000  0.20488000  1.0
  C  C133  1  0.53300000  0.00210000  0.29511000  1.0
  C  C134  1  0.98489000  0.54503000  0.74336000  1.0
  C  C135  1  0.51511000  0.04503000  0.75664000  1.0
  C  C136  1  0.01510000  0.45497000  0.25664000  1.0
  C  C137  1  0.48492000  0.95497000  0.24336000  1.0
  C  C138  1  0.04290000  0.52649000  0.68514000  1.0
  C  C139  1  0.45710000  0.02649000  0.81486000  1.0
  C  C140  1  0.95710000  0.47351000  0.31485000  1.0
  C  C141  1  0.54292000  0.97350000  0.18515000  1.0
  C  C142  1  0.96454000  0.51527000  0.85743000  1.0
  C  C143  1  0.53546000  0.01526000  0.64258000  1.0
  C  C144  1  0.03545000  0.48473000  0.14257000  1.0
  C  C145  1  0.46455000  0.98474000  0.35744000  1.0
  C  C146  1  0.28395000  0.26273000  0.52083000  1.0
  C  C147  1  0.21606000  0.76273000  0.97917000  1.0
  C  C148  1  0.71604000  0.73727000  0.47917000  1.0
  C  C149  1  0.78398000  0.23727000  0.02084000  1.0
  C  C150  1  0.20551000  0.20361000  0.55383000  1.0
  C  C151  1  0.29449000  0.70361000  0.94617000  1.0
  C  C152  1  0.79448000  0.79639000  0.44618000  1.0
  C  C153  1  0.70552000  0.29640000  0.05383000  1.0
  C  C154  1  0.25837000  0.12952000  0.54290000  1.0
  C  C155  1  0.24163000  0.62951000  0.95710000  1.0
  C  C156  1  0.74161000  0.87048000  0.45710000  1.0
  C  C157  1  0.75838000  0.37049000  0.04290000  1.0
  C  C158  1  0.44819000  0.16702000  0.46647000  1.0
  C  C159  1  0.05180000  0.66702000  0.03353000  1.0
  C  C160  1  0.55179000  0.83298000  0.53354000  1.0
  C  C161  1  0.94819000  0.33298000  0.96646000  1.0
  C  C162  1  0.40239000  0.24247000  0.47447000  1.0
  C  C163  1  0.09761000  0.74246000  0.02553000  1.0
  C  C164  1  0.59758000  0.75753000  0.52552000  1.0
  C  C165  1  0.90241000  0.25754000  0.97448000  1.0
  N  N166  1  0.20198000  0.49303000  0.57137000  1.0
  N  N167  1  0.29801000  0.99303000  0.92863000  1.0
  N  N168  1  0.79804000  0.50697000  0.42863000  1.0
  N  N169  1  0.70199000  0.00697000  0.07137000  1.0
  N  N170  1  0.38238000  0.11140000  0.50131000  1.0
  N  N171  1  0.11762000  0.61140000  0.99869000  1.0
  N  N172  1  0.61761000  0.88859000  0.49869000  1.0
  N  N173  1  0.88239000  0.38860000  0.00131000  1.0
  O  O174  1  0.04724000  0.48143000  0.90518000  1.0
  O  O175  1  0.45275000  0.98143000  0.59482000  1.0
  O  O176  1  0.95273000  0.51857000  0.09481000  1.0
  O  O177  1  0.54726000  0.01857000  0.40519000  1.0
  O  O178  1  0.82536000  0.56147000  0.85938000  1.0
  O  O179  1  0.67465000  0.06146000  0.64062000  1.0
  O  O180  1  0.17463000  0.43853000  0.14061000  1.0
  O  O181  1  0.32536000  0.93854000  0.35939000  1.0
  O  O182  1  0.23365000  0.79900000  0.37535000  1.0
  O  O183  1  0.26634000  0.29900000  0.12465000  1.0
  O  O184  1  0.76635000  0.20099000  0.62465000  1.0
  O  O185  1  0.73364000  0.70101000  0.87535000  1.0
  O  O186  1  0.43242000  0.73913000  0.31380000  1.0
  O  O187  1  0.06760000  0.23912000  0.18621000  1.0
  O  O188  1  0.56755000  0.26086000  0.68619000  1.0
  O  O189  1  0.93244000  0.76088000  0.81380000  1.0
  O  O190  1  0.71089000  0.54000000  0.96988000  1.0
  O  O191  1  0.78910000  0.03999000  0.53012000  1.0
  O  O192  1  0.28909000  0.46000000  0.03012000  1.0
  O  O193  1  0.21089000  0.96001000  0.46988000  1.0
