# generated using pymatgen
data_HgH9C8I2NO2
_symmetry_space_group_name_H-M   'P 1'
_cell_length_a   4.28870000
_cell_length_b   12.26390000
_cell_length_c   24.40720000
_cell_angle_alpha   89.99990000
_cell_angle_beta   89.99940000
_cell_angle_gamma   93.59650000
_symmetry_Int_Tables_number   1
_chemical_formula_structural   HgH9C8I2NO2
_chemical_formula_sum   'Hg4 H36 C32 I8 N4 O8'
_cell_volume   1281.19746012
_cell_formula_units_Z   4
loop_
 _symmetry_equiv_pos_site_id
 _symmetry_equiv_pos_as_xyz
  1  'x, y, z'
loop_
 _atom_site_type_symbol
 _atom_site_label
 _atom_site_symmetry_multiplicity
 _atom_site_fract_x
 _atom_site_fract_y
 _atom_site_fract_z
 _atom_site_occupancy
  Hg  Hg0  1  0.82562000  0.94746000  0.91016000  1.0
  Hg  Hg1  1  0.67436000  0.55254000  0.41016000  1.0
  Hg  Hg2  1  0.17439000  0.05255000  0.08985000  1.0
  Hg  Hg3  1  0.32564000  0.44745000  0.58984000  1.0
  H  H4  1  0.50690000  0.88961000  0.78837000  1.0
  H  H5  1  0.99299000  0.61038000  0.28837000  1.0
  H  H6  1  0.49304000  0.11040000  0.21163000  1.0
  H  H7  1  0.00701000  0.38960000  0.71163000  1.0
  H  H8  1  0.35611000  0.73643000  0.72446000  1.0
  H  H9  1  0.14387000  0.76355000  0.22446000  1.0
  H  H10  1  0.64385000  0.26357000  0.27554000  1.0
  H  H11  1  0.85613000  0.23644000  0.77554000  1.0
  H  H12  1  0.50629000  0.54638000  0.74900000  1.0
  H  H13  1  0.99374000  0.95360000  0.24899000  1.0
  H  H14  1  0.49372000  0.45363000  0.25101000  1.0
  H  H15  1  0.00622000  0.04638000  0.75100000  1.0
  H  H16  1  0.95245000  0.68513000  0.89396000  1.0
  H  H17  1  0.54758000  0.81488000  0.39397000  1.0
  H  H18  1  0.04757000  0.31490000  0.10604000  1.0
  H  H19  1  0.45242000  0.18509000  0.60603000  1.0
  H  H20  1  0.26267000  0.35201000  0.86467000  1.0
  H  H21  1  0.23735000  0.14799000  0.36467000  1.0
  H  H22  1  0.73736000  0.64801000  0.13533000  1.0
  H  H23  1  0.76266000  0.85200000  0.63533000  1.0
  H  H24  1  0.91174000  0.32335000  0.90223000  1.0
  H  H25  1  0.58828000  0.17665000  0.40223000  1.0
  H  H26  1  0.08829000  0.67666000  0.09776000  1.0
  H  H27  1  0.41173000  0.82334000  0.59776000  1.0
  H  H28  1  0.49525000  0.45616000  0.94661000  1.0
  H  H29  1  0.00475000  0.04384000  0.44661000  1.0
  H  H30  1  0.50476000  0.54385000  0.05339000  1.0
  H  H31  1  0.99525000  0.95615000  0.55339000  1.0
  H  H32  1  0.38673000  0.31737000  0.96294000  1.0
  H  H33  1  0.11327000  0.18263000  0.46294000  1.0
  H  H34  1  0.61326000  0.68263000  0.03706000  1.0
  H  H35  1  0.88674000  0.81737000  0.53706000  1.0
  H  H36  1  0.14614000  0.42169000  0.98437000  1.0
  H  H37  1  0.35387000  0.07831000  0.48437000  1.0
  H  H38  1  0.85385000  0.57831000  0.01563000  1.0
  H  H39  1  0.64615000  0.92168000  0.51563000  1.0
  C  C40  1  0.57225000  0.80664000  0.79690000  1.0
  C  C41  1  0.92769000  0.69335000  0.29690000  1.0
  C  C42  1  0.42772000  0.19337000  0.20310000  1.0
  C  C43  1  0.07230000  0.30663000  0.70310000  1.0
  C  C44  1  0.48628000  0.72062000  0.76160000  1.0
  C  C45  1  0.01370000  0.77937000  0.26160000  1.0
  C  C46  1  0.51369000  0.27938000  0.23840000  1.0
  C  C47  1  0.98629000  0.22061000  0.73840000  1.0
  C  C48  1  0.57010000  0.61631000  0.77513000  1.0
  C  C49  1  0.92992000  0.88369000  0.27513000  1.0
  C  C50  1  0.42991000  0.38371000  0.22487000  1.0
  C  C51  1  0.07005000  0.11629000  0.72487000  1.0
  C  C52  1  0.74103000  0.60142000  0.82317000  1.0
  C  C53  1  0.75899000  0.89858000  0.32317000  1.0
  C  C54  1  0.25899000  0.39860000  0.17683000  1.0
  C  C55  1  0.24099000  0.10140000  0.67683000  1.0
  C  C56  1  0.81920000  0.69238000  0.85613000  1.0
  C  C57  1  0.68081000  0.80762000  0.35614000  1.0
  C  C58  1  0.18080000  0.30764000  0.14386000  1.0
  C  C59  1  0.31919000  0.19235000  0.64386000  1.0
  C  C60  1  0.83350000  0.48981000  0.83695000  1.0
  C  C61  1  0.66652000  0.01019000  0.33695000  1.0
  C  C62  1  0.16654000  0.51021000  0.16305000  1.0
  C  C63  1  0.33344000  0.98979000  0.66305000  1.0
  C  C64  1  0.11731000  0.38088000  0.89807000  1.0
  C  C65  1  0.38271000  0.11912000  0.39807000  1.0
  C  C66  1  0.88271000  0.61913000  0.10193000  1.0
  C  C67  1  0.61729000  0.88087000  0.60193000  1.0
  C  C68  1  0.29665000  0.39582000  0.95102000  1.0
  C  C69  1  0.20336000  0.10418000  0.45101000  1.0
  C  C70  1  0.70335000  0.60419000  0.04899000  1.0
  C  C71  1  0.79666000  0.89581000  0.54899000  1.0
  I  I72  1  0.47946000  0.09543000  0.86015000  1.0
  I  I73  1  0.02053000  0.40457000  0.36015000  1.0
  I  I74  1  0.52053000  0.90459000  0.13986000  1.0
  I  I75  1  0.97947000  0.59541000  0.63985000  1.0
  I  I76  1  0.21089000  0.84434000  0.97822000  1.0
  I  I77  1  0.28910000  0.65567000  0.47822000  1.0
  I  I78  1  0.78911000  0.15567000  0.02179000  1.0
  I  I79  1  0.71090000  0.34434000  0.52178000  1.0
  N  N80  1  0.73449000  0.79242000  0.84318000  1.0
  N  N81  1  0.76548000  0.70758000  0.34318000  1.0
  N  N82  1  0.26550000  0.20761000  0.15682000  1.0
  N  N83  1  0.23452000  0.29240000  0.65682000  1.0
  O  O84  1  0.01200000  0.48790000  0.88235000  1.0
  O  O85  1  0.48803000  0.01210000  0.38235000  1.0
  O  O86  1  0.98801000  0.51212000  0.11765000  1.0
  O  O87  1  0.51197000  0.98788000  0.61765000  1.0
  O  O88  1  0.75432000  0.40872000  0.80964000  1.0
  O  O89  1  0.74570000  0.09128000  0.30964000  1.0
  O  O90  1  0.24576000  0.59130000  0.19036000  1.0
  O  O91  1  0.25424000  0.90870000  0.69036000  1.0
