# generated using pymatgen
data_LaCuH8C14(NO4)2
_symmetry_space_group_name_H-M   'P 1'
_cell_length_a   9.33266000
_cell_length_b   9.69026000
_cell_length_c   21.65440000
_cell_angle_alpha   90.00000000
_cell_angle_beta   89.99980000
_cell_angle_gamma   114.87000000
_symmetry_Int_Tables_number   1
_chemical_formula_structural   LaCuH8C14(NO4)2
_chemical_formula_sum   'La4 Cu4 H32 C56 N8 O32'
_cell_volume   1776.72769461
_cell_formula_units_Z   4
loop_
 _symmetry_equiv_pos_site_id
 _symmetry_equiv_pos_as_xyz
  1  'x, y, z'
loop_
 _atom_site_type_symbol
 _atom_site_label
 _atom_site_symmetry_multiplicity
 _atom_site_fract_x
 _atom_site_fract_y
 _atom_site_fract_z
 _atom_site_occupancy
  La  La0  1  0.87997000  0.64203000  0.00924000  1.0
  La  La1  1  0.62003000  0.35797000  0.50924000  1.0
  La  La2  1  0.12003000  0.35797000  0.99076000  1.0
  La  La3  1  0.37997000  0.64203000  0.49076000  1.0
  Cu  Cu4  1  0.54670000  0.69393000  0.14337000  1.0
  Cu  Cu5  1  0.95330000  0.30607000  0.64337000  1.0
  Cu  Cu6  1  0.45329000  0.30607000  0.85663000  1.0
  Cu  Cu7  1  0.04670000  0.69393000  0.35663000  1.0
  H  H8  1  0.28443000  0.77384000  0.15831000  1.0
  H  H9  1  0.21558000  0.22616000  0.65831000  1.0
  H  H10  1  0.71557000  0.22616000  0.84169000  1.0
  H  H11  1  0.78443000  0.77384000  0.34169000  1.0
  H  H12  1  0.21911000  0.98763000  0.12552000  1.0
  H  H13  1  0.28089000  0.01237000  0.62552000  1.0
  H  H14  1  0.78089000  0.01237000  0.87448000  1.0
  H  H15  1  0.71911000  0.98763000  0.37448000  1.0
  H  H16  1  0.42564000  0.20910000  0.06935000  1.0
  H  H17  1  0.07435000  0.79090000  0.56935000  1.0
  H  H18  1  0.57435000  0.79090000  0.93065000  1.0
  H  H19  1  0.92564000  0.20910000  0.43065000  1.0
  H  H20  1  0.72397000  0.96889000  0.07365000  1.0
  H  H21  1  0.77603000  0.03112000  0.57365000  1.0
  H  H22  1  0.27603000  0.03112000  0.92635000  1.0
  H  H23  1  0.22397000  0.96889000  0.42635000  1.0
  H  H24  1  0.13065000  0.42932000  0.35561000  1.0
  H  H25  1  0.36934000  0.57067000  0.85561000  1.0
  H  H26  1  0.86935000  0.57068000  0.64439000  1.0
  H  H27  1  0.63065000  0.42932000  0.14439000  1.0
  H  H28  1  0.15648000  0.26160000  0.27293000  1.0
  H  H29  1  0.34353000  0.73840000  0.77293000  1.0
  H  H30  1  0.84353000  0.73840000  0.72707000  1.0
  H  H31  1  0.65647000  0.26160000  0.22707000  1.0
  H  H32  1  0.10662000  0.30929000  0.16170000  1.0
  H  H33  1  0.39338000  0.69071000  0.66170000  1.0
  H  H34  1  0.89338000  0.69071000  0.83830000  1.0
  H  H35  1  0.60662000  0.30928000  0.33830000  1.0
  H  H36  1  0.99647000  0.67236000  0.22748000  1.0
  H  H37  1  0.50353000  0.32763000  0.72747000  1.0
  H  H38  1  0.00353000  0.32763000  0.77253000  1.0
  H  H39  1  0.49647000  0.67236000  0.27253000  1.0
  C  C40  1  0.36867000  0.86960000  0.13230000  1.0
  C  C41  1  0.13133000  0.13040000  0.63230000  1.0
  C  C42  1  0.63133000  0.13040000  0.86771000  1.0
  C  C43  1  0.86867000  0.86960000  0.36770000  1.0
  C  C44  1  0.33427000  0.99022000  0.11490000  1.0
  C  C45  1  0.16573000  0.00978000  0.61490000  1.0
  C  C46  1  0.66573000  0.00978000  0.88510000  1.0
  C  C47  1  0.83428000  0.99022000  0.38510000  1.0
  C  C48  1  0.44805000  0.11180000  0.08302000  1.0
  C  C49  1  0.05194000  0.88820000  0.58303000  1.0
  C  C50  1  0.55194000  0.88820000  0.91698000  1.0
  C  C51  1  0.94806000  0.11181000  0.41698000  1.0
  C  C52  1  0.59137000  0.10628000  0.06784000  1.0
  C  C53  1  0.90863000  0.89373000  0.56785000  1.0
  C  C54  1  0.40863000  0.89372000  0.93216000  1.0
  C  C55  1  0.09137000  0.10628000  0.43216000  1.0
  C  C56  1  0.61528000  0.97886000  0.08539000  1.0
  C  C57  1  0.88472000  0.02114000  0.58539000  1.0
  C  C58  1  0.38472000  0.02114000  0.91461000  1.0
  C  C59  1  0.11528000  0.97886000  0.41461000  1.0
  C  C60  1  0.71958000  0.23643000  0.03438000  1.0
  C  C61  1  0.78042000  0.76357000  0.53438000  1.0
  C  C62  1  0.28042000  0.76357000  0.96562000  1.0
  C  C63  1  0.21958000  0.23643000  0.46562000  1.0
  C  C64  1  0.10726000  0.44486000  0.30742000  1.0
  C  C65  1  0.39274000  0.55514000  0.80742000  1.0
  C  C66  1  0.89274000  0.55514000  0.69258000  1.0
  C  C67  1  0.60726000  0.44485000  0.19258000  1.0
  C  C68  1  0.12192000  0.35248000  0.26078000  1.0
  C  C69  1  0.37808000  0.64752000  0.76078000  1.0
  C  C70  1  0.87808000  0.64752000  0.73922000  1.0
  C  C71  1  0.62192000  0.35248000  0.23922000  1.0
  C  C72  1  0.09375000  0.37797000  0.19943000  1.0
  C  C73  1  0.40625000  0.62203000  0.69943000  1.0
  C  C74  1  0.90625000  0.62203000  0.80057000  1.0
  C  C75  1  0.59375000  0.37797000  0.30057000  1.0
  C  C76  1  0.04616000  0.49432000  0.18736000  1.0
  C  C77  1  0.45384000  0.50568000  0.68736000  1.0
  C  C78  1  0.95384000  0.50568000  0.81264000  1.0
  C  C79  1  0.54616000  0.49431000  0.31264000  1.0
  C  C80  1  0.03345000  0.58166000  0.23647000  1.0
  C  C81  1  0.46655000  0.41833000  0.73648000  1.0
  C  C82  1  0.96655000  0.41834000  0.76352000  1.0
  C  C83  1  0.53345000  0.58166000  0.26352000  1.0
  C  C84  1  0.00542000  0.53150000  0.12446000  1.0
  C  C85  1  0.49458000  0.46849000  0.62447000  1.0
  C  C86  1  0.99458000  0.46850000  0.87553000  1.0
  C  C87  1  0.50543000  0.53151000  0.37554000  1.0
  C  C88  1  0.49422000  0.52233000  0.03379000  1.0
  C  C89  1  0.00577000  0.47767000  0.53379000  1.0
  C  C90  1  0.50578000  0.47767000  0.96621000  1.0
  C  C91  1  0.99422000  0.52234000  0.46621000  1.0
  C  C92  1  0.01138000  0.00766000  0.03580000  1.0
  C  C93  1  0.48862000  0.99234000  0.53580000  1.0
  C  C94  1  0.98862000  0.99234000  0.96420000  1.0
  C  C95  1  0.51138000  0.00766000  0.46420000  1.0
  N  N96  1  0.50715000  0.86268000  0.11817000  1.0
  N  N97  1  0.99286000  0.13733000  0.61817000  1.0
  N  N98  1  0.49285000  0.13733000  0.88183000  1.0
  N  N99  1  0.00715000  0.86268000  0.38183000  1.0
  N  N100  1  0.06531000  0.56016000  0.29551000  1.0
  N  N101  1  0.43469000  0.43983000  0.79551000  1.0
  N  N102  1  0.93470000  0.43984000  0.70449000  1.0
  N  N103  1  0.56530000  0.56016000  0.20449000  1.0
  O  O104  1  0.70896000  0.36292000  0.03532000  1.0
  O  O105  1  0.79105000  0.63708000  0.53532000  1.0
  O  O106  1  0.29105000  0.63708000  0.96468000  1.0
  O  O107  1  0.20896000  0.36292000  0.46468000  1.0
  O  O108  1  0.82849000  0.21086000  0.00883000  1.0
  O  O109  1  0.67151000  0.78914000  0.50883000  1.0
  O  O110  1  0.17150000  0.78914000  0.99117000  1.0
  O  O111  1  0.32849000  0.21086000  0.49117000  1.0
  O  O112  1  0.93200000  0.61557000  0.12205000  1.0
  O  O113  1  0.56799000  0.38442000  0.62205000  1.0
  O  O114  1  0.06800000  0.38442000  0.87794000  1.0
  O  O115  1  0.43201000  0.61558000  0.37795000  1.0
  O  O116  1  0.04564000  0.47941000  0.07668000  1.0
  O  O117  1  0.45436000  0.52059000  0.57668000  1.0
  O  O118  1  0.95436000  0.52059000  0.92332000  1.0
  O  O119  1  0.54564000  0.47941000  0.42332000  1.0
  O  O120  1  0.62107000  0.62095000  0.05771000  1.0
  O  O121  1  0.87893000  0.37905000  0.55771000  1.0
  O  O122  1  0.37893000  0.37904000  0.94229000  1.0
  O  O123  1  0.12107000  0.62096000  0.44229000  1.0
  O  O124  1  0.36316000  0.46115000  0.06098000  1.0
  O  O125  1  0.13684000  0.53886000  0.56098000  1.0
  O  O126  1  0.63684000  0.53885000  0.93902000  1.0
  O  O127  1  0.86317000  0.46115000  0.43902000  1.0
  O  O128  1  0.94739000  0.88711000  0.06714000  1.0
  O  O129  1  0.55261000  0.11289000  0.56714000  1.0
  O  O130  1  0.05261000  0.11289000  0.93286000  1.0
  O  O131  1  0.44739000  0.88710000  0.43285000  1.0
  O  O132  1  0.09250000  0.13985000  0.05719000  1.0
  O  O133  1  0.40749000  0.86015000  0.55719000  1.0
  O  O134  1  0.90750000  0.86015000  0.94281000  1.0
  O  O135  1  0.59250000  0.13985000  0.44281000  1.0
