# generated using pymatgen
data_ZnH10C12S(NO2)2
_symmetry_space_group_name_H-M   'P 1'
_cell_length_a   4.89968000
_cell_length_b   8.05278000
_cell_length_c   16.23510000
_cell_angle_alpha   88.80490000
_cell_angle_beta   85.95830000
_cell_angle_gamma   72.31440000
_symmetry_Int_Tables_number   1
_chemical_formula_structural   ZnH10C12S(NO2)2
_chemical_formula_sum   'Zn2 H20 C24 S2 N4 O8'
_cell_volume   608.78009220
_cell_formula_units_Z   2
loop_
 _symmetry_equiv_pos_site_id
 _symmetry_equiv_pos_as_xyz
  1  'x, y, z'
loop_
 _atom_site_type_symbol
 _atom_site_label
 _atom_site_symmetry_multiplicity
 _atom_site_fract_x
 _atom_site_fract_y
 _atom_site_fract_z
 _atom_site_occupancy
  Zn  Zn0  1  0.47234000  0.05525000  0.24975000  1.0
  Zn  Zn1  1  0.52766000  0.94475000  0.75025000  1.0
  H  H2  1  0.41308000  0.99709000  0.07284000  1.0
  H  H3  1  0.59039000  0.99677000  0.42667000  1.0
  H  H4  1  0.58692000  0.00291000  0.92716000  1.0
  H  H5  1  0.40961000  0.00322000  0.57332000  1.0
  H  H6  1  0.06201000  0.13813000  0.96780000  1.0
  H  H7  1  0.79897000  0.13810000  0.53193000  1.0
  H  H8  1  0.93798000  0.86187000  0.03220000  1.0
  H  H9  1  0.20104000  0.86190000  0.46807000  1.0
  H  H10  1  0.71054000  0.56607000  0.14027000  1.0
  H  H11  1  0.72205000  0.56657000  0.35999000  1.0
  H  H12  1  0.28946000  0.43393000  0.85973000  1.0
  H  H13  1  0.27794000  0.43344000  0.64001000  1.0
  H  H14  1  0.08134000  0.41770000  0.23274000  1.0
  H  H15  1  0.50006000  0.41833000  0.26740000  1.0
  H  H16  1  0.91866000  0.58230000  0.76726000  1.0
  H  H17  1  0.49994000  0.58167000  0.73260000  1.0
  H  H18  1  0.65197000  0.36885000  0.93009000  1.0
  H  H19  1  0.97833000  0.36940000  0.57000000  1.0
  H  H20  1  0.34803000  0.63115000  0.06991000  1.0
  H  H21  1  0.02168000  0.63060000  0.43000000  1.0
  C  C22  1  0.25586000  0.12466000  0.08383000  1.0
  C  C23  1  0.61951000  0.12450000  0.41581000  1.0
  C  C24  1  0.74413000  0.87534000  0.91617000  1.0
  C  C25  1  0.38050000  0.87549000  0.58419000  1.0
  C  C26  1  0.05743000  0.20178000  0.02684000  1.0
  C  C27  1  0.74013000  0.20184000  0.47294000  1.0
  C  C28  1  0.94257000  0.79822000  0.97316000  1.0
  C  C29  1  0.25987000  0.79816000  0.52706000  1.0
  C  C30  1  0.84441000  0.36053000  0.04655000  1.0
  C  C31  1  0.79458000  0.36065000  0.45341000  1.0
  C  C32  1  0.15560000  0.63947000  0.95345000  1.0
  C  C33  1  0.20542000  0.63935000  0.54659000  1.0
  C  C34  1  0.86139000  0.44087000  0.12137000  1.0
  C  C35  1  0.69723000  0.44105000  0.37866000  1.0
  C  C36  1  0.13861000  0.55913000  0.87863000  1.0
  C  C37  1  0.30277000  0.55895000  0.62134000  1.0
  C  C38  1  0.06968000  0.35730000  0.17415000  1.0
  C  C39  1  0.57278000  0.35738000  0.32577000  1.0
  C  C40  1  0.93033000  0.64270000  0.82585000  1.0
  C  C41  1  0.42722000  0.64262000  0.67424000  1.0
  C  C42  1  0.61937000  0.43255000  0.99043000  1.0
  C  C43  1  0.94768000  0.43270000  0.50960000  1.0
  C  C44  1  0.38064000  0.56745000  0.00957000  1.0
  C  C45  1  0.05232000  0.56730000  0.49040000  1.0
  S  S46  1  0.08979000  0.81975000  0.24974000  1.0
  S  S47  1  0.91021000  0.18025000  0.75026000  1.0
  N  N48  1  0.26066000  0.19917000  0.15726000  1.0
  N  N49  1  0.54063000  0.19900000  0.34238000  1.0
  N  N50  1  0.73933000  0.80083000  0.84274000  1.0
  N  N51  1  0.45937000  0.80100000  0.65762000  1.0
  O  O52  1  0.31928000  0.71645000  0.19226000  1.0
  O  O53  1  0.96397000  0.71655000  0.30735000  1.0
  O  O54  1  0.68072000  0.28355000  0.80774000  1.0
  O  O55  1  0.03603000  0.28346000  0.69265000  1.0
  O  O56  1  0.20552000  0.93744000  0.30091000  1.0
  O  O57  1  0.85642000  0.93680000  0.19847000  1.0
  O  O58  1  0.79448000  0.06256000  0.69909000  1.0
  O  O59  1  0.14357000  0.06320000  0.80153000  1.0
