# generated using pymatgen
data_SrH5C5O6
_symmetry_space_group_name_H-M   'P 1'
_cell_length_a   7.66974000
_cell_length_b   10.01384301
_cell_length_c   11.01720000
_cell_angle_alpha   82.27647568
_cell_angle_beta   89.99480000
_cell_angle_gamma   67.50291153
_symmetry_Int_Tables_number   1
_chemical_formula_structural   SrH5C5O6
_chemical_formula_sum   'Sr4 H20 C20 O24'
_cell_volume   773.45586544
_cell_formula_units_Z   4
loop_
 _symmetry_equiv_pos_site_id
 _symmetry_equiv_pos_as_xyz
  1  'x, y, z'
loop_
 _atom_site_type_symbol
 _atom_site_label
 _atom_site_symmetry_multiplicity
 _atom_site_fract_x
 _atom_site_fract_y
 _atom_site_fract_z
 _atom_site_occupancy
  Sr  Sr0  1  0.88216000  0.51367000  0.68353000  1.0
  Sr  Sr1  1  0.39581000  0.48627000  0.81649000  1.0
  Sr  Sr2  1  0.11782000  0.48634000  0.31647000  1.0
  Sr  Sr3  1  0.60419000  0.51373000  0.18351000  1.0
  H  H4  1  0.68264000  0.30187000  0.60335000  1.0
  H  H5  1  0.98477000  0.69816000  0.89672000  1.0
  H  H6  1  0.31736000  0.69814000  0.39664000  1.0
  H  H7  1  0.01523000  0.30184000  0.10328000  1.0
  H  H8  1  0.90652000  0.22620000  0.63225000  1.0
  H  H9  1  0.13319000  0.77365000  0.86786000  1.0
  H  H10  1  0.09348000  0.77380000  0.36775000  1.0
  H  H11  1  0.86682000  0.22635000  0.13214000  1.0
  H  H12  1  0.12023000  0.73328000  0.67484000  1.0
  H  H13  1  0.85337000  0.26655000  0.82519000  1.0
  H  H14  1  0.87977000  0.26672000  0.32515000  1.0
  H  H15  1  0.14663000  0.73345000  0.17481000  1.0
  H  H16  1  0.13665000  0.65087000  0.56318000  1.0
  H  H17  1  0.78727000  0.34910000  0.93675000  1.0
  H  H18  1  0.86335000  0.34913000  0.43682000  1.0
  H  H19  1  0.21273000  0.65090000  0.06325000  1.0
  H  H20  1  0.33907000  0.93976000  0.83397000  1.0
  H  H21  1  0.27904000  0.06005000  0.66610000  1.0
  H  H22  1  0.66093000  0.06024000  0.16603000  1.0
  H  H23  1  0.72097000  0.93995000  0.33390000  1.0
  C  C24  1  0.18265000  0.22084000  0.85254000  1.0
  C  C25  1  0.40384000  0.77895000  0.64756000  1.0
  C  C26  1  0.81735000  0.77915000  0.14747000  1.0
  C  C27  1  0.59616000  0.22105000  0.35244000  1.0
  C  C28  1  0.34167000  0.10843000  0.93389000  1.0
  C  C29  1  0.45021000  0.89150000  0.56612000  1.0
  C  C30  1  0.65833000  0.89157000  0.06610000  1.0
  C  C31  1  0.54979000  0.10851000  0.43388000  1.0
  C  C32  1  0.42884000  0.14402000  0.02998000  1.0
  C  C33  1  0.57287000  0.85600000  0.46999000  1.0
  C  C34  1  0.57115000  0.85599000  0.97002000  1.0
  C  C35  1  0.42713000  0.14400000  0.53002000  1.0
  C  C36  1  0.41176000  0.96515000  0.90691000  1.0
  C  C37  1  0.37702000  0.03475000  0.59316000  1.0
  C  C38  1  0.58824000  0.03486000  0.09308000  1.0
  C  C39  1  0.62298000  0.96525000  0.40684000  1.0
  C  C40  1  0.35641000  0.29130000  0.07453000  1.0
  C  C41  1  0.64798000  0.70867000  0.42552000  1.0
  C  C42  1  0.64360000  0.70869000  0.92546000  1.0
  C  C43  1  0.35201000  0.29133000  0.57449000  1.0
  O  O44  1  0.16185000  0.35510000  0.84550000  1.0
  O  O45  1  0.51733000  0.64477000  0.65451000  1.0
  O  O46  1  0.83814000  0.64490000  0.15450000  1.0
  O  O47  1  0.48266000  0.35523000  0.34549000  1.0
  O  O48  1  0.07863000  0.17723000  0.79166000  1.0
  O  O49  1  0.25638000  0.82245000  0.70859000  1.0
  O  O50  1  0.92137000  0.82277000  0.20834000  1.0
  O  O51  1  0.74360000  0.17756000  0.29140000  1.0
  O  O52  1  0.44929000  0.37207000  0.04932000  1.0
  O  O53  1  0.82167000  0.62817000  0.45068000  1.0
  O  O54  1  0.55071000  0.62792000  0.95068000  1.0
  O  O55  1  0.17834000  0.37183000  0.54933000  1.0
  O  O56  1  0.21461000  0.32129000  0.14140000  1.0
  O  O57  1  0.53629000  0.67846000  0.35870000  1.0
  O  O58  1  0.78540000  0.67870000  0.85860000  1.0
  O  O59  1  0.46370000  0.32155000  0.64130000  1.0
  O  O60  1  0.80644000  0.31112000  0.58562000  1.0
  O  O61  1  0.11791000  0.68873000  0.91450000  1.0
  O  O62  1  0.19356000  0.68888000  0.41438000  1.0
  O  O63  1  0.88210000  0.31127000  0.08550000  1.0
  O  O64  1  0.10018000  0.64804000  0.65011000  1.0
  O  O65  1  0.74801000  0.35179000  0.84984000  1.0
  O  O66  1  0.89982000  0.35196000  0.34989000  1.0
  O  O67  1  0.25198000  0.64822000  0.15016000  1.0
