# generated using pymatgen
data_H8AuC11S2N3
_symmetry_space_group_name_H-M   'P 1'
_cell_length_a   9.83503000
_cell_length_b   10.51720000
_cell_length_c   12.67190000
_cell_angle_alpha   79.88190000
_cell_angle_beta   78.76330000
_cell_angle_gamma   73.08910000
_symmetry_Int_Tables_number   1
_chemical_formula_structural   H8AuC11S2N3
_chemical_formula_sum   'H32 Au4 C44 S8 N12'
_cell_volume   1220.09546023
_cell_formula_units_Z   4
loop_
 _symmetry_equiv_pos_site_id
 _symmetry_equiv_pos_as_xyz
  1  'x, y, z'
loop_
 _atom_site_type_symbol
 _atom_site_label
 _atom_site_symmetry_multiplicity
 _atom_site_fract_x
 _atom_site_fract_y
 _atom_site_fract_z
 _atom_site_occupancy
  H  H0  1  0.63865000  0.97172000  0.51440000  1.0
  H  H1  1  0.36134000  0.02829000  0.48560000  1.0
  H  H2  1  0.85930000  0.03389000  0.53340000  1.0
  H  H3  1  0.14069000  0.96612000  0.46660000  1.0
  H  H4  1  0.96643000  0.94751000  0.70653000  1.0
  H  H5  1  0.03357000  0.05249000  0.29347000  1.0
  H  H6  1  0.84019000  0.81215000  0.85474000  1.0
  H  H7  1  0.15982000  0.18785000  0.14525000  1.0
  H  H8  1  0.17283000  0.21738000  0.68651000  1.0
  H  H9  1  0.82716000  0.78262000  0.31349000  1.0
  H  H10  1  0.04092000  0.15074000  0.86910000  1.0
  H  H11  1  0.95908000  0.84926000  0.13090000  1.0
  H  H12  1  0.13024000  0.91324000  0.96047000  1.0
  H  H13  1  0.86975000  0.08676000  0.03953000  1.0
  H  H14  1  0.59967000  0.57186000  0.87344000  1.0
  H  H15  1  0.40033000  0.42813000  0.12657000  1.0
  H  H16  1  0.58575000  0.66760000  0.04482000  1.0
  H  H17  1  0.41425000  0.33238000  0.95519000  1.0
  H  H18  1  0.77175000  0.55161000  0.16723000  1.0
  H  H19  1  0.22826000  0.44837000  0.83278000  1.0
  H  H20  1  0.96171000  0.34971000  0.11180000  1.0
  H  H21  1  0.03831000  0.65028000  0.88820000  1.0
  H  H22  1  0.59248000  0.39315000  0.67981000  1.0
  H  H23  1  0.40752000  0.60685000  0.32019000  1.0
  H  H24  1  0.42556000  0.24912000  0.69691000  1.0
  H  H25  1  0.57444000  0.75088000  0.30309000  1.0
  H  H26  1  0.43763000  0.05626000  0.84830000  1.0
  H  H27  1  0.56238000  0.94374000  0.15170000  1.0
  H  H28  1  0.61944000  0.01606000  0.97225000  1.0
  H  H29  1  0.38057000  0.98394000  0.02775000  1.0
  H  H30  1  0.34524000  0.75923000  0.86654000  1.0
  H  H31  1  0.65476000  0.24077000  0.13346000  1.0
  Au  Au32  1  0.35141000  0.52102000  0.53608000  1.0
  Au  Au33  1  0.64859000  0.47898000  0.46392000  1.0
  Au  Au34  1  0.03431000  0.59562000  0.55001000  1.0
  Au  Au35  1  0.96568000  0.40439000  0.44999000  1.0
  C  C36  1  0.30199000  0.86099000  0.82928000  1.0
  C  C37  1  0.69800000  0.13901000  0.17072000  1.0
  C  C38  1  0.62735000  0.86140000  0.67599000  1.0
  C  C39  1  0.37265000  0.13860000  0.32401000  1.0
  C  C40  1  0.68632000  0.93981000  0.58867000  1.0
  C  C41  1  0.31368000  0.06020000  0.41133000  1.0
  C  C42  1  0.81068000  0.97160000  0.59921000  1.0
  C  C43  1  0.18932000  0.02841000  0.40078000  1.0
  C  C44  1  0.86963000  0.92438000  0.69504000  1.0
  C  C45  1  0.13037000  0.07563000  0.30496000  1.0
  C  C46  1  0.79968000  0.84862000  0.77752000  1.0
  C  C47  1  0.20032000  0.15138000  0.22248000  1.0
  C  C48  1  0.36655000  0.90938000  0.72828000  1.0
  C  C49  1  0.63345000  0.09063000  0.27172000  1.0
  C  C50  1  0.20641000  0.11646000  0.72909000  1.0
  C  C51  1  0.79359000  0.88354000  0.27091000  1.0
  C  C52  1  0.13248000  0.07856000  0.83016000  1.0
  C  C53  1  0.86752000  0.92145000  0.16984000  1.0
  C  C54  1  0.18116000  0.94802000  0.88066000  1.0
  C  C55  1  0.81884000  0.05198000  0.11934000  1.0
  C  C56  1  0.49281000  0.73109000  0.61473000  1.0
  C  C57  1  0.50719000  0.26891000  0.38527000  1.0
  C  C58  1  0.78596000  0.41055000  0.90763000  1.0
  C  C59  1  0.21404000  0.58944000  0.09238000  1.0
  C  C60  1  0.67516000  0.52445000  0.93021000  1.0
  C  C61  1  0.32483000  0.47554000  0.06979000  1.0
  C  C62  1  0.66894000  0.57736000  0.02496000  1.0
  C  C63  1  0.33107000  0.42263000  0.97505000  1.0
  C  C64  1  0.77214000  0.51403000  0.09229000  1.0
  C  C65  1  0.22786000  0.48596000  0.90772000  1.0
  C  C66  1  0.87866000  0.40065000  0.06129000  1.0
  C  C67  1  0.12135000  0.59934000  0.93871000  1.0
  C  C68  1  0.69525000  0.27413000  0.81529000  1.0
  C  C69  1  0.30475000  0.72587000  0.18471000  1.0
  C  C70  1  0.59576000  0.30778000  0.74292000  1.0
  C  C71  1  0.40424000  0.69222000  0.25708000  1.0
  C  C72  1  0.50230000  0.22786000  0.75343000  1.0
  C  C73  1  0.49770000  0.77213000  0.24657000  1.0
  C  C74  1  0.50883000  0.12123000  0.83708000  1.0
  C  C75  1  0.49117000  0.87876000  0.16291000  1.0
  C  C76  1  0.60995000  0.09865000  0.90617000  1.0
  C  C77  1  0.39005000  0.90135000  0.09383000  1.0
  C  C78  1  0.88090000  0.38490000  0.71703000  1.0
  C  C79  1  0.11910000  0.61510000  0.28297000  1.0
  S  S80  1  0.65622000  0.65669000  0.54432000  1.0
  S  S81  1  0.34378000  0.34331000  0.45568000  1.0
  S  S82  1  0.32681000  0.70376000  0.62236000  1.0
  S  S83  1  0.67319000  0.29625000  0.37764000  1.0
  S  S84  1  0.96262000  0.50638000  0.72360000  1.0
  S  S85  1  0.03738000  0.49362000  0.27640000  1.0
  S  S86  1  0.90491000  0.28790000  0.61586000  1.0
  S  S87  1  0.09509000  0.71210000  0.38415000  1.0
  N  N88  1  0.67949000  0.81739000  0.76907000  1.0
  N  N89  1  0.32052000  0.18261000  0.23093000  1.0
  N  N90  1  0.49564000  0.82788000  0.67207000  1.0
  N  N91  1  0.50436000  0.17212000  0.32793000  1.0
  N  N92  1  0.88649000  0.34842000  0.97014000  1.0
  N  N93  1  0.11351000  0.65157000  0.02985000  1.0
  N  N94  1  0.79305000  0.35406000  0.80976000  1.0
  N  N95  1  0.20695000  0.64594000  0.19024000  1.0
  N  N96  1  0.70278000  0.17333000  0.89574000  1.0
  N  N97  1  0.29722000  0.82667000  0.10426000  1.0
  N  N98  1  0.32171000  0.03334000  0.67831000  1.0
  N  N99  1  0.67829000  0.96666000  0.32169000  1.0
