# generated using pymatgen
data_CoH8C12(NO2)2
_symmetry_space_group_name_H-M   'P 1'
_cell_length_a   9.80667000
_cell_length_b   9.86434000
_cell_length_c   13.24610000
_cell_angle_alpha   89.99960000
_cell_angle_beta   89.99900000
_cell_angle_gamma   76.47800000
_symmetry_Int_Tables_number   1
_chemical_formula_structural   CoH8C12(NO2)2
_chemical_formula_sum   'Co4 H32 C48 N8 O16'
_cell_volume   1245.85950703
_cell_formula_units_Z   4
loop_
 _symmetry_equiv_pos_site_id
 _symmetry_equiv_pos_as_xyz
  1  'x, y, z'
loop_
 _atom_site_type_symbol
 _atom_site_label
 _atom_site_symmetry_multiplicity
 _atom_site_fract_x
 _atom_site_fract_y
 _atom_site_fract_z
 _atom_site_occupancy
  Co  Co0  1  0.00000000  0.00000000  0.50000000  1.0
  Co  Co1  1  0.50000000  0.50000000  0.00000000  1.0
  Co  Co2  1  0.00000000  0.50000000  0.00000000  1.0
  Co  Co3  1  0.50000000  0.99999000  0.50000000  1.0
  H  H4  1  0.85565000  0.80007000  0.94312000  1.0
  H  H5  1  0.64435000  0.69994000  0.44313000  1.0
  H  H6  1  0.14436000  0.19995000  0.05688000  1.0
  H  H7  1  0.35566000  0.30005000  0.55688000  1.0
  H  H8  1  0.77012000  0.94111000  0.78930000  1.0
  H  H9  1  0.72988000  0.55890000  0.28931000  1.0
  H  H10  1  0.22988000  0.05889000  0.21070000  1.0
  H  H11  1  0.27013000  0.44111000  0.71069000  1.0
  H  H12  1  0.94138000  0.57345000  0.61153000  1.0
  H  H13  1  0.55861000  0.92657000  0.11153000  1.0
  H  H14  1  0.05863000  0.42656000  0.38848000  1.0
  H  H15  1  0.44138000  0.07343000  0.88847000  1.0
  H  H16  1  0.01192000  0.44644000  0.77347000  1.0
  H  H17  1  0.48808000  0.05356000  0.27348000  1.0
  H  H18  1  0.98808000  0.55356000  0.22653000  1.0
  H  H19  1  0.51192000  0.94643000  0.72653000  1.0
  H  H20  1  0.72432000  0.14149000  0.59310000  1.0
  H  H21  1  0.77568000  0.35851000  0.09309000  1.0
  H  H22  1  0.27567000  0.85852000  0.40690000  1.0
  H  H23  1  0.22433000  0.64149000  0.90690000  1.0
  H  H24  1  0.63391000  0.27462000  0.74974000  1.0
  H  H25  1  0.86609000  0.22538000  0.24974000  1.0
  H  H26  1  0.36608000  0.72539000  0.25026000  1.0
  H  H27  1  0.13392000  0.77460000  0.75026000  1.0
  H  H28  1  0.06072000  0.20594000  0.85274000  1.0
  H  H29  1  0.43928000  0.29405000  0.35274000  1.0
  H  H30  1  0.93928000  0.79408000  0.14725000  1.0
  H  H31  1  0.56072000  0.70592000  0.64724000  1.0
  H  H32  1  0.13564000  0.07655000  0.69103000  1.0
  H  H33  1  0.36435000  0.42345000  0.19104000  1.0
  H  H34  1  0.86435000  0.92346000  0.30896000  1.0
  H  H35  1  0.63566000  0.57655000  0.80896000  1.0
  C  C36  1  0.87066000  0.75357000  0.86806000  1.0
  C  C37  1  0.62934000  0.74644000  0.36806000  1.0
  C  C38  1  0.12934000  0.24644000  0.13195000  1.0
  C  C39  1  0.37067000  0.25355000  0.63195000  1.0
  C  C40  1  0.82404000  0.83167000  0.78195000  1.0
  C  C41  1  0.67596000  0.66834000  0.28195000  1.0
  C  C42  1  0.17596000  0.16834000  0.21805000  1.0
  C  C43  1  0.32405000  0.33166000  0.71805000  1.0
  C  C44  1  0.84767000  0.76808000  0.68683000  1.0
  C  C45  1  0.65233000  0.73193000  0.18683000  1.0
  C  C46  1  0.15233000  0.23192000  0.31317000  1.0
  C  C47  1  0.34768000  0.26807000  0.81317000  1.0
  C  C48  1  0.91852000  0.62754000  0.68353000  1.0
  C  C49  1  0.58148000  0.87247000  0.18354000  1.0
  C  C50  1  0.08149000  0.37246000  0.31647000  1.0
  C  C51  1  0.41852000  0.12753000  0.81647000  1.0
  C  C52  1  0.95822000  0.55623000  0.77339000  1.0
  C  C53  1  0.54177000  0.94378000  0.27340000  1.0
  C  C54  1  0.04178000  0.44378000  0.22661000  1.0
  C  C55  1  0.45823000  0.05622000  0.72661000  1.0
  C  C56  1  0.79158000  0.84342000  0.59081000  1.0
  C  C57  1  0.70842000  0.65658000  0.09081000  1.0
  C  C58  1  0.20842000  0.15657000  0.40919000  1.0
  C  C59  1  0.29158000  0.34342000  0.90919000  1.0
  C  C60  1  0.79577000  0.15771000  0.65237000  1.0
  C  C61  1  0.70422000  0.34229000  0.15237000  1.0
  C  C62  1  0.20421000  0.84230000  0.34763000  1.0
  C  C63  1  0.29578000  0.65770000  0.84763000  1.0
  C  C64  1  0.74571000  0.23096000  0.73947000  1.0
  C  C65  1  0.75429000  0.26905000  0.23947000  1.0
  C  C66  1  0.25429000  0.76906000  0.26053000  1.0
  C  C67  1  0.24571000  0.73094000  0.76052000  1.0
  C  C68  1  0.84092000  0.24935000  0.81370000  1.0
  C  C69  1  0.65908000  0.25065000  0.31370000  1.0
  C  C70  1  0.15907000  0.75066000  0.18629000  1.0
  C  C71  1  0.34092000  0.74933000  0.68629000  1.0
  C  C72  1  0.98366000  0.19107000  0.79726000  1.0
  C  C73  1  0.51633000  0.30892000  0.29726000  1.0
  C  C74  1  0.01633000  0.80894000  0.20273000  1.0
  C  C75  1  0.48367000  0.69105000  0.70272000  1.0
  C  C76  1  0.02540000  0.12049000  0.70760000  1.0
  C  C77  1  0.47460000  0.37951000  0.20761000  1.0
  C  C78  1  0.97459000  0.87953000  0.29239000  1.0
  C  C79  1  0.52541000  0.62048000  0.79239000  1.0
  C  C80  1  0.79088000  0.33359000  0.90655000  1.0
  C  C81  1  0.70911000  0.16642000  0.40654000  1.0
  C  C82  1  0.20911000  0.66642000  0.09346000  1.0
  C  C83  1  0.29088000  0.83357000  0.59345000  1.0
  N  N84  1  0.93516000  0.61709000  0.86498000  1.0
  N  N85  1  0.56484000  0.88291000  0.36499000  1.0
  N  N86  1  0.06484000  0.38291000  0.13502000  1.0
  N  N87  1  0.43516000  0.11708000  0.63502000  1.0
  N  N88  1  0.93352000  0.10361000  0.63564000  1.0
  N  N89  1  0.56648000  0.39639000  0.13564000  1.0
  N  N90  1  0.06647000  0.89639000  0.36436000  1.0
  N  N91  1  0.43353000  0.60361000  0.86435000  1.0
  O  O92  1  0.65850000  0.87861000  0.58689000  1.0
  O  O93  1  0.84149000  0.62139000  0.08689000  1.0
  O  O94  1  0.34150000  0.12140000  0.41312000  1.0
  O  O95  1  0.15851000  0.37861000  0.91312000  1.0
  O  O96  1  0.87586000  0.85983000  0.52221000  1.0
  O  O97  1  0.62414000  0.64017000  0.02221000  1.0
  O  O98  1  0.12415000  0.14016000  0.47779000  1.0
  O  O99  1  0.37586000  0.35983000  0.97780000  1.0
  O  O100  1  0.65942000  0.36749000  0.92057000  1.0
  O  O101  1  0.84058000  0.13252000  0.42057000  1.0
  O  O102  1  0.34058000  0.63251000  0.07943000  1.0
  O  O103  1  0.15942000  0.86747000  0.57943000  1.0
  O  O104  1  0.88446000  0.36209000  0.96439000  1.0
  O  O105  1  0.61554000  0.13790000  0.46438000  1.0
  O  O106  1  0.11554000  0.63791000  0.03562000  1.0
  O  O107  1  0.38446000  0.86208000  0.53561000  1.0
