# generated using pymatgen
data_Ca2CuH6(CO2)6
_symmetry_space_group_name_H-M   'P 1'
_cell_length_a   6.37097000
_cell_length_b   8.74043000
_cell_length_c   12.11838728
_cell_angle_alpha   68.86982958
_cell_angle_beta   79.86730875
_cell_angle_gamma   89.99090000
_symmetry_Int_Tables_number   1
_chemical_formula_structural   Ca2CuH6(CO2)6
_chemical_formula_sum   'Ca4 Cu2 H12 C12 O24'
_cell_volume   618.15107059
_cell_formula_units_Z   2
loop_
 _symmetry_equiv_pos_site_id
 _symmetry_equiv_pos_as_xyz
  1  'x, y, z'
loop_
 _atom_site_type_symbol
 _atom_site_label
 _atom_site_symmetry_multiplicity
 _atom_site_fract_x
 _atom_site_fract_y
 _atom_site_fract_z
 _atom_site_occupancy
  Ca  Ca0  1  0.43305000  0.79136000  0.68420000  1.0
  Ca  Ca1  1  0.06683000  0.47564000  0.31581000  1.0
  Ca  Ca2  1  0.56696000  0.20864000  0.31580000  1.0
  Ca  Ca3  1  0.93318000  0.52436000  0.68419000  1.0
  Cu  Cu4  1  0.24997000  0.90721000  0.00008000  1.0
  Cu  Cu5  1  0.75003000  0.09279000  0.99992000  1.0
  H  H6  1  0.11745000  0.89964000  0.24013000  1.0
  H  H7  1  0.38279000  0.13978000  0.75999000  1.0
  H  H8  1  0.88255000  0.10036000  0.75987000  1.0
  H  H9  1  0.61721000  0.86022000  0.24001000  1.0
  H  H10  1  0.93045000  0.67933000  0.96876000  1.0
  H  H11  1  0.56958000  0.64821000  0.03163000  1.0
  H  H12  1  0.06955000  0.32066000  0.03125000  1.0
  H  H13  1  0.43041000  0.35179000  0.96837000  1.0
  H  H14  1  0.01569000  0.88190000  0.43471000  1.0
  H  H15  1  0.48419000  0.31643000  0.56551000  1.0
  H  H16  1  0.98431000  0.11809000  0.56529000  1.0
  H  H17  1  0.51581000  0.68356000  0.43450000  1.0
  C  C18  1  0.26058000  0.98650000  0.20682000  1.0
  C  C19  1  0.23939000  0.19316000  0.79327000  1.0
  C  C20  1  0.73942000  0.01351000  0.79318000  1.0
  C  C21  1  0.76061000  0.80684000  0.20673000  1.0
  C  C22  1  0.06219000  0.70671000  0.89014000  1.0
  C  C23  1  0.43781000  0.59698000  0.11023000  1.0
  C  C24  1  0.93781000  0.29329000  0.10986000  1.0
  C  C25  1  0.56218000  0.40302000  0.88977000  1.0
  C  C26  1  0.84226000  0.87406000  0.47105000  1.0
  C  C27  1  0.65758000  0.34509000  0.52909000  1.0
  C  C28  1  0.15774000  0.12594000  0.52895000  1.0
  C  C29  1  0.34241000  0.65491000  0.47091000  1.0
  O  O30  1  0.32296000  0.04378000  0.27703000  1.0
  O  O31  1  0.17699000  0.32061000  0.72307000  1.0
  O  O32  1  0.67705000  0.95623000  0.72296000  1.0
  O  O33  1  0.82300000  0.67938000  0.27693000  1.0
  O  O34  1  0.35352000  0.02082000  0.09643000  1.0
  O  O35  1  0.14623000  0.11695000  0.90357000  1.0
  O  O36  1  0.64649000  0.97919000  0.90356000  1.0
  O  O37  1  0.85377000  0.88305000  0.09642000  1.0
  O  O38  1  0.21699000  0.80784000  0.87965000  1.0
  O  O39  1  0.28306000  0.68771000  0.12073000  1.0
  O  O40  1  0.78301000  0.19216000  0.12035000  1.0
  O  O41  1  0.71693000  0.31229000  0.87927000  1.0
  O  O42  1  0.06013000  0.63999000  0.81412000  1.0
  O  O43  1  0.43975000  0.45423000  0.18618000  1.0
  O  O44  1  0.93987000  0.35999000  0.18589000  1.0
  O  O45  1  0.56025000  0.54577000  0.81382000  1.0
  O  O46  1  0.77061000  0.75721000  0.57110000  1.0
  O  O47  1  0.72913000  0.32860000  0.42889000  1.0
  O  O48  1  0.22939000  0.24279000  0.42890000  1.0
  O  O49  1  0.27087000  0.67140000  0.57112000  1.0
  O  O50  1  0.72893000  0.97983000  0.41285000  1.0
  O  O51  1  0.77099000  0.39253000  0.58731000  1.0
  O  O52  1  0.27107000  0.02018000  0.58715000  1.0
  O  O53  1  0.22901000  0.60747000  0.41269000  1.0
