# generated using pymatgen
data_Zn3H20C28(N3O5)2
_symmetry_space_group_name_H-M   'P 1'
_cell_length_a   10.10210000
_cell_length_b   12.18130000
_cell_length_c   12.21710000
_cell_angle_alpha   89.99990000
_cell_angle_beta   74.83000000
_cell_angle_gamma   89.99960000
_symmetry_Int_Tables_number   1
_chemical_formula_structural   Zn3H20C28(N3O5)2
_chemical_formula_sum   'Zn6 H40 C56 N12 O20'
_cell_volume   1451.00826367
_cell_formula_units_Z   2
loop_
 _symmetry_equiv_pos_site_id
 _symmetry_equiv_pos_as_xyz
  1  'x, y, z'
loop_
 _atom_site_type_symbol
 _atom_site_label
 _atom_site_symmetry_multiplicity
 _atom_site_fract_x
 _atom_site_fract_y
 _atom_site_fract_z
 _atom_site_occupancy
  Zn  Zn0  1  0.50000000  0.50000000  0.50000000  1.0
  Zn  Zn1  1  0.00000000  0.00000000  0.50000000  1.0
  Zn  Zn2  1  0.51309000  0.13206000  0.30122000  1.0
  Zn  Zn3  1  0.98691000  0.63206000  0.69878000  1.0
  Zn  Zn4  1  0.48691000  0.86794000  0.69878000  1.0
  Zn  Zn5  1  0.01309000  0.36794000  0.30122000  1.0
  H  H6  1  0.13217000  0.07295000  0.92507000  1.0
  H  H7  1  0.36783000  0.57295000  0.07494000  1.0
  H  H8  1  0.86783000  0.92705000  0.07493000  1.0
  H  H9  1  0.63217000  0.42705000  0.92507000  1.0
  H  H10  1  0.53823000  0.47926000  0.23868000  1.0
  H  H11  1  0.96177000  0.97926000  0.76133000  1.0
  H  H12  1  0.46177000  0.52074000  0.76132000  1.0
  H  H13  1  0.03823000  0.02074000  0.23867000  1.0
  H  H14  1  0.57704000  0.61368000  0.07713000  1.0
  H  H15  1  0.92296000  0.11368000  0.92287000  1.0
  H  H16  1  0.42296000  0.38632000  0.92287000  1.0
  H  H17  1  0.07704000  0.88632000  0.07713000  1.0
  H  H18  1  0.31688000  0.95531000  0.95453000  1.0
  H  H19  1  0.18312000  0.45531000  0.04547000  1.0
  H  H20  1  0.68312000  0.04469000  0.04547000  1.0
  H  H21  1  0.81688000  0.54469000  0.95453000  1.0
  H  H22  1  0.05259000  0.23816000  0.04634000  1.0
  H  H23  1  0.44741000  0.73816000  0.95365000  1.0
  H  H24  1  0.94741000  0.76184000  0.95366000  1.0
  H  H25  1  0.55259000  0.26185000  0.04634000  1.0
  H  H26  1  0.43606000  0.99922000  0.10538000  1.0
  H  H27  1  0.06395000  0.49922000  0.89462000  1.0
  H  H28  1  0.56394000  0.00078000  0.89462000  1.0
  H  H29  1  0.93605000  0.50078000  0.10538000  1.0
  H  H30  1  0.58781000  0.81402000  0.11850000  1.0
  H  H31  1  0.91219000  0.31402000  0.88150000  1.0
  H  H32  1  0.41219000  0.18598000  0.88150000  1.0
  H  H33  1  0.08781000  0.68598000  0.11850000  1.0
  H  H34  1  0.29873000  0.33517000  0.34327000  1.0
  H  H35  1  0.20127000  0.83517000  0.65673000  1.0
  H  H36  1  0.70127000  0.66483000  0.65673000  1.0
  H  H37  1  0.79873000  0.16483000  0.34327000  1.0
  H  H38  1  0.23890000  0.52519000  0.45273000  1.0
  H  H39  1  0.26110000  0.02519000  0.54727000  1.0
  H  H40  1  0.76110000  0.47481000  0.54727000  1.0
  H  H41  1  0.73890000  0.97481000  0.45273000  1.0
  H  H42  1  0.19765000  0.48052000  0.57903000  1.0
  H  H43  1  0.30235000  0.98052000  0.42097000  1.0
  H  H44  1  0.80235000  0.51948000  0.42097000  1.0
  H  H45  1  0.69765000  0.01948000  0.57903000  1.0
  C  C46  1  0.53382000  0.70842000  0.38325000  1.0
  C  C47  1  0.96618000  0.20842000  0.61675000  1.0
  C  C48  1  0.46618000  0.29158000  0.61675000  1.0
  C  C49  1  0.03382000  0.79158000  0.38325000  1.0
  C  C50  1  0.17971000  0.09418000  0.99257000  1.0
  C  C51  1  0.32029000  0.59418000  0.00743000  1.0
  C  C52  1  0.82029000  0.90582000  0.00743000  1.0
  C  C53  1  0.67971000  0.40582000  0.99257000  1.0
  C  C54  1  0.54300000  0.56744000  0.25223000  1.0
  C  C55  1  0.95700000  0.06744000  0.74778000  1.0
  C  C56  1  0.45700000  0.43256000  0.74778000  1.0
  C  C57  1  0.04300000  0.93256000  0.25222000  1.0
  C  C58  1  0.56385000  0.64266000  0.16337000  1.0
  C  C59  1  0.93615000  0.14266000  0.83663000  1.0
  C  C60  1  0.43615000  0.35734000  0.83663000  1.0
  C  C61  1  0.06385000  0.85734000  0.16336000  1.0
  C  C62  1  0.28732000  0.02748000  0.00824000  1.0
  C  C63  1  0.21268000  0.52748000  0.99177000  1.0
  C  C64  1  0.71268000  0.97252000  0.99176000  1.0
  C  C65  1  0.78732000  0.47252000  0.00824000  1.0
  C  C66  1  0.13597000  0.18711000  0.05899000  1.0
  C  C67  1  0.36403000  0.68711000  0.94101000  1.0
  C  C68  1  0.86403000  0.81289000  0.94101000  1.0
  C  C69  1  0.63597000  0.31289000  0.05899000  1.0
  C  C70  1  0.35489000  0.05160000  0.09111000  1.0
  C  C71  1  0.14512000  0.55160000  0.90889000  1.0
  C  C72  1  0.64512000  0.94840000  0.90889000  1.0
  C  C73  1  0.85489000  0.44840000  0.09111000  1.0
  C  C74  1  0.31304000  0.14543000  0.15699000  1.0
  C  C75  1  0.18696000  0.64542000  0.84300000  1.0
  C  C76  1  0.68696000  0.85457000  0.84300000  1.0
  C  C77  1  0.81304000  0.35457000  0.15700000  1.0
  C  C78  1  0.55762000  0.78855000  0.29836000  1.0
  C  C79  1  0.94238000  0.28855000  0.70164000  1.0
  C  C80  1  0.44238000  0.21145000  0.70164000  1.0
  C  C81  1  0.05762000  0.71145000  0.29836000  1.0
  C  C82  1  0.20453000  0.21300000  0.14170000  1.0
  C  C83  1  0.29548000  0.71300000  0.85829000  1.0
  C  C84  1  0.79548000  0.78700000  0.85830000  1.0
  C  C85  1  0.70452000  0.28700000  0.14171000  1.0
  C  C86  1  0.57728000  0.90928000  0.31697000  1.0
  C  C87  1  0.92272000  0.40928000  0.68302000  1.0
  C  C88  1  0.42271000  0.09072000  0.68303000  1.0
  C  C89  1  0.07728000  0.59072000  0.31697000  1.0
  C  C90  1  0.57024000  0.75366000  0.18663000  1.0
  C  C91  1  0.92976000  0.25366000  0.81337000  1.0
  C  C92  1  0.42976000  0.24634000  0.81337000  1.0
  C  C93  1  0.07024000  0.74634000  0.18663000  1.0
  C  C94  1  0.28529000  0.28141000  0.27594000  1.0
  C  C95  1  0.21471000  0.78141000  0.72405000  1.0
  C  C96  1  0.71471000  0.71859000  0.72406000  1.0
  C  C97  1  0.78529000  0.21859000  0.27595000  1.0
  C  C98  1  0.51126000  0.73444000  0.50733000  1.0
  C  C99  1  0.98874000  0.23444000  0.49268000  1.0
  C  C100  1  0.48874000  0.26556000  0.49267000  1.0
  C  C101  1  0.01126000  0.76556000  0.50732000  1.0
  N  N102  1  0.52785000  0.60068000  0.35898000  1.0
  N  N103  1  0.97214000  0.10068000  0.64102000  1.0
  N  N104  1  0.47215000  0.39931000  0.64102000  1.0
  N  N105  1  0.02786000  0.89932000  0.35898000  1.0
  N  N106  1  0.36168000  0.19113000  0.24291000  1.0
  N  N107  1  0.13832000  0.69112000  0.75708000  1.0
  N  N108  1  0.63832000  0.80888000  0.75709000  1.0
  N  N109  1  0.86168000  0.30888000  0.24292000  1.0
  N  N110  1  0.18932000  0.29905000  0.21895000  1.0
  N  N111  1  0.31069000  0.79905000  0.78105000  1.0
  N  N112  1  0.81068000  0.70095000  0.78105000  1.0
  N  N113  1  0.68931000  0.20095000  0.21895000  1.0
  O  O114  1  0.47565000  0.97082000  0.30838000  1.0
  O  O115  1  0.02435000  0.47081000  0.69161000  1.0
  O  O116  1  0.52435000  0.02918000  0.69162000  1.0
  O  O117  1  0.97565000  0.52919000  0.30838000  1.0
  O  O118  1  0.69007000  0.94273000  0.32706000  1.0
  O  O119  1  0.80993000  0.44273000  0.67294000  1.0
  O  O120  1  0.30993000  0.05727000  0.67294000  1.0
  O  O121  1  0.19007000  0.55727000  0.32706000  1.0
  O  O122  1  0.49529000  0.65606000  0.57758000  1.0
  O  O123  1  0.00470000  0.15606000  0.42242000  1.0
  O  O124  1  0.50470000  0.34394000  0.42242000  1.0
  O  O125  1  0.99530000  0.84394000  0.57758000  1.0
  O  O126  1  0.50930000  0.83600000  0.53346000  1.0
  O  O127  1  0.99070000  0.33600000  0.46654000  1.0
  O  O128  1  0.49070000  0.16400000  0.46654000  1.0
  O  O129  1  0.00930000  0.66400000  0.53346000  1.0
  O  O130  1  0.27605000  0.50177000  0.51629000  1.0
  O  O131  1  0.22395000  0.00177000  0.48370000  1.0
  O  O132  1  0.72395000  0.49823000  0.48371000  1.0
  O  O133  1  0.77605000  0.99823000  0.51630000  1.0
