# generated using pymatgen
data_CdH22C26S4N2(OF)2
_symmetry_space_group_name_H-M   'P 1'
_cell_length_a   8.06860000
_cell_length_b   10.96940000
_cell_length_c   16.00772343
_cell_angle_alpha   70.01115637
_cell_angle_beta   78.96669201
_cell_angle_gamma   89.99820000
_symmetry_Int_Tables_number   1
_chemical_formula_structural   CdH22C26S4N2(OF)2
_chemical_formula_sum   'Cd2 H44 C52 S8 N4 O4 F4'
_cell_volume   1303.55873418
_cell_formula_units_Z   2
loop_
 _symmetry_equiv_pos_site_id
 _symmetry_equiv_pos_as_xyz
  1  'x, y, z'
loop_
 _atom_site_type_symbol
 _atom_site_label
 _atom_site_symmetry_multiplicity
 _atom_site_fract_x
 _atom_site_fract_y
 _atom_site_fract_z
 _atom_site_occupancy
  Cd  Cd0  1  0.75013000  0.01113000  0.99991000  1.0
  Cd  Cd1  1  0.24986000  0.98887000  0.00009000  1.0
  H  H2  1  0.10582000  0.11756000  0.24628000  1.0
  H  H3  1  0.39382000  0.36433000  0.75378000  1.0
  H  H4  1  0.89417000  0.88244000  0.75372000  1.0
  H  H5  1  0.60619000  0.63568000  0.24622000  1.0
  H  H6  1  0.18572000  0.16772000  0.12701000  1.0
  H  H7  1  0.31381000  0.29544000  0.87300000  1.0
  H  H8  1  0.81427000  0.83228000  0.87299000  1.0
  H  H9  1  0.68619000  0.70456000  0.12700000  1.0
  H  H10  1  0.20079000  0.49136000  0.30507000  1.0
  H  H11  1  0.29836000  0.79662000  0.69468000  1.0
  H  H12  1  0.79921000  0.50864000  0.69493000  1.0
  H  H13  1  0.70163000  0.20337000  0.30532000  1.0
  H  H14  1  0.33337000  0.62069000  0.12225000  1.0
  H  H15  1  0.16613000  0.74387000  0.87752000  1.0
  H  H16  1  0.66666667  0.37930000  0.87775000  1.0
  H  H17  1  0.83386000  0.25611000  0.12249000  1.0
  H  H18  1  0.34946000  0.42855000  0.04752000  1.0
  H  H19  1  0.15011000  0.47716000  0.95248000  1.0
  H  H20  1  0.65054000  0.57144000  0.95248000  1.0
  H  H21  1  0.84989000  0.52284000  0.04752000  1.0
  H  H22  1  0.35465000  0.12845000  0.32784000  1.0
  H  H23  1  0.14511000  0.45626000  0.67211000  1.0
  H  H24  1  0.64535000  0.87156000  0.67215000  1.0
  H  H25  1  0.85489000  0.54374000  0.32790000  1.0
  H  H26  1  0.51923000  0.03252000  0.30118000  1.0
  H  H27  1  0.98061000  0.33373000  0.69877000  1.0
  H  H28  1  0.48078000  0.96747000  0.69882000  1.0
  H  H29  1  0.01940000  0.66627000  0.30123000  1.0
  H  H30  1  0.38446000  0.80405000  0.29193000  1.0
  H  H31  1  0.11553000  0.09598000  0.70782000  1.0
  H  H32  1  0.61555000  0.19595000  0.70807000  1.0
  H  H33  1  0.88448000  0.90403000  0.29218000  1.0
  H  H34  1  0.22032000  0.60061000  0.40407000  1.0
  H  H35  1  0.28001000  0.00477000  0.59557000  1.0
  H  H36  1  0.77969000  0.39939000  0.59593000  1.0
  H  H37  1  0.71998000  0.99524000  0.40443000  1.0
  H  H38  1  0.99985000  0.81346000  0.57258000  1.0
  H  H39  1  0.50041000  0.38590000  0.42750000  1.0
  H  H40  1  0.00015000  0.18654000  0.42742000  1.0
  H  H41  1  0.49959000  0.61411000  0.57250000  1.0
  H  H42  1  0.16094000  0.01857000  0.45977000  1.0
  H  H43  1  0.33897000  0.47816000  0.54037000  1.0
  H  H44  1  0.83906000  0.98143000  0.54023000  1.0
  H  H45  1  0.66105000  0.52185000  0.45963000  1.0
  C  C46  1  0.47758000  0.07517000  0.14160000  1.0
  C  C47  1  0.02253000  0.21690000  0.85831000  1.0
  C  C48  1  0.52242000  0.92483000  0.85840000  1.0
  C  C49  1  0.97747000  0.78310000  0.14169000  1.0
  C  C50  1  0.21338000  0.16833000  0.19129000  1.0
  C  C51  1  0.28615000  0.36018000  0.80873000  1.0
  C  C52  1  0.78661000  0.83166000  0.80871000  1.0
  C  C53  1  0.71386000  0.63982000  0.19127000  1.0
  C  C54  1  0.23965000  0.30468000  0.18678000  1.0
  C  C55  1  0.25960000  0.49203000  0.81322000  1.0
  C  C56  1  0.76035000  0.69532000  0.81322000  1.0
  C  C57  1  0.74040000  0.50797000  0.18678000  1.0
  C  C58  1  0.23096000  0.45852000  0.24778000  1.0
  C  C59  1  0.26821000  0.70672000  0.75204000  1.0
  C  C60  1  0.76904000  0.54148000  0.75222000  1.0
  C  C61  1  0.73178000  0.29328000  0.24796000  1.0
  C  C62  1  0.29661000  0.51788000  0.15731000  1.0
  C  C63  1  0.20277000  0.67596000  0.84253000  1.0
  C  C64  1  0.70339000  0.48212000  0.84269000  1.0
  C  C65  1  0.79722000  0.32404000  0.15747000  1.0
  C  C66  1  0.30316000  0.41824000  0.11799000  1.0
  C  C67  1  0.19627000  0.53710000  0.88197000  1.0
  C  C68  1  0.69685000  0.58176000  0.88201000  1.0
  C  C69  1  0.80373000  0.46289000  0.11804000  1.0
  C  C70  1  0.38424000  0.04754000  0.30324000  1.0
  C  C71  1  0.11556000  0.35081000  0.69672000  1.0
  C  C72  1  0.61576000  0.95247000  0.69675000  1.0
  C  C73  1  0.88445000  0.64920000  0.30328000  1.0
  C  C74  1  0.28019000  0.92560000  0.36730000  1.0
  C  C75  1  0.21971000  0.29282000  0.63269000  1.0
  C  C76  1  0.71982000  0.07440000  0.63270000  1.0
  C  C77  1  0.78030000  0.70719000  0.36731000  1.0
  C  C78  1  0.29766000  0.80718000  0.35223000  1.0
  C  C79  1  0.20235000  0.15941000  0.64757000  1.0
  C  C80  1  0.70234000  0.19281000  0.64777000  1.0
  C  C81  1  0.79765000  0.84060000  0.35243000  1.0
  C  C82  1  0.20809000  0.69357000  0.41428000  1.0
  C  C83  1  0.29224000  0.10786000  0.58550000  1.0
  C  C84  1  0.79192000  0.30643000  0.58572000  1.0
  C  C85  1  0.70776000  0.89216000  0.41449000  1.0
  C  C86  1  0.10149000  0.70030000  0.49151000  1.0
  C  C87  1  0.39890000  0.19178000  0.50838000  1.0
  C  C88  1  0.89852000  0.29969000  0.50849000  1.0
  C  C89  1  0.60110000  0.80823000  0.49162000  1.0
  C  C90  1  0.08282000  0.81462000  0.51002000  1.0
  C  C91  1  0.41738000  0.32452000  0.49000000  1.0
  C  C92  1  0.91719000  0.18538000  0.48998000  1.0
  C  C93  1  0.58262000  0.67549000  0.51000000  1.0
  C  C94  1  0.17276000  0.92753000  0.44656000  1.0
  C  C95  1  0.32724000  0.37395000  0.55351000  1.0
  C  C96  1  0.82724000  0.07246000  0.55344000  1.0
  C  C97  1  0.67277000  0.62605000  0.44649000  1.0
  S  S98  1  0.46855000  0.15562000  0.02897000  1.0
  S  S99  1  0.03156000  0.18479000  0.97096000  1.0
  S  S100  1  0.53144000  0.84439000  0.97102000  1.0
  S  S101  1  0.96843000  0.81521000  0.02904000  1.0
  S  S102  1  0.63785000  0.97548000  0.16866000  1.0
  S  S103  1  0.86249000  0.14406000  0.83119000  1.0
  S  S104  1  0.36214000  0.02452000  0.83134000  1.0
  S  S105  1  0.13751000  0.85596000  0.16880000  1.0
  N  N106  1  0.36109000  0.09111000  0.20882000  1.0
  N  N107  1  0.13870000  0.30022000  0.79115000  1.0
  N  N108  1  0.63891000  0.90889000  0.79118000  1.0
  N  N109  1  0.86131000  0.69978000  0.20885000  1.0
  O  O110  1  0.19507000  0.32800000  0.26755000  1.0
  O  O111  1  0.30399000  0.59582000  0.73238000  1.0
  O  O112  1  0.80492000  0.67200000  0.73245000  1.0
  O  O113  1  0.69601000  0.40417000  0.26763000  1.0
  F  F114  1  0.01179000  0.58913000  0.55236000  1.0
  F  F115  1  0.48872000  0.14153000  0.44743000  1.0
  F  F116  1  0.98822000  0.41087000  0.44764000  1.0
  F  F117  1  0.51127000  0.85848000  0.55257000  1.0
