# generated using pymatgen
data_ZnH22C23(NO)6
_symmetry_space_group_name_H-M   'P 1'
_cell_length_a   9.22909000
_cell_length_b   16.81660000
_cell_length_c   18.06230000
_cell_angle_alpha   90.00020000
_cell_angle_beta   90.00010000
_cell_angle_gamma   85.59350000
_symmetry_Int_Tables_number   1
_chemical_formula_structural   ZnH22C23(NO)6
_chemical_formula_sum   'Zn4 H88 C92 N24 O24'
_cell_volume   2795.01710070
_cell_formula_units_Z   4
loop_
 _symmetry_equiv_pos_site_id
 _symmetry_equiv_pos_as_xyz
  1  'x, y, z'
loop_
 _atom_site_type_symbol
 _atom_site_label
 _atom_site_symmetry_multiplicity
 _atom_site_fract_x
 _atom_site_fract_y
 _atom_site_fract_z
 _atom_site_occupancy
  Zn  Zn0  1  0.48809000  0.47558000  0.81307000  1.0
  Zn  Zn1  1  0.01191000  0.02442000  0.31307000  1.0
  Zn  Zn2  1  0.51191000  0.52442000  0.18693000  1.0
  Zn  Zn3  1  0.98809000  0.97558000  0.68693000  1.0
  H  H4  1  0.40137000  0.75633000  0.71643000  1.0
  H  H5  1  0.09864000  0.74367000  0.21643000  1.0
  H  H6  1  0.59863000  0.24367000  0.28357000  1.0
  H  H7  1  0.90137000  0.25633000  0.78357000  1.0
  H  H8  1  0.43742000  0.80013000  0.80349000  1.0
  H  H9  1  0.06257000  0.69987000  0.30350000  1.0
  H  H10  1  0.56258000  0.19987000  0.19650000  1.0
  H  H11  1  0.93743000  0.30013000  0.69650000  1.0
  H  H12  1  0.55354000  0.75696000  0.89749000  1.0
  H  H13  1  0.94646000  0.74304000  0.39749000  1.0
  H  H14  1  0.44645000  0.24304000  0.10251000  1.0
  H  H15  1  0.05355000  0.25696000  0.60251000  1.0
  H  H16  1  0.62329000  0.76158000  0.02930000  1.0
  H  H17  1  0.87671000  0.73842000  0.52930000  1.0
  H  H18  1  0.37671000  0.23842000  0.97070000  1.0
  H  H19  1  0.12330000  0.26159000  0.47070000  1.0
  H  H20  1  0.81524000  0.76245000  0.12542000  1.0
  H  H21  1  0.68476000  0.73756000  0.62542000  1.0
  H  H22  1  0.18476000  0.23755000  0.87458000  1.0
  H  H23  1  0.31525000  0.26245000  0.37458000  1.0
  H  H24  1  0.07766000  0.75249000  0.08857000  1.0
  H  H25  1  0.42234000  0.74751000  0.58857000  1.0
  H  H26  1  0.92234000  0.24751000  0.91142000  1.0
  H  H27  1  0.57766000  0.25249000  0.41143000  1.0
  H  H28  1  0.14653000  0.73850000  0.95639000  1.0
  H  H29  1  0.35347000  0.76150000  0.45639000  1.0
  H  H30  1  0.85347000  0.26150000  0.04361000  1.0
  H  H31  1  0.64653000  0.23850000  0.54361000  1.0
  H  H32  1  0.07727000  0.72442000  0.82708000  1.0
  H  H33  1  0.42272000  0.77558000  0.32708000  1.0
  H  H34  1  0.92272000  0.27558000  0.17292000  1.0
  H  H35  1  0.57728000  0.22442000  0.67292000  1.0
  H  H36  1  0.02580000  0.67708000  0.63414000  1.0
  H  H37  1  0.47418000  0.82293000  0.13414000  1.0
  H  H38  1  0.97419000  0.32293000  0.36586000  1.0
  H  H39  1  0.52582000  0.17707000  0.86586000  1.0
  H  H40  1  0.10423000  0.67419000  0.72373000  1.0
  H  H41  1  0.39576000  0.82582000  0.22373000  1.0
  H  H42  1  0.89576000  0.32582000  0.27627000  1.0
  H  H43  1  0.60424000  0.17418000  0.77627000  1.0
  H  H44  1  0.82647000  0.58186000  0.62104000  1.0
  H  H45  1  0.67354000  0.91814000  0.12104000  1.0
  H  H46  1  0.17353000  0.41814000  0.37896000  1.0
  H  H47  1  0.32646000  0.08186000  0.87896000  1.0
  H  H48  1  0.85269000  0.41989000  0.58841000  1.0
  H  H49  1  0.64731000  0.08010000  0.08841000  1.0
  H  H50  1  0.14731000  0.58010000  0.41159000  1.0
  H  H51  1  0.35269000  0.91990000  0.91159000  1.0
  H  H52  1  0.65933000  0.35712000  0.68485000  1.0
  H  H53  1  0.84068000  0.14287000  0.18485000  1.0
  H  H54  1  0.34067000  0.64287000  0.31515000  1.0
  H  H55  1  0.15933000  0.85713000  0.81515000  1.0
  H  H56  1  0.88418000  0.41921000  0.00520000  1.0
  H  H57  1  0.61583000  0.08079000  0.50520000  1.0
  H  H58  1  0.11583000  0.58079000  0.99480000  1.0
  H  H59  1  0.38418000  0.91921000  0.49480000  1.0
  H  H60  1  0.78725000  0.57600000  0.03797000  1.0
  H  H61  1  0.71275000  0.92401000  0.53797000  1.0
  H  H62  1  0.21276000  0.42400000  0.96203000  1.0
  H  H63  1  0.28724000  0.07600000  0.46203000  1.0
  H  H64  1  0.56192000  0.60766000  0.93962000  1.0
  H  H65  1  0.93807000  0.89234000  0.43962000  1.0
  H  H66  1  0.43808000  0.39234000  0.06038000  1.0
  H  H67  1  0.06192000  0.10766000  0.56038000  1.0
  H  H68  1  0.94925000  0.56692000  0.84288000  1.0
  H  H69  1  0.55075000  0.93307000  0.34288000  1.0
  H  H70  1  0.05075000  0.43307000  0.15712000  1.0
  H  H71  1  0.44925000  0.06693000  0.65711000  1.0
  H  H72  1  0.94507000  0.40586000  0.81124000  1.0
  H  H73  1  0.55493000  0.09414000  0.31124000  1.0
  H  H74  1  0.05493000  0.59414000  0.18876000  1.0
  H  H75  1  0.44506000  0.90586000  0.68876000  1.0
  H  H76  1  0.23627000  0.35687000  0.79323000  1.0
  H  H77  1  0.26374000  0.14313000  0.29323000  1.0
  H  H78  1  0.76374000  0.64313000  0.20677000  1.0
  H  H79  1  0.73626000  0.85688000  0.70677000  1.0
  H  H80  1  0.63273000  0.59591000  0.72537000  1.0
  H  H81  1  0.86727000  0.90408000  0.22537000  1.0
  H  H82  1  0.36727000  0.40408000  0.27463000  1.0
  H  H83  1  0.13273000  0.09591000  0.77463000  1.0
  H  H84  1  0.71970000  0.37620000  0.89851000  1.0
  H  H85  1  0.78030000  0.12380000  0.39852000  1.0
  H  H86  1  0.28030000  0.62380000  0.10149000  1.0
  H  H87  1  0.21970000  0.87620000  0.60149000  1.0
  H  H88  1  0.21926000  0.59707000  0.84017000  1.0
  H  H89  1  0.28074000  0.90293000  0.34018000  1.0
  H  H90  1  0.78074000  0.40293000  0.15983000  1.0
  H  H91  1  0.71926000  0.09707000  0.65982000  1.0
  C  C92  1  0.40744000  0.67316000  0.80606000  1.0
  C  C93  1  0.09256000  0.82684000  0.30607000  1.0
  C  C94  1  0.59256000  0.32684000  0.19394000  1.0
  C  C95  1  0.90744000  0.17316000  0.69394000  1.0
  C  C96  1  0.46094000  0.74699000  0.76879000  1.0
  C  C97  1  0.03906000  0.75301000  0.26880000  1.0
  C  C98  1  0.53906000  0.25301000  0.23120000  1.0
  C  C99  1  0.96094000  0.24699000  0.73120000  1.0
  C  C100  1  0.70651000  0.73803000  0.80813000  1.0
  C  C101  1  0.79349000  0.76197000  0.30813000  1.0
  C  C102  1  0.29349000  0.26197000  0.19187000  1.0
  C  C103  1  0.20651000  0.23802000  0.69187000  1.0
  C  C104  1  0.66747000  0.74950000  0.88127000  1.0
  C  C105  1  0.83252000  0.75050000  0.38127000  1.0
  C  C106  1  0.33252000  0.25049000  0.11872000  1.0
  C  C107  1  0.16748000  0.24950000  0.61873000  1.0
  C  C108  1  0.77466000  0.75049000  0.93756000  1.0
  C  C109  1  0.72534000  0.74952000  0.43757000  1.0
  C  C110  1  0.22534000  0.24951000  0.06243000  1.0
  C  C111  1  0.27466000  0.25048000  0.56243000  1.0
  C  C112  1  0.73803000  0.75770000  0.01360000  1.0
  C  C113  1  0.76198000  0.74230000  0.51360000  1.0
  C  C114  1  0.26197000  0.24229000  0.98640000  1.0
  C  C115  1  0.23803000  0.25770000  0.48640000  1.0
  C  C116  1  0.84493000  0.75798000  0.06716000  1.0
  C  C117  1  0.65508000  0.74203000  0.56716000  1.0
  C  C118  1  0.15508000  0.24202000  0.93284000  1.0
  C  C119  1  0.34493000  0.25798000  0.43284000  1.0
  C  C120  1  0.99314000  0.75176000  0.04648000  1.0
  C  C121  1  0.50687000  0.74824000  0.54649000  1.0
  C  C122  1  0.00687000  0.24823000  0.95351000  1.0
  C  C123  1  0.49314000  0.25176000  0.45352000  1.0
  C  C124  1  0.03236000  0.74420000  0.97281000  1.0
  C  C125  1  0.46764000  0.75580000  0.47281000  1.0
  C  C126  1  0.96764000  0.25580000  0.02719000  1.0
  C  C127  1  0.53237000  0.24420000  0.52719000  1.0
  C  C128  1  0.92475000  0.74255000  0.91685000  1.0
  C  C129  1  0.57525000  0.75745000  0.41685000  1.0
  C  C130  1  0.07525000  0.25745000  0.08315000  1.0
  C  C131  1  0.42475000  0.24255000  0.58315000  1.0
  C  C132  1  0.96229000  0.73114000  0.84108000  1.0
  C  C133  1  0.53771000  0.76886000  0.34108000  1.0
  C  C134  1  0.03771000  0.26886000  0.15892000  1.0
  C  C135  1  0.46230000  0.23114000  0.65892000  1.0
  C  C136  1  0.85664000  0.72637000  0.78789000  1.0
  C  C137  1  0.64335000  0.77364000  0.28789000  1.0
  C  C138  1  0.14335000  0.27363000  0.21211000  1.0
  C  C139  1  0.35665000  0.22636000  0.71211000  1.0
  C  C140  1  0.02629000  0.70833000  0.68752000  1.0
  C  C141  1  0.47369000  0.79168000  0.18752000  1.0
  C  C142  1  0.97370000  0.29168000  0.31248000  1.0
  C  C143  1  0.52631000  0.20832000  0.81248000  1.0
  C  C144  1  0.07822000  0.79150000  0.67346000  1.0
  C  C145  1  0.42177000  0.70850000  0.17346000  1.0
  C  C146  1  0.92177000  0.20851000  0.32654000  1.0
  C  C147  1  0.57823000  0.29150000  0.82654000  1.0
  C  C148  1  0.77383000  0.53243000  0.64485000  1.0
  C  C149  1  0.72617000  0.96757000  0.14485000  1.0
  C  C150  1  0.22617000  0.46756000  0.35515000  1.0
  C  C151  1  0.27383000  0.03243000  0.85515000  1.0
  C  C152  1  0.78418000  0.45103000  0.62950000  1.0
  C  C153  1  0.71583000  0.04897000  0.12950000  1.0
  C  C154  1  0.21582000  0.54897000  0.37050000  1.0
  C  C155  1  0.28418000  0.95103000  0.87050000  1.0
  C  C156  1  0.68643000  0.41833000  0.67843000  1.0
  C  C157  1  0.81358000  0.08167000  0.17843000  1.0
  C  C158  1  0.31357000  0.58167000  0.32157000  1.0
  C  C159  1  0.18642000  0.91833000  0.82157000  1.0
  C  C160  1  0.79701000  0.45797000  0.98133000  1.0
  C  C161  1  0.70299000  0.04203000  0.48134000  1.0
  C  C162  1  0.20299000  0.54203000  0.01866000  1.0
  C  C163  1  0.29701000  0.95797000  0.51866000  1.0
  C  C164  1  0.74679000  0.53650000  0.99668000  1.0
  C  C165  1  0.75321000  0.96350000  0.49668000  1.0
  C  C166  1  0.25321000  0.46350000  0.00332000  1.0
  C  C167  1  0.24679000  0.03650000  0.50332000  1.0
  C  C168  1  0.63173000  0.55346000  0.94702000  1.0
  C  C169  1  0.86827000  0.94654000  0.44701000  1.0
  C  C170  1  0.36827000  0.44654000  0.05299000  1.0
  C  C171  1  0.13173000  0.05346000  0.55298000  1.0
  C  C172  1  0.03721000  0.52224000  0.83082000  1.0
  C  C173  1  0.46279000  0.97776000  0.33083000  1.0
  C  C174  1  0.96279000  0.47776000  0.16918000  1.0
  C  C175  1  0.53721000  0.02224000  0.66917000  1.0
  C  C176  1  0.03813000  0.44116000  0.81492000  1.0
  C  C177  1  0.46188000  0.05884000  0.31492000  1.0
  C  C178  1  0.96188000  0.55884000  0.18509000  1.0
  C  C179  1  0.53812000  0.94117000  0.68508000  1.0
  C  C180  1  0.18499000  0.41550000  0.80504000  1.0
  C  C181  1  0.31501000  0.08450000  0.30504000  1.0
  C  C182  1  0.81501000  0.58450000  0.19496000  1.0
  C  C183  1  0.68498000  0.91550000  0.69496000  1.0
  N  N184  1  0.62079000  0.47610000  0.72092000  1.0
  N  N185  1  0.87921000  0.02390000  0.22092000  1.0
  N  N186  1  0.37921000  0.52390000  0.27908000  1.0
  N  N187  1  0.12079000  0.97610000  0.77908000  1.0
  N  N188  1  0.67581000  0.54472000  0.69966000  1.0
  N  N189  1  0.82419000  0.95527000  0.19967000  1.0
  N  N190  1  0.32419000  0.45527000  0.30033000  1.0
  N  N191  1  0.17581000  0.04472000  0.80034000  1.0
  N  N192  1  0.61344000  0.48956000  0.90408000  1.0
  N  N193  1  0.88656000  0.01044000  0.40408000  1.0
  N  N194  1  0.38656000  0.51044000  0.09592000  1.0
  N  N195  1  0.11344000  0.98956000  0.59592000  1.0
  N  N196  1  0.71495000  0.43198000  0.92594000  1.0
  N  N197  1  0.78505000  0.06803000  0.42594000  1.0
  N  N198  1  0.28505000  0.56802000  0.07406000  1.0
  N  N199  1  0.21496000  0.93198000  0.57406000  1.0
  N  N200  1  0.26819000  0.47720000  0.81414000  1.0
  N  N201  1  0.23181000  0.02280000  0.31414000  1.0
  N  N202  1  0.73181000  0.52280000  0.18586000  1.0
  N  N203  1  0.76818000  0.97720000  0.68586000  1.0
  N  N204  1  0.17644000  0.54158000  0.82974000  1.0
  N  N205  1  0.32356000  0.95841000  0.32975000  1.0
  N  N206  1  0.82356000  0.45841000  0.17026000  1.0
  N  N207  1  0.67644000  0.04159000  0.67025000  1.0
  O  O208  1  0.48069000  0.60734000  0.79425000  1.0
  O  O209  1  0.01932000  0.89266000  0.29425000  1.0
  O  O210  1  0.51931000  0.39265000  0.20575000  1.0
  O  O211  1  0.98068000  0.10734000  0.70575000  1.0
  O  O212  1  0.29161000  0.68281000  0.84352000  1.0
  O  O213  1  0.20839000  0.81719000  0.34353000  1.0
  O  O214  1  0.70839000  0.31719000  0.15648000  1.0
  O  O215  1  0.79160000  0.18281000  0.65648000  1.0
  O  O216  1  0.61125000  0.73692000  0.74993000  1.0
  O  O217  1  0.88875000  0.76309000  0.24994000  1.0
  O  O218  1  0.38875000  0.26308000  0.25007000  1.0
  O  O219  1  0.11125000  0.23691000  0.75006000  1.0
  O  O220  1  0.88106000  0.70920000  0.71451000  1.0
  O  O221  1  0.61893000  0.79080000  0.21452000  1.0
  O  O222  1  0.11893000  0.29080000  0.28548000  1.0
  O  O223  1  0.38108000  0.20920000  0.78549000  1.0
  O  O224  1  0.20411000  0.79289000  0.64590000  1.0
  O  O225  1  0.29587000  0.70712000  0.14590000  1.0
  O  O226  1  0.79587000  0.20712000  0.35410000  1.0
  O  O227  1  0.70413000  0.29288000  0.85410000  1.0
  O  O228  1  0.99019000  0.85071000  0.68901000  1.0
  O  O229  1  0.50978000  0.64930000  0.18901000  1.0
  O  O230  1  0.00978000  0.14930000  0.31099000  1.0
  O  O231  1  0.49022000  0.35070000  0.81099000  1.0
