# generated using pymatgen
data_Zn3H8C35Br4(ClO2)6
_symmetry_space_group_name_H-M   'P 1'
_cell_length_a   17.72440000
_cell_length_b   18.87000000
_cell_length_c   18.54460516
_cell_angle_alpha   109.80019519
_cell_angle_beta   107.28765413
_cell_angle_gamma   108.89700000
_symmetry_Int_Tables_number   1
_chemical_formula_structural   Zn3H8C35Br4(ClO2)6
_chemical_formula_sum   'Zn6 H16 C70 Br8 Cl12 O24'
_cell_volume   4910.69865892
_cell_formula_units_Z   2
loop_
 _symmetry_equiv_pos_site_id
 _symmetry_equiv_pos_as_xyz
  1  'x, y, z'
loop_
 _atom_site_type_symbol
 _atom_site_label
 _atom_site_symmetry_multiplicity
 _atom_site_fract_x
 _atom_site_fract_y
 _atom_site_fract_z
 _atom_site_occupancy
  Zn  Zn0  1  0.05896000  0.55728000  0.99039000  1.0
  Zn  Zn1  1  0.92732000  0.43887000  0.99626000  1.0
  Zn  Zn2  1  0.95910000  0.00227000  0.45142000  1.0
  Zn  Zn3  1  0.07819000  0.99930000  0.58241000  1.0
  Zn  Zn4  1  0.47770000  0.56002000  0.55569000  1.0
  Zn  Zn5  1  0.50429000  0.44987000  0.44122000  1.0
  H  H6  1  0.12360000  0.20028000  0.15295000  1.0
  H  H7  1  0.33037000  0.63178000  0.39008000  1.0
  H  H8  1  0.94596000  0.20880000  0.84008000  1.0
  H  H9  1  0.92069000  0.41473000  0.75575000  1.0
  H  H10  1  0.93420000  0.44862000  0.64120000  1.0
  H  H11  1  0.99371000  0.37653000  0.55042000  1.0
  H  H12  1  0.95807000  0.61163000  0.27617000  1.0
  H  H13  1  0.97154000  0.70198000  0.94507000  1.0
  H  H14  1  0.72257000  0.70648000  0.73641000  1.0
  H  H15  1  0.90669000  0.75137000  0.55339000  1.0
  H  H16  1  0.82111000  0.97011000  0.56645000  1.0
  H  H17  1  0.67838000  0.97519000  0.52482000  1.0
  H  H18  1  0.53340000  0.83875000  0.44141000  1.0
  H  H19  1  0.76553000  0.62462000  0.51148000  1.0
  H  H20  1  0.22529000  0.25612000  0.60620000  1.0
  H  H21  1  0.32411000  0.98264000  0.35523000  1.0
  C  C22  1  0.13126000  0.50653000  0.09970000  1.0
  C  C23  1  0.98943000  0.79836000  0.23051000  1.0
  C  C24  1  0.90963000  0.70505000  0.17056000  1.0
  C  C25  1  0.97785000  0.66758000  0.18372000  1.0
  C  C26  1  0.15302000  0.34982000  0.08541000  1.0
  C  C27  1  0.13335000  0.27100000  0.08225000  1.0
  C  C28  1  0.14781000  0.26330000  0.15759000  1.0
  C  C29  1  0.19197000  0.33624000  0.23626000  1.0
  C  C30  1  0.22312000  0.41916000  0.24354000  1.0
  C  C31  1  0.19086000  0.42498000  0.16620000  1.0
  C  C32  1  0.19517000  0.50481000  0.17334000  1.0
  C  C33  1  0.97618000  0.59655000  0.11489000  1.0
  C  C34  1  0.24013000  0.57555000  0.25451000  1.0
  C  C35  1  0.28739000  0.57308000  0.32889000  1.0
  C  C36  1  0.28111000  0.49672000  0.32376000  1.0
  C  C37  1  0.93996000  0.37918000  0.71165000  1.0
  C  C38  1  0.94834000  0.39868000  0.64847000  1.0
  C  C39  1  0.97975000  0.35671000  0.59579000  1.0
  C  C40  1  0.99620000  0.29199000  0.60286000  1.0
  C  C41  1  0.97746000  0.26157000  0.65993000  1.0
  C  C42  1  0.95544000  0.31256000  0.71987000  1.0
  C  C43  1  0.94839000  0.29414000  0.78721000  1.0
  C  C44  1  0.90244000  0.53760000  0.89082000  1.0
  C  C45  1  0.95156000  0.22288000  0.78905000  1.0
  C  C46  1  0.96631000  0.16950000  0.72659000  1.0
  C  C47  1  0.98056000  0.18747000  0.66334000  1.0
  C  C48  1  0.91626000  0.70134000  0.89887000  1.0
  C  C49  1  0.92449000  0.77786000  0.90235000  1.0
  C  C50  1  0.85430000  0.77933000  0.84161000  1.0
  C  C51  1  0.77670000  0.70424000  0.78106000  1.0
  C  C52  1  0.76585000  0.62507000  0.77745000  1.0
  C  C53  1  0.83823000  0.62282000  0.83601000  1.0
  C  C54  1  0.82894000  0.54231000  0.82972000  1.0
  C  C55  1  0.95213000  0.35903000  0.86418000  1.0
  C  C56  1  0.74847000  0.46785000  0.76948000  1.0
  C  C57  1  0.67543000  0.47146000  0.71575000  1.0
  C  C58  1  0.68471000  0.54776000  0.71694000  1.0
  C  C59  1  0.92284000  0.89758000  0.55486000  1.0
  C  C60  1  0.98533000  0.87035000  0.38132000  1.0
  C  C61  1  0.16853000  0.09348000  0.52779000  1.0
  C  C62  1  0.99203000  0.12380000  0.59825000  1.0
  C  C63  1  0.39659000  0.35814000  0.48142000  1.0
  C  C64  1  0.35243000  0.50234000  0.39733000  1.0
  C  C65  1  0.60636000  0.60970000  0.47809000  1.0
  C  C66  1  0.96730000  0.66562000  0.26377000  1.0
  C  C67  1  0.61252000  0.54540000  0.64665000  1.0
  C  C68  1  0.75862000  0.91199000  0.53720000  1.0
  C  C69  1  0.67869000  0.91462000  0.51289000  1.0
  C  C70  1  0.59693000  0.83847000  0.46800000  1.0
  C  C71  1  0.59710000  0.76198000  0.45464000  1.0
  C  C72  1  0.67820000  0.75789000  0.48915000  1.0
  C  C73  1  0.76047000  0.83408000  0.52400000  1.0
  C  C74  1  0.84252000  0.82872000  0.54426000  1.0
  C  C75  1  0.84385000  0.75431000  0.53880000  1.0
  C  C76  1  0.76407000  0.68225000  0.51252000  1.0
  C  C77  1  0.90060000  0.70309000  0.25205000  1.0
  C  C78  1  0.68276000  0.68331000  0.48845000  1.0
  C  C79  1  0.28345000  0.05938000  0.43324000  1.0
  C  C80  1  0.31579000  0.03967000  0.37443000  1.0
  C  C81  1  0.32994000  0.08966000  0.33359000  1.0
  C  C82  1  0.32317000  0.16489000  0.35948000  1.0
  C  C83  1  0.31322000  0.19801000  0.43656000  1.0
  C  C84  1  0.27824000  0.13698000  0.46418000  1.0
  C  C85  1  0.24004000  0.15772000  0.52102000  1.0
  C  C86  1  0.25408000  0.23994000  0.56265000  1.0
  C  C87  1  0.30598000  0.30492000  0.55050000  1.0
  C  C88  1  0.98164000  0.79734000  0.31275000  1.0
  C  C89  1  0.33471000  0.28620000  0.48663000  1.0
  C  C90  1  0.04748000  0.75783000  0.32357000  1.0
  C  C91  1  0.05706000  0.76158000  0.24271000  1.0
  Br  Br92  1  0.19544000  0.32393000  0.33453000  1.0
  Br  Br93  1  0.05606000  0.25569000  0.53939000  1.0
  Br  Br94  1  0.73488000  0.35806000  0.75052000  1.0
  Br  Br95  1  0.56291000  0.37170000  0.64293000  1.0
  Br  Br96  1  0.16507000  0.81216000  0.23697000  1.0
  Br  Br97  1  0.81472000  0.66746000  0.06311000  1.0
  Br  Br98  1  0.23700000  0.67940000  0.27209000  1.0
  Br  Br99  1  0.08235000  0.16997000  0.97679000  1.0
  Cl  Cl100  1  0.80140000  0.66708000  0.25849000  1.0
  Cl  Cl101  1  0.96466000  0.07967000  0.73323000  1.0
  Cl  Cl102  1  0.02033000  0.87125000  0.98074000  1.0
  Cl  Cl103  1  0.86501000  0.87401000  0.84351000  1.0
  Cl  Cl104  1  0.49602000  0.66940000  0.38577000  1.0
  Cl  Cl105  1  0.13380000  0.78362000  0.41778000  1.0
  Cl  Cl106  1  0.25241000  0.98746000  0.46962000  1.0
  Cl  Cl107  1  0.35028000  0.05113000  0.24700000  1.0
  Cl  Cl108  1  0.31288000  0.20582000  0.28935000  1.0
  Cl  Cl109  1  0.32818000  0.40503000  0.62104000  1.0
  Cl  Cl110  1  0.00393000  0.88191000  0.20859000  1.0
  Cl  Cl111  1  0.13765000  0.35823000  0.99329000  1.0
  O  O112  1  0.16038000  0.55652000  0.07068000  1.0
  O  O113  1  0.00279000  0.91983000  0.60849000  1.0
  O  O114  1  0.93435000  0.90064000  0.35402000  1.0
  O  O115  1  0.03845000  0.89725000  0.45863000  1.0
  O  O116  1  0.09008000  0.06691000  0.47114000  1.0
  O  O117  1  0.18838000  0.07668000  0.59000000  1.0
  O  O118  1  0.93376000  0.08736000  0.51866000  1.0
  O  O119  1  0.05457000  0.10675000  0.62568000  1.0
  O  O120  1  0.40137000  0.43092000  0.51702000  1.0
  O  O121  1  0.44515000  0.34479000  0.44397000  1.0
  O  O122  1  0.37341000  0.55480000  0.47457000  1.0
  O  O123  1  0.04937000  0.45977000  0.07670000  1.0
  O  O124  1  0.39306000  0.46076000  0.37616000  1.0
  O  O125  1  0.57030000  0.62840000  0.52656000  1.0
  O  O126  1  0.58838000  0.53370000  0.42727000  1.0
  O  O127  1  0.56708000  0.58329000  0.66572000  1.0
  O  O128  1  0.60361000  0.50590000  0.57200000  1.0
  O  O129  1  0.02914000  0.61873000  0.08425000  1.0
  O  O130  1  0.92183000  0.52001000  0.09293000  1.0
  O  O131  1  0.98415000  0.57962000  0.90632000  1.0
  O  O132  1  0.87828000  0.49166000  0.92422000  1.0
  O  O133  1  0.01159000  0.43529000  0.89496000  1.0
  O  O134  1  0.90018000  0.33511000  0.89658000  1.0
  O  O135  1  0.90745000  0.92899000  0.50496000  1.0
