# generated using pymatgen
data_Zr6H24C50Br5ClO32
_symmetry_space_group_name_H-M   'P 1'
_cell_length_a   14.75835963
_cell_length_b   14.77280000
_cell_length_c   14.78620000
_cell_angle_alpha   60.18710000
_cell_angle_beta   60.25813961
_cell_angle_gamma   90.05565824
_symmetry_Int_Tables_number   1
_chemical_formula_structural   Zr6H24C50Br5ClO32
_chemical_formula_sum   'Zr6 H24 C50 Br5 Cl1 O32'
_cell_volume   2293.68189149
_cell_formula_units_Z   1
loop_
 _symmetry_equiv_pos_site_id
 _symmetry_equiv_pos_as_xyz
  1  'x, y, z'
loop_
 _atom_site_type_symbol
 _atom_site_label
 _atom_site_symmetry_multiplicity
 _atom_site_fract_x
 _atom_site_fract_y
 _atom_site_fract_z
 _atom_site_occupancy
  Zr  Zr0  1  0.38468000  0.88477000  0.49153000  1.0
  Zr  Zr1  1  0.61929000  0.11895000  0.50088000  1.0
  Zr  Zr2  1  0.38089000  0.88119000  0.73332000  1.0
  Zr  Zr3  1  0.62320000  0.12290000  0.25733000  1.0
  Zr  Zr4  1  0.62295000  0.88333000  0.49477000  1.0
  Zr  Zr5  1  0.38368000  0.12322000  0.49428000  1.0
  H  H6  1  0.40857000  0.72066000  0.67996000  1.0
  H  H7  1  0.78424000  0.09522000  0.31278000  1.0
  H  H8  1  0.40534000  0.09329000  0.68634000  1.0
  H  H9  1  0.40994000  0.09902000  0.30490000  1.0
  H  H10  1  0.37841000  0.60201000  0.45714000  1.0
  H  H11  1  0.62384000  0.57330000  0.53718000  1.0
  H  H12  1  0.38184000  0.42825000  0.46468000  1.0
  H  H13  1  0.08765000  0.86226000  0.48646000  1.0
  H  H14  1  0.06786000  0.11842000  0.54870000  1.0
  H  H15  1  0.91374000  0.86579000  0.49409000  1.0
  H  H16  1  0.91950000  0.85258000  0.21865000  1.0
  H  H17  1  0.90583000  0.14250000  0.94335000  1.0
  H  H18  1  0.08736000  0.86036000  0.04072000  1.0
  H  H19  1  0.36751000  0.43346000  0.21827000  1.0
  H  H20  1  0.65109000  0.41441000  0.94240000  1.0
  H  H21  1  0.37438000  0.60106000  0.04076000  1.0
  H  H22  1  0.08898000  0.59952000  0.04426000  1.0
  H  H23  1  0.02798000  0.62022000  0.70713000  1.0
  H  H24  1  0.11414000  0.53561000  0.70788000  1.0
  H  H25  1  0.94539000  0.36569000  0.88742000  1.0
  H  H26  1  0.85934000  0.45027000  0.88640000  1.0
  H  H27  1  0.65255000  0.14074000  0.92979000  1.0
  H  H28  1  0.36258000  0.85317000  0.23210000  1.0
  H  H29  1  0.64090000  0.12938000  0.77164000  1.0
  C  C30  1  0.50585000  0.70313000  0.48699000  1.0
  C  C31  1  0.79743000  0.99614000  0.51383000  1.0
  C  C32  1  0.50371000  0.30473000  0.49910000  1.0
  C  C33  1  0.19560000  0.99782000  0.50239000  1.0
  C  C34  1  0.19578000  0.70349000  0.79259000  1.0
  C  C35  1  0.50903000  0.00136000  0.18891000  1.0
  C  C36  1  0.80096000  0.30766000  0.19837000  1.0
  C  C37  1  0.49798000  0.99035000  0.80716000  1.0
  C  C38  1  0.50877000  0.70092000  0.79483000  1.0
  C  C39  1  0.19314000  0.00143000  0.79458000  1.0
  C  C40  1  0.50744000  0.31233000  0.19276000  1.0
  C  C41  1  0.80386000  0.99814000  0.19350000  1.0
  C  C42  1  0.50432000  0.40352000  0.50393000  1.0
  C  C43  1  0.50342000  0.59900000  0.49341000  1.0
  C  C44  1  0.57105000  0.44378000  0.52766000  1.0
  C  C45  1  0.43278000  0.55771000  0.47547000  1.0
  C  C46  1  0.57142000  0.54148000  0.52046000  1.0
  C  C47  1  0.43455000  0.46172000  0.48002000  1.0
  C  C48  1  0.89415000  0.99465000  0.52280000  1.0
  C  C49  1  0.08903000  0.99243000  0.51402000  1.0
  C  C50  1  0.93713000  0.06463000  0.54126000  1.0
  C  C51  1  0.04504000  0.91872000  0.50137000  1.0
  C  C52  1  0.03402000  0.06362000  0.53595000  1.0
  C  C53  1  0.94913000  0.92079000  0.50559000  1.0
  C  C54  1  0.09159000  0.00453000  0.89239000  1.0
  C  C55  1  0.90293000  0.99778000  0.09108000  1.0
  C  C56  1  0.03916000  0.08470000  0.86565000  1.0
  C  C57  1  0.95345000  0.91726000  0.11970000  1.0
  C  C58  1  0.94607000  0.08071000  0.96424000  1.0
  C  C59  1  0.04610000  0.92155000  0.02118000  1.0
  C  C60  1  0.51494000  0.60215000  0.89229000  1.0
  C  C61  1  0.50948000  0.41408000  0.09043000  1.0
  C  C62  1  0.59398000  0.54870000  0.86519000  1.0
  C  C63  1  0.43079000  0.46634000  0.11930000  1.0
  C  C64  1  0.59071000  0.45594000  0.96353000  1.0
  C  C65  1  0.43447000  0.55877000  0.02105000  1.0
  C  C66  1  0.09478000  0.60430000  0.89366000  1.0
  C  C67  1  0.90017000  0.40907000  0.09891000  1.0
  C  C68  1  0.04094000  0.54978000  0.87045000  1.0
  C  C69  1  0.95557000  0.46551000  0.12174000  1.0
  C  C70  1  0.94737000  0.45580000  0.97013000  1.0
  C  C71  1  0.04936000  0.55948000  0.02199000  1.0
  C  C72  1  0.04137000  0.54847000  0.76846000  1.0
  C  C73  1  0.93551000  0.44193000  0.88102000  1.0
  C  C74  1  0.49654000  0.98649000  0.91108000  1.0
  C  C75  1  0.50766000  0.99728000  0.09059000  1.0
  C  C76  1  0.41761000  0.90772000  0.04264000  1.0
  C  C77  1  0.58714000  0.07587000  0.96057000  1.0
  C  C78  1  0.42366000  0.91360000  0.13073000  1.0
  C  C79  1  0.58060000  0.06956000  0.87336000  1.0
  Br  Br80  1  0.66149000  0.37179000  0.57669000  1.0
  Br  Br81  1  0.87244000  0.16468000  0.57598000  1.0
  Br  Br82  1  0.08449000  0.20463000  0.69991000  1.0
  Br  Br83  1  0.71020000  0.59105000  0.69929000  1.0
  Br  Br84  1  0.29666000  0.78818000  0.11610000  1.0
  Cl  Cl85  1  0.91298000  0.42390000  0.27256000  1.0
  O  O86  1  0.42954000  0.74282000  0.48492000  1.0
  O  O87  1  0.75752000  0.07345000  0.50991000  1.0
  O  O88  1  0.57949000  0.26327000  0.49824000  1.0
  O  O89  1  0.23771000  0.92404000  0.49566000  1.0
  O  O90  1  0.23631000  0.74283000  0.82975000  1.0
  O  O91  1  0.58478000  0.07951000  0.15098000  1.0
  O  O92  1  0.76475000  0.26857000  0.15758000  1.0
  O  O93  1  0.42228000  0.91645000  0.83891000  1.0
  O  O94  1  0.58341000  0.74255000  0.67818000  1.0
  O  O95  1  0.23654000  0.07796000  0.67801000  1.0
  O  O96  1  0.42963000  0.27321000  0.30796000  1.0
  O  O97  1  0.76734000  0.92266000  0.30859000  1.0
  O  O98  1  0.23046000  0.92330000  0.83469000  1.0
  O  O99  1  0.58300000  0.27120000  0.15663000  1.0
  O  O100  1  0.76427000  0.07535000  0.15749000  1.0
  O  O101  1  0.42852000  0.73585000  0.83509000  1.0
  O  O102  1  0.23556000  0.74099000  0.67716000  1.0
  O  O103  1  0.57453000  0.06886000  0.69316000  1.0
  O  O104  1  0.75970000  0.26562000  0.31487000  1.0
  O  O105  1  0.43192000  0.92611000  0.30469000  1.0
  O  O106  1  0.23733000  0.07695000  0.49785000  1.0
  O  O107  1  0.58302000  0.74332000  0.48628000  1.0
  O  O108  1  0.76369000  0.92207000  0.50633000  1.0
  O  O109  1  0.42766000  0.26912000  0.49514000  1.0
  O  O110  1  0.43695000  0.07228000  0.35824000  1.0
  O  O111  1  0.43270000  0.06734000  0.63203000  1.0
  O  O112  1  0.70417000  0.06838000  0.36411000  1.0
  O  O113  1  0.43539000  0.80074000  0.62683000  1.0
  O  O114  1  0.55009000  0.95063000  0.59637000  1.0
  O  O115  1  0.55346000  0.95400000  0.39474000  1.0
  O  O116  1  0.55176000  0.15061000  0.39820000  1.0
  O  O117  1  0.35361000  0.95365000  0.59184000  1.0
