# generated using pymatgen
data_CdH6C9N3ClO2
_symmetry_space_group_name_H-M   'P 1'
_cell_length_a   5.96054000
_cell_length_b   7.71054000
_cell_length_c   22.04670000
_cell_angle_alpha   89.99980000
_cell_angle_beta   89.99950000
_cell_angle_gamma   89.99930000
_symmetry_Int_Tables_number   1
_chemical_formula_structural   CdH6C9N3ClO2
_chemical_formula_sum   'Cd4 H24 C36 N12 Cl4 O8'
_cell_volume   1013.24389036
_cell_formula_units_Z   4
loop_
 _symmetry_equiv_pos_site_id
 _symmetry_equiv_pos_as_xyz
  1  'x, y, z'
loop_
 _atom_site_type_symbol
 _atom_site_label
 _atom_site_symmetry_multiplicity
 _atom_site_fract_x
 _atom_site_fract_y
 _atom_site_fract_z
 _atom_site_occupancy
  Cd  Cd0  1  0.23510000  0.31178000  0.71806000  1.0
  Cd  Cd1  1  0.73508000  0.68822000  0.28194000  1.0
  Cd  Cd2  1  0.23510000  0.81178000  0.78194000  1.0
  Cd  Cd3  1  0.73507000  0.18822000  0.21806000  1.0
  H  H4  1  0.21364000  0.58734000  0.37237000  1.0
  H  H5  1  0.71365000  0.41266000  0.62763000  1.0
  H  H6  1  0.21364000  0.08734000  0.12763000  1.0
  H  H7  1  0.71366000  0.91266000  0.87237000  1.0
  H  H8  1  0.08379000  0.05401000  0.34182000  1.0
  H  H9  1  0.58383000  0.94600000  0.65818000  1.0
  H  H10  1  0.08380000  0.55400000  0.15818000  1.0
  H  H11  1  0.58381000  0.44599000  0.84182000  1.0
  H  H12  1  0.60496000  0.16891000  0.36586000  1.0
  H  H13  1  0.10498000  0.83108000  0.63413000  1.0
  H  H14  1  0.60496000  0.66891000  0.13414000  1.0
  H  H15  1  0.10496000  0.33109000  0.86587000  1.0
  H  H16  1  0.85572000  0.10062000  0.45367000  1.0
  H  H17  1  0.35573000  0.89939000  0.54632000  1.0
  H  H18  1  0.85572000  0.60061000  0.04633000  1.0
  H  H19  1  0.35571000  0.39938000  0.95368000  1.0
  H  H20  1  0.71988000  0.14594000  0.55911000  1.0
  H  H21  1  0.21990000  0.85407000  0.44089000  1.0
  H  H22  1  0.71988000  0.64593000  0.94089000  1.0
  H  H23  1  0.21988000  0.35406000  0.05911000  1.0
  H  H24  1  0.09829000  0.35106000  0.49040000  1.0
  H  H25  1  0.59830000  0.64895000  0.50959000  1.0
  H  H26  1  0.09829000  0.85106000  0.00960000  1.0
  H  H27  1  0.59829000  0.14894000  0.99041000  1.0
  C  C28  1  0.14199000  0.46954000  0.35386000  1.0
  C  C29  1  0.64200000  0.53046000  0.64614000  1.0
  C  C30  1  0.14198000  0.96953000  0.14614000  1.0
  C  C31  1  0.64200000  0.03045000  0.85386000  1.0
  C  C32  1  0.08166000  0.19450000  0.33712000  1.0
  C  C33  1  0.58169000  0.80551000  0.66288000  1.0
  C  C34  1  0.08167000  0.69449000  0.16289000  1.0
  C  C35  1  0.58168000  0.30550000  0.83712000  1.0
  C  C36  1  0.34112000  0.26512000  0.42345000  1.0
  C  C37  1  0.84113000  0.73488000  0.57655000  1.0
  C  C38  1  0.34112000  0.76511000  0.07655000  1.0
  C  C39  1  0.84112000  0.23487000  0.92345000  1.0
  C  C40  1  0.55190000  0.19372000  0.41229000  1.0
  C  C41  1  0.05191000  0.80628000  0.58770000  1.0
  C  C42  1  0.55190000  0.69371000  0.08770000  1.0
  C  C43  1  0.05189000  0.30629000  0.91230000  1.0
  C  C44  1  0.68970000  0.15476000  0.46148000  1.0
  C  C45  1  0.18972000  0.84525000  0.53852000  1.0
  C  C46  1  0.68971000  0.65475000  0.03852000  1.0
  C  C47  1  0.18970000  0.34524000  0.96148000  1.0
  C  C48  1  0.61371000  0.18000000  0.52062000  1.0
  C  C49  1  0.11372000  0.82001000  0.47938000  1.0
  C  C50  1  0.61371000  0.67999000  0.97938000  1.0
  C  C51  1  0.11371000  0.32000000  0.02062000  1.0
  C  C52  1  0.39849000  0.24726000  0.53125000  1.0
  C  C53  1  0.89851000  0.75276000  0.46875000  1.0
  C  C54  1  0.39849000  0.74725000  0.96875000  1.0
  C  C55  1  0.89848000  0.25274000  0.03125000  1.0
  C  C56  1  0.26345000  0.29524000  0.48211000  1.0
  C  C57  1  0.76347000  0.70477000  0.51789000  1.0
  C  C58  1  0.26346000  0.79524000  0.01789000  1.0
  C  C59  1  0.76345000  0.20475000  0.98211000  1.0
  C  C60  1  0.30950000  0.26077000  0.59482000  1.0
  C  C61  1  0.80954000  0.73926000  0.40518000  1.0
  C  C62  1  0.30952000  0.76075000  0.90518000  1.0
  C  C63  1  0.80950000  0.23924000  0.09482000  1.0
  N  N64  1  0.95812000  0.28472000  0.29871000  1.0
  N  N65  1  0.45816000  0.71528000  0.70129000  1.0
  N  N66  1  0.95813000  0.78472000  0.20129000  1.0
  N  N67  1  0.45815000  0.21527000  0.79871000  1.0
  N  N68  1  0.99486000  0.45803000  0.30939000  1.0
  N  N69  1  0.49488000  0.54197000  0.69061000  1.0
  N  N70  1  0.99485000  0.95802000  0.19061000  1.0
  N  N71  1  0.49488000  0.04196000  0.80939000  1.0
  N  N72  1  0.19845000  0.30710000  0.37308000  1.0
  N  N73  1  0.69846000  0.69290000  0.62692000  1.0
  N  N74  1  0.19844000  0.80710000  0.12692000  1.0
  N  N75  1  0.69846000  0.19290000  0.87308000  1.0
  Cl  Cl76  1  0.98336000  0.53782000  0.76762000  1.0
  Cl  Cl77  1  0.48333000  0.46218000  0.23238000  1.0
  Cl  Cl78  1  0.98336000  0.03782000  0.73239000  1.0
  Cl  Cl79  1  0.48333000  0.96218000  0.26762000  1.0
  O  O80  1  0.42613000  0.18630000  0.63652000  1.0
  O  O81  1  0.92617000  0.81372000  0.36348000  1.0
  O  O82  1  0.42615000  0.68629000  0.86348000  1.0
  O  O83  1  0.92613000  0.31370000  0.13652000  1.0
  O  O84  1  0.13137000  0.34488000  0.60537000  1.0
  O  O85  1  0.63141000  0.65515000  0.39462000  1.0
  O  O86  1  0.13139000  0.84488000  0.89462000  1.0
  O  O87  1  0.63137000  0.15513000  0.10538000  1.0
