# generated using pymatgen
data_ZnH9C17O4
_symmetry_space_group_name_H-M   'P 1'
_cell_length_a   5.98651000
_cell_length_b   16.88016640
_cell_length_c   19.06470000
_cell_angle_alpha   105.77476465
_cell_angle_beta   99.03850000
_cell_angle_gamma   100.21553476
_symmetry_Int_Tables_number   1
_chemical_formula_structural   ZnH9C17O4
_chemical_formula_sum   'Zn4 H36 C68 O16'
_cell_volume   1781.21240532
_cell_formula_units_Z   4
loop_
 _symmetry_equiv_pos_site_id
 _symmetry_equiv_pos_as_xyz
  1  'x, y, z'
loop_
 _atom_site_type_symbol
 _atom_site_label
 _atom_site_symmetry_multiplicity
 _atom_site_fract_x
 _atom_site_fract_y
 _atom_site_fract_z
 _atom_site_occupancy
  Zn  Zn0  1  0.23945000  0.96789000  0.01401000  1.0
  Zn  Zn1  1  0.75772000  0.53217000  0.48608000  1.0
  Zn  Zn2  1  0.76058000  0.03213000  0.98600000  1.0
  Zn  Zn3  1  0.24215000  0.46780000  0.51390000  1.0
  H  H4  1  0.58438000  0.05418000  0.79349000  1.0
  H  H5  1  0.23704000  0.44570000  0.70650000  1.0
  H  H6  1  0.41564000  0.94580000  0.20651000  1.0
  H  H7  1  0.76300000  0.55434000  0.29348000  1.0
  H  H8  1  0.46442000  0.04729000  0.66009000  1.0
  H  H9  1  0.25755000  0.45264000  0.83993000  1.0
  H  H10  1  0.53554000  0.95267000  0.33989000  1.0
  H  H11  1  0.74257000  0.54741000  0.16005000  1.0
  H  H12  1  0.75563000  0.94021000  0.66033000  1.0
  H  H13  1  0.65520000  0.55945000  0.83963000  1.0
  H  H14  1  0.24430000  0.05979000  0.33970000  1.0
  H  H15  1  0.34492000  0.44058000  0.16038000  1.0
  H  H16  1  0.88036000  0.94112000  0.79206000  1.0
  H  H17  1  0.64707000  0.55856000  0.70790000  1.0
  H  H18  1  0.11963000  0.05887000  0.20796000  1.0
  H  H19  1  0.35293000  0.44145000  0.29211000  1.0
  H  H20  1  0.11958000  0.69823000  0.59139000  1.0
  H  H21  1  0.32994000  0.80138000  0.90823000  1.0
  H  H22  1  0.88031000  0.30173000  0.40860000  1.0
  H  H23  1  0.67013000  0.19862000  0.09177000  1.0
  H  H24  1  0.97469000  0.82594000  0.58736000  1.0
  H  H25  1  0.06158000  0.67375000  0.91247000  1.0
  H  H26  1  0.02518000  0.17402000  0.41264000  1.0
  H  H27  1  0.93852000  0.32624000  0.08753000  1.0
  H  H28  1  0.88003000  0.09686000  0.60205000  1.0
  H  H29  1  0.68052000  0.40324000  0.89805000  1.0
  H  H30  1  0.11984000  0.90310000  0.39795000  1.0
  H  H31  1  0.31961000  0.59678000  0.10195000  1.0
  H  H32  1  0.62746000  0.76142000  0.46709000  1.0
  H  H33  1  0.89939000  0.73830000  0.03247000  1.0
  H  H34  1  0.37240000  0.23856000  0.53289000  1.0
  H  H35  1  0.10075000  0.26174000  0.96754000  1.0
  H  H36  1  0.49028000  0.89199000  0.46543000  1.0
  H  H37  1  0.63346000  0.60777000  0.03429000  1.0
  H  H38  1  0.50959000  0.10798000  0.53458000  1.0
  H  H39  1  0.36671000  0.39226000  0.96572000  1.0
  C  C40  1  0.40424000  0.02813000  0.76338000  1.0
  C  C41  1  0.11299000  0.47171000  0.73662000  1.0
  C  C42  1  0.59573000  0.97185000  0.23662000  1.0
  C  C43  1  0.88707000  0.52832000  0.26338000  1.0
  C  C44  1  0.33643000  0.02463000  0.68934000  1.0
  C  C45  1  0.12283000  0.47523000  0.81067000  1.0
  C  C46  1  0.66350000  0.97534000  0.31066000  1.0
  C  C47  1  0.87728000  0.52481000  0.18932000  1.0
  C  C48  1  0.93768000  0.96487000  0.68945000  1.0
  C  C49  1  0.78344000  0.53482000  0.81051000  1.0
  C  C50  1  0.06230000  0.03512000  0.31057000  1.0
  C  C51  1  0.21663000  0.46521000  0.18950000  1.0
  C  C52  1  0.00656000  0.96534000  0.76300000  1.0
  C  C53  1  0.77821000  0.53437000  0.73696000  1.0
  C  C54  1  0.99346000  0.03466000  0.23702000  1.0
  C  C55  1  0.22180000  0.46565000  0.26305000  1.0
  C  C56  1  0.04066000  0.99220000  0.57263000  1.0
  C  C57  1  0.97601000  0.50767000  0.92732000  1.0
  C  C58  1  0.95924000  0.00778000  0.42738000  1.0
  C  C59  1  0.02415000  0.49236000  0.07268000  1.0
  C  C60  1  0.20059000  0.74127000  0.56429000  1.0
  C  C61  1  0.39524000  0.75838000  0.93534000  1.0
  C  C62  1  0.79930000  0.25870000  0.43571000  1.0
  C  C63  1  0.60486000  0.24164000  0.06466000  1.0
  C  C64  1  0.32207000  0.99865000  0.87863000  1.0
  C  C65  1  0.94482000  0.50120000  0.62135000  1.0
  C  C66  1  0.67794000  0.00136000  0.12137000  1.0
  C  C67  1  0.05511000  0.49879000  0.37862000  1.0
  C  C68  1  0.24037000  0.99719000  0.80032000  1.0
  C  C69  1  0.94295000  0.50259000  0.69965000  1.0
  C  C70  1  0.75964000  0.00280000  0.19970000  1.0
  C  C71  1  0.05704000  0.49742000  0.30035000  1.0
  C  C72  1  0.44714000  0.63989000  0.52311000  1.0
  C  C73  1  0.78441000  0.85990000  0.97666000  1.0
  C  C74  1  0.55274000  0.36008000  0.47688000  1.0
  C  C75  1  0.21561000  0.14012000  0.02335000  1.0
  C  C76  1  0.21949000  0.86744000  0.52513000  1.0
  C  C77  1  0.32734000  0.63229000  0.97465000  1.0
  C  C78  1  0.78039000  0.13253000  0.47488000  1.0
  C  C79  1  0.67280000  0.36772000  0.02535000  1.0
  C  C80  1  0.12096000  0.81321000  0.56229000  1.0
  C  C81  1  0.24574000  0.68647000  0.93745000  1.0
  C  C82  1  0.87894000  0.18677000  0.43770000  1.0
  C  C83  1  0.75438000  0.31354000  0.06256000  1.0
  C  C84  1  0.38081000  0.72171000  0.52878000  1.0
  C  C85  1  0.63060000  0.77796000  0.97082000  1.0
  C  C86  1  0.61907000  0.27826000  0.47121000  1.0
  C  C87  1  0.36949000  0.22207000  0.02919000  1.0
  C  C88  1  0.10287000  0.99303000  0.65149000  1.0
  C  C89  1  0.95857000  0.50676000  0.84846000  1.0
  C  C90  1  0.89705000  0.00695000  0.34850000  1.0
  C  C91  1  0.04153000  0.49328000  0.15152000  1.0
  C  C92  1  0.92701000  0.05264000  0.55647000  1.0
  C  C93  1  0.81774000  0.44743000  0.94360000  1.0
  C  C94  1  0.07287000  0.94734000  0.44355000  1.0
  C  C95  1  0.18243000  0.55260000  0.05640000  1.0
  C  C96  1  0.11479000  0.93771000  0.51497000  1.0
  C  C97  1  0.16251000  0.56211000  0.98494000  1.0
  C  C98  1  0.88510000  0.06227000  0.48505000  1.0
  C  C99  1  0.83766000  0.43791000  0.01508000  1.0
  C  C100  1  0.48618000  0.77692000  0.49390000  1.0
  C  C101  1  0.71577000  0.72276000  0.00569000  1.0
  C  C102  1  0.51370000  0.22306000  0.50609000  1.0
  C  C103  1  0.28434000  0.27727000  0.99431000  1.0
  C  C104  1  0.40704000  0.84920000  0.49245000  1.0
  C  C105  1  0.56587000  0.65051000  0.00723000  1.0
  C  C106  1  0.59286000  0.15078000  0.50755000  1.0
  C  C107  1  0.43428000  0.34951000  0.99278000  1.0
  O  O108  1  0.19456000  0.95019000  0.90518000  1.0
  O  O109  1  0.83922000  0.54972000  0.59488000  1.0
  O  O110  1  0.80548000  0.04982000  0.09483000  1.0
  O  O111  1  0.16069000  0.45028000  0.40510000  1.0
  O  O112  1  0.35223000  0.59240000  0.55744000  1.0
  O  O113  1  0.70258000  0.90754000  0.94250000  1.0
  O  O114  1  0.64768000  0.40757000  0.44255000  1.0
  O  O115  1  0.29747000  0.09248000  0.05750000  1.0
  O  O116  1  0.51691000  0.04923000  0.91418000  1.0
  O  O117  1  0.05353000  0.45064000  0.58577000  1.0
  O  O118  1  0.48308000  0.95078000  0.08582000  1.0
  O  O119  1  0.94637000  0.54933000  0.41420000  1.0
  O  O120  1  0.59086000  0.62082000  0.48177000  1.0
  O  O121  1  0.98857000  0.87890000  0.01800000  1.0
  O  O122  1  0.40902000  0.37916000  0.51821000  1.0
  O  O123  1  0.01144000  0.12114000  0.98202000  1.0
