# generated using pymatgen
data_NdH12C15NO9
_symmetry_space_group_name_H-M   'P 1'
_cell_length_a   9.15629000
_cell_length_b   10.15980000
_cell_length_c   11.49140000
_cell_angle_alpha   96.26640000
_cell_angle_beta   98.49040000
_cell_angle_gamma   111.84400000
_symmetry_Int_Tables_number   1
_chemical_formula_structural   NdH12C15NO9
_chemical_formula_sum   'Nd2 H24 C30 N2 O18'
_cell_volume   965.56825533
_cell_formula_units_Z   2
loop_
 _symmetry_equiv_pos_site_id
 _symmetry_equiv_pos_as_xyz
  1  'x, y, z'
loop_
 _atom_site_type_symbol
 _atom_site_label
 _atom_site_symmetry_multiplicity
 _atom_site_fract_x
 _atom_site_fract_y
 _atom_site_fract_z
 _atom_site_occupancy
  Nd  Nd0  1  0.71580000  0.96175000  0.00857000  1.0
  Nd  Nd1  1  0.28421000  0.03826000  0.99143000  1.0
  H  H2  1  0.35060000  0.50209000  0.04395000  1.0
  H  H3  1  0.19609000  0.81072000  0.21983000  1.0
  H  H4  1  0.89715000  0.35691000  0.15660000  1.0
  H  H5  1  0.17254000  0.59761000  0.40971000  1.0
  H  H6  1  0.26806000  0.71871000  0.62236000  1.0
  H  H7  1  0.90644000  0.89663000  0.58140000  1.0
  H  H8  1  0.73763000  0.84306000  0.38218000  1.0
  H  H9  1  0.75466000  0.73843000  0.26487000  1.0
  H  H10  1  0.71330000  0.86500000  0.75552000  1.0
  H  H11  1  0.90163000  0.96130000  0.78951000  1.0
  H  H12  1  0.45488000  0.67652000  0.84080000  1.0
  H  H13  1  0.40018000  0.80422000  0.81282000  1.0
  H  H14  1  0.64941000  0.49792000  0.95605000  1.0
  H  H15  1  0.80391000  0.18928000  0.78016000  1.0
  H  H16  1  0.10285000  0.64308000  0.84339000  1.0
  H  H17  1  0.82747000  0.40239000  0.59029000  1.0
  H  H18  1  0.73195000  0.28129000  0.37765000  1.0
  H  H19  1  0.09354000  0.10335000  0.41861000  1.0
  H  H20  1  0.26237000  0.15693000  0.61783000  1.0
  H  H21  1  0.24534000  0.26156000  0.73513000  1.0
  H  H22  1  0.28670000  0.13502000  0.24449000  1.0
  H  H23  1  0.09837000  0.03872000  0.21049000  1.0
  H  H24  1  0.54514000  0.32349000  0.15920000  1.0
  H  H25  1  0.59982000  0.19578000  0.18718000  1.0
  C  C26  1  0.08929000  0.26343000  0.03955000  1.0
  C  C27  1  0.11969000  0.41468000  0.09240000  1.0
  C  C28  1  0.26275000  0.52662000  0.08635000  1.0
  C  C29  1  0.28915000  0.66936000  0.12973000  1.0
  C  C30  1  0.43507000  0.78604000  0.10887000  1.0
  C  C31  1  0.17723000  0.69987000  0.18621000  1.0
  C  C32  1  0.04036000  0.58563000  0.19888000  1.0
  C  C33  1  0.00728000  0.44404000  0.14933000  1.0
  C  C34  1  0.98616000  0.67778000  0.37739000  1.0
  C  C35  1  0.11441000  0.66280000  0.44830000  1.0
  C  C36  1  0.16792000  0.73074000  0.56736000  1.0
  C  C37  1  0.09259000  0.81551000  0.61519000  1.0
  C  C38  1  0.15241000  0.89233000  0.74038000  1.0
  C  C39  1  0.96191000  0.82822000  0.54375000  1.0
  C  C40  1  0.90306000  0.75754000  0.42433000  1.0
  C  C41  1  0.91071000  0.73656000  0.96044000  1.0
  C  C42  1  0.88031000  0.58531000  0.90760000  1.0
  C  C43  1  0.73725000  0.47337000  0.91364000  1.0
  C  C44  1  0.71087000  0.33065000  0.87027000  1.0
  C  C45  1  0.56494000  0.21398000  0.89114000  1.0
  C  C46  1  0.82276000  0.30014000  0.81378000  1.0
  C  C47  1  0.95964000  0.41436000  0.80113000  1.0
  C  C48  1  0.99272000  0.55597000  0.85067000  1.0
  C  C49  1  0.01386000  0.32222000  0.62261000  1.0
  C  C50  1  0.88560000  0.33720000  0.55171000  1.0
  C  C51  1  0.83209000  0.26926000  0.43263000  1.0
  C  C52  1  0.90741000  0.18448000  0.38481000  1.0
  C  C53  1  0.84758000  0.10767000  0.25963000  1.0
  C  C54  1  0.03809000  0.17177000  0.45625000  1.0
  C  C55  1  0.09693000  0.24243000  0.57567000  1.0
  N  N56  1  0.76830000  0.76024000  0.35519000  1.0
  N  N57  1  0.23170000  0.23975000  0.64481000  1.0
  O  O58  1  0.56579000  0.76835000  0.11768000  1.0
  O  O59  1  0.09257000  0.97669000  0.78580000  1.0
  O  O60  1  0.20982000  0.23799000  0.01955000  1.0
  O  O61  1  0.94655000  0.16920000  0.01745000  1.0
  O  O62  1  0.42461000  0.89983000  0.07561000  1.0
  O  O63  1  0.92923000  0.61301000  0.25816000  1.0
  O  O64  1  0.26934000  0.87620000  0.80620000  1.0
  O  O65  1  0.79367000  0.95665000  0.80072000  1.0
  O  O66  1  0.49533000  0.77801000  0.83472000  1.0
  O  O67  1  0.43421000  0.23164000  0.88231000  1.0
  O  O68  1  0.90742000  0.02331000  0.21419000  1.0
  O  O69  1  0.79018000  0.76200000  0.98043000  1.0
  O  O70  1  0.05345000  0.83082000  0.98255000  1.0
  O  O71  1  0.57538000  0.10018000  0.92439000  1.0
  O  O72  1  0.07077000  0.38698000  0.74183000  1.0
  O  O73  1  0.73065000  0.12380000  0.19380000  1.0
  O  O74  1  0.20632000  0.04337000  0.19929000  1.0
  O  O75  1  0.50467000  0.22200000  0.16528000  1.0
