# generated using pymatgen
data_CuH12C17S2N5
_symmetry_space_group_name_H-M   'P 1'
_cell_length_a   7.14430000
_cell_length_b   14.39440000
_cell_length_c   16.37500000
_cell_angle_alpha   106.47500000
_cell_angle_beta   90.00000000
_cell_angle_gamma   90.00000000
_symmetry_Int_Tables_number   1
_chemical_formula_structural   CuH12C17S2N5
_chemical_formula_sum   'Cu4 H48 C68 S8 N20'
_cell_volume   1614.83297585
_cell_formula_units_Z   4
loop_
 _symmetry_equiv_pos_site_id
 _symmetry_equiv_pos_as_xyz
  1  'x, y, z'
loop_
 _atom_site_type_symbol
 _atom_site_label
 _atom_site_symmetry_multiplicity
 _atom_site_fract_x
 _atom_site_fract_y
 _atom_site_fract_z
 _atom_site_occupancy
  Cu  Cu0  1  0.86148000  0.16052000  0.62505000  1.0
  Cu  Cu1  1  0.36148000  0.33949000  0.87494000  1.0
  Cu  Cu2  1  0.13851000  0.83949000  0.37495000  1.0
  Cu  Cu3  1  0.63852000  0.66051000  0.12506000  1.0
  H  H4  1  0.52484000  0.83594000  0.44202000  1.0
  H  H5  1  0.02484000  0.66406000  0.05797000  1.0
  H  H6  1  0.47517000  0.16405000  0.55798000  1.0
  H  H7  1  0.97517000  0.33594000  0.94203000  1.0
  H  H8  1  0.60059000  0.13739000  0.75249000  1.0
  H  H9  1  0.10059000  0.36262000  0.74749000  1.0
  H  H10  1  0.39939000  0.86261000  0.24750000  1.0
  H  H11  1  0.89938000  0.63738000  0.25251000  1.0
  H  H12  1  0.83997000  0.28281000  0.34373000  1.0
  H  H13  1  0.33998000  0.21719000  0.15626000  1.0
  H  H14  1  0.16003000  0.71719000  0.65626000  1.0
  H  H15  1  0.66002000  0.78281000  0.84374000  1.0
  H  H16  1  0.45479000  0.83489000  0.69678000  1.0
  H  H17  1  0.95477000  0.66513000  0.80322000  1.0
  H  H18  1  0.54522000  0.16511000  0.30322000  1.0
  H  H19  1  0.04523000  0.33489000  0.19679000  1.0
  H  H20  1  0.44463000  0.00570000  0.79674000  1.0
  H  H21  1  0.94463000  0.49431000  0.70325000  1.0
  H  H22  1  0.55537000  0.99429000  0.20326000  1.0
  H  H23  1  0.05536000  0.50570000  0.29675000  1.0
  H  H24  1  0.73755000  0.56161000  0.54327000  1.0
  H  H25  1  0.23756000  0.93840000  0.95673000  1.0
  H  H26  1  0.26244000  0.43839000  0.45673000  1.0
  H  H27  1  0.76244000  0.06161000  0.04327000  1.0
  H  H28  1  0.75878000  0.95070000  0.51913000  1.0
  H  H29  1  0.25877000  0.54931000  0.98086000  1.0
  H  H30  1  0.24122000  0.04930000  0.48086000  1.0
  H  H31  1  0.74122000  0.45069000  0.01914000  1.0
  H  H32  1  0.43564000  0.36109000  0.19355000  1.0
  H  H33  1  0.93569000  0.13892000  0.30645000  1.0
  H  H34  1  0.56435000  0.63891000  0.80644000  1.0
  H  H35  1  0.06434000  0.86108000  0.69356000  1.0
  H  H36  1  0.72858000  0.73199000  0.63837000  1.0
  H  H37  1  0.22857000  0.76802000  0.86162000  1.0
  H  H38  1  0.27143000  0.26801000  0.36163000  1.0
  H  H39  1  0.77143000  0.23199000  0.13838000  1.0
  H  H40  1  0.54076000  0.67291000  0.33810000  1.0
  H  H41  1  0.04079000  0.82710000  0.16189000  1.0
  H  H42  1  0.45922000  0.32709000  0.66190000  1.0
  H  H43  1  0.95923000  0.17290000  0.83811000  1.0
  H  H44  1  0.85295000  0.44821000  0.44154000  1.0
  H  H45  1  0.35296000  0.05179000  0.05845000  1.0
  H  H46  1  0.14705000  0.55179000  0.55845000  1.0
  H  H47  1  0.64705000  0.94821000  0.94155000  1.0
  H  H48  1  0.41923000  0.52769000  0.28910000  1.0
  H  H49  1  0.91928000  0.97231000  0.21092000  1.0
  H  H50  1  0.58075000  0.47231000  0.71091000  1.0
  H  H51  1  0.08076000  0.02769000  0.78909000  1.0
  C  C52  1  0.60801000  0.88270000  0.60161000  1.0
  C  C53  1  0.10800000  0.61730000  0.89838000  1.0
  C  C54  1  0.39199000  0.11729000  0.39839000  1.0
  C  C55  1  0.89200000  0.38270000  0.10162000  1.0
  C  C56  1  0.57274000  0.77300000  0.46016000  1.0
  C  C57  1  0.07275000  0.72701000  0.03983000  1.0
  C  C58  1  0.42725000  0.22700000  0.53984000  1.0
  C  C59  1  0.92726000  0.27300000  0.96016000  1.0
  C  C60  1  0.58119000  0.68130000  0.40384000  1.0
  C  C61  1  0.08121000  0.81870000  0.09616000  1.0
  C  C62  1  0.41880000  0.31869000  0.59616000  1.0
  C  C63  1  0.91880000  0.18131000  0.90384000  1.0
  C  C64  1  0.59953000  0.06376000  0.71036000  1.0
  C  C65  1  0.09953000  0.43625000  0.78963000  1.0
  C  C66  1  0.40046000  0.93624000  0.28964000  1.0
  C  C67  1  0.90045000  0.56375000  0.21037000  1.0
  C  C68  1  0.74857000  0.33886000  0.33293000  1.0
  C  C69  1  0.24859000  0.16113000  0.16707000  1.0
  C  C70  1  0.25143000  0.66114000  0.66707000  1.0
  C  C71  1  0.75141000  0.83887000  0.83293000  1.0
  C  C72  1  0.51783000  0.89578000  0.67961000  1.0
  C  C73  1  0.01782000  0.60424000  0.82039000  1.0
  C  C74  1  0.48217000  0.10422000  0.32039000  1.0
  C  C75  1  0.98218000  0.39577000  0.17961000  1.0
  C  C76  1  0.75511000  0.43195000  0.38856000  1.0
  C  C77  1  0.25512000  0.06805000  0.11144000  1.0
  C  C78  1  0.24489000  0.56805000  0.61144000  1.0
  C  C79  1  0.74488000  0.93195000  0.88856000  1.0
  C  C80  1  0.51294000  0.98913000  0.73463000  1.0
  C  C81  1  0.01293000  0.51088000  0.76536000  1.0
  C  C82  1  0.48706000  0.01086000  0.26536000  1.0
  C  C83  1  0.98706000  0.48913000  0.23464000  1.0
  C  C84  1  0.63598000  0.50311000  0.37440000  1.0
  C  C85  1  0.13600000  0.99690000  0.12561000  1.0
  C  C86  1  0.36401000  0.49689000  0.62560000  1.0
  C  C87  1  0.86401000  0.00310000  0.87439000  1.0
  C  C88  1  0.86402000  0.32553000  0.54430000  1.0
  C  C89  1  0.36402000  0.17447000  0.95570000  1.0
  C  C90  1  0.13597000  0.67448000  0.45571000  1.0
  C  C91  1  0.63597000  0.82550000  0.04429000  1.0
  C  C92  1  0.69109000  0.62016000  0.51790000  1.0
  C  C93  1  0.19110000  0.87985000  0.98210000  1.0
  C  C94  1  0.30890000  0.37984000  0.48210000  1.0
  C  C95  1  0.80890000  0.12015000  0.01790000  1.0
  C  C96  1  0.72841000  0.32768000  0.78044000  1.0
  C  C97  1  0.22841000  0.17233000  0.71956000  1.0
  C  C98  1  0.27159000  0.67233000  0.21956000  1.0
  C  C99  1  0.77159000  0.82767000  0.28044000  1.0
  C  C100  1  0.51711000  0.47649000  0.30332000  1.0
  C  C101  1  0.01715000  0.02351000  0.19669000  1.0
  C  C102  1  0.48288000  0.52351000  0.69668000  1.0
  C  C103  1  0.98287000  0.97649000  0.80331000  1.0
  C  C104  1  0.68787000  0.96089000  0.58015000  1.0
  C  C105  1  0.18787000  0.53912000  0.91984000  1.0
  C  C106  1  0.31213000  0.03911000  0.41985000  1.0
  C  C107  1  0.81213000  0.46088000  0.08016000  1.0
  C  C108  1  0.52355000  0.38187000  0.25054000  1.0
  C  C109  1  0.02358000  0.11813000  0.24946000  1.0
  C  C110  1  0.47644000  0.61813000  0.74946000  1.0
  C  C111  1  0.97644000  0.88187000  0.75054000  1.0
  C  C112  1  0.63623000  0.60214000  0.43216000  1.0
  C  C113  1  0.13625000  0.89786000  0.06784000  1.0
  C  C114  1  0.36376000  0.39785000  0.56785000  1.0
  C  C115  1  0.86376000  0.10214000  0.93216000  1.0
  C  C116  1  0.68423000  0.71292000  0.57179000  1.0
  C  C117  1  0.18423000  0.78709000  0.92821000  1.0
  C  C118  1  0.31577000  0.28707000  0.42821000  1.0
  C  C119  1  0.81577000  0.21292000  0.07179000  1.0
  S  S120  1  0.87725000  0.20710000  0.50174000  1.0
  S  S121  1  0.37725000  0.29290000  0.99826000  1.0
  S  S122  1  0.12274000  0.79291000  0.49827000  1.0
  S  S123  1  0.62276000  0.70708000  0.00173000  1.0
  S  S124  1  0.64410000  0.41395000  0.85967000  1.0
  S  S125  1  0.14409000  0.08606000  0.64033000  1.0
  S  S126  1  0.35590000  0.58606000  0.14033000  1.0
  S  S127  1  0.85591000  0.91394000  0.35967000  1.0
  N  N128  1  0.62209000  0.78755000  0.54299000  1.0
  N  N129  1  0.12209000  0.71246000  0.95701000  1.0
  N  N130  1  0.37791000  0.21245000  0.45701000  1.0
  N  N131  1  0.87792000  0.28755000  0.04299000  1.0
  N  N132  1  0.79006000  0.26611000  0.72243000  1.0
  N  N133  1  0.29007000  0.23390000  0.77757000  1.0
  N  N134  1  0.20994000  0.73390000  0.27758000  1.0
  N  N135  1  0.70993000  0.76610000  0.22243000  1.0
  N  N136  1  0.68500000  0.05082000  0.63441000  1.0
  N  N137  1  0.18500000  0.44919000  0.86558000  1.0
  N  N138  1  0.31499000  0.94918000  0.36559000  1.0
  N  N139  1  0.81499000  0.55082000  0.13442000  1.0
  N  N140  1  0.63554000  0.31275000  0.26453000  1.0
  N  N141  1  0.13557000  0.18725000  0.23547000  1.0
  N  N142  1  0.36445000  0.68725000  0.73546000  1.0
  N  N143  1  0.86444000  0.81275000  0.76454000  1.0
  N  N144  1  0.85289000  0.41071000  0.57314000  1.0
  N  N145  1  0.35288000  0.08930000  0.92685000  1.0
  N  N146  1  0.14710000  0.58930000  0.42686000  1.0
  N  N147  1  0.64711000  0.91069000  0.07314000  1.0
