# generated using pymatgen
data_Zn5P2H20(C13O7)2
_symmetry_space_group_name_H-M   'P 1'
_cell_length_a   5.34906000
_cell_length_b   7.76782000
_cell_length_c   16.74123295
_cell_angle_alpha   77.60069791
_cell_angle_beta   80.85242349
_cell_angle_gamma   89.98420000
_symmetry_Int_Tables_number   1
_chemical_formula_structural   Zn5P2H20(C13O7)2
_chemical_formula_sum   'Zn5 P2 H20 C26 O14'
_cell_volume   670.32811049
_cell_formula_units_Z   1
loop_
 _symmetry_equiv_pos_site_id
 _symmetry_equiv_pos_as_xyz
  1  'x, y, z'
loop_
 _atom_site_type_symbol
 _atom_site_label
 _atom_site_symmetry_multiplicity
 _atom_site_fract_x
 _atom_site_fract_y
 _atom_site_fract_z
 _atom_site_occupancy
  Zn  Zn0  1  0.78158000  0.14968000  0.92621000  1.0
  Zn  Zn1  1  0.70806000  0.85037000  0.07375000  1.0
  Zn  Zn2  1  0.29111000  0.85623000  0.91757000  1.0
  Zn  Zn3  1  0.20872000  0.14390000  0.08250000  1.0
  Zn  Zn4  1  0.99611000  0.50007000  0.00003000  1.0
  P  P5  1  0.56662000  0.52297000  0.87395000  1.0
  P  P6  1  0.44125000  0.47706000  0.12608000  1.0
  H  H7  1  0.73194000  0.81416000  0.91908000  1.0
  H  H8  1  0.65113000  0.18580000  0.08096000  1.0
  H  H9  1  0.22233000  0.25724000  0.93775000  1.0
  H  H10  1  0.16045000  0.74292000  0.06229000  1.0
  H  H11  1  0.97415000  0.74211000  0.75690000  1.0
  H  H12  1  0.73140000  0.25754000  0.24344000  1.0
  H  H13  1  0.04956000  0.83597000  0.60599000  1.0
  H  H14  1  0.65532000  0.16365000  0.39436000  1.0
  H  H15  1  0.35988000  0.55461000  0.59641000  1.0
  H  H16  1  0.95621000  0.44540000  0.40325000  1.0
  H  H17  1  0.28235000  0.46811000  0.74691000  1.0
  H  H18  1  0.02994000  0.53218000  0.25274000  1.0
  H  H19  1  0.11100000  0.90557000  0.48652000  1.0
  H  H20  1  0.59702000  0.09434000  0.51376000  1.0
  H  H21  1  0.18933000  0.99094000  0.33477000  1.0
  H  H22  1  0.52345000  0.00919000  0.66550000  1.0
  H  H23  1  0.52022000  0.69434000  0.32505000  1.0
  H  H24  1  0.84430000  0.30572000  0.67461000  1.0
  H  H25  1  0.42985000  0.61536000  0.47683000  1.0
  H  H26  1  0.90590000  0.38441000  0.52282000  1.0
  C  C27  1  0.62374000  0.59792000  0.76286000  1.0
  C  C28  1  0.38716000  0.40205000  0.23715000  1.0
  C  C29  1  0.83808000  0.70266000  0.72154000  1.0
  C  C30  1  0.55989000  0.29710000  0.27866000  1.0
  C  C31  1  0.88070000  0.75433000  0.63535000  1.0
  C  C32  1  0.51594000  0.24535000  0.36485000  1.0
  C  C33  1  0.71329000  0.70210000  0.58729000  1.0
  C  C34  1  0.30033000  0.29768000  0.41270000  1.0
  C  C35  1  0.49715000  0.59831000  0.63000000  1.0
  C  C36  1  0.12713000  0.40167000  0.36979000  1.0
  C  C37  1  0.45217000  0.54777000  0.71599000  1.0
  C  C38  1  0.16855000  0.45228000  0.28382000  1.0
  C  C39  1  0.76301000  0.75297000  0.49543000  1.0
  C  C40  1  0.25785000  0.24684000  0.50456000  1.0
  C  C41  1  0.97719000  0.85902000  0.45254000  1.0
  C  C42  1  0.42913000  0.14087000  0.54761000  1.0
  C  C43  1  0.02393000  0.90752000  0.36645000  1.0
  C  C44  1  0.38971000  0.09254000  0.63370000  1.0
  C  C45  1  0.86050000  0.84778000  0.31980000  1.0
  C  C46  1  0.17955000  0.15239000  0.68018000  1.0
  C  C47  1  0.64773000  0.74111000  0.36115000  1.0
  C  C48  1  0.00803000  0.25892000  0.63865000  1.0
  C  C49  1  0.59895000  0.69646000  0.44723000  1.0
  C  C50  1  0.04543000  0.30340000  0.55256000  1.0
  C  C51  1  0.90909000  0.89565000  0.22752000  1.0
  C  C52  1  0.13581000  0.10458000  0.77246000  1.0
  O  O53  1  0.31449000  0.60238000  0.90699000  1.0
  O  O54  1  0.22218000  0.39781000  0.09293000  1.0
  O  O55  1  0.79203000  0.58860000  0.90693000  1.0
  O  O56  1  0.69956000  0.41137000  0.09320000  1.0
  O  O57  1  0.52291000  0.32071000  0.89440000  1.0
  O  O58  1  0.41789000  0.67936000  0.10566000  1.0
  O  O59  1  0.05923000  0.02942000  0.19393000  1.0
  O  O60  1  0.25296000  0.97110000  0.80613000  1.0
  O  O61  1  0.79824000  0.80193000  0.18959000  1.0
  O  O62  1  0.98631000  0.19801000  0.81030000  1.0
  O  O63  1  0.63262000  0.90768000  0.93988000  1.0
  O  O64  1  0.57244000  0.09231000  0.06018000  1.0
  O  O65  1  0.06337000  0.22679000  0.97938000  1.0
  O  O66  1  0.04305000  0.77343000  0.02063000  1.0
