# generated using pymatgen
data_H14PbC12(NCl)2
_symmetry_space_group_name_H-M   'P 1'
_cell_length_a   7.92751000
_cell_length_b   9.62833000
_cell_length_c   9.62820000
_cell_angle_alpha   86.75760000
_cell_angle_beta   88.13050000
_cell_angle_gamma   88.12780000
_symmetry_Int_Tables_number   1
_chemical_formula_structural   H14PbC12(NCl)2
_chemical_formula_sum   'H28 Pb2 C24 N4 Cl4'
_cell_volume   732.99083924
_cell_formula_units_Z   2
loop_
 _symmetry_equiv_pos_site_id
 _symmetry_equiv_pos_as_xyz
  1  'x, y, z'
loop_
 _atom_site_type_symbol
 _atom_site_label
 _atom_site_symmetry_multiplicity
 _atom_site_fract_x
 _atom_site_fract_y
 _atom_site_fract_z
 _atom_site_occupancy
  H  H0  1  0.62376000  0.13462000  0.75557000  1.0
  H  H1  1  0.87625000  0.24443000  0.86537000  1.0
  H  H2  1  0.37624000  0.86538000  0.24445000  1.0
  H  H3  1  0.12377000  0.75557000  0.13464000  1.0
  H  H4  1  0.54305000  0.22931000  0.31889000  1.0
  H  H5  1  0.95693000  0.68112000  0.77070000  1.0
  H  H6  1  0.45694000  0.77070000  0.68112000  1.0
  H  H7  1  0.04305000  0.31889000  0.22931000  1.0
  H  H8  1  0.23824000  0.18225000  0.36602000  1.0
  H  H9  1  0.26176000  0.63400000  0.81773000  1.0
  H  H10  1  0.76175000  0.81776000  0.63400000  1.0
  H  H11  1  0.73825000  0.36601000  0.18224000  1.0
  H  H12  1  0.13903000  0.11889000  0.61061000  1.0
  H  H13  1  0.36097000  0.38939000  0.88106000  1.0
  H  H14  1  0.86097000  0.88111000  0.38940000  1.0
  H  H15  1  0.63906000  0.61062000  0.11889000  1.0
  H  H16  1  0.86300000  0.19017000  0.60834000  1.0
  H  H17  1  0.63701000  0.39165000  0.80985000  1.0
  H  H18  1  0.13700000  0.80983000  0.39167000  1.0
  H  H19  1  0.36302000  0.60833000  0.19016000  1.0
  H  H20  1  0.85022000  0.15389000  0.42973000  1.0
  H  H21  1  0.64977000  0.57025000  0.84612000  1.0
  H  H22  1  0.14978000  0.84611000  0.57028000  1.0
  H  H23  1  0.35024000  0.42972000  0.15388000  1.0
  H  H24  1  0.81513000  0.32613000  0.48095000  1.0
  H  H25  1  0.68483000  0.51904000  0.67388000  1.0
  H  H26  1  0.18486000  0.67387000  0.51906000  1.0
  H  H27  1  0.31515000  0.48095000  0.32612000  1.0
  Pb  Pb28  1  0.24999000  0.06199000  0.93799000  1.0
  Pb  Pb29  1  0.75000000  0.93801000  0.06200000  1.0
  C  C30  1  0.54213000  0.14976000  0.66641000  1.0
  C  C31  1  0.95787000  0.33360000  0.85021000  1.0
  C  C32  1  0.45786000  0.85023000  0.33360000  1.0
  C  C33  1  0.04214000  0.66641000  0.14978000  1.0
  C  C34  1  0.60975000  0.19015000  0.53472000  1.0
  C  C35  1  0.89025000  0.46527000  0.80986000  1.0
  C  C36  1  0.39026000  0.80986000  0.46529000  1.0
  C  C37  1  0.10976000  0.53472000  0.19015000  1.0
  C  C38  1  0.49741000  0.20292000  0.42500000  1.0
  C  C39  1  0.00257000  0.57501000  0.79709000  1.0
  C  C40  1  0.50260000  0.79708000  0.57501000  1.0
  C  C41  1  0.99742000  0.42500000  0.20291000  1.0
  C  C42  1  0.32689000  0.17762000  0.45039000  1.0
  C  C43  1  0.17309000  0.54961000  0.82234000  1.0
  C  C44  1  0.67311000  0.82238000  0.54961000  1.0
  C  C45  1  0.82690000  0.45040000  0.17762000  1.0
  C  C46  1  0.27107000  0.14062000  0.58547000  1.0
  C  C47  1  0.22892000  0.41455000  0.85935000  1.0
  C  C48  1  0.72893000  0.85938000  0.41455000  1.0
  C  C49  1  0.77108000  0.58546000  0.14063000  1.0
  C  C50  1  0.79446000  0.21633000  0.51285000  1.0
  C  C51  1  0.70553000  0.48714000  0.78367000  1.0
  C  C52  1  0.20554000  0.78367000  0.48716000  1.0
  C  C53  1  0.29446000  0.51284000  0.21632000  1.0
  N  N54  1  0.37749000  0.12634000  0.69150000  1.0
  N  N55  1  0.12252000  0.30850000  0.87363000  1.0
  N  N56  1  0.62251000  0.87366000  0.30851000  1.0
  N  N57  1  0.87750000  0.69150000  0.12635000  1.0
  Cl  Cl58  1  0.96893000  0.95698000  0.79907000  1.0
  Cl  Cl59  1  0.53104000  0.20092000  0.04302000  1.0
  Cl  Cl60  1  0.03104000  0.04303000  0.20092000  1.0
  Cl  Cl61  1  0.46894000  0.79906000  0.95698000  1.0
