# generated using pymatgen
data_ZnH10C9NO5
_symmetry_space_group_name_H-M   'P 1'
_cell_length_a   7.17808000
_cell_length_b   7.46399000
_cell_length_c   23.01390000
_cell_angle_alpha   89.99960000
_cell_angle_beta   89.99950000
_cell_angle_gamma   89.01770000
_symmetry_Int_Tables_number   1
_chemical_formula_structural   ZnH10C9NO5
_chemical_formula_sum   'Zn4 H40 C36 N4 O20'
_cell_volume   1232.83721492
_cell_formula_units_Z   4
loop_
 _symmetry_equiv_pos_site_id
 _symmetry_equiv_pos_as_xyz
  1  'x, y, z'
loop_
 _atom_site_type_symbol
 _atom_site_label
 _atom_site_symmetry_multiplicity
 _atom_site_fract_x
 _atom_site_fract_y
 _atom_site_fract_z
 _atom_site_occupancy
  Zn  Zn0  1  0.42702000  0.40835000  0.78334000  1.0
  Zn  Zn1  1  0.07297000  0.09164000  0.28333000  1.0
  Zn  Zn2  1  0.57298000  0.59164000  0.21666000  1.0
  Zn  Zn3  1  0.92702000  0.90835000  0.71666000  1.0
  H  H4  1  0.53990000  0.14671000  0.72648000  1.0
  H  H5  1  0.96010000  0.35330000  0.22648000  1.0
  H  H6  1  0.46009000  0.85329000  0.27352000  1.0
  H  H7  1  0.03989000  0.64670000  0.77352000  1.0
  H  H8  1  0.31683000  0.14740000  0.72582000  1.0
  H  H9  1  0.18318000  0.35259000  0.22582000  1.0
  H  H10  1  0.68316000  0.85259000  0.27418000  1.0
  H  H11  1  0.81681000  0.64740000  0.77418000  1.0
  H  H12  1  0.43237000  0.46044000  0.64911000  1.0
  H  H13  1  0.06762000  0.03957000  0.14910000  1.0
  H  H14  1  0.56762000  0.53956000  0.35089000  1.0
  H  H15  1  0.93238000  0.96043000  0.85089000  1.0
  H  H16  1  0.43156000  0.67995000  0.61514000  1.0
  H  H17  1  0.06845000  0.82005000  0.11514000  1.0
  H  H18  1  0.56844000  0.32004000  0.38485000  1.0
  H  H19  1  0.93154000  0.17994000  0.88486000  1.0
  H  H20  1  0.35344000  0.61369000  0.99660000  1.0
  H  H21  1  0.14655000  0.88633000  0.49660000  1.0
  H  H22  1  0.64653000  0.38631000  0.00340000  1.0
  H  H23  1  0.85346000  0.11372000  0.50341000  1.0
  H  H24  1  0.37224000  0.40109000  0.91233000  1.0
  H  H25  1  0.12772000  0.09891000  0.41233000  1.0
  H  H26  1  0.62772000  0.59890000  0.08767000  1.0
  H  H27  1  0.87226000  0.90111000  0.58767000  1.0
  H  H28  1  0.45126000  0.81530000  0.79600000  1.0
  H  H29  1  0.04874000  0.68469000  0.29600000  1.0
  H  H30  1  0.54877000  0.18469000  0.20400000  1.0
  H  H31  1  0.95127000  0.31530000  0.70401000  1.0
  H  H32  1  0.43561000  0.04433000  0.87418000  1.0
  H  H33  1  0.06440000  0.45566000  0.37419000  1.0
  H  H34  1  0.56442000  0.95565000  0.12582000  1.0
  H  H35  1  0.93563000  0.54435000  0.62582000  1.0
  H  H36  1  0.32982000  0.10711000  0.97772000  1.0
  H  H37  1  0.17020000  0.39290000  0.47773000  1.0
  H  H38  1  0.67018000  0.89289000  0.02227000  1.0
  H  H39  1  0.82983000  0.60712000  0.52228000  1.0
  H  H40  1  0.32285000  0.93008000  0.02925000  1.0
  H  H41  1  0.17716000  0.56994000  0.52926000  1.0
  H  H42  1  0.67714000  0.06993000  0.97074000  1.0
  H  H43  1  0.82287000  0.43008000  0.47075000  1.0
  C  C44  1  0.60305000  0.65116000  0.69153000  1.0
  C  C45  1  0.89693000  0.84884000  0.19153000  1.0
  C  C46  1  0.39694000  0.34883000  0.30846000  1.0
  C  C47  1  0.10306000  0.15117000  0.80847000  1.0
  C  C48  1  0.43011000  0.60633000  0.65619000  1.0
  C  C49  1  0.06989000  0.89368000  0.15619000  1.0
  C  C50  1  0.56989000  0.39367000  0.34380000  1.0
  C  C51  1  0.93010000  0.10632000  0.84381000  1.0
  C  C52  1  0.25276000  0.65257000  0.68987000  1.0
  C  C53  1  0.24724000  0.84743000  0.18987000  1.0
  C  C54  1  0.74724000  0.34742000  0.31012000  1.0
  C  C55  1  0.75276000  0.15258000  0.81013000  1.0
  C  C56  1  0.37604000  0.66403000  0.95269000  1.0
  C  C57  1  0.12395000  0.83597000  0.45269000  1.0
  C  C58  1  0.62393000  0.33596000  0.04730000  1.0
  C  C59  1  0.87607000  0.16406000  0.54731000  1.0
  C  C60  1  0.38686000  0.54495000  0.90633000  1.0
  C  C61  1  0.11312000  0.95505000  0.40633000  1.0
  C  C62  1  0.61312000  0.45504000  0.09367000  1.0
  C  C63  1  0.88688000  0.04496000  0.59367000  1.0
  C  C64  1  0.43003000  0.77556000  0.84098000  1.0
  C  C65  1  0.06997000  0.72442000  0.34099000  1.0
  C  C66  1  0.56999000  0.22442000  0.15902000  1.0
  C  C67  1  0.93004000  0.27558000  0.65902000  1.0
  C  C68  1  0.42148000  0.90301000  0.88495000  1.0
  C  C69  1  0.07853000  0.59699000  0.38496000  1.0
  C  C70  1  0.57853000  0.09698000  0.11504000  1.0
  C  C71  1  0.92149000  0.40302000  0.61505000  1.0
  C  C72  1  0.39456000  0.84773000  0.94238000  1.0
  C  C73  1  0.10544000  0.65228000  0.44238000  1.0
  C  C74  1  0.60543000  0.15226000  0.05762000  1.0
  C  C75  1  0.89458000  0.34775000  0.55763000  1.0
  C  C76  1  0.39813000  0.98068000  0.99118000  1.0
  C  C77  1  0.10190000  0.51934000  0.49118000  1.0
  C  C78  1  0.60188000  0.01932000  0.00882000  1.0
  C  C79  1  0.89814000  0.48069000  0.50883000  1.0
  N  N80  1  0.41407000  0.59917000  0.85133000  1.0
  N  N81  1  0.08592000  0.90083000  0.35133000  1.0
  N  N82  1  0.58592000  0.40082000  0.14867000  1.0
  N  N83  1  0.91408000  0.09918000  0.64867000  1.0
  O  O84  1  0.63076000  0.56706000  0.73946000  1.0
  O  O85  1  0.86923000  0.93292000  0.23946000  1.0
  O  O86  1  0.36924000  0.43292000  0.26053000  1.0
  O  O87  1  0.13076000  0.06707000  0.76054000  1.0
  O  O88  1  0.70950000  0.76957000  0.67161000  1.0
  O  O89  1  0.79050000  0.73043000  0.17160000  1.0
  O  O90  1  0.29050000  0.23042000  0.32839000  1.0
  O  O91  1  0.20949000  0.26957000  0.82840000  1.0
  O  O92  1  0.22438000  0.56899000  0.73764000  1.0
  O  O93  1  0.27560000  0.93102000  0.23764000  1.0
  O  O94  1  0.77562000  0.43102000  0.26236000  1.0
  O  O95  1  0.72439000  0.06898000  0.76236000  1.0
  O  O96  1  0.14327000  0.77069000  0.66898000  1.0
  O  O97  1  0.35673000  0.72932000  0.16897000  1.0
  O  O98  1  0.85673000  0.22932000  0.33102000  1.0
  O  O99  1  0.64326000  0.27067000  0.83102000  1.0
  O  O100  1  0.42761000  0.21950000  0.71447000  1.0
  O  O101  1  0.07239000  0.28049000  0.21446000  1.0
  O  O102  1  0.57238000  0.78049000  0.28553000  1.0
  O  O103  1  0.92760000  0.71950000  0.78553000  1.0
