# generated using pymatgen
data_MgH5C5O4
_symmetry_space_group_name_H-M   'P 1'
_cell_length_a   6.87927000
_cell_length_b   15.13850194
_cell_length_c   15.14720000
_cell_angle_alpha   117.70603601
_cell_angle_beta   98.70690000
_cell_angle_gamma   98.72511394
_symmetry_Int_Tables_number   1
_chemical_formula_structural   MgH5C5O4
_chemical_formula_sum   'Mg6 H30 C30 O24'
_cell_volume   1335.31102239
_cell_formula_units_Z   6
loop_
 _symmetry_equiv_pos_site_id
 _symmetry_equiv_pos_as_xyz
  1  'x, y, z'
loop_
 _atom_site_type_symbol
 _atom_site_label
 _atom_site_symmetry_multiplicity
 _atom_site_fract_x
 _atom_site_fract_y
 _atom_site_fract_z
 _atom_site_occupancy
  Mg  Mg0  1  0.70098000  0.32223000  0.73715000  1.0
  Mg  Mg1  1  0.37880000  0.41476000  0.67788000  1.0
  Mg  Mg2  1  0.96404000  0.26306000  0.58553000  1.0
  Mg  Mg3  1  0.29902000  0.67777000  0.26284000  1.0
  Mg  Mg4  1  0.62119000  0.58524000  0.32212000  1.0
  Mg  Mg5  1  0.03596000  0.73694000  0.41446000  1.0
  H  H6  1  0.69409000  0.56079000  0.53968000  1.0
  H  H7  1  0.13333000  0.97903000  0.43910000  1.0
  H  H8  1  0.15439000  0.45967000  0.02095000  1.0
  H  H9  1  0.30590000  0.43921000  0.46031000  1.0
  H  H10  1  0.86667000  0.02097000  0.56089000  1.0
  H  H11  1  0.84561000  0.54032000  0.97905000  1.0
  H  H12  1  0.77740000  0.28235000  0.92259000  1.0
  H  H13  1  0.49473000  0.64036000  0.71803000  1.0
  H  H14  1  0.85545000  0.07802000  0.36022000  1.0
  H  H15  1  0.22264000  0.71766000  0.07740000  1.0
  H  H16  1  0.50525000  0.35965000  0.28199000  1.0
  H  H17  1  0.14456000  0.92198000  0.63978000  1.0
  H  H18  1  0.56542000  0.18253000  0.90045000  1.0
  H  H19  1  0.38237000  0.71765000  0.81780000  1.0
  H  H20  1  0.66597000  0.10047000  0.28273000  1.0
  H  H21  1  0.43462000  0.81747000  0.09955000  1.0
  H  H22  1  0.61759000  0.28235000  0.18221000  1.0
  H  H23  1  0.33405000  0.89953000  0.71727000  1.0
  H  H24  1  0.55381000  0.31555000  0.96092000  1.0
  H  H25  1  0.23781000  0.64534000  0.68486000  1.0
  H  H26  1  0.59341000  0.03957000  0.35489000  1.0
  H  H27  1  0.44622000  0.68445000  0.03908000  1.0
  H  H28  1  0.76216000  0.35467000  0.31516000  1.0
  H  H29  1  0.40659000  0.96042000  0.64510000  1.0
  H  H30  1  0.39924000  0.25262000  0.79485000  1.0
  H  H31  1  0.14653000  0.54180000  0.74758000  1.0
  H  H32  1  0.60489000  0.20564000  0.45820000  1.0
  H  H33  1  0.60077000  0.74738000  0.20516000  1.0
  H  H34  1  0.85345000  0.45819000  0.25243000  1.0
  H  H35  1  0.39512000  0.79436000  0.54179000  1.0
  C  C36  1  0.75888000  0.43820000  0.61292000  1.0
  C  C37  1  0.32076000  0.17469000  0.56207000  1.0
  C  C38  1  0.14613000  0.38700000  0.82542000  1.0
  C  C39  1  0.24110000  0.56179000  0.38707000  1.0
  C  C40  1  0.67925000  0.82531000  0.43793000  1.0
  C  C41  1  0.85388000  0.61301000  0.17459000  1.0
  C  C42  1  0.88618000  0.46652000  0.55414000  1.0
  C  C43  1  0.41974000  0.08762000  0.53361000  1.0
  C  C44  1  0.33215000  0.44569000  0.91240000  1.0
  C  C45  1  0.11380000  0.53348000  0.44585000  1.0
  C  C46  1  0.58027000  0.91238000  0.46639000  1.0
  C  C47  1  0.66785000  0.55431000  0.08760000  1.0
  C  C48  1  0.83031000  0.53497000  0.52288000  1.0
  C  C49  1  0.29542000  0.98799000  0.46497000  1.0
  C  C50  1  0.30748000  0.47675000  0.01200000  1.0
  C  C51  1  0.16966000  0.46503000  0.47711000  1.0
  C  C52  1  0.70458000  0.01201000  0.53503000  1.0
  C  C53  1  0.69252000  0.52325000  0.98799000  1.0
  C  C54  1  0.06220000  0.42925000  0.53074000  1.0
  C  C55  1  0.63293000  0.10139000  0.57093000  1.0
  C  C56  1  0.53157000  0.46944000  0.89863000  1.0
  C  C57  1  0.93777000  0.57075000  0.46927000  1.0
  C  C58  1  0.36707000  0.89861000  0.42907000  1.0
  C  C59  1  0.46843000  0.53056000  0.10137000  1.0
  C  C60  1  0.61133000  0.25667000  0.90291000  1.0
  C  C61  1  0.35430000  0.64613000  0.74367000  1.0
  C  C62  1  0.70912000  0.09774000  0.35423000  1.0
  C  C63  1  0.38870000  0.74333000  0.09709000  1.0
  C  C64  1  0.64568000  0.35387000  0.25635000  1.0
  C  C65  1  0.29089000  0.90226000  0.64576000  1.0
  O  O66  1  0.81927000  0.38370000  0.65141000  1.0
  O  O67  1  0.43566000  0.26764000  0.61666000  1.0
  O  O68  1  0.16805000  0.34872000  0.73252000  1.0
  O  O69  1  0.18073000  0.61631000  0.34860000  1.0
  O  O70  1  0.56435000  0.73236000  0.38334000  1.0
  O  O71  1  0.83194000  0.65127000  0.26747000  1.0
  O  O72  1  0.59782000  0.46870000  0.62499000  1.0
  O  O73  1  0.12918000  0.15633000  0.53164000  1.0
  O  O74  1  0.97293000  0.37484000  0.84379000  1.0
  O  O75  1  0.40216000  0.53129000  0.37500000  1.0
  O  O76  1  0.87082000  0.84367000  0.46835000  1.0
  O  O77  1  0.02706000  0.62515000  0.15620000  1.0
  O  O78  1  0.13128000  0.36531000  0.55832000  1.0
  O  O79  1  0.76594000  0.19283000  0.63500000  1.0
  O  O80  1  0.57323000  0.44199000  0.80722000  1.0
  O  O81  1  0.86871000  0.63469000  0.44167000  1.0
  O  O82  1  0.23406000  0.80717000  0.36500000  1.0
  O  O83  1  0.42677000  0.55801000  0.19277000  1.0
  O  O84  1  0.53743000  0.24417000  0.80207000  1.0
  O  O85  1  0.29318000  0.55761000  0.75604000  1.0
  O  O86  1  0.73596000  0.19849000  0.44264000  1.0
  O  O87  1  0.46256000  0.75582000  0.19792000  1.0
  O  O88  1  0.70680000  0.44239000  0.24396000  1.0
  O  O89  1  0.26405000  0.80151000  0.55735000  1.0
