# generated using pymatgen
data_HgH8(C2N)4
_symmetry_space_group_name_H-M   'P 1'
_cell_length_a   5.89292000
_cell_length_b   9.10795000
_cell_length_c   9.61358596
_cell_angle_alpha   61.75801784
_cell_angle_beta   77.53564886
_cell_angle_gamma   89.93370000
_symmetry_Int_Tables_number   1
_chemical_formula_structural   HgH8(C2N)4
_chemical_formula_sum   'Hg2 H16 C16 N8'
_cell_volume   440.77777447
_cell_formula_units_Z   2
loop_
 _symmetry_equiv_pos_site_id
 _symmetry_equiv_pos_as_xyz
  1  'x, y, z'
loop_
 _atom_site_type_symbol
 _atom_site_label
 _atom_site_symmetry_multiplicity
 _atom_site_fract_x
 _atom_site_fract_y
 _atom_site_fract_z
 _atom_site_occupancy
  Hg  Hg0  1  0.25021000  0.13213000  0.00007000  1.0
  Hg  Hg1  1  0.74977000  0.86786000  0.99993000  1.0
  H  H2  1  0.29477000  0.76243000  0.37225000  1.0
  H  H3  1  0.20470000  0.13481000  0.62798000  1.0
  H  H4  1  0.70524000  0.23760000  0.62773000  1.0
  H  H5  1  0.79526000  0.86518000  0.37202000  1.0
  H  H6  1  0.63720000  0.51293000  0.20362000  1.0
  H  H7  1  0.86400000  0.71711000  0.79615000  1.0
  H  H8  1  0.36279000  0.48707000  0.79640000  1.0
  H  H9  1  0.13604000  0.28287000  0.20388000  1.0
  H  H10  1  0.51997000  0.45273000  0.41124000  1.0
  H  H11  1  0.98021000  0.86440000  0.58823000  1.0
  H  H12  1  0.48001000  0.54727000  0.58878000  1.0
  H  H13  1  0.01983000  0.13563000  0.41175000  1.0
  H  H14  1  0.73354000  0.33986000  0.35744000  1.0
  H  H15  1  0.76757000  0.69728000  0.64261000  1.0
  H  H16  1  0.26643000  0.66010000  0.64258000  1.0
  H  H17  1  0.23244000  0.30269000  0.35739000  1.0
  C  C18  1  0.00621000  0.56930000  0.41897000  1.0
  C  C19  1  0.49375000  0.98826000  0.58105000  1.0
  C  C20  1  0.99379000  0.43068000  0.58104000  1.0
  C  C21  1  0.50626000  0.01176000  0.41891000  1.0
  C  C22  1  0.15805000  0.72122000  0.33465000  1.0
  C  C23  1  0.34159000  0.05596000  0.66549000  1.0
  C  C24  1  0.84195000  0.27874000  0.66538000  1.0
  C  C25  1  0.65842000  0.94405000  0.33450000  1.0
  C  C26  1  0.87091000  0.58344000  0.30922000  1.0
  C  C27  1  0.62922000  0.89270000  0.69066000  1.0
  C  C28  1  0.12913000  0.41661000  0.69074000  1.0
  C  C29  1  0.37070000  0.10733000  0.30936000  1.0
  C  C30  1  0.68180000  0.46627000  0.32164000  1.0
  C  C31  1  0.81903000  0.78811000  0.67817000  1.0
  C  C32  1  0.31823000  0.53375000  0.67837000  1.0
  C  C33  1  0.18096000  0.21190000  0.32184000  1.0
  N  N34  1  0.11728000  0.82032000  0.18768000  1.0
  N  N35  1  0.38239000  0.00817000  0.81242000  1.0
  N  N36  1  0.88272000  0.17967000  0.81231000  1.0
  N  N37  1  0.61763000  0.99179000  0.18760000  1.0
  N  N38  1  0.94441000  0.73493000  0.17257000  1.0
  N  N39  1  0.55553000  0.90770000  0.82729000  1.0
  N  N40  1  0.05557000  0.26513000  0.82736000  1.0
  N  N41  1  0.44450000  0.09227000  0.17274000  1.0
