# generated using pymatgen
data_CuH4C3IN
_symmetry_space_group_name_H-M   'P 1'
_cell_length_a   6.73450000
_cell_length_b   9.81923000
_cell_length_c   14.96440000
_cell_angle_alpha   90.00070000
_cell_angle_beta   89.99970000
_cell_angle_gamma   89.99930000
_symmetry_Int_Tables_number   1
_chemical_formula_structural   CuH4C3IN
_chemical_formula_sum   'Cu8 H32 C24 I8 N8'
_cell_volume   989.55992365
_cell_formula_units_Z   8
loop_
 _symmetry_equiv_pos_site_id
 _symmetry_equiv_pos_as_xyz
  1  'x, y, z'
loop_
 _atom_site_type_symbol
 _atom_site_label
 _atom_site_symmetry_multiplicity
 _atom_site_fract_x
 _atom_site_fract_y
 _atom_site_fract_z
 _atom_site_occupancy
  Cu  Cu0  1  0.56891000  0.59755000  0.67809000  1.0
  Cu  Cu1  1  0.56891000  0.40247000  0.82190000  1.0
  Cu  Cu2  1  0.93107000  0.40244000  0.17810000  1.0
  Cu  Cu3  1  0.93108000  0.59752000  0.32189000  1.0
  Cu  Cu4  1  0.43108000  0.40244000  0.32190000  1.0
  Cu  Cu5  1  0.43107000  0.59753000  0.17810000  1.0
  Cu  Cu6  1  0.06891000  0.59755000  0.82190000  1.0
  Cu  Cu7  1  0.06892000  0.40247000  0.67810000  1.0
  H  H8  1  0.75002000  0.53459000  0.50000000  1.0
  H  H9  1  0.74995000  0.46541000  0.00001000  1.0
  H  H10  1  0.25001000  0.46542000  0.50000000  1.0
  H  H11  1  0.24998000  0.53458000  0.00000000  1.0
  H  H12  1  0.75002000  0.02855000  0.49999000  1.0
  H  H13  1  0.75001000  0.97147000  0.99999000  1.0
  H  H14  1  0.25001000  0.97147000  0.50001000  1.0
  H  H15  1  0.25002000  0.02854000  0.00000000  1.0
  H  H16  1  0.62414000  0.02829000  0.64852000  1.0
  H  H17  1  0.62409000  0.97173000  0.85146000  1.0
  H  H18  1  0.87590000  0.97172000  0.14852000  1.0
  H  H19  1  0.87590000  0.02828000  0.35147000  1.0
  H  H20  1  0.37587000  0.97172000  0.35148000  1.0
  H  H21  1  0.37591000  0.02826000  0.14854000  1.0
  H  H22  1  0.12411000  0.02827000  0.85149000  1.0
  H  H23  1  0.12412000  0.97174000  0.64854000  1.0
  H  H24  1  0.48209000  0.88104000  0.68097000  1.0
  H  H25  1  0.48205000  0.11900000  0.81902000  1.0
  H  H26  1  0.01794000  0.11898000  0.18096000  1.0
  H  H27  1  0.01794000  0.88101000  0.31902000  1.0
  H  H28  1  0.51792000  0.11897000  0.31903000  1.0
  H  H29  1  0.51792000  0.88101000  0.18098000  1.0
  H  H30  1  0.98208000  0.88102000  0.81904000  1.0
  H  H31  1  0.98208000  0.11900000  0.68099000  1.0
  H  H32  1  0.73307000  0.89197000  0.71167000  1.0
  H  H33  1  0.73302000  0.10806000  0.78832000  1.0
  H  H34  1  0.76697000  0.10804000  0.21167000  1.0
  H  H35  1  0.76696000  0.89195000  0.28832000  1.0
  H  H36  1  0.26693000  0.10804000  0.28833000  1.0
  H  H37  1  0.26697000  0.89194000  0.21168000  1.0
  H  H38  1  0.23305000  0.89196000  0.78833000  1.0
  H  H39  1  0.23306000  0.10806000  0.71167000  1.0
  C  C40  1  0.75002000  0.64589000  0.50000000  1.0
  C  C41  1  0.74996000  0.35412000  0.00001000  1.0
  C  C42  1  0.25001000  0.35414000  0.50000000  1.0
  C  C43  1  0.24999000  0.64588000  0.00001000  1.0
  C  C44  1  0.68855000  0.84626000  0.57539000  1.0
  C  C45  1  0.68853000  0.15374000  0.92461000  1.0
  C  C46  1  0.81145000  0.15373000  0.07538000  1.0
  C  C47  1  0.81147000  0.84625000  0.42460000  1.0
  C  C48  1  0.31145000  0.15372000  0.42461000  1.0
  C  C49  1  0.31147000  0.84625000  0.07539000  1.0
  C  C50  1  0.18855000  0.84625000  0.92461000  1.0
  C  C51  1  0.18855000  0.15375000  0.57539000  1.0
  C  C52  1  0.75000000  0.91751000  0.49999000  1.0
  C  C53  1  0.75000000  0.08246000  0.99999000  1.0
  C  C54  1  0.25000000  0.08246000  0.50000000  1.0
  C  C55  1  0.25002000  0.91753000  0.00001000  1.0
  C  C56  1  0.62780000  0.91764000  0.65819000  1.0
  C  C57  1  0.62775000  0.08236000  0.84180000  1.0
  C  C58  1  0.87223000  0.08234000  0.15819000  1.0
  C  C59  1  0.87223000  0.91764000  0.34180000  1.0
  C  C60  1  0.37222000  0.08234000  0.34180000  1.0
  C  C61  1  0.37224000  0.91764000  0.15819000  1.0
  C  C62  1  0.12779000  0.91765000  0.84181000  1.0
  C  C63  1  0.12778000  0.08236000  0.65821000  1.0
  I  I64  1  0.18846000  0.65533000  0.65643000  1.0
  I  I65  1  0.18844000  0.34470000  0.84358000  1.0
  I  I66  1  0.31153000  0.34468000  0.15643000  1.0
  I  I67  1  0.31155000  0.65530000  0.34358000  1.0
  I  I68  1  0.81154000  0.34467000  0.34357000  1.0
  I  I69  1  0.81155000  0.65529000  0.15642000  1.0
  I  I70  1  0.68844000  0.65532000  0.84357000  1.0
  I  I71  1  0.68845000  0.34470000  0.65642000  1.0
  N  N72  1  0.68742000  0.70778000  0.57481000  1.0
  N  N73  1  0.68739000  0.29224000  0.92519000  1.0
  N  N74  1  0.81257000  0.29224000  0.07481000  1.0
  N  N75  1  0.81260000  0.70778000  0.42519000  1.0
  N  N76  1  0.31259000  0.29224000  0.42519000  1.0
  N  N77  1  0.31259000  0.70775000  0.07481000  1.0
  N  N78  1  0.18740000  0.70777000  0.92520000  1.0
  N  N79  1  0.18741000  0.29225000  0.57482000  1.0
