# generated using pymatgen
data_La2H11C15O16
_symmetry_space_group_name_H-M   'P 1'
_cell_length_a   10.47100000
_cell_length_b   14.20740000
_cell_length_c   16.46130000
_cell_angle_alpha   72.33180000
_cell_angle_beta   71.46700000
_cell_angle_gamma   68.38900000
_symmetry_Int_Tables_number   1
_chemical_formula_structural   La2H11C15O16
_chemical_formula_sum   'La8 H44 C60 O64'
_cell_volume   2109.82989387
_cell_formula_units_Z   4
loop_
 _symmetry_equiv_pos_site_id
 _symmetry_equiv_pos_as_xyz
  1  'x, y, z'
loop_
 _atom_site_type_symbol
 _atom_site_label
 _atom_site_symmetry_multiplicity
 _atom_site_fract_x
 _atom_site_fract_y
 _atom_site_fract_z
 _atom_site_occupancy
  La  La0  1  0.75607000  0.20435000  0.12712000  1.0
  La  La1  1  0.08763000  0.29561000  0.37287000  1.0
  La  La2  1  0.24393000  0.79565000  0.87288000  1.0
  La  La3  1  0.91237000  0.70438000  0.62714000  1.0
  La  La4  1  0.05827000  0.06433000  0.28013000  1.0
  La  La5  1  0.40274000  0.43565000  0.21990000  1.0
  La  La6  1  0.94174000  0.93567000  0.71988000  1.0
  La  La7  1  0.59726000  0.56434000  0.78010000  1.0
  H  H8  1  0.88850000  0.12730000  0.94873000  1.0
  H  H9  1  0.96476000  0.37279000  0.55119000  1.0
  H  H10  1  0.11149000  0.87269000  0.05127000  1.0
  H  H11  1  0.03529000  0.62719000  0.44879000  1.0
  H  H12  1  0.02340000  0.07120000  0.99290000  1.0
  H  H13  1  0.08748000  0.42908000  0.50700000  1.0
  H  H14  1  0.97662000  0.92885000  0.00708000  1.0
  H  H15  1  0.91223000  0.57119000  0.49289000  1.0
  H  H16  1  0.55276000  0.38948000  0.01728000  1.0
  H  H17  1  0.95970000  0.11045000  0.48276000  1.0
  H  H18  1  0.44724000  0.61052000  0.98273000  1.0
  H  H19  1  0.04030000  0.88955000  0.51724000  1.0
  H  H20  1  0.45518000  0.31780000  0.07091000  1.0
  H  H21  1  0.84402000  0.18220000  0.42918000  1.0
  H  H22  1  0.54481000  0.68220000  0.92909000  1.0
  H  H23  1  0.15598000  0.81780000  0.57082000  1.0
  H  H24  1  0.64060000  0.07440000  0.08112000  1.0
  H  H25  1  0.79624000  0.42540000  0.41887000  1.0
  H  H26  1  0.35941000  0.92560000  0.91888000  1.0
  H  H27  1  0.20375000  0.57459000  0.58113000  1.0
  H  H28  1  0.65788000  0.14366000  0.98556000  1.0
  H  H29  1  0.78737000  0.35623000  0.51446000  1.0
  H  H30  1  0.34213000  0.85634000  0.01444000  1.0
  H  H31  1  0.21264000  0.64377000  0.48554000  1.0
  H  H32  1  0.31627000  0.05106000  0.10666000  1.0
  H  H33  1  0.47403000  0.44882000  0.39338000  1.0
  H  H34  1  0.68373000  0.94894000  0.89334000  1.0
  H  H35  1  0.52594000  0.55117000  0.60663000  1.0
  H  H36  1  0.29180000  0.16222000  0.12203000  1.0
  H  H37  1  0.57619000  0.33774000  0.37795000  1.0
  H  H38  1  0.70820000  0.83778000  0.87797000  1.0
  H  H39  1  0.42381000  0.66227000  0.62205000  1.0
  H  H40  1  0.67834000  0.79935000  0.45671000  1.0
  H  H41  1  0.93459000  0.70065000  0.04316000  1.0
  H  H42  1  0.32164000  0.20065000  0.54330000  1.0
  H  H43  1  0.06540000  0.29935000  0.95685000  1.0
  H  H44  1  0.44359000  0.85400000  0.41917000  1.0
  H  H45  1  0.71687000  0.64607000  0.08086000  1.0
  H  H46  1  0.55640000  0.14600000  0.58083000  1.0
  H  H47  1  0.28313000  0.35393000  0.91915000  1.0
  H  H48  1  0.70391000  0.84733000  0.22602000  1.0
  H  H49  1  0.77717000  0.65251000  0.27456000  1.0
  H  H50  1  0.29609000  0.15267000  0.77397000  1.0
  H  H51  1  0.22283000  0.34749000  0.72544000  1.0
  C  C52  1  0.69896000  0.95248000  0.41376000  1.0
  C  C53  1  0.06531000  0.54752000  0.08612000  1.0
  C  C54  1  0.30104000  0.04751000  0.58624000  1.0
  C  C55  1  0.93469000  0.45248000  0.91389000  1.0
  C  C56  1  0.62911000  0.87963000  0.42799000  1.0
  C  C57  1  0.93688000  0.62039000  0.07190000  1.0
  C  C58  1  0.37088000  0.12037000  0.57201000  1.0
  C  C59  1  0.06311000  0.37961000  0.92811000  1.0
  C  C60  1  0.49934000  0.90973000  0.40759000  1.0
  C  C61  1  0.81674000  0.59032000  0.09238000  1.0
  C  C62  1  0.50066000  0.09027000  0.59241000  1.0
  C  C63  1  0.18326000  0.40968000  0.90763000  1.0
  C  C64  1  0.43428000  0.01403000  0.37422000  1.0
  C  C65  1  0.82252000  0.48603000  0.12577000  1.0
  C  C66  1  0.56572000  0.98597000  0.62577000  1.0
  C  C67  1  0.17748000  0.51396000  0.87424000  1.0
  C  C68  1  0.50307000  0.08815000  0.35911000  1.0
  C  C69  1  0.95035000  0.41188000  0.14082000  1.0
  C  C70  1  0.49693000  0.91184000  0.64089000  1.0
  C  C71  1  0.04965000  0.58812000  0.85919000  1.0
  C  C72  1  0.63596000  0.05721000  0.37860000  1.0
  C  C73  1  0.07180000  0.44277000  0.12130000  1.0
  C  C74  1  0.36405000  0.94279000  0.62140000  1.0
  C  C75  1  0.92820000  0.55724000  0.87871000  1.0
  C  C76  1  0.83799000  0.91434000  0.43916000  1.0
  C  C77  1  0.19163000  0.58561000  0.06083000  1.0
  C  C78  1  0.16201000  0.08564000  0.56084000  1.0
  C  C79  1  0.80838000  0.41438000  0.93917000  1.0
  C  C80  1  0.70476000  0.14019000  0.36161000  1.0
  C  C81  1  0.20652000  0.35977000  0.13832000  1.0
  C  C82  1  0.29525000  0.85980000  0.63839000  1.0
  C  C83  1  0.79348000  0.64023000  0.86168000  1.0
  C  C84  1  0.44884000  0.20104000  0.31854000  1.0
  C  C85  1  0.96834000  0.29901000  0.18141000  1.0
  C  C86  1  0.55116000  0.79896000  0.68145000  1.0
  C  C87  1  0.03167000  0.70099000  0.81860000  1.0
  C  C88  1  0.29303000  0.04100000  0.35615000  1.0
  C  C89  1  0.69017000  0.45904000  0.14393000  1.0
  C  C90  1  0.70697000  0.95900000  0.64385000  1.0
  C  C91  1  0.30984000  0.54096000  0.85607000  1.0
  C  C92  1  0.80976000  0.80325000  0.23567000  1.0
  C  C93  1  0.84856000  0.69668000  0.26477000  1.0
  C  C94  1  0.19023000  0.19676000  0.76433000  1.0
  C  C95  1  0.15144000  0.30333000  0.73523000  1.0
  C  C96  1  0.90834000  0.85646000  0.21734000  1.0
  C  C97  1  0.98215000  0.64350000  0.28286000  1.0
  C  C98  1  0.09164000  0.14354000  0.78266000  1.0
  C  C99  1  0.01785000  0.35650000  0.71714000  1.0
  C  C100  1  0.04586000  0.80297000  0.23028000  1.0
  C  C101  1  0.07911000  0.69704000  0.26977000  1.0
  C  C102  1  0.95414000  0.19704000  0.76971000  1.0
  C  C103  1  0.92089000  0.30297000  0.73022000  1.0
  C  C104  1  0.86276000  0.97132000  0.18778000  1.0
  C  C105  1  0.02195000  0.52864000  0.31231000  1.0
  C  C106  1  0.13724000  0.02868000  0.81222000  1.0
  C  C107  1  0.97804000  0.47137000  0.68770000  1.0
  C  C108  1  0.15842000  0.85804000  0.19425000  1.0
  C  C109  1  0.21078000  0.64194000  0.30576000  1.0
  C  C110  1  0.84158000  0.14196000  0.80574000  1.0
  C  C111  1  0.78922000  0.35807000  0.69423000  1.0
  O  O112  1  0.92690000  0.96520000  0.40396000  1.0
  O  O113  1  0.29605000  0.53473000  0.09614000  1.0
  O  O114  1  0.07310000  0.03479000  0.59605000  1.0
  O  O115  1  0.70395000  0.46526000  0.90387000  1.0
  O  O116  1  0.86069000  0.83103000  0.49631000  1.0
  O  O117  1  0.18834000  0.66892000  0.00369000  1.0
  O  O118  1  0.13933000  0.16894000  0.50367000  1.0
  O  O119  1  0.81167000  0.33108000  0.99631000  1.0
  O  O120  1  0.79589000  0.15090000  0.28814000  1.0
  O  O121  1  0.23485000  0.34903000  0.21182000  1.0
  O  O122  1  0.20412000  0.84909000  0.71186000  1.0
  O  O123  1  0.76516000  0.65097000  0.78818000  1.0
  O  O124  1  0.66859000  0.19557000  0.41660000  1.0
  O  O125  1  0.28068000  0.30439000  0.08334000  1.0
  O  O126  1  0.33142000  0.80443000  0.58340000  1.0
  O  O127  1  0.71932000  0.69561000  0.91666000  1.0
  O  O128  1  0.52114000  0.23265000  0.24290000  1.0
  O  O129  1  0.99659000  0.26742000  0.25706000  1.0
  O  O130  1  0.47887000  0.76735000  0.75709000  1.0
  O  O131  1  0.00341000  0.73258000  0.74295000  1.0
  O  O132  1  0.34617000  0.26452000  0.35922000  1.0
  O  O133  1  0.96976000  0.23552000  0.14074000  1.0
  O  O134  1  0.65384000  0.73548000  0.64078000  1.0
  O  O135  1  0.03024000  0.76448000  0.85927000  1.0
  O  O136  1  0.23554000  0.13401000  0.31681000  1.0
  O  O137  1  0.68639000  0.36599000  0.18318000  1.0
  O  O138  1  0.76445000  0.86599000  0.68320000  1.0
  O  O139  1  0.31361000  0.63401000  0.81683000  1.0
  O  O140  1  0.23194000  0.97197000  0.37762000  1.0
  O  O141  1  0.58146000  0.52808000  0.12259000  1.0
  O  O142  1  0.76807000  0.02802000  0.62238000  1.0
  O  O143  1  0.41855000  0.47190000  0.87740000  1.0
  O  O144  1  0.73936000  0.01727000  0.17426000  1.0
  O  O145  1  0.93097000  0.48267000  0.32589000  1.0
  O  O146  1  0.26064000  0.98273000  0.82575000  1.0
  O  O147  1  0.06901000  0.51735000  0.67414000  1.0
  O  O148  1  0.94758000  0.02254000  0.17753000  1.0
  O  O149  1  0.14780000  0.47743000  0.32242000  1.0
  O  O150  1  0.05243000  0.97746000  0.82246000  1.0
  O  O151  1  0.85219000  0.52257000  0.67758000  1.0
  O  O152  1  0.19054000  0.89322000  0.24470000  1.0
  O  O153  1  0.32852000  0.60683000  0.25532000  1.0
  O  O154  1  0.80947000  0.10678000  0.75529000  1.0
  O  O155  1  0.67148000  0.39317000  0.74467000  1.0
  O  O156  1  0.21265000  0.86437000  0.11275000  1.0
  O  O157  1  0.18983000  0.63545000  0.38731000  1.0
  O  O158  1  0.78736000  0.13562000  0.88724000  1.0
  O  O159  1  0.81017000  0.36458000  0.61268000  1.0
  O  O160  1  0.92580000  0.11461000  0.00183000  1.0
  O  O161  1  0.04259000  0.38533000  0.49818000  1.0
  O  O162  1  0.07418000  0.88535000  0.99818000  1.0
  O  O163  1  0.95763000  0.61450000  0.50187000  1.0
  O  O164  1  0.52291000  0.34874000  0.07579000  1.0
  O  O165  1  0.94754000  0.15123000  0.42426000  1.0
  O  O166  1  0.47710000  0.65126000  0.92421000  1.0
  O  O167  1  0.05246000  0.84877000  0.57574000  1.0
  O  O168  1  0.61302000  0.14580000  0.04801000  1.0
  O  O169  1  0.80713000  0.35400000  0.45203000  1.0
  O  O170  1  0.38698000  0.85419000  0.95199000  1.0
  O  O171  1  0.19287000  0.64599000  0.54798000  1.0
  O  O172  1  0.26889000  0.09612000  0.14830000  1.0
  O  O173  1  0.51359000  0.40387000  0.35165000  1.0
  O  O174  1  0.73111000  0.90388000  0.85170000  1.0
  O  O175  1  0.48641000  0.59614000  0.64835000  1.0
