# generated using pymatgen
data_Al2H12C18O11
_symmetry_space_group_name_H-M   'P 1'
_cell_length_a   6.91875000
_cell_length_b   11.04850000
_cell_length_c   11.13240000
_cell_angle_alpha   72.74910000
_cell_angle_beta   72.07840000
_cell_angle_gamma   73.86940000
_symmetry_Int_Tables_number   1
_chemical_formula_structural   Al2H12C18O11
_chemical_formula_sum   'Al2 H12 C18 O11'
_cell_volume   756.79113285
_cell_formula_units_Z   1
loop_
 _symmetry_equiv_pos_site_id
 _symmetry_equiv_pos_as_xyz
  1  'x, y, z'
loop_
 _atom_site_type_symbol
 _atom_site_label
 _atom_site_symmetry_multiplicity
 _atom_site_fract_x
 _atom_site_fract_y
 _atom_site_fract_z
 _atom_site_occupancy
  Al  Al0  1  0.49836000  0.50097000  0.50060000  1.0
  Al  Al1  1  0.99654000  0.50154000  0.50388000  1.0
  H  H2  1  0.72939000  0.65587000  0.39894000  1.0
  H  H3  1  0.22193000  0.39324000  0.65558000  1.0
  H  H4  1  0.86464000  0.50523000  0.88601000  1.0
  H  H5  1  0.24888000  0.49329000  0.88243000  1.0
  H  H6  1  0.74058000  0.50706000  0.12046000  1.0
  H  H7  1  0.22013000  0.13431000  0.51262000  1.0
  H  H8  1  0.36018000  0.90154000  0.50322000  1.0
  H  H9  1  0.66782000  0.88647000  0.39990000  1.0
  H  H10  1  0.60570000  0.83751000  0.57320000  1.0
  H  H11  1  0.46409000  0.07133000  0.58538000  1.0
  H  H12  1  0.52640000  0.11974000  0.41196000  1.0
  H  H13  1  0.06304000  0.49598000  0.21603000  1.0
  C  C14  1  0.15502000  0.73022000  0.48729000  1.0
  C  C15  1  0.35816000  0.50418000  0.27312000  1.0
  C  C16  1  0.84190000  0.27516000  0.51104000  1.0
  C  C17  1  0.63793000  0.49559000  0.72984000  1.0
  C  C18  1  0.42603000  0.50140000  0.13444000  1.0
  C  C19  1  0.56421000  0.49805000  0.87038000  1.0
  C  C20  1  0.28545000  0.49710000  0.06639000  1.0
  C  C21  1  0.70375000  0.50251000  0.93732000  1.0
  C  C22  1  0.35715000  0.49563000  0.93448000  1.0
  C  C23  1  0.63408000  0.50404000  0.06760000  1.0
  C  C24  1  0.07813000  0.86872000  0.49187000  1.0
  C  C25  1  0.91663000  0.13700000  0.50493000  1.0
  C  C26  1  0.87471000  0.93036000  0.49048000  1.0
  C  C27  1  0.12329000  0.07559000  0.50642000  1.0
  C  C28  1  0.79610000  0.05962000  0.49698000  1.0
  C  C29  1  0.20123000  0.94630000  0.50050000  1.0
  C  C30  1  0.67072000  0.90914000  0.48891000  1.0
  C  C31  1  0.58160000  0.05583000  0.49621000  1.0
  O  O32  1  0.34346000  0.67821000  0.49051000  1.0
  O  O33  1  0.16557000  0.49978000  0.33009000  1.0
  O  O34  1  0.97361000  0.33069000  0.52065000  1.0
  O  O35  1  0.50546000  0.48791000  0.67527000  1.0
  O  O36  1  0.65433000  0.32712000  0.50627000  1.0
  O  O37  1  0.82840000  0.50065000  0.67615000  1.0
  O  O38  1  0.02059000  0.67485000  0.47994000  1.0
  O  O39  1  0.48884000  0.51210000  0.32784000  1.0
  O  O40  1  0.75220000  0.56352000  0.43727000  1.0
  O  O41  1  0.24287000  0.44171000  0.56599000  1.0
  O  O42  1  0.08341000  0.49462000  0.12329000  1.0
