# generated using pymatgen
data_ZnH8C23NO4F5
_symmetry_space_group_name_H-M   'P 1'
_cell_length_a   16.51990000
_cell_length_b   17.94290000
_cell_length_c   33.19870000
_cell_angle_alpha   90.26280000
_cell_angle_beta   89.65140000
_cell_angle_gamma   89.98430000
_symmetry_Int_Tables_number   1
_chemical_formula_structural   ZnH8C23NO4F5
_chemical_formula_sum   'Zn4 H32 C92 N4 O16 F20'
_cell_volume   9840.30369848
_cell_formula_units_Z   4
loop_
 _symmetry_equiv_pos_site_id
 _symmetry_equiv_pos_as_xyz
  1  'x, y, z'
loop_
 _atom_site_type_symbol
 _atom_site_label
 _atom_site_symmetry_multiplicity
 _atom_site_fract_x
 _atom_site_fract_y
 _atom_site_fract_z
 _atom_site_occupancy
  Zn  Zn0  1  0.58304000  0.49993000  0.50081000  1.0
  Zn  Zn1  1  0.41604000  0.49991000  0.50113000  1.0
  Zn  Zn2  1  0.41699000  0.50221000  0.96128000  1.0
  Zn  Zn3  1  0.58390000  0.50210000  0.96101000  1.0
  H  H4  1  0.28609000  0.58191000  0.54505000  1.0
  H  H5  1  0.28775000  0.41815000  0.45551000  1.0
  H  H6  1  0.71219000  0.58221000  0.54503000  1.0
  H  H7  1  0.71265000  0.41801000  0.45571000  1.0
  H  H8  1  0.63072000  0.73840000  0.50020000  1.0
  H  H9  1  0.36939000  0.73840000  0.50007000  1.0
  H  H10  1  0.63087000  0.26131000  0.49992000  1.0
  H  H11  1  0.36954000  0.26171000  0.49987000  1.0
  H  H12  1  0.36796000  0.50049000  0.63011000  1.0
  H  H13  1  0.29463000  0.50068000  0.69483000  1.0
  H  H14  1  0.62639000  0.50004000  0.62685000  1.0
  H  H15  1  0.63232000  0.50134000  0.83198000  1.0
  H  H16  1  0.70558000  0.50099000  0.76727000  1.0
  H  H17  1  0.37387000  0.50143000  0.83526000  1.0
  H  H18  1  0.36904000  0.50238000  0.09011000  1.0
  H  H19  1  0.63045000  0.50241000  0.08945000  1.0
  H  H20  1  0.36942000  0.50030000  0.37268000  1.0
  H  H21  1  0.63082000  0.50055000  0.37192000  1.0
  H  H22  1  0.71347000  0.58413000  0.91742000  1.0
  H  H23  1  0.71252000  0.42077000  0.00635000  1.0
  H  H24  1  0.28800000  0.58437000  0.91740000  1.0
  H  H25  1  0.28723000  0.42051000  0.00608000  1.0
  H  H26  1  0.36924000  0.74093000  0.96125000  1.0
  H  H27  1  0.63058000  0.74059000  0.96133000  1.0
  H  H28  1  0.36924000  0.26368000  0.96179000  1.0
  H  H29  1  0.63055000  0.26386000  0.96176000  1.0
  H  H30  1  0.23275000  0.45162000  0.76559000  1.0
  H  H31  1  0.27300000  0.50128000  0.80699000  1.0
  H  H32  1  0.23258000  0.55030000  0.76562000  1.0
  H  H33  1  0.76748000  0.45110000  0.69636000  1.0
  H  H34  1  0.72711000  0.50035000  0.65509000  1.0
  H  H35  1  0.76756000  0.54979000  0.69654000  1.0
  C  C36  1  0.50015000  0.64640000  0.50097000  1.0
  C  C37  1  0.49736000  0.50069000  0.57979000  1.0
  C  C38  1  0.50037000  0.35351000  0.49974000  1.0
  C  C39  1  0.50002000  0.49950000  0.42197000  1.0
  C  C40  1  0.49973000  0.64870000  0.96105000  1.0
  C  C41  1  0.50294000  0.50233000  0.88232000  1.0
  C  C42  1  0.49975000  0.35572000  0.96201000  1.0
  C  C43  1  0.49993000  0.50187000  0.04012000  1.0
  C  C44  1  0.25074000  0.54597000  0.52529000  1.0
  C  C45  1  0.16682000  0.54688000  0.52557000  1.0
  C  C46  1  0.12152000  0.50015000  0.49996000  1.0
  C  C47  1  0.16777000  0.45339000  0.47448000  1.0
  C  C48  1  0.25170000  0.45420000  0.47513000  1.0
  C  C49  1  0.03650000  0.50010000  0.49990000  1.0
  C  C50  1  0.96284000  0.50007000  0.49994000  1.0
  C  C51  1  0.87782000  0.50010000  0.50005000  1.0
  C  C52  1  0.83190000  0.54687000  0.52565000  1.0
  C  C53  1  0.74797000  0.54604000  0.52535000  1.0
  C  C54  1  0.74820000  0.45413000  0.47528000  1.0
  C  C55  1  0.83215000  0.45334000  0.47461000  1.0
  C  C56  1  0.50006000  0.72998000  0.50048000  1.0
  C  C57  1  0.57368000  0.76873000  0.50028000  1.0
  C  C58  1  0.57236000  0.84575000  0.50008000  1.0
  C  C59  1  0.50000000  0.88770000  0.50001000  1.0
  C  C60  1  0.42768000  0.84573000  0.50000000  1.0
  C  C61  1  0.42640000  0.76871000  0.50021000  1.0
  C  C62  1  0.49995000  0.96599000  0.49997000  1.0
  C  C63  1  0.49991000  0.03392000  0.49998000  1.0
  C  C64  1  0.49998000  0.11220000  0.49991000  1.0
  C  C65  1  0.57239000  0.15406000  0.49990000  1.0
  C  C66  1  0.57381000  0.23106000  0.49979000  1.0
  C  C67  1  0.50023000  0.26992000  0.49971000  1.0
  C  C68  1  0.42652000  0.23130000  0.49976000  1.0
  C  C69  1  0.42771000  0.15427000  0.49986000  1.0
  C  C70  1  0.42495000  0.50069000  0.64649000  1.0
  C  C71  1  0.42505000  0.50076000  0.68873000  1.0
  C  C72  1  0.35141000  0.50081000  0.71158000  1.0
  C  C73  1  0.57170000  0.50045000  0.64522000  1.0
  C  C74  1  0.57542000  0.50059000  0.68744000  1.0
  C  C75  1  0.65106000  0.50061000  0.70924000  1.0
  C  C76  1  0.57531000  0.50154000  0.81561000  1.0
  C  C77  1  0.57517000  0.50118000  0.77337000  1.0
  C  C78  1  0.64881000  0.50090000  0.75052000  1.0
  C  C79  1  0.42855000  0.50159000  0.81690000  1.0
  C  C80  1  0.42480000  0.50124000  0.77468000  1.0
  C  C81  1  0.34916000  0.50102000  0.75287000  1.0
  C  C82  1  0.49775000  0.50065000  0.62490000  1.0
  C  C83  1  0.50050000  0.50082000  0.70966000  1.0
  C  C84  1  0.50251000  0.50187000  0.83721000  1.0
  C  C85  1  0.49971000  0.50110000  0.75244000  1.0
  C  C86  1  0.49975000  0.50196000  0.08524000  1.0
  C  C87  1  0.42605000  0.50200000  0.10634000  1.0
  C  C88  1  0.42727000  0.50179000  0.14795000  1.0
  C  C89  1  0.49960000  0.50164000  0.17040000  1.0
  C  C90  1  0.57202000  0.50179000  0.14758000  1.0
  C  C91  1  0.57339000  0.50199000  0.10596000  1.0
  C  C92  1  0.49966000  0.50142000  0.21269000  1.0
  C  C93  1  0.50001000  0.50116000  0.24939000  1.0
  C  C94  1  0.50012000  0.50080000  0.29168000  1.0
  C  C95  1  0.42775000  0.50056000  0.31453000  1.0
  C  C96  1  0.42645000  0.50018000  0.35614000  1.0
  C  C97  1  0.50012000  0.49997000  0.37683000  1.0
  C  C98  1  0.57379000  0.50033000  0.35571000  1.0
  C  C99  1  0.57250000  0.50070000  0.31410000  1.0
  C  C100  1  0.74898000  0.54840000  0.93706000  1.0
  C  C101  1  0.83291000  0.54956000  0.93676000  1.0
  C  C102  1  0.87843000  0.50304000  0.96218000  1.0
  C  C103  1  0.83236000  0.45627000  0.98748000  1.0
  C  C104  1  0.74842000  0.45683000  0.98686000  1.0
  C  C105  1  0.96346000  0.50315000  0.96220000  1.0
  C  C106  1  0.03714000  0.50304000  0.96219000  1.0
  C  C107  1  0.12218000  0.50287000  0.96210000  1.0
  C  C108  1  0.16821000  0.54945000  0.93668000  1.0
  C  C109  1  0.25214000  0.54839000  0.93696000  1.0
  C  C110  1  0.25174000  0.45666000  0.98665000  1.0
  C  C111  1  0.16778000  0.45606000  0.98733000  1.0
  C  C112  1  0.49989000  0.73229000  0.96108000  1.0
  C  C113  1  0.42631000  0.77115000  0.96109000  1.0
  C  C114  1  0.42769000  0.84815000  0.96109000  1.0
  C  C115  1  0.50009000  0.89000000  0.96113000  1.0
  C  C116  1  0.57239000  0.84796000  0.96116000  1.0
  C  C117  1  0.57358000  0.77094000  0.96115000  1.0
  C  C118  1  0.50016000  0.96829000  0.96123000  1.0
  C  C119  1  0.50014000  0.03622000  0.96136000  1.0
  C  C120  1  0.50006000  0.11450000  0.96157000  1.0
  C  C121  1  0.42766000  0.15638000  0.96166000  1.0
  C  C122  1  0.42629000  0.23338000  0.96187000  1.0
  C  C123  1  0.49988000  0.27216000  0.96197000  1.0
  C  C124  1  0.57358000  0.23349000  0.96186000  1.0
  C  C125  1  0.57237000  0.15648000  0.96166000  1.0
  C  C126  1  0.26815000  0.50107000  0.77413000  1.0
  C  C127  1  0.73203000  0.50046000  0.68794000  1.0
  N  N128  1  0.29124000  0.50001000  0.50031000  1.0
  N  N129  1  0.70801000  0.50003000  0.50042000  1.0
  N  N130  1  0.70868000  0.50243000  0.96186000  1.0
  N  N131  1  0.29202000  0.50238000  0.96169000  1.0
  O  O132  1  0.56894000  0.61429000  0.50105000  1.0
  O  O133  1  0.43147000  0.61416000  0.50125000  1.0
  O  O134  1  0.42869000  0.50081000  0.56242000  1.0
  O  O135  1  0.56594000  0.50054000  0.56184000  1.0
  O  O136  1  0.43169000  0.38578000  0.50004000  1.0
  O  O137  1  0.56917000  0.38558000  0.49953000  1.0
  O  O138  1  0.56869000  0.49949000  0.43923000  1.0
  O  O139  1  0.43125000  0.49923000  0.43951000  1.0
  O  O140  1  0.43092000  0.61665000  0.96111000  1.0
  O  O141  1  0.56838000  0.61638000  0.96104000  1.0
  O  O142  1  0.57161000  0.50268000  0.89969000  1.0
  O  O143  1  0.43437000  0.50226000  0.90027000  1.0
  O  O144  1  0.56843000  0.38796000  0.96173000  1.0
  O  O145  1  0.43096000  0.38784000  0.96225000  1.0
  O  O146  1  0.43129000  0.50203000  0.02283000  1.0
  O  O147  1  0.56872000  0.50163000  0.02260000  1.0
  F  F148  1  0.12915000  0.40701000  0.44908000  1.0
  F  F149  1  0.12724000  0.59327000  0.55089000  1.0
  F  F150  1  0.87133000  0.40696000  0.44918000  1.0
  F  F151  1  0.87087000  0.59325000  0.55097000  1.0
  F  F152  1  0.35666000  0.88370000  0.49980000  1.0
  F  F153  1  0.64337000  0.88372000  0.49998000  1.0
  F  F154  1  0.35663000  0.11642000  0.49993000  1.0
  F  F155  1  0.64335000  0.11598000  0.50003000  1.0
  F  F156  1  0.64297000  0.50171000  0.16793000  1.0
  F  F157  1  0.35623000  0.50170000  0.16866000  1.0
  F  F158  1  0.64348000  0.50101000  0.29336000  1.0
  F  F159  1  0.35676000  0.50073000  0.29421000  1.0
  F  F160  1  0.87114000  0.41008000  0.01271000  1.0
  F  F161  1  0.87223000  0.59598000  0.91161000  1.0
  F  F162  1  0.12854000  0.40980000  0.01255000  1.0
  F  F163  1  0.12936000  0.59585000  0.91154000  1.0
  F  F164  1  0.64346000  0.88584000  0.96120000  1.0
  F  F165  1  0.35671000  0.88620000  0.96105000  1.0
  F  F166  1  0.64343000  0.11854000  0.96148000  1.0
  F  F167  1  0.35669000  0.11835000  0.96145000  1.0
