# generated using pymatgen
data_YH13C16NO7
_symmetry_space_group_name_H-M   'P 1'
_cell_length_a   9.29761000
_cell_length_b   10.56060000
_cell_length_c   11.01760000
_cell_angle_alpha   99.02570000
_cell_angle_beta   113.29500000
_cell_angle_gamma   112.86400000
_symmetry_Int_Tables_number   1
_chemical_formula_structural   YH13C16NO7
_chemical_formula_sum   'Y2 H26 C32 N2 O14'
_cell_volume   851.68569266
_cell_formula_units_Z   2
loop_
 _symmetry_equiv_pos_site_id
 _symmetry_equiv_pos_as_xyz
  1  'x, y, z'
loop_
 _atom_site_type_symbol
 _atom_site_label
 _atom_site_symmetry_multiplicity
 _atom_site_fract_x
 _atom_site_fract_y
 _atom_site_fract_z
 _atom_site_occupancy
  Y  Y0  1  0.69537000  0.00957000  0.97311000  1.0
  Y  Y1  1  0.30463000  0.99043000  0.02689000  1.0
  H  H2  1  0.20336000  0.64890000  0.98581000  1.0
  H  H3  1  0.79664000  0.35109000  0.01419000  1.0
  H  H4  1  0.02671000  0.39556000  0.97748000  1.0
  H  H5  1  0.97329000  0.60444000  0.02252000  1.0
  H  H6  1  0.51778000  0.39083000  0.21191000  1.0
  H  H7  1  0.48221000  0.60916000  0.78808000  1.0
  H  H8  1  0.69606000  0.64399000  0.21860000  1.0
  H  H9  1  0.30394000  0.35601000  0.78140000  1.0
  H  H10  1  0.09916000  0.38554000  0.35723000  1.0
  H  H11  1  0.90085000  0.61446000  0.64277000  1.0
  H  H12  1  0.67554000  0.37621000  0.43024000  1.0
  H  H13  1  0.32447000  0.62380000  0.56976000  1.0
  H  H14  1  0.67204000  0.99545000  0.39907000  1.0
  H  H15  1  0.32796000  0.00455000  0.60093000  1.0
  H  H16  1  0.89645000  0.14052000  0.47623000  1.0
  H  H17  1  0.10355000  0.85948000  0.52377000  1.0
  H  H18  1  0.64282000  0.16545000  0.54592000  1.0
  H  H19  1  0.35718000  0.83455000  0.45409000  1.0
  H  H20  1  0.87672000  0.26774000  0.66839000  1.0
  H  H21  1  0.12328000  0.73226000  0.33161000  1.0
  H  H22  1  0.01338000  0.02973000  0.63865000  1.0
  H  H23  1  0.98662000  0.97027000  0.36135000  1.0
  H  H24  1  0.81128000  0.86469000  0.50624000  1.0
  H  H25  1  0.18872000  0.13531000  0.49376000  1.0
  H  H26  1  0.80814000  0.91231000  0.74370000  1.0
  H  H27  1  0.19186000  0.08769000  0.25630000  1.0
  C  C28  1  0.46085000  0.66328000  0.10569000  1.0
  C  C29  1  0.53915000  0.33672000  0.89431000  1.0
  C  C30  1  0.27197000  0.59331000  0.03757000  1.0
  C  C31  1  0.72803000  0.40669000  0.96242000  1.0
  C  C32  1  0.17345000  0.45259000  0.03269000  1.0
  C  C33  1  0.82654000  0.54740000  0.96731000  1.0
  C  C34  1  0.26177000  0.37976000  0.09630000  1.0
  C  C35  1  0.73822000  0.62024000  0.90370000  1.0
  C  C36  1  0.45073000  0.44971000  0.16524000  1.0
  C  C37  1  0.54927000  0.55029000  0.83476000  1.0
  C  C38  1  0.54964000  0.59058000  0.16954000  1.0
  C  C39  1  0.45035000  0.40941000  0.83046000  1.0
  C  C40  1  0.56178000  0.80723000  0.09619000  1.0
  C  C41  1  0.43821000  0.19277000  0.90381000  1.0
  C  C42  1  0.15144000  0.22713000  0.08717000  1.0
  C  C43  1  0.84856000  0.77287000  0.91283000  1.0
  C  C44  1  0.87564000  0.36828000  0.38273000  1.0
  C  C45  1  0.12436000  0.63172000  0.61727000  1.0
  C  C46  1  0.05822000  0.43682000  0.42127000  1.0
  C  C47  1  0.94178000  0.56318000  0.57873000  1.0
  C  C48  1  0.81798000  0.43204000  0.46182000  1.0
  C  C49  1  0.18202000  0.56796000  0.53818000  1.0
  C  C50  1  0.74244000  0.22736000  0.25651000  1.0
  C  C51  1  0.25755000  0.77264000  0.74348000  1.0
  C  C52  1  0.74317000  0.06866000  0.69581000  1.0
  C  C53  1  0.25683000  0.93134000  0.30418000  1.0
  C  C54  1  0.79811000  0.06858000  0.50019000  1.0
  C  C55  1  0.20189000  0.93142000  0.49981000  1.0
  C  C56  1  0.76267000  0.15492000  0.60041000  1.0
  C  C57  1  0.23733000  0.84508000  0.39959000  1.0
  C  C58  1  0.86525000  0.97654000  0.57850000  1.0
  C  C59  1  0.13476000  0.02346000  0.42150000  1.0
  N  N60  1  0.79669000  0.97029000  0.67687000  1.0
  N  N61  1  0.20330000  0.02971000  0.32313000  1.0
  O  O62  1  0.47920000  0.87921000  0.05436000  1.0
  O  O63  1  0.52080000  0.12079000  0.94564000  1.0
  O  O64  1  0.72053000  0.85304000  0.11701000  1.0
  O  O65  1  0.27948000  0.14696000  0.88299000  1.0
  O  O66  1  0.98735000  0.18198000  0.04967000  1.0
  O  O67  1  0.01265000  0.81803000  0.95033000  1.0
  O  O68  1  0.22843000  0.15061000  0.12113000  1.0
  O  O69  1  0.77156000  0.84939000  0.87887000  1.0
  O  O70  1  0.80511000  0.16894000  0.19627000  1.0
  O  O71  1  0.19489000  0.83106000  0.80373000  1.0
  O  O72  1  0.57673000  0.17749000  0.21894000  1.0
  O  O73  1  0.42327000  0.82252000  0.78106000  1.0
  O  O74  1  0.68879000  0.08816000  0.78134000  1.0
  O  O75  1  0.31121000  0.91184000  0.21866000  1.0
