# generated using pymatgen
data_CdH13C15NO5
_symmetry_space_group_name_H-M   'P 1'
_cell_length_a   7.64971000
_cell_length_b   9.73133000
_cell_length_c   11.65720000
_cell_angle_alpha   113.95300000
_cell_angle_beta   107.37000000
_cell_angle_gamma   91.12480000
_symmetry_Int_Tables_number   1
_chemical_formula_structural   CdH13C15NO5
_chemical_formula_sum   'Cd2 H26 C30 N2 O10'
_cell_volume   746.95137641
_cell_formula_units_Z   2
loop_
 _symmetry_equiv_pos_site_id
 _symmetry_equiv_pos_as_xyz
  1  'x, y, z'
loop_
 _atom_site_type_symbol
 _atom_site_label
 _atom_site_symmetry_multiplicity
 _atom_site_fract_x
 _atom_site_fract_y
 _atom_site_fract_z
 _atom_site_occupancy
  Cd  Cd0  1  0.24163000  0.48642000  0.00621000  1.0
  Cd  Cd1  1  0.75837000  0.51358000  0.99380000  1.0
  H  H2  1  0.62287000  0.29993000  0.69284000  1.0
  H  H3  1  0.37714000  0.70007000  0.30716000  1.0
  H  H4  1  0.96136000  0.94782000  0.65632000  1.0
  H  H5  1  0.03864000  0.05218000  0.34369000  1.0
  H  H6  1  0.49798000  0.58041000  0.60428000  1.0
  H  H7  1  0.50202000  0.41960000  0.39573000  1.0
  H  H8  1  0.25878000  0.56526000  0.39703000  1.0
  H  H9  1  0.74123000  0.43474000  0.60297000  1.0
  H  H10  1  0.06854000  0.46921000  0.73573000  1.0
  H  H11  1  0.93146000  0.53078000  0.26427000  1.0
  H  H12  1  0.54738000  0.78463000  0.12171000  1.0
  H  H13  1  0.45262000  0.21538000  0.87830000  1.0
  H  H14  1  0.71199000  0.00354000  0.22014000  1.0
  H  H15  1  0.28801000  0.99647000  0.77985000  1.0
  H  H16  1  0.58944000  0.13971000  0.30905000  1.0
  H  H17  1  0.41056000  0.86030000  0.69094000  1.0
  H  H18  1  0.63427000  0.15017000  0.17127000  1.0
  H  H19  1  0.36572000  0.84982000  0.82871000  1.0
  H  H20  1  0.15783000  0.95227000  0.99576000  1.0
  H  H21  1  0.84217000  0.04773000  0.00424000  1.0
  H  H22  1  0.29953000  0.13612000  0.06850000  1.0
  H  H23  1  0.70046000  0.86388000  0.93150000  1.0
  H  H24  1  0.20454000  0.07826000  0.16712000  1.0
  H  H25  1  0.79547000  0.92173000  0.83288000  1.0
  H  H26  1  0.29581000  0.23936000  0.53779000  1.0
  H  H27  1  0.70420000  0.76064000  0.46221000  1.0
  C  C28  1  0.96358000  0.24644000  0.80357000  1.0
  C  C29  1  0.03642000  0.75356000  0.19643000  1.0
  C  C30  1  0.80608000  0.13572000  0.68707000  1.0
  C  C31  1  0.19392000  0.86428000  0.31293000  1.0
  C  C32  1  0.63879000  0.18159000  0.64249000  1.0
  C  C33  1  0.36121000  0.81841000  0.35751000  1.0
  C  C34  1  0.48825000  0.07770000  0.53315000  1.0
  C  C35  1  0.51175000  0.92230000  0.46686000  1.0
  C  C36  1  0.82838000  0.98168000  0.62079000  1.0
  C  C37  1  0.17162000  0.01832000  0.37920000  1.0
  C  C38  1  0.44370000  0.51652000  0.79536000  1.0
  C  C39  1  0.55630000  0.48348000  0.20465000  1.0
  C  C40  1  0.29706000  0.52298000  0.68086000  1.0
  C  C41  1  0.70293000  0.47702000  0.31914000  1.0
  C  C42  1  0.35066000  0.55330000  0.58574000  1.0
  C  C43  1  0.64934000  0.44669000  0.41426000  1.0
  C  C44  1  0.21915000  0.54596000  0.47237000  1.0
  C  C45  1  0.78085000  0.45404000  0.52763000  1.0
  C  C46  1  0.11107000  0.49149000  0.66285000  1.0
  C  C47  1  0.88893000  0.50850000  0.33715000  1.0
  C  C48  1  0.02732000  0.51285000  0.45093000  1.0
  C  C49  1  0.97268000  0.48714000  0.54907000  1.0
  C  C50  1  0.41513000  0.82106000  0.08469000  1.0
  C  C51  1  0.58487000  0.17895000  0.91532000  1.0
  C  C52  1  0.60082000  0.07179000  0.21063000  1.0
  C  C53  1  0.39918000  0.92821000  0.78936000  1.0
  C  C54  1  0.26236000  0.03833000  0.08541000  1.0
  C  C55  1  0.73764000  0.96167000  0.91459000  1.0
  C  C56  1  0.31468000  0.12185000  0.48667000  1.0
  C  C57  1  0.68532000  0.87814000  0.51332000  1.0
  N  N58  1  0.42672000  0.97057000  0.12053000  1.0
  N  N59  1  0.57328000  0.02943000  0.87947000  1.0
  O  O60  1  0.11151000  0.20245000  0.84813000  1.0
  O  O61  1  0.88850000  0.79755000  0.15188000  1.0
  O  O62  1  0.40456000  0.43943000  0.85344000  1.0
  O  O63  1  0.59544000  0.56057000  0.14656000  1.0
  O  O64  1  0.26637000  0.72749000  0.01426000  1.0
  O  O65  1  0.73362000  0.27251000  0.98575000  1.0
  O  O66  1  0.94421000  0.38965000  0.85383000  1.0
  O  O67  1  0.05579000  0.61035000  0.14617000  1.0
  O  O68  1  0.60917000  0.58163000  0.82768000  1.0
  O  O69  1  0.39083000  0.41838000  0.17233000  1.0
