# generated using pymatgen
data_MgH7C11SN2O3
_symmetry_space_group_name_H-M   'P 1'
_cell_length_a   6.77980000
_cell_length_b   36.46970000
_cell_length_c   36.47710000
_cell_angle_alpha   119.61800000
_cell_angle_beta   93.50770000
_cell_angle_gamma   93.58290000
_symmetry_Int_Tables_number   1
_chemical_formula_structural   MgH7C11SN2O3
_chemical_formula_sum   'Mg6 H42 C66 S6 N12 O18'
_cell_volume   7781.26643745
_cell_formula_units_Z   6
loop_
 _symmetry_equiv_pos_site_id
 _symmetry_equiv_pos_as_xyz
  1  'x, y, z'
loop_
 _atom_site_type_symbol
 _atom_site_label
 _atom_site_symmetry_multiplicity
 _atom_site_fract_x
 _atom_site_fract_y
 _atom_site_fract_z
 _atom_site_occupancy
  Mg  Mg0  1  0.54003000  0.31956000  0.68637000  1.0
  Mg  Mg1  1  0.22053000  0.36683000  0.68048000  1.0
  Mg  Mg2  1  0.85382000  0.31371000  0.63325000  1.0
  Mg  Mg3  1  0.78863000  0.67008000  0.36377000  1.0
  Mg  Mg4  1  0.11873000  0.69366000  0.32987000  1.0
  Mg  Mg5  1  0.42505000  0.63617000  0.30630000  1.0
  H  H6  1  0.47619000  0.92677000  0.51718000  1.0
  H  H7  1  0.54905000  0.59038000  0.07307000  1.0
  H  H8  1  0.95850000  0.48283000  0.40965000  1.0
  H  H9  1  0.48434000  0.00016000  0.52789000  1.0
  H  H10  1  0.48422000  0.52770000  0.99976000  1.0
  H  H11  1  0.95657000  0.47217000  0.47232000  1.0
  H  H12  1  0.61438000  0.06056000  0.53275000  1.0
  H  H13  1  0.55483000  0.47214000  0.93937000  1.0
  H  H14  1  0.08202000  0.46742000  0.52787000  1.0
  H  H15  1  0.72694000  0.12533000  0.55031000  1.0
  H  H16  1  0.60178000  0.42490000  0.87460000  1.0
  H  H17  1  0.17715000  0.44986000  0.57509000  1.0
  H  H18  1  0.77560000  0.19996000  0.59066000  1.0
  H  H19  1  0.57552000  0.39066000  0.79995000  1.0
  H  H20  1  0.18505000  0.40938000  0.60934000  1.0
  H  H21  1  0.06769000  0.19981000  0.54782000  1.0
  H  H22  1  0.86738000  0.34810000  0.80032000  1.0
  H  H23  1  0.51957000  0.45222000  0.65195000  1.0
  H  H24  1  0.22620000  0.13303000  0.51141000  1.0
  H  H25  1  0.09300000  0.37848000  0.86703000  1.0
  H  H26  1  0.71472000  0.48859000  0.62156000  1.0
  H  H27  1  0.57256000  0.00718000  0.41525000  1.0
  H  H28  1  0.56528000  0.40805000  0.99278000  1.0
  H  H29  1  0.15455000  0.58497000  0.59201000  1.0
  H  H30  1  0.46583000  0.92998000  0.37151000  1.0
  H  H31  1  0.53582000  0.44150000  0.06997000  1.0
  H  H32  1  0.09135000  0.62864000  0.55850000  1.0
  H  H33  1  0.37348000  0.88731000  0.40480000  1.0
  H  H34  1  0.48636000  0.51745000  0.11262000  1.0
  H  H35  1  0.96686000  0.59524000  0.48252000  1.0
  H  H36  1  0.08430000  0.90020000  0.44351000  1.0
  H  H37  1  0.18422000  0.54324000  0.09982000  1.0
  H  H38  1  0.63946000  0.55650000  0.45671000  1.0
  H  H39  1  0.17169000  0.79357000  0.41811000  1.0
  H  H40  1  0.37843000  0.62442000  0.20643000  1.0
  H  H41  1  0.75337000  0.58194000  0.37556000  1.0
  H  H42  1  0.47999000  0.81430000  0.38599000  1.0
  H  H43  1  0.66571000  0.57158000  0.18573000  1.0
  H  H44  1  0.09272000  0.61383000  0.42811000  1.0
  H  H45  1  0.73258000  0.87736000  0.42566000  1.0
  H  H46  1  0.85532000  0.54823000  0.12268000  1.0
  H  H47  1  0.30522000  0.57409000  0.45146000  1.0
  C  C48  1  0.26052000  0.88211000  0.47771000  1.0
  C  C49  1  0.37855000  0.59554000  0.11782000  1.0
  C  C50  1  0.78199000  0.52224000  0.40445000  1.0
  C  C51  1  0.42597000  0.94098000  0.46889000  1.0
  C  C52  1  0.48502000  0.52787000  0.05894000  1.0
  C  C53  1  0.95603000  0.53116000  0.47214000  1.0
  C  C54  1  0.48417000  0.98467000  0.49346000  1.0
  C  C55  1  0.49951000  0.50875000  0.01524000  1.0
  C  C56  1  0.99000000  0.50661000  0.49127000  1.0
  C  C57  1  0.53521000  0.00867000  0.47440000  1.0
  C  C58  1  0.52666000  0.46570000  0.99126000  1.0
  C  C59  1  0.05958000  0.52575000  0.53435000  1.0
  C  C60  1  0.53972000  0.08576000  0.49593000  1.0
  C  C61  1  0.45381000  0.41015000  0.91421000  1.0
  C  C62  1  0.04353000  0.50419000  0.58990000  1.0
  C  C63  1  0.51123000  0.16188000  0.54908000  1.0
  C  C64  1  0.34922000  0.38720000  0.83811000  1.0
  C  C65  1  0.96239000  0.45102000  0.61287000  1.0
  C  C66  1  0.61917000  0.19938000  0.58105000  1.0
  C  C67  1  0.41962000  0.38166000  0.80059000  1.0
  C  C68  1  0.03834000  0.41907000  0.61843000  1.0
  C  C69  1  0.53097000  0.23745000  0.60239000  1.0
  C  C70  1  0.29322000  0.36496000  0.76258000  1.0
  C  C71  1  0.92865000  0.39774000  0.63516000  1.0
  C  C72  1  0.32584000  0.23705000  0.58993000  1.0
  C  C73  1  0.08841000  0.35291000  0.76302000  1.0
  C  C74  1  0.73591000  0.41019000  0.64720000  1.0
  C  C75  1  0.22294000  0.19905000  0.55687000  1.0
  C  C76  1  0.02347000  0.35787000  0.80102000  1.0
  C  C77  1  0.66600000  0.44321000  0.64222000  1.0
  C  C78  1  0.31013000  0.16185000  0.53657000  1.0
  C  C79  1  0.14803000  0.37477000  0.83819000  1.0
  C  C80  1  0.77361000  0.46349000  0.62530000  1.0
  C  C81  1  0.21318000  0.27375000  0.61055000  1.0
  C  C82  1  0.93912000  0.33684000  0.72633000  1.0
  C  C83  1  0.60249000  0.38955000  0.66327000  1.0
  C  C84  1  0.53098000  0.98884000  0.43016000  1.0
  C  C85  1  0.54211000  0.44129000  0.01110000  1.0
  C  C86  1  0.09856000  0.57001000  0.55876000  1.0
  C  C87  1  0.46947000  0.94550000  0.40593000  1.0
  C  C88  1  0.52403000  0.46039000  0.05444000  1.0
  C  C89  1  0.06121000  0.59421000  0.53961000  1.0
  C  C90  1  0.41628000  0.92129000  0.42444000  1.0
  C  C91  1  0.49512000  0.50313000  0.07865000  1.0
  C  C92  1  0.99013000  0.57563000  0.49687000  1.0
  C  C93  1  0.96835000  0.83930000  0.42495000  1.0
  C  C94  1  0.12927000  0.58558000  0.16069000  1.0
  C  C95  1  0.54241000  0.57493000  0.41428000  1.0
  C  C96  1  0.02055000  0.79865000  0.41149000  1.0
  C  C97  1  0.22213000  0.61275000  0.20135000  1.0
  C  C98  1  0.60858000  0.58846000  0.38715000  1.0
  C  C99  1  0.88025000  0.76284000  0.38890000  1.0
  C  C100  1  0.11749000  0.62597000  0.23713000  1.0
  C  C101  1  0.49099000  0.61104000  0.37393000  1.0
  C  C102  1  0.67967000  0.76890000  0.38009000  1.0
  C  C103  1  0.91082000  0.61111000  0.23109000  1.0
  C  C104  1  0.29902000  0.61982000  0.38874000  1.0
  C  C105  1  0.63310000  0.81049000  0.39331000  1.0
  C  C106  1  0.82259000  0.58274000  0.18952000  1.0
  C  C107  1  0.23867000  0.60651000  0.41702000  1.0
  C  C108  1  0.77321000  0.84543000  0.41517000  1.0
  C  C109  1  0.92785000  0.56968000  0.15459000  1.0
  C  C110  1  0.35664000  0.58462000  0.43008000  1.0
  C  C111  1  0.52010000  0.73373000  0.35764000  1.0
  C  C112  1  0.78635000  0.62385000  0.26626000  1.0
  C  C113  1  0.16219000  0.64229000  0.37603000  1.0
  S  S114  1  0.29376000  0.85369000  0.50121000  1.0
  S  S115  1  0.44036000  0.64747000  0.14619000  1.0
  S  S116  1  0.79203000  0.49867000  0.35253000  1.0
  S  S117  1  0.42499000  0.08120000  0.45246000  1.0
  S  S118  1  0.34290000  0.37131000  0.91883000  1.0
  S  S119  1  0.97188000  0.54761000  0.62884000  1.0
  N  N120  1  0.38724000  0.91846000  0.49024000  1.0
  N  N121  1  0.46869000  0.57173000  0.08144000  1.0
  N  N122  1  0.89623000  0.50976000  0.42828000  1.0
  N  N123  1  0.58726000  0.05255000  0.50180000  1.0
  N  N124  1  0.53510000  0.44921000  0.94739000  1.0
  N  N125  1  0.08486000  0.49835000  0.55081000  1.0
  N  N126  1  0.60347000  0.12441000  0.53245000  1.0
  N  N127  1  0.47906000  0.40799000  0.87554000  1.0
  N  N128  1  0.07128000  0.46766000  0.59202000  1.0
  N  N129  1  0.10928000  0.87507000  0.44745000  1.0
  N  N130  1  0.23443000  0.57232000  0.12494000  1.0
  N  N131  1  0.66070000  0.55248000  0.42761000  1.0
  O  O132  1  0.03458000  0.27236000  0.59635000  1.0
  O  O133  1  0.76196000  0.32398000  0.72771000  1.0
  O  O134  1  0.43817000  0.40377000  0.67611000  1.0
  O  O135  1  0.29686000  0.30739000  0.64442000  1.0
  O  O136  1  0.98919000  0.33714000  0.69271000  1.0
  O  O137  1  0.65218000  0.35563000  0.66297000  1.0
  O  O138  1  0.64157000  0.27206000  0.63339000  1.0
  O  O139  1  0.36921000  0.36129000  0.72794000  1.0
  O  O140  1  0.00821000  0.36674000  0.63878000  1.0
  O  O141  1  0.34550000  0.74017000  0.34878000  1.0
  O  O142  1  0.60528000  0.60851000  0.25983000  1.0
  O  O143  1  0.99632000  0.65117000  0.39133000  1.0
  O  O144  1  0.55997000  0.69572000  0.34750000  1.0
  O  O145  1  0.86411000  0.65176000  0.30423000  1.0
  O  O146  1  0.21246000  0.65244000  0.34819000  1.0
  O  O147  1  0.94417000  0.72474000  0.37637000  1.0
  O  O148  1  0.21944000  0.65156000  0.27522000  1.0
  O  O149  1  0.56770000  0.62360000  0.34839000  1.0
