# generated using pymatgen
data_Cd3H32C12Br6(N2O)4
_symmetry_space_group_name_H-M   'P 1'
_cell_length_a   7.20811000
_cell_length_b   7.51028000
_cell_length_c   13.87050470
_cell_angle_alpha   78.48327564
_cell_angle_beta   84.20469337
_cell_angle_gamma   74.97820000
_symmetry_Int_Tables_number   1
_chemical_formula_structural   Cd3H32C12Br6(N2O)4
_chemical_formula_sum   'Cd3 H32 C12 Br6 N8 O4'
_cell_volume   709.65592681
_cell_formula_units_Z   1
loop_
 _symmetry_equiv_pos_site_id
 _symmetry_equiv_pos_as_xyz
  1  'x, y, z'
loop_
 _atom_site_type_symbol
 _atom_site_label
 _atom_site_symmetry_multiplicity
 _atom_site_fract_x
 _atom_site_fract_y
 _atom_site_fract_z
 _atom_site_occupancy
  Cd  Cd0  1  0.00000000  0.00000000  0.00001000  1.0
  Cd  Cd1  1  0.75905000  0.00959000  0.43430000  1.0
  Cd  Cd2  1  0.24091000  0.99043000  0.56569000  1.0
  H  H3  1  0.67423000  0.59938000  0.39605000  1.0
  H  H4  1  0.32574000  0.40064000  0.60395000  1.0
  H  H5  1  0.91638000  0.60322000  0.35495000  1.0
  H  H6  1  0.08360000  0.39680000  0.64506000  1.0
  H  H7  1  0.46293000  0.05994000  0.25408000  1.0
  H  H8  1  0.53706000  0.94007000  0.74590000  1.0
  H  H9  1  0.41319000  0.86375000  0.33979000  1.0
  H  H10  1  0.58679000  0.13626000  0.66019000  1.0
  H  H11  1  0.97981000  0.87061000  0.23954000  1.0
  H  H12  1  0.02018000  0.12941000  0.76047000  1.0
  H  H13  1  0.78468000  0.06460000  0.19691000  1.0
  H  H14  1  0.21531000  0.93540000  0.80309000  1.0
  H  H15  1  0.45565000  0.56639000  0.28639000  1.0
  H  H16  1  0.54435000  0.43360000  0.71360000  1.0
  H  H17  1  0.53063000  0.54950000  0.16013000  1.0
  H  H18  1  0.46941000  0.45049000  0.83987000  1.0
  H  H19  1  0.59490000  0.81114000  0.04833000  1.0
  H  H20  1  0.40514000  0.18884000  0.95167000  1.0
  H  H21  1  0.56491000  0.03218000  0.08732000  1.0
  H  H22  1  0.43511000  0.96781000  0.91267000  1.0
  H  H23  1  0.02298000  0.57944000  0.18329000  1.0
  H  H24  1  0.97703000  0.42057000  0.81672000  1.0
  H  H25  1  0.85679000  0.55493000  0.10219000  1.0
  H  H26  1  0.14324000  0.44506000  0.89782000  1.0
  H  H27  1  0.85738000  0.33238000  0.28321000  1.0
  H  H28  1  0.14262000  0.66764000  0.71679000  1.0
  H  H29  1  0.03723000  0.20769000  0.34454000  1.0
  H  H30  1  0.96277000  0.79230000  0.65545000  1.0
  H  H31  1  0.08749000  0.13377000  0.17686000  1.0
  H  H32  1  0.91251000  0.86622000  0.82314000  1.0
  H  H33  1  0.26461000  0.96813000  0.15237000  1.0
  H  H34  1  0.73541000  0.03185000  0.84762000  1.0
  C  C35  1  0.76668000  0.64507000  0.33311000  1.0
  C  C36  1  0.23332000  0.35494000  0.66690000  1.0
  C  C37  1  0.50592000  0.90701000  0.27645000  1.0
  C  C38  1  0.49407000  0.09300000  0.72354000  1.0
  C  C39  1  0.82978000  0.91189000  0.21891000  1.0
  C  C40  1  0.17022000  0.08812000  0.78109000  1.0
  C  C41  1  0.54554000  0.61368000  0.22259000  1.0
  C  C42  1  0.45447000  0.38632000  0.77741000  1.0
  C  C43  1  0.60893000  0.87915000  0.10932000  1.0
  C  C44  1  0.39109000  0.12085000  0.89067000  1.0
  C  C45  1  0.87184000  0.62107000  0.16386000  1.0
  C  C46  1  0.12818000  0.37893000  0.83615000  1.0
  Br  Br47  1  0.73323000  0.31544000  0.00836000  1.0
  Br  Br48  1  0.26678000  0.68456000  0.99165000  1.0
  Br  Br49  1  0.12680000  0.77181000  0.45470000  1.0
  Br  Br50  1  0.87319000  0.22820000  0.54530000  1.0
  Br  Br51  1  0.39196000  0.24344000  0.42074000  1.0
  Br  Br52  1  0.60800000  0.75657000  0.57926000  1.0
  N  N53  1  0.70838000  0.85283000  0.30594000  1.0
  N  N54  1  0.29161000  0.14718000  0.69406000  1.0
  N  N55  1  0.81260000  0.82656000  0.13482000  1.0
  N  N56  1  0.18742000  0.17344000  0.86518000  1.0
  N  N57  1  0.74972000  0.55595000  0.24983000  1.0
  N  N58  1  0.25029000  0.44405000  0.75018000  1.0
  N  N59  1  0.48436000  0.81919000  0.19404000  1.0
  N  N60  1  0.51566000  0.18080000  0.80595000  1.0
  O  O61  1  0.94131000  0.19773000  0.30196000  1.0
  O  O62  1  0.05867000  0.80227000  0.69804000  1.0
  O  O63  1  0.16604000  0.08155000  0.12207000  1.0
  O  O64  1  0.83395000  0.91845000  0.87792000  1.0
