# generated using pymatgen
data_UH5C6NO5
_symmetry_space_group_name_H-M   'P 1'
_cell_length_a   6.32838000
_cell_length_b   7.86980000
_cell_length_c   8.35805000
_cell_angle_alpha   79.42170000
_cell_angle_beta   86.82510000
_cell_angle_gamma   78.77930000
_symmetry_Int_Tables_number   1
_chemical_formula_structural   UH5C6NO5
_chemical_formula_sum   'U2 H10 C12 N2 O10'
_cell_volume   401.27736194
_cell_formula_units_Z   2
loop_
 _symmetry_equiv_pos_site_id
 _symmetry_equiv_pos_as_xyz
  1  'x, y, z'
loop_
 _atom_site_type_symbol
 _atom_site_label
 _atom_site_symmetry_multiplicity
 _atom_site_fract_x
 _atom_site_fract_y
 _atom_site_fract_z
 _atom_site_occupancy
  U  U0  1  0.09986000  0.36516000  0.20571000  1.0
  U  U1  1  0.90013000  0.63484000  0.79429000  1.0
  H  H2  1  0.32547000  0.55898000  0.91789000  1.0
  H  H3  1  0.67453000  0.44103000  0.08212000  1.0
  H  H4  1  0.01354000  0.10042000  0.58765000  1.0
  H  H5  1  0.98646000  0.89958000  0.41237000  1.0
  H  H6  1  0.71009000  0.25250000  0.67541000  1.0
  H  H7  1  0.28992000  0.74750000  0.32458000  1.0
  H  H8  1  0.14848000  0.04078000  0.86993000  1.0
  H  H9  1  0.85154000  0.95922000  0.13007000  1.0
  H  H10  1  0.49678000  0.13161000  0.91845000  1.0
  H  H11  1  0.50324000  0.86839000  0.08154000  1.0
  C  C12  1  0.47291000  0.23590000  0.50752000  1.0
  C  C13  1  0.52709000  0.76410000  0.49248000  1.0
  C  C14  1  0.59479000  0.29698000  0.35683000  1.0
  C  C15  1  0.40521000  0.70301000  0.64317000  1.0
  C  C16  1  0.16889000  0.12943000  0.61135000  1.0
  C  C17  1  0.83111000  0.87056000  0.38866000  1.0
  C  C18  1  0.55706000  0.21363000  0.66189000  1.0
  C  C19  1  0.44294000  0.78637000  0.33810000  1.0
  C  C20  1  0.24497000  0.09734000  0.76985000  1.0
  C  C21  1  0.75504000  0.90266000  0.23016000  1.0
  C  C22  1  0.43813000  0.14609000  0.79586000  1.0
  C  C23  1  0.56189000  0.85390000  0.20414000  1.0
  N  N24  1  0.27743000  0.20078000  0.48235000  1.0
  N  N25  1  0.72257000  0.79922000  0.51765000  1.0
  O  O26  1  0.12071000  0.15484000  0.13975000  1.0
  O  O27  1  0.87928000  0.84518000  0.86024000  1.0
  O  O28  1  0.79134000  0.30522000  0.36852000  1.0
  O  O29  1  0.20865000  0.69477000  0.63147000  1.0
  O  O30  1  0.49450000  0.33420000  0.22199000  1.0
  O  O31  1  0.50549000  0.66580000  0.77800000  1.0
  O  O32  1  0.20040000  0.50190000  0.95446000  1.0
  O  O33  1  0.79959000  0.49812000  0.04555000  1.0
  O  O34  1  0.08916000  0.56191000  0.29122000  1.0
  O  O35  1  0.91082000  0.43808000  0.70880000  1.0
