# generated using pymatgen
data_CdH4C6(N3O2)2
_symmetry_space_group_name_H-M   'P 1'
_cell_length_a   9.63148000
_cell_length_b   10.22910000
_cell_length_c   11.20490000
_cell_angle_alpha   89.99990000
_cell_angle_beta   70.53300000
_cell_angle_gamma   89.99990000
_symmetry_Int_Tables_number   1
_chemical_formula_structural   CdH4C6(N3O2)2
_chemical_formula_sum   'Cd4 H16 C24 N24 O16'
_cell_volume   1040.81486132
_cell_formula_units_Z   4
loop_
 _symmetry_equiv_pos_site_id
 _symmetry_equiv_pos_as_xyz
  1  'x, y, z'
loop_
 _atom_site_type_symbol
 _atom_site_label
 _atom_site_symmetry_multiplicity
 _atom_site_fract_x
 _atom_site_fract_y
 _atom_site_fract_z
 _atom_site_occupancy
  Cd  Cd0  1  0.03993000  0.34236000  0.74199000  1.0
  Cd  Cd1  1  0.46007000  0.84236000  0.75801000  1.0
  Cd  Cd2  1  0.96007000  0.65764000  0.25801000  1.0
  Cd  Cd3  1  0.53993000  0.15764000  0.24199000  1.0
  H  H4  1  0.84741000  0.16387000  0.00369000  1.0
  H  H5  1  0.65259000  0.66387000  0.49631000  1.0
  H  H6  1  0.15259000  0.83613000  0.99631000  1.0
  H  H7  1  0.34741000  0.33613000  0.50369000  1.0
  H  H8  1  0.45889000  0.35283000  0.00389000  1.0
  H  H9  1  0.04111000  0.85283000  0.49611000  1.0
  H  H10  1  0.54111000  0.64717000  0.99611000  1.0
  H  H11  1  0.95889000  0.14717000  0.50389000  1.0
  H  H12  1  0.25115000  0.05920000  0.65356000  1.0
  H  H13  1  0.24885000  0.55920000  0.84644000  1.0
  H  H14  1  0.74885000  0.94080000  0.34644000  1.0
  H  H15  1  0.75115000  0.44080000  0.15356000  1.0
  H  H16  1  0.36493000  0.07315000  0.98552000  1.0
  H  H17  1  0.13507000  0.57315000  0.51448000  1.0
  H  H18  1  0.63507000  0.92685000  0.01448000  1.0
  H  H19  1  0.86493000  0.42685000  0.48552000  1.0
  C  C20  1  0.77383000  0.22711000  0.97496000  1.0
  C  C21  1  0.72617000  0.72710000  0.52504000  1.0
  C  C22  1  0.22617000  0.77289000  0.02504000  1.0
  C  C23  1  0.27383000  0.27289000  0.47496000  1.0
  C  C24  1  0.57368000  0.32418000  0.97363000  1.0
  C  C25  1  0.92632000  0.82418000  0.52637000  1.0
  C  C26  1  0.42632000  0.67582000  0.02637000  1.0
  C  C27  1  0.07368000  0.17582000  0.47363000  1.0
  C  C28  1  0.22441000  0.20400000  0.91240000  1.0
  C  C29  1  0.27559000  0.70400000  0.58760000  1.0
  C  C30  1  0.77560000  0.79600000  0.08760000  1.0
  C  C31  1  0.72441000  0.29600000  0.41240000  1.0
  C  C32  1  0.25614000  0.09261000  0.74385000  1.0
  C  C33  1  0.24386000  0.59261000  0.75615000  1.0
  C  C34  1  0.74386000  0.90739000  0.25615000  1.0
  C  C35  1  0.75614000  0.40739000  0.24385000  1.0
  C  C36  1  0.69206000  0.36285000  0.86894000  1.0
  C  C37  1  0.80794000  0.86285000  0.63106000  1.0
  C  C38  1  0.30794000  0.63715000  0.13106000  1.0
  C  C39  1  0.19206000  0.13715000  0.36894000  1.0
  C  C40  1  0.31699000  0.10001000  0.91422000  1.0
  C  C41  1  0.18301000  0.60001000  0.58578000  1.0
  C  C42  1  0.68301000  0.89999000  0.08578000  1.0
  C  C43  1  0.81699000  0.39999000  0.41422000  1.0
  N  N44  1  0.62724000  0.23825000  0.04020000  1.0
  N  N45  1  0.87276000  0.73825000  0.45980000  1.0
  N  N46  1  0.37277000  0.76175000  0.95980000  1.0
  N  N47  1  0.12723000  0.26175000  0.54020000  1.0
  N  N48  1  0.18683000  0.19861000  0.80445000  1.0
  N  N49  1  0.31317000  0.69861000  0.69555000  1.0
  N  N50  1  0.81317000  0.80139000  0.19555000  1.0
  N  N51  1  0.68683000  0.30139000  0.30445000  1.0
  N  N52  1  0.17315000  0.30423000  0.00280000  1.0
  N  N53  1  0.32685000  0.80423000  0.49720000  1.0
  N  N54  1  0.82686000  0.69577000  0.99720000  1.0
  N  N55  1  0.67314000  0.19577000  0.50280000  1.0
  N  N56  1  0.81745000  0.30128000  0.87147000  1.0
  N  N57  1  0.68255000  0.80127000  0.62853000  1.0
  N  N58  1  0.18255000  0.69872000  0.12853000  1.0
  N  N59  1  0.31745000  0.19873000  0.37147000  1.0
  N  N60  1  0.69587000  0.45025000  0.77033000  1.0
  N  N61  1  0.80412000  0.95025000  0.72967000  1.0
  N  N62  1  0.30413000  0.54975000  0.22967000  1.0
  N  N63  1  0.19588000  0.04975000  0.27033000  1.0
  N  N64  1  0.33587000  0.03009000  0.80694000  1.0
  N  N65  1  0.16413000  0.53010000  0.69306000  1.0
  N  N66  1  0.66413000  0.96990000  0.19306000  1.0
  N  N67  1  0.83587000  0.46990000  0.30694000  1.0
  O  O68  1  0.21433000  0.30421000  0.09760000  1.0
  O  O69  1  0.28567000  0.80421000  0.40240000  1.0
  O  O70  1  0.78567000  0.69579000  0.90240000  1.0
  O  O71  1  0.71433000  0.19579000  0.59759000  1.0
  O  O72  1  0.08950000  0.38975000  0.98364000  1.0
  O  O73  1  0.41050000  0.88976000  0.51636000  1.0
  O  O74  1  0.91050000  0.61025000  0.01636000  1.0
  O  O75  1  0.58950000  0.11025000  0.48364000  1.0
  O  O76  1  0.81898000  0.47591000  0.68928000  1.0
  O  O77  1  0.68102000  0.97591000  0.81072000  1.0
  O  O78  1  0.18102000  0.52409000  0.31072000  1.0
  O  O79  1  0.31898000  0.02409000  0.18928000  1.0
  O  O80  1  0.57753000  0.49800000  0.76823000  1.0
  O  O81  1  0.92247000  0.99800000  0.73177000  1.0
  O  O82  1  0.42247000  0.50200000  0.23177000  1.0
  O  O83  1  0.07753000  0.00200000  0.26823000  1.0
