# generated using pymatgen
data_Co2H32C46N8O9
_symmetry_space_group_name_H-M   'P 1'
_cell_length_a   11.08210000
_cell_length_b   21.94154520
_cell_length_c   22.57140000
_cell_angle_alpha   108.15299077
_cell_angle_beta   104.20210000
_cell_angle_gamma   104.62044510
_symmetry_Int_Tables_number   1
_chemical_formula_structural   Co2H32C46N8O9
_chemical_formula_sum   'Co8 H128 C184 N32 O36'
_cell_volume   4722.72181835
_cell_formula_units_Z   4
loop_
 _symmetry_equiv_pos_site_id
 _symmetry_equiv_pos_as_xyz
  1  'x, y, z'
loop_
 _atom_site_type_symbol
 _atom_site_label
 _atom_site_symmetry_multiplicity
 _atom_site_fract_x
 _atom_site_fract_y
 _atom_site_fract_z
 _atom_site_occupancy
  Co  Co0  1  0.70142000  0.16899000  0.86380000  1.0
  Co  Co1  1  0.16868000  0.33101000  0.63618000  1.0
  Co  Co2  1  0.29858000  0.83101000  0.13620000  1.0
  Co  Co3  1  0.83131000  0.66899000  0.36382000  1.0
  Co  Co4  1  0.41647000  0.09627000  0.87727000  1.0
  Co  Co5  1  0.94310000  0.40373000  0.62263000  1.0
  Co  Co6  1  0.58352000  0.90372000  0.12274000  1.0
  Co  Co7  1  0.05690000  0.59627000  0.37737000  1.0
  H  H8  1  0.24849000  0.19570000  0.90499000  1.0
  H  H9  1  0.64834000  0.30432000  0.59493000  1.0
  H  H10  1  0.75151000  0.80430000  0.09501000  1.0
  H  H11  1  0.35167000  0.69568000  0.40507000  1.0
  H  H12  1  0.09676000  0.19041000  0.98527000  1.0
  H  H13  1  0.42145000  0.30966000  0.51486000  1.0
  H  H14  1  0.90325000  0.80960000  0.01473000  1.0
  H  H15  1  0.57855000  0.69034000  0.48514000  1.0
  H  H16  1  0.32823000  0.06354000  0.99719000  1.0
  H  H17  1  0.76758000  0.43650000  0.50269000  1.0
  H  H18  1  0.67177000  0.93646000  0.00281000  1.0
  H  H19  1  0.23242000  0.56350000  0.49731000  1.0
  H  H20  1  0.99342000  0.15442000  0.03647000  1.0
  H  H21  1  0.30272000  0.34561000  0.46362000  1.0
  H  H22  1  0.00658000  0.84558000  0.96353000  1.0
  H  H23  1  0.69728000  0.65439000  0.53638000  1.0
  H  H24  1  0.86938000  0.10843000  0.09737000  1.0
  H  H25  1  0.16362000  0.39151000  0.40268000  1.0
  H  H26  1  0.13062000  0.89157000  0.90263000  1.0
  H  H27  1  0.83637000  0.60849000  0.59732000  1.0
  H  H28  1  0.92516000  0.02251000  0.13977000  1.0
  H  H29  1  0.26272000  0.47743000  0.36022000  1.0
  H  H30  1  0.07484000  0.97749000  0.86023000  1.0
  H  H31  1  0.73729000  0.52258000  0.63978000  1.0
  H  H32  1  0.25588000  0.04168000  0.07074000  1.0
  H  H33  1  0.64344000  0.45847000  0.42934000  1.0
  H  H34  1  0.74412000  0.95832000  0.92927000  1.0
  H  H35  1  0.35656000  0.54154000  0.57066000  1.0
  H  H36  1  0.20826000  0.92883000  0.06500000  1.0
  H  H37  1  0.71413000  0.57124000  0.43510000  1.0
  H  H38  1  0.79174000  0.07117000  0.93500000  1.0
  H  H39  1  0.28586000  0.42876000  0.56490000  1.0
  H  H40  1  0.06415000  0.00529000  0.21959000  1.0
  H  H41  1  0.33933000  0.49469000  0.28035000  1.0
  H  H42  1  0.93584000  0.99471000  0.78041000  1.0
  H  H43  1  0.66068000  0.50531000  0.71965000  1.0
  H  H44  1  0.15532000  0.90167000  0.23471000  1.0
  H  H45  1  0.51908000  0.59834000  0.26528000  1.0
  H  H46  1  0.84467000  0.09833000  0.76529000  1.0
  H  H47  1  0.48092000  0.40166000  0.73472000  1.0
  H  H48  1  0.59813000  0.73401000  0.32838000  1.0
  H  H49  1  0.03586000  0.76591000  0.17157000  1.0
  H  H50  1  0.40187000  0.26599000  0.67162000  1.0
  H  H51  1  0.96413000  0.23409000  0.82843000  1.0
  H  H52  1  0.62965000  0.86617000  0.40826000  1.0
  H  H53  1  0.85569000  0.63370000  0.09175000  1.0
  H  H54  1  0.37035000  0.13383000  0.59175000  1.0
  H  H55  1  0.14431000  0.36630000  0.90825000  1.0
  H  H56  1  0.95717000  0.81385000  0.49136000  1.0
  H  H57  1  0.15223000  0.68615000  0.00856000  1.0
  H  H58  1  0.04284000  0.18615000  0.50864000  1.0
  H  H59  1  0.84777000  0.31384000  0.99145000  1.0
  H  H60  1  0.21889000  0.10164000  0.74627000  1.0
  H  H61  1  0.87113000  0.39833000  0.75355000  1.0
  H  H62  1  0.78111000  0.89836000  0.25373000  1.0
  H  H63  1  0.12887000  0.60167000  0.24645000  1.0
  H  H64  1  0.20489000  0.93828000  0.80746000  1.0
  H  H65  1  0.95900000  0.56176000  0.69244000  1.0
  H  H66  1  0.79511000  0.06172000  0.19254000  1.0
  H  H67  1  0.04100000  0.43824000  0.30756000  1.0
  H  H68  1  0.99951000  0.88973000  0.68636000  1.0
  H  H69  1  0.92346000  0.61025000  0.81361000  1.0
  H  H70  1  0.00049000  0.11027000  0.31364000  1.0
  H  H71  1  0.07654000  0.38975000  0.18639000  1.0
  H  H72  1  0.02357000  0.10011000  0.67367000  1.0
  H  H73  1  0.75006000  0.39989000  0.82627000  1.0
  H  H74  1  0.97644000  0.89989000  0.32632000  1.0
  H  H75  1  0.24995000  0.60011000  0.17373000  1.0
  H  H76  1  0.88750000  0.09107000  0.56453000  1.0
  H  H77  1  0.73243000  0.40894000  0.93547000  1.0
  H  H78  1  0.11252000  0.90894000  0.43547000  1.0
  H  H79  1  0.26757000  0.59106000  0.06453000  1.0
  H  H80  1  0.78797000  0.97912000  0.46574000  1.0
  H  H81  1  0.84380000  0.52083000  0.03429000  1.0
  H  H82  1  0.21204000  0.02088000  0.53426000  1.0
  H  H83  1  0.15620000  0.47917000  0.96571000  1.0
  H  H84  1  0.96272000  0.88429000  0.58703000  1.0
  H  H85  1  0.99179000  0.61565000  0.91289000  1.0
  H  H86  1  0.03728000  0.11571000  0.41297000  1.0
  H  H87  1  0.00822000  0.38435000  0.08711000  1.0
  H  H88  1  0.37374000  0.94188000  0.96965000  1.0
  H  H89  1  0.96237000  0.55821000  0.53037000  1.0
  H  H90  1  0.62626000  0.05812000  0.03035000  1.0
  H  H91  1  0.03764000  0.44179000  0.46963000  1.0
  H  H92  1  0.44205000  0.74053000  0.82519000  1.0
  H  H93  1  0.37641000  0.75950000  0.67481000  1.0
  H  H94  1  0.55795000  0.25947000  0.17481000  1.0
  H  H95  1  0.62360000  0.24050000  0.32519000  1.0
  H  H96  1  0.49531000  0.85040000  0.80786000  1.0
  H  H97  1  0.33716000  0.64959000  0.69206000  1.0
  H  H98  1  0.50469000  0.14960000  0.19214000  1.0
  H  H99  1  0.66284000  0.35041000  0.30794000  1.0
  H  H100  1  0.49731000  0.76145000  0.01581000  1.0
  H  H101  1  0.21996000  0.73862000  0.48422000  1.0
  H  H102  1  0.50269000  0.23855000  0.98419000  1.0
  H  H103  1  0.78004000  0.26138000  0.51578000  1.0
  H  H104  1  0.30128000  0.54200000  0.93869000  1.0
  H  H105  1  0.32047000  0.95807000  0.56141000  1.0
  H  H106  1  0.69871000  0.45800000  0.06131000  1.0
  H  H107  1  0.67953000  0.04193000  0.43859000  1.0
  H  H108  1  0.17387000  0.54249000  0.83334000  1.0
  H  H109  1  0.29761000  0.95758000  0.66666667  1.0
  H  H110  1  0.82612000  0.45751000  0.16666000  1.0
  H  H111  1  0.70239000  0.04242000  0.33333333  1.0
  H  H112  1  0.20728000  0.65289000  0.81782000  1.0
  H  H113  1  0.23624000  0.84719000  0.68222000  1.0
  H  H114  1  0.79271000  0.34711000  0.18218000  1.0
  H  H115  1  0.76376000  0.15281000  0.31778000  1.0
  H  H116  1  0.51359000  0.55517000  0.98649000  1.0
  H  H117  1  0.47165000  0.94494000  0.51349000  1.0
  H  H118  1  0.48641000  0.44483000  0.01351000  1.0
  H  H119  1  0.52834000  0.05505000  0.48651000  1.0
  H  H120  1  0.65521000  0.54310000  0.08322000  1.0
  H  H121  1  0.52864000  0.95696000  0.41674000  1.0
  H  H122  1  0.34479000  0.45690000  0.91679000  1.0
  H  H123  1  0.47135000  0.04303000  0.58326000  1.0
  H  H124  1  0.65860000  0.73285000  0.21430000  1.0
  H  H125  1  0.21168000  0.76707000  0.28580000  1.0
  H  H126  1  0.34139000  0.26715000  0.78570000  1.0
  H  H127  1  0.78832000  0.23293000  0.71421000  1.0
  H  H128  1  0.49132000  0.07328000  0.76566000  1.0
  H  H129  1  0.15233000  0.42674000  0.73430000  1.0
  H  H130  1  0.50868000  0.92672000  0.23434000  1.0
  H  H131  1  0.84767000  0.57326000  0.26570000  1.0
  H  H132  1  0.53403000  0.03188000  0.81617000  1.0
  H  H133  1  0.18609000  0.46817000  0.68381000  1.0
  H  H134  1  0.46598000  0.96813000  0.18383000  1.0
  H  H135  1  0.81391000  0.53183000  0.31619000  1.0
  C  C136  1  0.24192000  0.16767000  0.93670000  1.0
  C  C137  1  0.63793000  0.33233000  0.56320000  1.0
  C  C138  1  0.75809000  0.83233000  0.06330000  1.0
  C  C139  1  0.36207000  0.66767000  0.43680000  1.0
  C  C140  1  0.16710000  0.16549000  0.97643000  1.0
  C  C141  1  0.52552000  0.33456000  0.52361000  1.0
  C  C142  1  0.83290000  0.83451000  0.02357000  1.0
  C  C143  1  0.47449000  0.66544000  0.47639000  1.0
  C  C144  1  0.28722000  0.09910000  0.98355000  1.0
  C  C145  1  0.70471000  0.40093000  0.51634000  1.0
  C  C146  1  0.71278000  0.90090000  0.01645000  1.0
  C  C147  1  0.29529000  0.59907000  0.48366000  1.0
  C  C148  1  0.13007000  0.09860000  0.04622000  1.0
  C  C149  1  0.48534000  0.40149000  0.45386000  1.0
  C  C150  1  0.86993000  0.90140000  0.95378000  1.0
  C  C151  1  0.51466000  0.59851000  0.54615000  1.0
  C  C152  1  0.02432000  0.11922000  0.05616000  1.0
  C  C153  1  0.34905000  0.38081000  0.44391000  1.0
  C  C154  1  0.97568000  0.88078000  0.94384000  1.0
  C  C155  1  0.65095000  0.61919000  0.55609000  1.0
  C  C156  1  0.95281000  0.09284000  0.09097000  1.0
  C  C157  1  0.26905000  0.40714000  0.40907000  1.0
  C  C158  1  0.04719000  0.90717000  0.90902000  1.0
  C  C159  1  0.73096000  0.59286000  0.59093000  1.0
  C  C160  1  0.98471000  0.04596000  0.11555000  1.0
  C  C161  1  0.32310000  0.45403000  0.38449000  1.0
  C  C162  1  0.01528000  0.95404000  0.88445000  1.0
  C  C163  1  0.67690000  0.54597000  0.61552000  1.0
  C  C164  1  0.09384000  0.02802000  0.10777000  1.0
  C  C165  1  0.45793000  0.47202000  0.39227000  1.0
  C  C166  1  0.90616000  0.97198000  0.89223000  1.0
  C  C167  1  0.54206000  0.52798000  0.60773000  1.0
  C  C168  1  0.16848000  0.05455000  0.07394000  1.0
  C  C169  1  0.53998000  0.44556000  0.42614000  1.0
  C  C170  1  0.83152000  0.94545000  0.92606000  1.0
  C  C171  1  0.46002000  0.55444000  0.57386000  1.0
  C  C172  1  0.18307000  0.93517000  0.10935000  1.0
  C  C173  1  0.63834000  0.56489000  0.39072000  1.0
  C  C174  1  0.81694000  0.06484000  0.89065000  1.0
  C  C175  1  0.36166000  0.43511000  0.60928000  1.0
  C  C176  1  0.10573000  0.97333000  0.19002000  1.0
  C  C177  1  0.44241000  0.52664000  0.30992000  1.0
  C  C178  1  0.89426000  0.02667000  0.80997000  1.0
  C  C179  1  0.55759000  0.47336000  0.69008000  1.0
  C  C180  1  0.15095000  0.92234000  0.19673000  1.0
  C  C181  1  0.53191000  0.57767000  0.30327000  1.0
  C  C182  1  0.84903000  0.07765000  0.80327000  1.0
  C  C183  1  0.46809000  0.42233000  0.69673000  1.0
  C  C184  1  0.67717000  0.77039000  0.37467000  1.0
  C  C185  1  0.03236000  0.72954000  0.12530000  1.0
  C  C186  1  0.32283000  0.22961000  0.62533000  1.0
  C  C187  1  0.96764000  0.27046000  0.87470000  1.0
  C  C188  1  0.69224000  0.83594000  0.41306000  1.0
  C  C189  1  0.94366000  0.66394000  0.08695000  1.0
  C  C190  1  0.30777000  0.16406000  0.58694000  1.0
  C  C191  1  0.05634000  0.33606000  0.91305000  1.0
  C  C192  1  0.86264000  0.80899000  0.45841000  1.0
  C  C193  1  0.09551000  0.69100000  0.04152000  1.0
  C  C194  1  0.13736000  0.19101000  0.54159000  1.0
  C  C195  1  0.90449000  0.30900000  0.95848000  1.0
  C  C196  1  0.18552000  0.05138000  0.74759000  1.0
  C  C197  1  0.88663000  0.44860000  0.75226000  1.0
  C  C198  1  0.81448000  0.94862000  0.25241000  1.0
  C  C199  1  0.11338000  0.55140000  0.24774000  1.0
  C  C200  1  0.17551000  0.96507000  0.77670000  1.0
  C  C201  1  0.93364000  0.53494000  0.72318000  1.0
  C  C202  1  0.82449000  0.03493000  0.22331000  1.0
  C  C203  1  0.06636000  0.46506000  0.27682000  1.0
  C  C204  1  0.07451000  0.94028000  0.71658000  1.0
  C  C205  1  0.91770000  0.55971000  0.78334000  1.0
  C  C206  1  0.92549000  0.05972000  0.28342000  1.0
  C  C207  1  0.08230000  0.44029000  0.21666000  1.0
  C  C208  1  0.00229000  0.99254000  0.63670000  1.0
  C  C209  1  0.87341000  0.50744000  0.86324000  1.0
  C  C210  1  0.99771000  0.00746000  0.36330000  1.0
  C  C211  1  0.12659000  0.49256000  0.13676000  1.0
  C  C212  1  0.98109000  0.05100000  0.63088000  1.0
  C  C213  1  0.79958000  0.44898000  0.86906000  1.0
  C  C214  1  0.01889000  0.94899000  0.36912000  1.0
  C  C215  1  0.20042000  0.55102000  0.13094000  1.0
  C  C216  1  0.90317000  0.04548000  0.56925000  1.0
  C  C217  1  0.78895000  0.45451000  0.93072000  1.0
  C  C218  1  0.09683000  0.95452000  0.43074000  1.0
  C  C219  1  0.21105000  0.54549000  0.06928000  1.0
  C  C220  1  0.84577000  0.98279000  0.51416000  1.0
  C  C221  1  0.84940000  0.51718000  0.98584000  1.0
  C  C222  1  0.15423000  0.01721000  0.48584000  1.0
  C  C223  1  0.15060000  0.48282000  0.01415000  1.0
  C  C224  1  0.86644000  0.92472000  0.52120000  1.0
  C  C225  1  0.92102000  0.57524000  0.97877000  1.0
  C  C226  1  0.13357000  0.07528000  0.47880000  1.0
  C  C227  1  0.07899000  0.42476000  0.02122000  1.0
  C  C228  1  0.94524000  0.92944000  0.58223000  1.0
  C  C229  1  0.93400000  0.57053000  0.91772000  1.0
  C  C230  1  0.05477000  0.07056000  0.41777000  1.0
  C  C231  1  0.06600000  0.42947000  0.08228000  1.0
  C  C232  1  0.46717000  0.96664000  0.87392000  1.0
  C  C233  1  0.12681000  0.53340000  0.62604000  1.0
  C  C234  1  0.53283000  0.03336000  0.12608000  1.0
  C  C235  1  0.87320000  0.46660000  0.37396000  1.0
  C  C236  1  0.43714000  0.90255000  0.88748000  1.0
  C  C237  1  0.14726000  0.59750000  0.61250000  1.0
  C  C238  1  0.56286000  0.09745000  0.11252000  1.0
  C  C239  1  0.85275000  0.40250000  0.38750000  1.0
  C  C240  1  0.38806000  0.89737000  0.93808000  1.0
  C  C241  1  0.05277000  0.60269000  0.56193000  1.0
  C  C242  1  0.61194000  0.10263000  0.06192000  1.0
  C  C243  1  0.94724000  0.39731000  0.43807000  1.0
  C  C244  1  0.35934000  0.83659000  0.94871000  1.0
  C  C245  1  0.07419000  0.66350000  0.55134000  1.0
  C  C246  1  0.64066000  0.16341000  0.05129000  1.0
  C  C247  1  0.92582000  0.33650000  0.44866000  1.0
  C  C248  1  0.37903000  0.77958000  0.90759000  1.0
  C  C249  1  0.19197000  0.72051000  0.59247000  1.0
  C  C250  1  0.62096000  0.22042000  0.09241000  1.0
  C  C251  1  0.80804000  0.27949000  0.40753000  1.0
  C  C252  1  0.42680000  0.78489000  0.85661000  1.0
  C  C253  1  0.28536000  0.71515000  0.64341000  1.0
  C  C254  1  0.57320000  0.21511000  0.14339000  1.0
  C  C255  1  0.71464000  0.28485000  0.35659000  1.0
  C  C256  1  0.45660000  0.84560000  0.84680000  1.0
  C  C257  1  0.26433000  0.65442000  0.65316000  1.0
  C  C258  1  0.54340000  0.15440000  0.15320000  1.0
  C  C259  1  0.73567000  0.34558000  0.34684000  1.0
  C  C260  1  0.29406000  0.82856000  0.99875000  1.0
  C  C261  1  0.96687000  0.67152000  0.50133000  1.0
  C  C262  1  0.70594000  0.17144000  0.00125000  1.0
  C  C263  1  0.03314000  0.32848000  0.49867000  1.0
  C  C264  1  0.35226000  0.71428000  0.91711000  1.0
  C  C265  1  0.22078000  0.78581000  0.58296000  1.0
  C  C266  1  0.64773000  0.28572000  0.08289000  1.0
  C  C267  1  0.77922000  0.21419000  0.41704000  1.0
  C  C268  1  0.42411000  0.71336000  0.97704000  1.0
  C  C269  1  0.23361000  0.78671000  0.52302000  1.0
  C  C270  1  0.57588000  0.28664000  0.02296000  1.0
  C  C271  1  0.76640000  0.21330000  0.47698000  1.0
  C  C272  1  0.40971000  0.65166000  0.98562000  1.0
  C  C273  1  0.27232000  0.84841000  0.51444000  1.0
  C  C274  1  0.59028000  0.34834000  0.01438000  1.0
  C  C275  1  0.72768000  0.15159000  0.48556000  1.0
  C  C276  1  0.31615000  0.59062000  0.93314000  1.0
  C  C277  1  0.29218000  0.90945000  0.56692000  1.0
  C  C278  1  0.68384000  0.40938000  0.06685000  1.0
  C  C279  1  0.70783000  0.09056000  0.43309000  1.0
  C  C280  1  0.24317000  0.59090000  0.87347000  1.0
  C  C281  1  0.27843000  0.90916000  0.62656000  1.0
  C  C282  1  0.75683000  0.40910000  0.12652000  1.0
  C  C283  1  0.72159000  0.09085000  0.37344000  1.0
  C  C284  1  0.26197000  0.65246000  0.86491000  1.0
  C  C285  1  0.24434000  0.84761000  0.63514000  1.0
  C  C286  1  0.73803000  0.34754000  0.13509000  1.0
  C  C287  1  0.75566000  0.15239000  0.36486000  1.0
  C  C288  1  0.49689000  0.64905000  0.04540000  1.0
  C  C289  1  0.30247000  0.85099000  0.45467000  1.0
  C  C290  1  0.50310000  0.35095000  0.95459000  1.0
  C  C291  1  0.69754000  0.14902000  0.54533000  1.0
  C  C292  1  0.54129000  0.59324000  0.03674000  1.0
  C  C293  1  0.41121000  0.90680000  0.46326000  1.0
  C  C294  1  0.45871000  0.40676000  0.96326000  1.0
  C  C295  1  0.58879000  0.09320000  0.53674000  1.0
  C  C296  1  0.62223000  0.58669000  0.09025000  1.0
  C  C297  1  0.44517000  0.91334000  0.40974000  1.0
  C  C298  1  0.37776000  0.41331000  0.90975000  1.0
  C  C299  1  0.55482000  0.08665000  0.59026000  1.0
  C  C300  1  0.66388000  0.63652000  0.15488000  1.0
  C  C301  1  0.37252000  0.86344000  0.34514000  1.0
  C  C302  1  0.33611000  0.36348000  0.84512000  1.0
  C  C303  1  0.62747000  0.13655000  0.65486000  1.0
  C  C304  1  0.62462000  0.69346000  0.16411000  1.0
  C  C305  1  0.26721000  0.80649000  0.33596000  1.0
  C  C306  1  0.37539000  0.30655000  0.83589000  1.0
  C  C307  1  0.73280000  0.19351000  0.66404000  1.0
  C  C308  1  0.54217000  0.70026000  0.11064000  1.0
  C  C309  1  0.23135000  0.79976000  0.38944000  1.0
  C  C310  1  0.45782000  0.29974000  0.88936000  1.0
  C  C311  1  0.76865000  0.20024000  0.61056000  1.0
  C  C312  1  0.50266000  0.76256000  0.12645000  1.0
  C  C313  1  0.11370000  0.73746000  0.37362000  1.0
  C  C314  1  0.49732000  0.23743000  0.87355000  1.0
  C  C315  1  0.88630000  0.26254000  0.62638000  1.0
  C  C316  1  0.74877000  0.62832000  0.21270000  1.0
  C  C317  1  0.40777000  0.87161000  0.28730000  1.0
  C  C318  1  0.25122000  0.37168000  0.78730000  1.0
  C  C319  1  0.59224000  0.12839000  0.71270000  1.0
  N  N320  1  0.31682000  0.12615000  0.94163000  1.0
  N  N321  1  0.74930000  0.37384000  0.55822000  1.0
  N  N322  1  0.68318000  0.87385000  0.05837000  1.0
  N  N323  1  0.25071000  0.62616000  0.44178000  1.0
  N  N324  1  0.19580000  0.12150000  0.00627000  1.0
  N  N325  1  0.56820000  0.37858000  0.49376000  1.0
  N  N326  1  0.80420000  0.87850000  0.99373000  1.0
  N  N327  1  0.43180000  0.62142000  0.50624000  1.0
  N  N328  1  0.12709000  0.98136000  0.13433000  1.0
  N  N329  1  0.51126000  0.51865000  0.36568000  1.0
  N  N330  1  0.87290000  0.01864000  0.86567000  1.0
  N  N331  1  0.48874000  0.48135000  0.63432000  1.0
  N  N332  1  0.19847000  0.89900000  0.14603000  1.0
  N  N333  1  0.65335000  0.60105000  0.35405000  1.0
  N  N334  1  0.80153000  0.10100000  0.85398000  1.0
  N  N335  1  0.34666000  0.39896000  0.64595000  1.0
  N  N336  1  0.78407000  0.75459000  0.40343000  1.0
  N  N337  1  0.12619000  0.74540000  0.09649000  1.0
  N  N338  1  0.21593000  0.24541000  0.59657000  1.0
  N  N339  1  0.87381000  0.25460000  0.90351000  1.0
  N  N340  1  0.81051000  0.86013000  0.46667000  1.0
  N  N341  1  0.98415000  0.63981000  0.03332000  1.0
  N  N342  1  0.18949000  0.13986000  0.53333000  1.0
  N  N343  1  0.01585000  0.36019000  0.96668000  1.0
  N  N344  1  0.24310000  0.03417000  0.79554000  1.0
  N  N345  1  0.91334000  0.46583000  0.70430000  1.0
  N  N346  1  0.75690000  0.96583000  0.20446000  1.0
  N  N347  1  0.08665000  0.53416000  0.29570000  1.0
  N  N348  1  0.08166000  0.99553000  0.69810000  1.0
  N  N349  1  0.88817000  0.50445000  0.80180000  1.0
  N  N350  1  0.91833000  0.00447000  0.30190000  1.0
  N  N351  1  0.11182000  0.49554000  0.19820000  1.0
  O  O352  1  0.53077000  0.96967000  0.83451000  1.0
  O  O353  1  0.22678000  0.53040000  0.66545000  1.0
  O  O354  1  0.46923000  0.03033000  0.16549000  1.0
  O  O355  1  0.77321000  0.46960000  0.33454000  1.0
  O  O356  1  0.42488000  0.01322000  0.90210000  1.0
  O  O357  1  0.00982000  0.48681000  0.59786000  1.0
  O  O358  1  0.57512000  0.98678000  0.09790000  1.0
  O  O359  1  0.99019000  0.51320000  0.40214000  1.0
  O  O360  1  0.16964000  0.80497000  0.97877000  1.0
  O  O361  1  0.88603000  0.69510000  0.52135000  1.0
  O  O362  1  0.83035000  0.19503000  0.02123000  1.0
  O  O363  1  0.11398000  0.30490000  0.47865000  1.0
  O  O364  1  0.37080000  0.84630000  0.05937000  1.0
  O  O365  1  0.96513000  0.65374000  0.44068000  1.0
  O  O366  1  0.62920000  0.15370000  0.94063000  1.0
  O  O367  1  0.03487000  0.34626000  0.55932000  1.0
  O  O368  1  0.59604000  0.82043000  0.14701000  1.0
  O  O369  1  0.12869000  0.67959000  0.35310000  1.0
  O  O370  1  0.40395000  0.17956000  0.85299000  1.0
  O  O371  1  0.87131000  0.32041000  0.64690000  1.0
  O  O372  1  0.38188000  0.75260000  0.11947000  1.0
  O  O373  1  0.00982000  0.74743000  0.38056000  1.0
  O  O374  1  0.61811000  0.24740000  0.88053000  1.0
  O  O375  1  0.99018000  0.25257000  0.61944000  1.0
  O  O376  1  0.75827000  0.66741000  0.27054000  1.0
  O  O377  1  0.32042000  0.83244000  0.22948000  1.0
  O  O378  1  0.24173000  0.33260000  0.72946000  1.0
  O  O379  1  0.67958000  0.16756000  0.77053000  1.0
  O  O380  1  0.80321000  0.58356000  0.20041000  1.0
  O  O381  1  0.51911000  0.91645000  0.29958000  1.0
  O  O382  1  0.19679000  0.41644000  0.79959000  1.0
  O  O383  1  0.48089000  0.08355000  0.70043000  1.0
  O  O384  1  0.52239000  0.07603000  0.81351000  1.0
  O  O385  1  0.13294000  0.42402000  0.68646000  1.0
  O  O386  1  0.47761000  0.92397000  0.18649000  1.0
  O  O387  1  0.86706000  0.57598000  0.31354000  1.0
