# generated using pymatgen
data_Zr6H28C50S5O47F2
_symmetry_space_group_name_H-M   'P 1'
_cell_length_a   14.73044399
_cell_length_b   14.77370000
_cell_length_c   14.78400000
_cell_angle_alpha   60.19040000
_cell_angle_beta   60.25932323
_cell_angle_gamma   90.07854647
_symmetry_Int_Tables_number   1
_chemical_formula_structural   Zr6H28C50S5O47F2
_chemical_formula_sum   'Zr6 H28 C50 S5 O47 F2'
_cell_volume   2288.84731230
_cell_formula_units_Z   1
loop_
 _symmetry_equiv_pos_site_id
 _symmetry_equiv_pos_as_xyz
  1  'x, y, z'
loop_
 _atom_site_type_symbol
 _atom_site_label
 _atom_site_symmetry_multiplicity
 _atom_site_fract_x
 _atom_site_fract_y
 _atom_site_fract_z
 _atom_site_occupancy
  Zr  Zr0  1  0.38060000  0.87522000  0.49342000  1.0
  Zr  Zr1  1  0.61782000  0.11779000  0.49270000  1.0
  Zr  Zr2  1  0.38281000  0.87530000  0.73043000  1.0
  Zr  Zr3  1  0.61713000  0.11843000  0.25346000  1.0
  Zr  Zr4  1  0.62456000  0.88377000  0.48698000  1.0
  Zr  Zr5  1  0.37661000  0.11304000  0.49623000  1.0
  H  H6  1  0.41032000  0.71481000  0.67892000  1.0
  H  H7  1  0.78256000  0.09961000  0.30004000  1.0
  H  H8  1  0.40404000  0.08720000  0.68469000  1.0
  H  H9  1  0.40292000  0.08754000  0.30763000  1.0
  H  H10  1  0.40866000  0.62087000  0.41371000  1.0
  H  H11  1  0.61613000  0.55733000  0.55038000  1.0
  H  H12  1  0.40814000  0.44860000  0.41993000  1.0
  H  H13  1  0.08717000  0.86451000  0.46905000  1.0
  H  H14  1  0.09689000  0.14466000  0.48952000  1.0
  H  H15  1  0.92095000  0.88048000  0.46455000  1.0
  H  H16  1  0.88038000  0.82489000  0.21255000  1.0
  H  H17  1  0.93079000  0.15983000  0.93926000  1.0
  H  H18  1  0.04834000  0.82827000  0.04077000  1.0
  H  H19  1  0.34358000  0.41560000  0.21645000  1.0
  H  H20  1  0.66145000  0.42251000  0.95472000  1.0
  H  H21  1  0.36129000  0.58679000  0.03454000  1.0
  H  H22  1  0.06504000  0.60014000  0.68705000  1.0
  H  H23  1  0.14355000  0.51413000  0.72394000  1.0
  H  H24  1  0.97148000  0.35022000  0.89059000  1.0
  H  H25  1  0.89253000  0.43601000  0.85445000  1.0
  H  H26  1  0.67117000  0.09592000  0.94046000  1.0
  H  H27  1  0.33984000  0.86392000  0.23020000  1.0
  H  H28  1  0.66351000  0.08801000  0.78048000  1.0
  H  H29  1  0.57169000  0.18313000  0.68790000  1.0
  H  H30  1  0.84626000  0.30456000  0.41486000  1.0
  H  H31  1  0.30154000  0.25747000  0.61422000  1.0
  H  H32  1  0.67046000  0.67408000  0.63101000  1.0
  H  H33  1  0.23542000  0.89640000  0.96729000  1.0
  C  C34  1  0.51097000  0.69946000  0.48274000  1.0
  C  C35  1  0.80570000  0.00887000  0.48908000  1.0
  C  C36  1  0.50091000  0.30239000  0.49529000  1.0
  C  C37  1  0.19516000  0.99256000  0.49460000  1.0
  C  C38  1  0.19044000  0.70252000  0.79490000  1.0
  C  C39  1  0.50405000  0.98755000  0.19295000  1.0
  C  C40  1  0.78814000  0.31314000  0.18995000  1.0
  C  C41  1  0.49713000  0.98635000  0.80642000  1.0
  C  C42  1  0.51668000  0.69929000  0.79111000  1.0
  C  C43  1  0.19088000  0.99334000  0.79998000  1.0
  C  C44  1  0.49499000  0.30266000  0.19853000  1.0
  C  C45  1  0.79854000  0.99590000  0.18665000  1.0
  C  C46  1  0.50920000  0.40510000  0.49095000  1.0
  C  C47  1  0.51335000  0.59967000  0.48044000  1.0
  C  C48  1  0.56941000  0.43652000  0.52723000  1.0
  C  C49  1  0.45416000  0.56948000  0.44397000  1.0
  C  C50  1  0.57151000  0.53402000  0.52047000  1.0
  C  C51  1  0.45341000  0.47334000  0.44842000  1.0
  C  C52  1  0.91238000  0.01811000  0.47815000  1.0
  C  C53  1  0.10004000  0.00202000  0.48339000  1.0
  C  C54  1  0.96512000  0.09650000  0.48092000  1.0
  C  C55  1  0.05316000  0.92909000  0.47235000  1.0
  C  C56  1  0.05778000  0.08673000  0.48403000  1.0
  C  C57  1  0.96088000  0.93852000  0.46902000  1.0
  C  C58  1  0.08778000  0.99706000  0.89443000  1.0
  C  C59  1  0.89549000  0.99244000  0.08571000  1.0
  C  C60  1  0.05322000  0.09153000  0.86512000  1.0
  C  C61  1  0.92810000  0.89853000  0.11516000  1.0
  C  C62  1  0.95689000  0.08724000  0.96085000  1.0
  C  C63  1  0.02266000  0.90123000  0.01933000  1.0
  C  C64  1  0.52042000  0.60169000  0.89237000  1.0
  C  C65  1  0.50082000  0.40710000  0.09614000  1.0
  C  C66  1  0.60730000  0.55556000  0.87133000  1.0
  C  C67  1  0.41674000  0.45426000  0.11976000  1.0
  C  C68  1  0.59543000  0.45844000  0.97223000  1.0
  C  C69  1  0.42672000  0.54980000  0.01809000  1.0
  C  C70  1  0.08164000  0.61287000  0.89302000  1.0
  C  C71  1  0.88090000  0.42009000  0.08902000  1.0
  C  C72  1  0.04163000  0.54851000  0.86788000  1.0
  C  C73  1  0.91623000  0.48930000  0.11337000  1.0
  C  C74  1  0.94549000  0.45633000  0.96161000  1.0
  C  C75  1  0.01275000  0.58163000  0.01950000  1.0
  C  C76  1  0.06696000  0.53293000  0.76481000  1.0
  C  C77  1  0.95804000  0.42910000  0.87069000  1.0
  C  C78  1  0.49600000  0.97623000  0.91249000  1.0
  C  C79  1  0.50537000  0.98072000  0.09509000  1.0
  C  C80  1  0.40433000  0.90976000  0.04194000  1.0
  C  C81  1  0.59717000  0.04356000  0.96864000  1.0
  C  C82  1  0.41069000  0.91273000  0.13133000  1.0
  C  C83  1  0.59200000  0.04000000  0.87908000  1.0
  S  S84  1  0.64223000  0.35971000  0.59204000  1.0
  S  S85  1  0.92317000  0.20576000  0.49758000  1.0
  S  S86  1  0.12460000  0.22678000  0.71442000  1.0
  S  S87  1  0.74430000  0.61745000  0.72690000  1.0
  S  S88  1  0.27187000  0.81947000  0.11068000  1.0
  O  O89  1  0.43256000  0.73665000  0.48398000  1.0
  O  O90  1  0.75657000  0.07738000  0.50095000  1.0
  O  O91  1  0.57604000  0.26020000  0.49247000  1.0
  O  O92  1  0.23298000  0.91451000  0.49581000  1.0
  O  O93  1  0.23520000  0.73876000  0.83111000  1.0
  O  O94  1  0.57836000  0.06775000  0.15415000  1.0
  O  O95  1  0.75359000  0.26943000  0.15172000  1.0
  O  O96  1  0.42551000  0.91208000  0.83410000  1.0
  O  O97  1  0.59020000  0.73839000  0.67307000  1.0
  O  O98  1  0.23188000  0.06437000  0.68341000  1.0
  O  O99  1  0.41853000  0.26337000  0.31432000  1.0
  O  O100  1  0.76209000  0.92077000  0.30184000  1.0
  O  O101  1  0.23250000  0.91900000  0.84175000  1.0
  O  O102  1  0.56820000  0.25961000  0.16121000  1.0
  O  O103  1  0.76094000  0.07492000  0.15060000  1.0
  O  O104  1  0.43801000  0.73628000  0.82699000  1.0
  O  O105  1  0.23390000  0.73508000  0.67999000  1.0
  O  O106  1  0.56973000  0.07135000  0.69214000  1.0
  O  O107  1  0.75250000  0.26988000  0.30557000  1.0
  O  O108  1  0.42635000  0.91341000  0.30903000  1.0
  O  O109  1  0.23323000  0.06545000  0.50108000  1.0
  O  O110  1  0.58599000  0.73830000  0.48611000  1.0
  O  O111  1  0.76937000  0.93225000  0.48625000  1.0
  O  O112  1  0.41806000  0.26245000  0.50195000  1.0
  O  O113  1  0.43021000  0.06173000  0.36080000  1.0
  O  O114  1  0.43106000  0.06189000  0.62970000  1.0
  O  O115  1  0.70231000  0.07012000  0.35495000  1.0
  O  O116  1  0.43655000  0.79493000  0.62596000  1.0
  O  O117  1  0.55181000  0.94869000  0.59101000  1.0
  O  O118  1  0.55025000  0.94895000  0.39367000  1.0
  O  O119  1  0.54558000  0.14578000  0.39607000  1.0
  O  O120  1  0.35074000  0.94485000  0.59365000  1.0
  O  O121  1  0.55110000  0.24193000  0.70363000  1.0
  O  O122  1  0.65906000  0.40670000  0.64936000  1.0
  O  O123  1  0.73624000  0.35279000  0.49836000  1.0
  O  O124  1  0.90780000  0.27550000  0.38551000  1.0
  O  O125  1  0.01631000  0.27328000  0.46924000  1.0
  O  O126  1  0.81839000  0.15655000  0.61892000  1.0
  O  O127  1  0.24236000  0.25689000  0.68897000  1.0
  O  O128  1  0.07203000  0.29970000  0.74286000  1.0
  O  O129  1  0.13633000  0.22260000  0.61422000  1.0
  O  O130  1  0.72320000  0.62996000  0.62691000  1.0
  O  O131  1  0.80318000  0.53985000  0.74305000  1.0
  O  O132  1  0.78845000  0.72422000  0.69462000  1.0
  O  O133  1  0.22732000  0.90217000  0.03551000  1.0
  O  O134  1  0.20105000  0.78940000  0.23847000  1.0
  O  O135  1  0.28607000  0.73471000  0.08809000  1.0
  F  F136  1  0.85671000  0.47029000  0.22955000  1.0
  F  F137  1  0.03627000  0.64105000  0.05579000  1.0
