# generated using pymatgen
data_NiH21C21(N4O3)2
_symmetry_space_group_name_H-M   'P 1'
_cell_length_a   9.73930000
_cell_length_b   10.06050000
_cell_length_c   11.73300000
_cell_angle_alpha   98.96230000
_cell_angle_beta   101.29300000
_cell_angle_gamma   91.52680000
_symmetry_Int_Tables_number   1
_chemical_formula_structural   NiH21C21(N4O3)2
_chemical_formula_sum   'Ni2 H42 C42 N16 O12'
_cell_volume   1111.66323606
_cell_formula_units_Z   2
loop_
 _symmetry_equiv_pos_site_id
 _symmetry_equiv_pos_as_xyz
  1  'x, y, z'
loop_
 _atom_site_type_symbol
 _atom_site_label
 _atom_site_symmetry_multiplicity
 _atom_site_fract_x
 _atom_site_fract_y
 _atom_site_fract_z
 _atom_site_occupancy
  Ni  Ni0  1  0.01358000  0.23454000  0.23858000  1.0
  Ni  Ni1  1  0.98643000  0.76547000  0.76142000  1.0
  H  H2  1  0.80610000  0.45335000  0.15907000  1.0
  H  H3  1  0.19390000  0.54666000  0.84093000  1.0
  H  H4  1  0.05584000  0.19994000  0.97222000  1.0
  H  H5  1  0.94416000  0.80007000  0.02777000  1.0
  H  H6  1  0.88603000  0.33569000  0.81614000  1.0
  H  H7  1  0.11395000  0.66428000  0.18385000  1.0
  H  H8  1  0.74752000  0.56172000  0.86688000  1.0
  H  H9  1  0.25248000  0.43829000  0.13312000  1.0
  H  H10  1  0.68740000  0.57724000  0.00049000  1.0
  H  H11  1  0.31259000  0.42276000  0.99950000  1.0
  H  H12  1  0.58830000  0.27345000  0.97968000  1.0
  H  H13  1  0.41171000  0.72653000  0.02029000  1.0
  H  H14  1  0.36035000  0.15505000  0.88197000  1.0
  H  H15  1  0.63966000  0.84494000  0.11801000  1.0
  H  H16  1  0.29978000  0.43432000  0.63471000  1.0
  H  H17  1  0.70020000  0.56570000  0.36530000  1.0
  H  H18  1  0.52970000  0.55029000  0.73191000  1.0
  H  H19  1  0.47029000  0.44973000  0.26808000  1.0
  H  H20  1  0.15190000  0.13115000  0.74137000  1.0
  H  H21  1  0.84809000  0.86886000  0.25864000  1.0
  H  H22  1  0.08533000  0.28819000  0.71298000  1.0
  H  H23  1  0.91466000  0.71181000  0.28702000  1.0
  H  H24  1  0.06402000  0.34935000  0.50725000  1.0
  H  H25  1  0.93599000  0.65064000  0.49275000  1.0
  H  H26  1  0.21500000  0.96990000  0.56649000  1.0
  H  H27  1  0.78500000  0.03009000  0.43352000  1.0
  H  H28  1  0.13391000  0.96711000  0.32583000  1.0
  H  H29  1  0.86613000  0.03289000  0.67417000  1.0
  H  H30  1  0.81805000  0.30758000  0.43503000  1.0
  H  H31  1  0.18197000  0.69240000  0.56498000  1.0
  H  H32  1  0.74276000  0.11305000  0.07933000  1.0
  H  H33  1  0.25722000  0.88694000  0.92067000  1.0
  H  H34  1  0.49020000  0.13008000  0.15568000  1.0
  H  H35  1  0.50980000  0.86993000  0.84433000  1.0
  H  H36  1  0.42508000  0.26514000  0.34511000  1.0
  H  H37  1  0.57492000  0.73485000  0.65491000  1.0
  H  H38  1  0.56501000  0.32978000  0.46560000  1.0
  H  H39  1  0.43499000  0.67021000  0.53441000  1.0
  H  H40  1  0.58165000  0.21962000  0.62808000  1.0
  H  H41  1  0.41836000  0.78038000  0.37194000  1.0
  H  H42  1  0.44061000  0.98427000  0.28259000  1.0
  H  H43  1  0.55941000  0.01572000  0.71743000  1.0
  C  C44  1  0.85220000  0.40203000  0.08876000  1.0
  C  C45  1  0.14780000  0.59797000  0.91123000  1.0
  C  C46  1  0.98114000  0.27410000  0.98922000  1.0
  C  C47  1  0.01887000  0.72589000  0.01078000  1.0
  C  C48  1  0.89822000  0.34077000  0.91088000  1.0
  C  C49  1  0.10176000  0.65922000  0.08910000  1.0
  C  C50  1  0.70767000  0.50380000  0.92672000  1.0
  C  C51  1  0.29233000  0.49620000  0.07327000  1.0
  C  C52  1  0.57315000  0.42291000  0.86442000  1.0
  C  C53  1  0.42685000  0.57709000  0.13557000  1.0
  C  C54  1  0.52528000  0.30989000  0.90455000  1.0
  C  C55  1  0.47471000  0.69010000  0.09543000  1.0
  C  C56  1  0.39627000  0.24293000  0.84928000  1.0
  C  C57  1  0.60373000  0.75707000  0.15070000  1.0
  C  C58  1  0.31193000  0.28785000  0.75337000  1.0
  C  C59  1  0.68806000  0.71216000  0.24662000  1.0
  C  C60  1  0.36117000  0.39958000  0.71163000  1.0
  C  C61  1  0.63882000  0.60044000  0.28837000  1.0
  C  C62  1  0.49064000  0.46545000  0.76635000  1.0
  C  C63  1  0.50936000  0.53456000  0.23365000  1.0
  C  C64  1  0.16864000  0.21915000  0.69981000  1.0
  C  C65  1  0.83135000  0.78086000  0.30019000  1.0
  C  C66  1  0.09191000  0.24572000  0.48886000  1.0
  C  C67  1  0.90809000  0.75427000  0.51114000  1.0
  C  C68  1  0.17152000  0.04682000  0.51759000  1.0
  C  C69  1  0.82850000  0.95318000  0.48242000  1.0
  C  C70  1  0.13116000  0.04650000  0.39886000  1.0
  C  C71  1  0.86887000  0.95350000  0.60115000  1.0
  C  C72  1  0.76608000  0.25963000  0.34789000  1.0
  C  C73  1  0.23392000  0.74036000  0.65211000  1.0
  C  C74  1  0.72146000  0.15699000  0.16405000  1.0
  C  C75  1  0.27853000  0.84300000  0.83595000  1.0
  C  C76  1  0.59655000  0.16287000  0.20130000  1.0
  C  C77  1  0.40344000  0.83714000  0.79871000  1.0
  C  C78  1  0.52641000  0.24285000  0.39661000  1.0
  C  C79  1  0.47360000  0.75715000  0.60340000  1.0
  C  C80  1  0.51167000  0.11688000  0.44966000  1.0
  C  C81  1  0.48834000  0.88312000  0.55036000  1.0
  C  C82  1  0.54411000  0.12364000  0.57198000  1.0
  C  C83  1  0.45590000  0.87637000  0.42803000  1.0
  C  C84  1  0.46730000  0.99224000  0.37827000  1.0
  C  C85  1  0.53271000  0.00776000  0.62175000  1.0
  N  N86  1  0.95107000  0.31209000  0.09986000  1.0
  N  N87  1  0.04893000  0.68792000  0.90014000  1.0
  N  N88  1  0.81812000  0.42121000  0.97530000  1.0
  N  N89  1  0.18188000  0.57879000  0.02470000  1.0
  N  N90  1  0.08199000  0.17148000  0.38231000  1.0
  N  N91  1  0.91803000  0.82852000  0.61769000  1.0
  N  N92  1  0.14571000  0.17237000  0.57271000  1.0
  N  N93  1  0.85430000  0.82762000  0.42729000  1.0
  N  N94  1  0.82640000  0.21860000  0.25644000  1.0
  N  N95  1  0.17360000  0.78139000  0.74356000  1.0
  N  N96  1  0.62622000  0.22758000  0.31678000  1.0
  N  N97  1  0.37378000  0.77242000  0.68324000  1.0
  N  N98  1  0.14977000  0.55419000  0.37968000  1.0
  N  N99  1  0.85022000  0.44580000  0.62030000  1.0
  N  N100  1  0.19848000  0.09183000  0.12776000  1.0
  N  N101  1  0.80150000  0.90818000  0.87225000  1.0
  O  O102  1  0.02687000  0.49721000  0.35874000  1.0
  O  O103  1  0.97313000  0.50275000  0.64121000  1.0
  O  O104  1  0.16439000  0.67612000  0.36361000  1.0
  O  O105  1  0.83558000  0.32388000  0.63639000  1.0
  O  O106  1  0.25594000  0.49221000  0.41772000  1.0
  O  O107  1  0.74406000  0.50781000  0.58229000  1.0
  O  O108  1  0.10134000  0.00720000  0.12286000  1.0
  O  O109  1  0.89862000  0.99283000  0.87715000  1.0
  O  O110  1  0.19988000  0.21293000  0.19182000  1.0
  O  O111  1  0.80013000  0.78708000  0.80819000  1.0
  O  O112  1  0.29649000  0.07022000  0.07374000  1.0
  O  O113  1  0.70350000  0.92976000  0.92628000  1.0
