# generated using pymatgen
data_Ca2P3H21C24O23
_symmetry_space_group_name_H-M   'P 1'
_cell_length_a   6.96336000
_cell_length_b   22.04000000
_cell_length_c   22.96760000
_cell_angle_alpha   90.00020000
_cell_angle_beta   89.99950000
_cell_angle_gamma   89.99990000
_symmetry_Int_Tables_number   1
_chemical_formula_structural   Ca2P3H21C24O23
_chemical_formula_sum   'Ca8 P12 H84 C96 O92'
_cell_volume   3524.89394352
_cell_formula_units_Z   4
loop_
 _symmetry_equiv_pos_site_id
 _symmetry_equiv_pos_as_xyz
  1  'x, y, z'
loop_
 _atom_site_type_symbol
 _atom_site_label
 _atom_site_symmetry_multiplicity
 _atom_site_fract_x
 _atom_site_fract_y
 _atom_site_fract_z
 _atom_site_occupancy
  Ca  Ca0  1  0.05674000  0.50690000  0.52803000  1.0
  Ca  Ca1  1  0.94324000  0.00690000  0.47197000  1.0
  Ca  Ca2  1  0.94324000  0.50691000  0.02803000  1.0
  Ca  Ca3  1  0.05675000  0.00691000  0.97197000  1.0
  Ca  Ca4  1  0.44528000  0.98753000  0.54427000  1.0
  Ca  Ca5  1  0.55472000  0.48752000  0.45573000  1.0
  Ca  Ca6  1  0.55473000  0.98753000  0.04427000  1.0
  Ca  Ca7  1  0.44527000  0.48752000  0.95573000  1.0
  P  P8  1  0.55833000  0.53251000  0.58278000  1.0
  P  P9  1  0.44166000  0.03251000  0.41722000  1.0
  P  P10  1  0.44165000  0.53251000  0.08278000  1.0
  P  P11  1  0.55834000  0.03251000  0.91722000  1.0
  P  P12  1  0.07862000  0.34010000  0.53388000  1.0
  P  P13  1  0.92137000  0.84010000  0.46612000  1.0
  P  P14  1  0.92138000  0.34010000  0.03387000  1.0
  P  P15  1  0.07863000  0.84010000  0.96612000  1.0
  P  P16  1  0.94305000  0.95688000  0.59601000  1.0
  P  P17  1  0.05695000  0.45688000  0.40399000  1.0
  P  P18  1  0.05695000  0.95688000  0.09601000  1.0
  P  P19  1  0.94305000  0.45688000  0.90399000  1.0
  H  H20  1  0.69363000  0.61298000  0.62020000  1.0
  H  H21  1  0.30637000  0.11298000  0.37980000  1.0
  H  H22  1  0.30634000  0.61297000  0.12020000  1.0
  H  H23  1  0.69363000  0.11298000  0.87980000  1.0
  H  H24  1  0.73834000  0.25495000  0.64927000  1.0
  H  H25  1  0.26167000  0.75495000  0.35073000  1.0
  H  H26  1  0.26167000  0.25495000  0.14927000  1.0
  H  H27  1  0.73834000  0.75495000  0.85073000  1.0
  H  H28  1  0.98069000  0.62947000  0.46812000  1.0
  H  H29  1  0.01931000  0.12947000  0.53188000  1.0
  H  H30  1  0.01931000  0.62947000  0.96812000  1.0
  H  H31  1  0.98069000  0.12947000  0.03188000  1.0
  H  H32  1  0.20063000  0.62620000  0.48683000  1.0
  H  H33  1  0.79937000  0.12620000  0.51317000  1.0
  H  H34  1  0.79936000  0.62620000  0.98683000  1.0
  H  H35  1  0.20064000  0.12620000  0.01317000  1.0
  H  H36  1  0.58034000  0.86392000  0.51510000  1.0
  H  H37  1  0.41966000  0.36392000  0.48490000  1.0
  H  H38  1  0.41967000  0.86392000  0.01510000  1.0
  H  H39  1  0.58033000  0.36392000  0.98490000  1.0
  H  H40  1  0.35498000  0.86057000  0.49972000  1.0
  H  H41  1  0.64502000  0.36057000  0.50028000  1.0
  H  H42  1  0.64502000  0.86057000  0.99972000  1.0
  H  H43  1  0.35497000  0.36057000  0.00028000  1.0
  H  H44  1  0.41474000  0.57379000  0.85406000  1.0
  H  H45  1  0.58525000  0.07380000  0.14594000  1.0
  H  H46  1  0.58524000  0.57379000  0.35406000  1.0
  H  H47  1  0.41475000  0.07380000  0.64594000  1.0
  H  H48  1  0.84644000  0.27477000  0.51235000  1.0
  H  H49  1  0.15356000  0.77477000  0.48765000  1.0
  H  H50  1  0.15356000  0.27477000  0.01235000  1.0
  H  H51  1  0.84645000  0.77477000  0.98765000  1.0
  H  H52  1  0.13318000  0.29985000  0.80633000  1.0
  H  H53  1  0.86683000  0.79984000  0.19367000  1.0
  H  H54  1  0.86683000  0.29984000  0.30632000  1.0
  H  H55  1  0.13319000  0.79984000  0.69367000  1.0
  H  H56  1  0.88657000  0.86263000  0.58291000  1.0
  H  H57  1  0.11342000  0.36262000  0.41709000  1.0
  H  H58  1  0.11343000  0.86263000  0.08291000  1.0
  H  H59  1  0.88658000  0.36263000  0.91709000  1.0
  H  H60  1  0.73805000  0.23194000  0.74739000  1.0
  H  H61  1  0.26196000  0.73194000  0.25261000  1.0
  H  H62  1  0.26195000  0.23194000  0.24739000  1.0
  H  H63  1  0.73805000  0.73194000  0.75262000  1.0
  H  H64  1  0.07951000  0.91883000  0.87194000  1.0
  H  H65  1  0.92049000  0.41883000  0.12806000  1.0
  H  H66  1  0.92049000  0.91883000  0.37194000  1.0
  H  H67  1  0.07951000  0.41883000  0.62806000  1.0
  H  H68  1  0.64349000  0.40363000  0.60318000  1.0
  H  H69  1  0.35650000  0.90363000  0.39681000  1.0
  H  H70  1  0.35650000  0.40363000  0.10319000  1.0
  H  H71  1  0.64349000  0.90363000  0.89682000  1.0
  H  H72  1  0.54420000  0.38642000  0.78764000  1.0
  H  H73  1  0.45581000  0.88642000  0.21236000  1.0
  H  H74  1  0.45581000  0.38642000  0.28764000  1.0
  H  H75  1  0.54418000  0.88642000  0.71236000  1.0
  H  H76  1  0.46569000  0.55933000  0.70418000  1.0
  H  H77  1  0.53431000  0.05933000  0.29582000  1.0
  H  H78  1  0.53430000  0.55933000  0.20418000  1.0
  H  H79  1  0.46569000  0.05933000  0.79582000  1.0
  H  H80  1  0.31843000  0.23714000  0.51355000  1.0
  H  H81  1  0.68157000  0.73714000  0.48645000  1.0
  H  H82  1  0.68158000  0.23713000  0.01355000  1.0
  H  H83  1  0.31843000  0.73713000  0.98645000  1.0
  H  H84  1  0.39305000  0.16201000  0.68567000  1.0
  H  H85  1  0.60695000  0.66201000  0.31433000  1.0
  H  H86  1  0.60695000  0.16201000  0.18567000  1.0
  H  H87  1  0.39306000  0.66201000  0.81433000  1.0
  H  H88  1  0.08511000  0.32835000  0.66423000  1.0
  H  H89  1  0.91488000  0.82834000  0.33577000  1.0
  H  H90  1  0.91487000  0.32835000  0.16423000  1.0
  H  H91  1  0.08514000  0.82835000  0.83577000  1.0
  H  H92  1  0.85179000  0.08047000  0.61648000  1.0
  H  H93  1  0.14821000  0.58048000  0.38352000  1.0
  H  H94  1  0.14820000  0.08047000  0.11648000  1.0
  H  H95  1  0.85179000  0.58047000  0.88352000  1.0
  H  H96  1  0.96005000  0.10377000  0.79951000  1.0
  H  H97  1  0.03996000  0.60377000  0.20049000  1.0
  H  H98  1  0.03996000  0.10377000  0.29951000  1.0
  H  H99  1  0.96003000  0.60377000  0.70049000  1.0
  H  H100  1  0.02924000  0.92768000  0.72112000  1.0
  H  H101  1  0.97076000  0.42768000  0.27888000  1.0
  H  H102  1  0.97075000  0.92768000  0.22112000  1.0
  H  H103  1  0.02923000  0.42769000  0.77888000  1.0
  C  C104  1  0.55366000  0.48572000  0.64766000  1.0
  C  C105  1  0.44634000  0.98572000  0.35234000  1.0
  C  C106  1  0.44633000  0.48572000  0.14766000  1.0
  C  C107  1  0.55366000  0.98572000  0.85234000  1.0
  C  C108  1  0.60091000  0.42386000  0.64452000  1.0
  C  C109  1  0.39909000  0.92386000  0.35548000  1.0
  C  C110  1  0.39909000  0.42386000  0.14452000  1.0
  C  C111  1  0.60090000  0.92386000  0.85548000  1.0
  C  C112  1  0.59673000  0.38819000  0.69508000  1.0
  C  C113  1  0.40327000  0.88819000  0.30492000  1.0
  C  C114  1  0.40326000  0.38819000  0.19508000  1.0
  C  C115  1  0.59673000  0.88819000  0.80492000  1.0
  C  C116  1  0.65400000  0.32333000  0.69571000  1.0
  C  C117  1  0.34601000  0.82333000  0.30429000  1.0
  C  C118  1  0.34600000  0.32333000  0.19571000  1.0
  C  C119  1  0.65399000  0.82333000  0.80429000  1.0
  C  C120  1  0.54404000  0.41387000  0.74827000  1.0
  C  C121  1  0.45597000  0.91388000  0.25173000  1.0
  C  C122  1  0.45596000  0.41387000  0.24827000  1.0
  C  C123  1  0.54403000  0.91388000  0.75173000  1.0
  C  C124  1  0.49589000  0.47513000  0.75136000  1.0
  C  C125  1  0.50411000  0.97513000  0.24863000  1.0
  C  C126  1  0.50410000  0.47513000  0.25137000  1.0
  C  C127  1  0.49589000  0.97513000  0.74864000  1.0
  C  C128  1  0.45079000  0.50048000  0.80957000  1.0
  C  C129  1  0.54922000  0.00049000  0.19043000  1.0
  C  C130  1  0.54920000  0.50048000  0.30957000  1.0
  C  C131  1  0.45078000  0.00048000  0.69044000  1.0
  C  C132  1  0.50115000  0.51126000  0.70125000  1.0
  C  C133  1  0.49885000  0.01127000  0.29875000  1.0
  C  C134  1  0.49884000  0.51127000  0.20125000  1.0
  C  C135  1  0.50116000  0.01127000  0.79876000  1.0
  C  C136  1  0.18404000  0.28659000  0.58394000  1.0
  C  C137  1  0.81596000  0.78659000  0.41606000  1.0
  C  C138  1  0.81596000  0.28659000  0.08393000  1.0
  C  C139  1  0.18404000  0.78659000  0.91606000  1.0
  C  C140  1  0.29156000  0.23891000  0.56029000  1.0
  C  C141  1  0.70843000  0.73891000  0.43971000  1.0
  C  C142  1  0.70844000  0.23891000  0.06029000  1.0
  C  C143  1  0.29157000  0.73891000  0.93971000  1.0
  C  C144  1  0.36735000  0.19345000  0.59606000  1.0
  C  C145  1  0.63264000  0.69345000  0.40394000  1.0
  C  C146  1  0.63264000  0.19345000  0.09606000  1.0
  C  C147  1  0.36737000  0.69345000  0.90394000  1.0
  C  C148  1  0.48533000  0.14458000  0.56734000  1.0
  C  C149  1  0.51468000  0.64458000  0.43266000  1.0
  C  C150  1  0.51468000  0.14458000  0.06734000  1.0
  C  C151  1  0.48533000  0.64457000  0.93266000  1.0
  C  C152  1  0.33760000  0.19644000  0.65617000  1.0
  C  C153  1  0.66240000  0.69644000  0.34383000  1.0
  C  C154  1  0.66240000  0.19644000  0.15617000  1.0
  C  C155  1  0.33761000  0.69644000  0.84383000  1.0
  C  C156  1  0.24050000  0.24602000  0.68048000  1.0
  C  C157  1  0.75951000  0.74601000  0.31952000  1.0
  C  C158  1  0.75950000  0.24602000  0.18048000  1.0
  C  C159  1  0.24050000  0.74601000  0.81952000  1.0
  C  C160  1  0.22152000  0.24857000  0.74519000  1.0
  C  C161  1  0.77848000  0.74857000  0.25482000  1.0
  C  C162  1  0.77847000  0.24857000  0.24518000  1.0
  C  C163  1  0.22153000  0.74857000  0.75482000  1.0
  C  C164  1  0.16223000  0.29084000  0.64443000  1.0
  C  C165  1  0.83778000  0.79083000  0.35557000  1.0
  C  C166  1  0.83777000  0.29083000  0.14443000  1.0
  C  C167  1  0.16222000  0.79083000  0.85557000  1.0
  C  C168  1  0.94690000  0.00021000  0.66261000  1.0
  C  C169  1  0.05309000  0.50021000  0.33739000  1.0
  C  C170  1  0.05309000  0.00021000  0.16261000  1.0
  C  C171  1  0.94690000  0.50021000  0.83739000  1.0
  C  C172  1  0.89766000  0.06168000  0.65814000  1.0
  C  C173  1  0.10233000  0.56169000  0.34185000  1.0
  C  C174  1  0.10233000  0.06169000  0.15815000  1.0
  C  C175  1  0.89767000  0.56169000  0.84186000  1.0
  C  C176  1  0.89876000  0.09890000  0.70744000  1.0
  C  C177  1  0.10124000  0.59890000  0.29256000  1.0
  C  C178  1  0.10124000  0.09890000  0.20743000  1.0
  C  C179  1  0.89877000  0.59890000  0.79256000  1.0
  C  C180  1  0.83011000  0.16246000  0.70278000  1.0
  C  C181  1  0.16989000  0.66246000  0.29722000  1.0
  C  C182  1  0.16989000  0.16246000  0.20278000  1.0
  C  C183  1  0.83012000  0.66246000  0.79722000  1.0
  C  C184  1  0.95385000  0.07499000  0.76113000  1.0
  C  C185  1  0.04615000  0.57499000  0.23887000  1.0
  C  C186  1  0.04615000  0.07498000  0.26113000  1.0
  C  C187  1  0.95385000  0.57499000  0.73887000  1.0
  C  C188  1  0.00021000  0.01354000  0.76608000  1.0
  C  C189  1  0.99978000  0.51355000  0.23392000  1.0
  C  C190  1  0.99979000  0.01354000  0.26608000  1.0
  C  C191  1  0.00021000  0.51355000  0.73392000  1.0
  C  C192  1  0.04115000  0.99032000  0.82542000  1.0
  C  C193  1  0.95885000  0.49032000  0.17459000  1.0
  C  C194  1  0.95885000  0.99032000  0.32541000  1.0
  C  C195  1  0.04114000  0.49032000  0.67459000  1.0
  C  C196  1  0.99602000  0.97578000  0.71691000  1.0
  C  C197  1  0.00398000  0.47578000  0.28310000  1.0
  C  C198  1  0.00398000  0.97578000  0.21690000  1.0
  C  C199  1  0.99601000  0.47579000  0.78309000  1.0
  O  O200  1  0.37518000  0.52500000  0.54827000  1.0
  O  O201  1  0.62481000  0.02499000  0.45173000  1.0
  O  O202  1  0.62481000  0.52500000  0.04827000  1.0
  O  O203  1  0.37519000  0.02500000  0.95173000  1.0
  O  O204  1  0.73180000  0.51730000  0.54544000  1.0
  O  O205  1  0.26819000  0.01730000  0.45455000  1.0
  O  O206  1  0.26819000  0.51730000  0.04544000  1.0
  O  O207  1  0.73181000  0.01730000  0.95456000  1.0
  O  O208  1  0.56664000  0.60096000  0.60643000  1.0
  O  O209  1  0.43335000  0.10096000  0.39357000  1.0
  O  O210  1  0.43332000  0.60096000  0.10643000  1.0
  O  O211  1  0.56665000  0.10096000  0.89357000  1.0
  O  O212  1  0.69799000  0.29981000  0.64465000  1.0
  O  O213  1  0.30202000  0.79981000  0.35535000  1.0
  O  O214  1  0.30202000  0.29981000  0.14465000  1.0
  O  O215  1  0.69798000  0.79981000  0.85535000  1.0
  O  O216  1  0.65977000  0.29463000  0.74254000  1.0
  O  O217  1  0.34025000  0.79463000  0.25746000  1.0
  O  O218  1  0.34023000  0.29463000  0.24254000  1.0
  O  O219  1  0.65975000  0.79463000  0.75746000  1.0
  O  O220  1  0.06854000  0.60858000  0.49411000  1.0
  O  O221  1  0.93146000  0.10858000  0.50589000  1.0
  O  O222  1  0.93146000  0.60858000  0.99411000  1.0
  O  O223  1  0.06854000  0.10858000  0.00589000  1.0
  O  O224  1  0.46163000  0.88801000  0.50886000  1.0
  O  O225  1  0.53837000  0.38801000  0.49114000  1.0
  O  O226  1  0.53837000  0.88801000  0.00886000  1.0
  O  O227  1  0.46163000  0.38801000  0.99114000  1.0
  O  O228  1  0.41785000  0.55955000  0.81065000  1.0
  O  O229  1  0.58215000  0.05956000  0.18935000  1.0
  O  O230  1  0.58214000  0.55955000  0.31065000  1.0
  O  O231  1  0.41784000  0.05955000  0.68935000  1.0
  O  O232  1  0.44867000  0.46789000  0.85364000  1.0
  O  O233  1  0.55134000  0.96789000  0.14636000  1.0
  O  O234  1  0.55133000  0.46788000  0.35364000  1.0
  O  O235  1  0.44866000  0.96789000  0.64636000  1.0
  O  O236  1  0.05923000  0.40241000  0.56164000  1.0
  O  O237  1  0.94075000  0.90241000  0.43836000  1.0
  O  O238  1  0.94076000  0.40241000  0.06164000  1.0
  O  O239  1  0.05924000  0.90241000  0.93836000  1.0
  O  O240  1  0.18735000  0.33513000  0.47688000  1.0
  O  O241  1  0.81265000  0.83513000  0.52312000  1.0
  O  O242  1  0.81265000  0.33513000  0.97688000  1.0
  O  O243  1  0.18735000  0.83513000  0.02312000  1.0
  O  O244  1  0.85818000  0.31728000  0.52383000  1.0
  O  O245  1  0.14182000  0.81728000  0.47617000  1.0
  O  O246  1  0.14182000  0.31728000  0.02383000  1.0
  O  O247  1  0.85819000  0.81728000  0.97617000  1.0
  O  O248  1  0.45587000  0.08915000  0.58366000  1.0
  O  O249  1  0.54414000  0.58915000  0.41634000  1.0
  O  O250  1  0.54415000  0.08915000  0.08366000  1.0
  O  O251  1  0.45586000  0.58915000  0.91634000  1.0
  O  O252  1  0.60099000  0.16086000  0.52860000  1.0
  O  O253  1  0.39903000  0.66085000  0.47141000  1.0
  O  O254  1  0.39903000  0.16085000  0.02859000  1.0
  O  O255  1  0.60098000  0.66085000  0.97141000  1.0
  O  O256  1  0.14536000  0.30212000  0.76385000  1.0
  O  O257  1  0.85463000  0.80211000  0.23615000  1.0
  O  O258  1  0.85464000  0.30211000  0.26385000  1.0
  O  O259  1  0.14537000  0.80211000  0.73615000  1.0
  O  O260  1  0.26707000  0.20748000  0.77812000  1.0
  O  O261  1  0.73292000  0.70747000  0.22188000  1.0
  O  O262  1  0.73290000  0.20748000  0.27812000  1.0
  O  O263  1  0.26709000  0.70748000  0.72188000  1.0
  O  O264  1  0.76880000  0.97500000  0.55974000  1.0
  O  O265  1  0.23120000  0.47500000  0.44026000  1.0
  O  O266  1  0.23120000  0.97500000  0.05974000  1.0
  O  O267  1  0.76880000  0.47500000  0.94027000  1.0
  O  O268  1  0.12245000  0.97068000  0.56029000  1.0
  O  O269  1  0.87755000  0.47068000  0.43971000  1.0
  O  O270  1  0.87755000  0.97068000  0.06029000  1.0
  O  O271  1  0.12245000  0.47068000  0.93971000  1.0
  O  O272  1  0.93231000  0.88856000  0.61716000  1.0
  O  O273  1  0.06769000  0.38856000  0.38284000  1.0
  O  O274  1  0.06769000  0.88856000  0.11716000  1.0
  O  O275  1  0.93231000  0.38856000  0.88284000  1.0
  O  O276  1  0.79359000  0.18842000  0.75321000  1.0
  O  O277  1  0.20642000  0.68842000  0.24679000  1.0
  O  O278  1  0.20641000  0.18842000  0.25321000  1.0
  O  O279  1  0.79359000  0.68842000  0.74679000  1.0
  O  O280  1  0.80637000  0.18748000  0.65448000  1.0
  O  O281  1  0.19364000  0.68748000  0.34552000  1.0
  O  O282  1  0.19364000  0.18748000  0.15448000  1.0
  O  O283  1  0.80638000  0.68748000  0.84552000  1.0
  O  O284  1  0.07493000  0.93122000  0.82887000  1.0
  O  O285  1  0.92507000  0.43123000  0.17113000  1.0
  O  O286  1  0.92507000  0.93122000  0.32887000  1.0
  O  O287  1  0.07492000  0.43123000  0.67113000  1.0
  O  O288  1  0.03848000  0.02428000  0.86853000  1.0
  O  O289  1  0.96153000  0.52428000  0.13147000  1.0
  O  O290  1  0.96154000  0.02428000  0.36853000  1.0
  O  O291  1  0.03845000  0.52428000  0.63147000  1.0
