# generated using pymatgen
data_CsH5C7SN4
_symmetry_space_group_name_H-M   'P 1'
_cell_length_a   6.72989000
_cell_length_b   7.22545000
_cell_length_c   21.53560000
_cell_angle_alpha   89.99780000
_cell_angle_beta   89.99840000
_cell_angle_gamma   70.62200000
_symmetry_Int_Tables_number   1
_chemical_formula_structural   CsH5C7SN4
_chemical_formula_sum   'Cs4 H20 C28 S4 N16'
_cell_volume   987.87672829
_cell_formula_units_Z   4
loop_
 _symmetry_equiv_pos_site_id
 _symmetry_equiv_pos_as_xyz
  1  'x, y, z'
loop_
 _atom_site_type_symbol
 _atom_site_label
 _atom_site_symmetry_multiplicity
 _atom_site_fract_x
 _atom_site_fract_y
 _atom_site_fract_z
 _atom_site_occupancy
  Cs  Cs0  1  0.78073000  0.40742000  0.44937000  1.0
  Cs  Cs1  1  0.21928000  0.09258000  0.94937000  1.0
  Cs  Cs2  1  0.21931000  0.59255000  0.55063000  1.0
  Cs  Cs3  1  0.78072000  0.90743000  0.05063000  1.0
  H  H4  1  0.37858000  0.09592000  0.27386000  1.0
  H  H5  1  0.62145000  0.40409000  0.77387000  1.0
  H  H6  1  0.62142000  0.90411000  0.72615000  1.0
  H  H7  1  0.37852000  0.59592000  0.22614000  1.0
  H  H8  1  0.63368000  0.05724000  0.18762000  1.0
  H  H9  1  0.36633000  0.44278000  0.68763000  1.0
  H  H10  1  0.36628000  0.94282000  0.81237000  1.0
  H  H11  1  0.63358000  0.55725000  0.31238000  1.0
  H  H12  1  0.02193000  0.91730000  0.20824000  1.0
  H  H13  1  0.97810000  0.58271000  0.70826000  1.0
  H  H14  1  0.97805000  0.08273000  0.79174000  1.0
  H  H15  1  0.02181000  0.41733000  0.29177000  1.0
  H  H16  1  0.14870000  0.81483000  0.31587000  1.0
  H  H17  1  0.85132000  0.68517000  0.81587000  1.0
  H  H18  1  0.85131000  0.18515000  0.68411000  1.0
  H  H19  1  0.14866000  0.31483000  0.18415000  1.0
  H  H20  1  0.89094000  0.85986000  0.40243000  1.0
  H  H21  1  0.10907000  0.64014000  0.90245000  1.0
  H  H22  1  0.10912000  0.14008000  0.59755000  1.0
  H  H23  1  0.89094000  0.35985000  0.09757000  1.0
  C  C24  1  0.62146000  0.98104000  0.34252000  1.0
  C  C25  1  0.37856000  0.51897000  0.84252000  1.0
  C  C26  1  0.37858000  0.01892000  0.65748000  1.0
  C  C27  1  0.62142000  0.48106000  0.15748000  1.0
  C  C28  1  0.54756000  0.03683000  0.28246000  1.0
  C  C29  1  0.45247000  0.46318000  0.78247000  1.0
  C  C30  1  0.45245000  0.96319000  0.71754000  1.0
  C  C31  1  0.54749000  0.53684000  0.21754000  1.0
  C  C32  1  0.69254000  0.01379000  0.23441000  1.0
  C  C33  1  0.30747000  0.48621000  0.73442000  1.0
  C  C34  1  0.30745000  0.98624000  0.76558000  1.0
  C  C35  1  0.69246000  0.51381000  0.26559000  1.0
  C  C36  1  0.90877000  0.93491000  0.24606000  1.0
  C  C37  1  0.09127000  0.56510000  0.74608000  1.0
  C  C38  1  0.09123000  0.06513000  0.75392000  1.0
  C  C39  1  0.90867000  0.43493000  0.25395000  1.0
  C  C40  1  0.98050000  0.87877000  0.30637000  1.0
  C  C41  1  0.01951000  0.62122000  0.80638000  1.0
  C  C42  1  0.01952000  0.12120000  0.69361000  1.0
  C  C43  1  0.98045000  0.37880000  0.19364000  1.0
  C  C44  1  0.83729000  0.90214000  0.35508000  1.0
  C  C45  1  0.16274000  0.59785000  0.85509000  1.0
  C  C46  1  0.16275000  0.09783000  0.64490000  1.0
  C  C47  1  0.83725000  0.40216000  0.14492000  1.0
  C  C48  1  0.32883000  0.16725000  0.41609000  1.0
  C  C49  1  0.67120000  0.33276000  0.91609000  1.0
  C  C50  1  0.67122000  0.83270000  0.58391000  1.0
  C  C51  1  0.32881000  0.66727000  0.08390000  1.0
  S  S52  1  0.28371000  0.40279000  0.39323000  1.0
  S  S53  1  0.71628000  0.09722000  0.89324000  1.0
  S  S54  1  0.71633000  0.59716000  0.60677000  1.0
  S  S55  1  0.28370000  0.90280000  0.10676000  1.0
  N  N56  1  0.47398000  0.00104000  0.39162000  1.0
  N  N57  1  0.52605000  0.49896000  0.89163000  1.0
  N  N58  1  0.52606000  0.99891000  0.60837000  1.0
  N  N59  1  0.47396000  0.50106000  0.10837000  1.0
  N  N60  1  0.46197000  0.84056000  0.42254000  1.0
  N  N61  1  0.53807000  0.65944000  0.92254000  1.0
  N  N62  1  0.53809000  0.15940000  0.57746000  1.0
  N  N63  1  0.46194000  0.34058000  0.07745000  1.0
  N  N64  1  0.31541000  0.90624000  0.46408000  1.0
  N  N65  1  0.68463000  0.59376000  0.96408000  1.0
  N  N66  1  0.68464000  0.09372000  0.53592000  1.0
  N  N67  1  0.31538000  0.40627000  0.03591000  1.0
  N  N68  1  0.23032000  0.10349000  0.46222000  1.0
  N  N69  1  0.76972000  0.39651000  0.96222000  1.0
  N  N70  1  0.76973000  0.89645000  0.53778000  1.0
  N  N71  1  0.23029000  0.60352000  0.03777000  1.0
