# generated using pymatgen
data_ZnH12C4S2(NCl)2
_symmetry_space_group_name_H-M   'P 1'
_cell_length_a   5.05629000
_cell_length_b   10.20810000
_cell_length_c   20.11480000
_cell_angle_alpha   90.00010000
_cell_angle_beta   90.00000000
_cell_angle_gamma   92.50270000
_symmetry_Int_Tables_number   1
_chemical_formula_structural   ZnH12C4S2(NCl)2
_chemical_formula_sum   'Zn4 H48 C16 S8 N8 Cl8'
_cell_volume   1037.23739610
_cell_formula_units_Z   4
loop_
 _symmetry_equiv_pos_site_id
 _symmetry_equiv_pos_as_xyz
  1  'x, y, z'
loop_
 _atom_site_type_symbol
 _atom_site_label
 _atom_site_symmetry_multiplicity
 _atom_site_fract_x
 _atom_site_fract_y
 _atom_site_fract_z
 _atom_site_occupancy
  Zn  Zn0  1  0.73288000  0.65278000  0.89926000  1.0
  Zn  Zn1  1  0.26712000  0.84722000  0.39926000  1.0
  Zn  Zn2  1  0.26712000  0.34722000  0.10074000  1.0
  Zn  Zn3  1  0.73288000  0.15278000  0.60074000  1.0
  H  H4  1  0.88431000  0.62687000  0.02050000  1.0
  H  H5  1  0.11569000  0.87313000  0.52050000  1.0
  H  H6  1  0.11569000  0.37313000  0.97950000  1.0
  H  H7  1  0.88431000  0.12687000  0.47950000  1.0
  H  H8  1  0.14671000  0.64133000  0.97150000  1.0
  H  H9  1  0.85329000  0.85867000  0.47150000  1.0
  H  H10  1  0.85329000  0.35867000  0.02850000  1.0
  H  H11  1  0.14671000  0.14133000  0.52850000  1.0
  H  H12  1  0.91147000  0.80923000  0.30768000  1.0
  H  H13  1  0.08853000  0.69077000  0.80768000  1.0
  H  H14  1  0.08853000  0.19077000  0.69232000  1.0
  H  H15  1  0.91147000  0.30923000  0.19232000  1.0
  H  H16  1  0.87964000  0.95196000  0.34268000  1.0
  H  H17  1  0.12035000  0.54804000  0.84268000  1.0
  H  H18  1  0.12036000  0.04804000  0.65732000  1.0
  H  H19  1  0.87965000  0.45196000  0.15732000  1.0
  H  H20  1  0.81744000  0.85597000  0.01768000  1.0
  H  H21  1  0.18256000  0.64403000  0.51768000  1.0
  H  H22  1  0.18255000  0.14403000  0.98232000  1.0
  H  H23  1  0.81745000  0.35597000  0.48232000  1.0
  H  H24  1  0.08572000  0.87577000  0.96096000  1.0
  H  H25  1  0.91428000  0.62423000  0.46096000  1.0
  H  H26  1  0.91428000  0.12423000  0.03904000  1.0
  H  H27  1  0.08572000  0.37577000  0.53904000  1.0
  H  H28  1  0.24895000  0.93783000  0.07282000  1.0
  H  H29  1  0.75106000  0.56217000  0.57282000  1.0
  H  H30  1  0.75105000  0.06217000  0.92718000  1.0
  H  H31  1  0.24895000  0.43783000  0.42718000  1.0
  H  H32  1  0.39476000  0.79097000  0.04802000  1.0
  H  H33  1  0.60524000  0.70903000  0.54802000  1.0
  H  H34  1  0.60524000  0.20903000  0.95198000  1.0
  H  H35  1  0.39476000  0.29097000  0.45198000  1.0
  H  H36  1  0.06866000  0.05001000  0.17225000  1.0
  H  H37  1  0.93133000  0.44999000  0.67225000  1.0
  H  H38  1  0.93134000  0.94999000  0.82775000  1.0
  H  H39  1  0.06867000  0.55001000  0.32775000  1.0
  H  H40  1  0.79960000  0.04985000  0.22919000  1.0
  H  H41  1  0.20039000  0.45015000  0.72919000  1.0
  H  H42  1  0.20040000  0.95015000  0.77081000  1.0
  H  H43  1  0.79961000  0.54985000  0.27081000  1.0
  H  H44  1  0.29902000  0.88982000  0.24580000  1.0
  H  H45  1  0.70098000  0.61018000  0.74580000  1.0
  H  H46  1  0.70098000  0.11018000  0.75420000  1.0
  H  H47  1  0.29902000  0.38982000  0.25420000  1.0
  H  H48  1  0.25909000  0.04487000  0.28333000  1.0
  H  H49  1  0.74091000  0.45513000  0.78333000  1.0
  H  H50  1  0.74091000  0.95513000  0.71667000  1.0
  H  H51  1  0.25909000  0.54487000  0.21667000  1.0
  C  C52  1  0.01017000  0.81856000  0.00372000  1.0
  C  C53  1  0.98983000  0.68144000  0.50372000  1.0
  C  C54  1  0.98983000  0.18144000  0.99628000  1.0
  C  C55  1  0.01017000  0.31856000  0.49628000  1.0
  C  C56  1  0.20570000  0.83410000  0.06081000  1.0
  C  C57  1  0.79430000  0.66590000  0.56081000  1.0
  C  C58  1  0.79430000  0.16590000  0.93919000  1.0
  C  C59  1  0.20570000  0.33411000  0.43919000  1.0
  C  C60  1  0.96221000  0.99163000  0.21042000  1.0
  C  C61  1  0.03779000  0.50837000  0.71042000  1.0
  C  C62  1  0.03779000  0.00837000  0.78958000  1.0
  C  C63  1  0.96221000  0.49163000  0.28958000  1.0
  C  C64  1  0.15156000  0.95595000  0.26537000  1.0
  C  C65  1  0.84844000  0.54405000  0.76537000  1.0
  C  C66  1  0.84844000  0.04404000  0.73463000  1.0
  C  C67  1  0.15156000  0.45596000  0.23463000  1.0
  S  S68  1  0.10512000  0.74737000  0.13663000  1.0
  S  S69  1  0.89488000  0.75263000  0.63663000  1.0
  S  S70  1  0.89488000  0.25263000  0.86337000  1.0
  S  S71  1  0.10512000  0.24738000  0.36337000  1.0
  S  S72  1  0.79475000  0.84955000  0.17075000  1.0
  S  S73  1  0.20524000  0.65045000  0.67075000  1.0
  S  S74  1  0.20525000  0.15045000  0.82925000  1.0
  S  S75  1  0.79476000  0.34955000  0.32925000  1.0
  N  N76  1  0.96711000  0.68063000  0.98180000  1.0
  N  N77  1  0.03289000  0.81937000  0.48180000  1.0
  N  N78  1  0.03289000  0.31937000  0.01820000  1.0
  N  N79  1  0.96711000  0.18063000  0.51820000  1.0
  N  N80  1  0.01858000  0.89158000  0.32300000  1.0
  N  N81  1  0.98142000  0.60842000  0.82300000  1.0
  N  N82  1  0.98142000  0.10842000  0.67700000  1.0
  N  N83  1  0.01858000  0.39158000  0.17700000  1.0
  Cl  Cl84  1  0.49532000  0.82800000  0.87673000  1.0
  Cl  Cl85  1  0.50468000  0.67200000  0.37673000  1.0
  Cl  Cl86  1  0.50468000  0.17200000  0.12327000  1.0
  Cl  Cl87  1  0.49532000  0.32800000  0.62327000  1.0
  Cl  Cl88  1  0.44943000  0.47409000  0.91171000  1.0
  Cl  Cl89  1  0.55057000  0.02591000  0.41171000  1.0
  Cl  Cl90  1  0.55057000  0.52591000  0.08829000  1.0
  Cl  Cl91  1  0.44943000  0.97409000  0.58829000  1.0
