# generated using pymatgen
data_Cu2H26C23(NO2)2
_symmetry_space_group_name_H-M   'P 1'
_cell_length_a   9.44127000
_cell_length_b   15.47140000
_cell_length_c   17.66240000
_cell_angle_alpha   90.00000000
_cell_angle_beta   90.00020000
_cell_angle_gamma   90.90970000
_symmetry_Int_Tables_number   1
_chemical_formula_structural   Cu2H26C23(NO2)2
_chemical_formula_sum   'Cu8 H104 C92 N8 O16'
_cell_volume   2579.61566695
_cell_formula_units_Z   4
loop_
 _symmetry_equiv_pos_site_id
 _symmetry_equiv_pos_as_xyz
  1  'x, y, z'
loop_
 _atom_site_type_symbol
 _atom_site_label
 _atom_site_symmetry_multiplicity
 _atom_site_fract_x
 _atom_site_fract_y
 _atom_site_fract_z
 _atom_site_occupancy
  Cu  Cu0  1  0.71983000  0.62523000  0.78347000  1.0
  Cu  Cu1  1  0.78017000  0.87477000  0.28347000  1.0
  Cu  Cu2  1  0.28017000  0.37477000  0.21653000  1.0
  Cu  Cu3  1  0.21983000  0.12523000  0.71652000  1.0
  Cu  Cu4  1  0.75051000  0.61633000  0.47213000  1.0
  Cu  Cu5  1  0.74948000  0.88367000  0.97213000  1.0
  Cu  Cu6  1  0.24949000  0.38367000  0.52787000  1.0
  Cu  Cu7  1  0.25051000  0.11633000  0.02787000  1.0
  H  H8  1  0.78713000  0.38960000  0.93248000  1.0
  H  H9  1  0.71287000  0.11040000  0.43248000  1.0
  H  H10  1  0.21287000  0.61040000  0.06752000  1.0
  H  H11  1  0.28713000  0.88960000  0.56753000  1.0
  H  H12  1  0.60358000  0.39284000  0.91861000  1.0
  H  H13  1  0.89643000  0.10716000  0.41861000  1.0
  H  H14  1  0.39642000  0.60717000  0.08140000  1.0
  H  H15  1  0.10358000  0.89283000  0.58140000  1.0
  H  H16  1  0.62529000  0.28652000  0.81014000  1.0
  H  H17  1  0.87471000  0.21347000  0.31014000  1.0
  H  H18  1  0.37471000  0.71348000  0.18986000  1.0
  H  H19  1  0.12529000  0.78652000  0.68986000  1.0
  H  H20  1  0.81015000  0.28799000  0.82147000  1.0
  H  H21  1  0.68985000  0.21201000  0.32147000  1.0
  H  H22  1  0.18984000  0.71201000  0.17853000  1.0
  H  H23  1  0.31015000  0.78799000  0.67853000  1.0
  H  H24  1  0.78348000  0.22946000  0.95340000  1.0
  H  H25  1  0.71651000  0.27054000  0.45340000  1.0
  H  H26  1  0.21651000  0.77054000  0.04660000  1.0
  H  H27  1  0.28349000  0.72946000  0.54660000  1.0
  H  H28  1  0.59904000  0.22326000  0.94247000  1.0
  H  H29  1  0.90096000  0.27673000  0.44248000  1.0
  H  H30  1  0.40095000  0.77674000  0.05752000  1.0
  H  H31  1  0.09904000  0.72326000  0.55752000  1.0
  H  H32  1  0.62668000  0.11601000  0.83693000  1.0
  H  H33  1  0.87332000  0.38398000  0.33693000  1.0
  H  H34  1  0.37332000  0.88399000  0.16307000  1.0
  H  H35  1  0.12668000  0.61601000  0.66307000  1.0
  H  H36  1  0.81131000  0.12955000  0.84079000  1.0
  H  H37  1  0.68869000  0.37045000  0.34079000  1.0
  H  H38  1  0.18869000  0.87045000  0.15921000  1.0
  H  H39  1  0.31131000  0.62955000  0.65921000  1.0
  H  H40  1  0.48859000  0.59040000  0.71271000  1.0
  H  H41  1  0.01141000  0.90960000  0.21271000  1.0
  H  H42  1  0.51141000  0.40960000  0.28729000  1.0
  H  H43  1  0.98859000  0.09041000  0.78729000  1.0
  H  H44  1  0.60447000  0.74865000  0.71191000  1.0
  H  H45  1  0.89553000  0.75135000  0.21191000  1.0
  H  H46  1  0.39553000  0.25135000  0.28809000  1.0
  H  H47  1  0.10448000  0.24865000  0.78808000  1.0
  H  H48  1  0.84512000  0.74300000  0.62783000  1.0
  H  H49  1  0.65488000  0.75700000  0.12783000  1.0
  H  H50  1  0.15488000  0.25700000  0.37217000  1.0
  H  H51  1  0.34512000  0.24300000  0.87217000  1.0
  H  H52  1  0.62169000  0.74425000  0.53136000  1.0
  H  H53  1  0.87831000  0.75575000  0.03136000  1.0
  H  H54  1  0.37831000  0.25575000  0.46864000  1.0
  H  H55  1  0.12170000  0.24425000  0.96864000  1.0
  H  H56  1  0.50450000  0.58625000  0.53073000  1.0
  H  H57  1  0.99550000  0.91375000  0.03072000  1.0
  H  H58  1  0.49550000  0.41375000  0.46928000  1.0
  H  H59  1  0.00450000  0.08626000  0.96927000  1.0
  H  H60  1  0.65608000  0.48759000  0.62736000  1.0
  H  H61  1  0.84392000  0.01241000  0.12736000  1.0
  H  H62  1  0.34392000  0.51241000  0.37264000  1.0
  H  H63  1  0.15608000  0.98759000  0.87264000  1.0
  H  H64  1  0.87998000  0.57820000  0.58096000  1.0
  H  H65  1  0.62001000  0.92180000  0.08096000  1.0
  H  H66  1  0.12002000  0.42179000  0.41904000  1.0
  H  H67  1  0.37998000  0.07821000  0.91904000  1.0
  H  H68  1  0.87012000  0.58047000  0.68260000  1.0
  H  H69  1  0.62988000  0.91953000  0.18260000  1.0
  H  H70  1  0.12988000  0.41953000  0.31740000  1.0
  H  H71  1  0.37011000  0.08047000  0.81740000  1.0
  H  H72  1  0.93883000  0.59084000  0.89244000  1.0
  H  H73  1  0.56117000  0.90916000  0.39244000  1.0
  H  H74  1  0.06117000  0.40916000  0.10756000  1.0
  H  H75  1  0.43883000  0.09084000  0.60756000  1.0
  H  H76  1  0.13558000  0.67313000  0.95768000  1.0
  H  H77  1  0.36442000  0.82687000  0.45768000  1.0
  H  H78  1  0.86443000  0.32687000  0.04232000  1.0
  H  H79  1  0.63558000  0.17313000  0.54232000  1.0
  H  H80  1  0.16399000  0.83304000  0.93293000  1.0
  H  H81  1  0.33601000  0.66696000  0.43293000  1.0
  H  H82  1  0.83601000  0.16696000  0.06707000  1.0
  H  H83  1  0.66399000  0.33304000  0.56707000  1.0
  H  H84  1  0.99541000  0.90157000  0.84038000  1.0
  H  H85  1  0.50459000  0.59843000  0.34037000  1.0
  H  H86  1  0.00459000  0.09843000  0.15962000  1.0
  H  H87  1  0.49542000  0.40157000  0.65963000  1.0
  H  H88  1  0.81090000  0.80965000  0.77834000  1.0
  H  H89  1  0.68909000  0.69035000  0.27834000  1.0
  H  H90  1  0.18910000  0.19035000  0.22166000  1.0
  H  H91  1  0.31091000  0.30965000  0.72166000  1.0
  H  H92  1  0.97566000  0.57911000  0.36749000  1.0
  H  H93  1  0.52433000  0.92089000  0.86749000  1.0
  H  H94  1  0.02434000  0.42090000  0.63251000  1.0
  H  H95  1  0.47567000  0.07910000  0.13251000  1.0
  H  H96  1  0.16161000  0.65842000  0.29497000  1.0
  H  H97  1  0.33838000  0.84158000  0.79498000  1.0
  H  H98  1  0.83839000  0.34158000  0.70502000  1.0
  H  H99  1  0.66162000  0.15841000  0.20502000  1.0
  H  H100  1  0.18578000  0.82077000  0.31292000  1.0
  H  H101  1  0.31422000  0.67922000  0.81292000  1.0
  H  H102  1  0.81422000  0.17923000  0.68708000  1.0
  H  H103  1  0.68578000  0.32077000  0.18708000  1.0
  H  H104  1  0.01926000  0.89316000  0.40497000  1.0
  H  H105  1  0.48075000  0.60684000  0.90496000  1.0
  H  H106  1  0.98075000  0.10684000  0.59504000  1.0
  H  H107  1  0.51925000  0.39316000  0.09504000  1.0
  H  H108  1  0.84183000  0.80238000  0.47309000  1.0
  H  H109  1  0.65818000  0.69762000  0.97308000  1.0
  H  H110  1  0.15818000  0.19762000  0.52692000  1.0
  H  H111  1  0.34182000  0.30238000  0.02692000  1.0
  C  C112  1  0.72773000  0.45741000  0.83316000  1.0
  C  C113  1  0.77227000  0.04259000  0.33316000  1.0
  C  C114  1  0.27227000  0.54259000  0.16684000  1.0
  C  C115  1  0.22773000  0.95741000  0.66684000  1.0
  C  C116  1  0.70428000  0.38289000  0.88862000  1.0
  C  C117  1  0.79572000  0.11710000  0.38862000  1.0
  C  C118  1  0.29572000  0.61711000  0.11138000  1.0
  C  C119  1  0.20428000  0.88289000  0.61138000  1.0
  C  C120  1  0.70998000  0.29332000  0.85287000  1.0
  C  C121  1  0.79002000  0.20668000  0.35287000  1.0
  C  C122  1  0.29001000  0.70669000  0.14713000  1.0
  C  C123  1  0.20999000  0.79331000  0.64713000  1.0
  C  C124  1  0.69943000  0.22047000  0.91087000  1.0
  C  C125  1  0.80057000  0.27953000  0.41087000  1.0
  C  C126  1  0.30057000  0.77954000  0.08913000  1.0
  C  C127  1  0.19943000  0.72046000  0.58913000  1.0
  C  C128  1  0.71491000  0.13126000  0.87579000  1.0
  C  C129  1  0.78509000  0.36874000  0.37579000  1.0
  C  C130  1  0.28509000  0.86875000  0.12421000  1.0
  C  C131  1  0.21491000  0.63125000  0.62421000  1.0
  C  C132  1  0.72467000  0.05793000  0.93338000  1.0
  C  C133  1  0.77532000  0.44207000  0.43338000  1.0
  C  C134  1  0.27532000  0.94207000  0.06661000  1.0
  C  C135  1  0.22468000  0.55792000  0.56661000  1.0
  C  C136  1  0.59487000  0.60680000  0.69268000  1.0
  C  C137  1  0.90513000  0.89321000  0.19268000  1.0
  C  C138  1  0.40513000  0.39320000  0.30732000  1.0
  C  C139  1  0.09487000  0.10680000  0.80732000  1.0
  C  C140  1  0.65709000  0.69013000  0.69273000  1.0
  C  C141  1  0.84291000  0.80987000  0.19273000  1.0
  C  C142  1  0.34291000  0.30987000  0.30727000  1.0
  C  C143  1  0.15709000  0.19014000  0.80727000  1.0
  C  C144  1  0.76408000  0.69150000  0.62665000  1.0
  C  C145  1  0.73592000  0.80850000  0.12665000  1.0
  C  C146  1  0.23592000  0.30850000  0.37335000  1.0
  C  C147  1  0.26408000  0.19150000  0.87335000  1.0
  C  C148  1  0.67008000  0.68666000  0.55526000  1.0
  C  C149  1  0.82992000  0.81334000  0.05526000  1.0
  C  C150  1  0.32992000  0.31334000  0.44474000  1.0
  C  C151  1  0.17008000  0.18667000  0.94474000  1.0
  C  C152  1  0.60701000  0.60345000  0.55543000  1.0
  C  C153  1  0.89299000  0.89655000  0.05543000  1.0
  C  C154  1  0.39299000  0.39654000  0.44457000  1.0
  C  C155  1  0.10701000  0.10346000  0.94457000  1.0
  C  C156  1  0.66399000  0.55783000  0.62659000  1.0
  C  C157  1  0.83601000  0.94218000  0.12659000  1.0
  C  C158  1  0.33601000  0.44217000  0.37341000  1.0
  C  C159  1  0.16399000  0.05783000  0.87341000  1.0
  C  C160  1  0.81507000  0.59707000  0.62982000  1.0
  C  C161  1  0.68493000  0.90293000  0.12982000  1.0
  C  C162  1  0.18493000  0.40293000  0.37018000  1.0
  C  C163  1  0.31506000  0.09707000  0.87018000  1.0
  C  C164  1  0.95837000  0.65952000  0.88214000  1.0
  C  C165  1  0.54163000  0.84048000  0.38214000  1.0
  C  C166  1  0.04163000  0.34048000  0.11786000  1.0
  C  C167  1  0.45837000  0.15952000  0.61786000  1.0
  C  C168  1  0.06566000  0.70605000  0.91840000  1.0
  C  C169  1  0.43434000  0.79395000  0.41840000  1.0
  C  C170  1  0.93434000  0.29395000  0.08160000  1.0
  C  C171  1  0.56566000  0.20605000  0.58160000  1.0
  C  C172  1  0.08192000  0.79451000  0.90424000  1.0
  C  C173  1  0.41808000  0.70548000  0.40423000  1.0
  C  C174  1  0.91809000  0.20549000  0.09576000  1.0
  C  C175  1  0.58192000  0.29451000  0.59576000  1.0
  C  C176  1  0.98898000  0.83287000  0.85331000  1.0
  C  C177  1  0.51101000  0.66713000  0.35331000  1.0
  C  C178  1  0.01102000  0.16713000  0.14669000  1.0
  C  C179  1  0.48899000  0.33287000  0.64669000  1.0
  C  C180  1  0.88538000  0.78196000  0.81834000  1.0
  C  C181  1  0.61461000  0.71804000  0.31833000  1.0
  C  C182  1  0.11462000  0.21804000  0.18166000  1.0
  C  C183  1  0.38539000  0.28196000  0.68166000  1.0
  C  C184  1  0.99089000  0.64858000  0.37415000  1.0
  C  C185  1  0.50910000  0.85142000  0.87415000  1.0
  C  C186  1  0.00911000  0.35142000  0.62585000  1.0
  C  C187  1  0.49090000  0.14858000  0.12585000  1.0
  C  C188  1  0.09424000  0.69416000  0.33385000  1.0
  C  C189  1  0.40575000  0.80584000  0.83385000  1.0
  C  C190  1  0.90575000  0.30585000  0.66615000  1.0
  C  C191  1  0.59425000  0.19415000  0.16615000  1.0
  C  C192  1  0.10657000  0.78325000  0.34436000  1.0
  C  C193  1  0.39343000  0.71675000  0.84436000  1.0
  C  C194  1  0.89343000  0.21675000  0.65564000  1.0
  C  C195  1  0.60657000  0.28325000  0.15565000  1.0
  C  C196  1  0.01621000  0.82363000  0.39542000  1.0
  C  C197  1  0.48379000  0.67636000  0.89542000  1.0
  C  C198  1  0.98379000  0.17637000  0.60458000  1.0
  C  C199  1  0.51621000  0.32363000  0.10458000  1.0
  C  C200  1  0.91574000  0.77329000  0.43359000  1.0
  C  C201  1  0.58426000  0.72671000  0.93359000  1.0
  C  C202  1  0.08426000  0.22671000  0.56641000  1.0
  C  C203  1  0.41574000  0.27329000  0.06642000  1.0
  N  N204  1  0.86918000  0.69676000  0.83256000  1.0
  N  N205  1  0.63081000  0.80324000  0.33256000  1.0
  N  N206  1  0.13082000  0.30324000  0.16744000  1.0
  N  N207  1  0.36918000  0.19676000  0.66744000  1.0
  N  N208  1  0.90166000  0.68728000  0.42279000  1.0
  N  N209  1  0.59834000  0.81272000  0.92279000  1.0
  N  N210  1  0.09834000  0.31272000  0.57721000  1.0
  N  N211  1  0.40166000  0.18728000  0.07721000  1.0
  O  O212  1  0.70037000  0.53361000  0.85999000  1.0
  O  O213  1  0.79963000  0.96639000  0.36000000  1.0
  O  O214  1  0.29963000  0.46640000  0.14001000  1.0
  O  O215  1  0.20037000  0.03360000  0.64001000  1.0
  O  O216  1  0.77238000  0.44415000  0.76765000  1.0
  O  O217  1  0.72761000  0.05584000  0.26766000  1.0
  O  O218  1  0.22762000  0.55585000  0.23235000  1.0
  O  O219  1  0.27238000  0.94415000  0.73235000  1.0
  O  O220  1  0.74309000  0.98207000  0.90343000  1.0
  O  O221  1  0.75691000  0.51792000  0.40343000  1.0
  O  O222  1  0.25690000  0.01793000  0.09657000  1.0
  O  O223  1  0.24309000  0.48207000  0.59657000  1.0
  O  O224  1  0.71588000  0.07265000  0.00275000  1.0
  O  O225  1  0.78412000  0.42735000  0.50275000  1.0
  O  O226  1  0.28411000  0.92735000  0.99725000  1.0
  O  O227  1  0.21589000  0.57265000  0.49725000  1.0
