# generated using pymatgen
data_Gd2CuH20C32(NO7)4
_symmetry_space_group_name_H-M   'P 1'
_cell_length_a   10.35050000
_cell_length_b   10.65940000
_cell_length_c   11.39750000
_cell_angle_alpha   83.93020000
_cell_angle_beta   74.46590000
_cell_angle_gamma   68.75890000
_symmetry_Int_Tables_number   1
_chemical_formula_structural   Gd2CuH20C32(NO7)4
_chemical_formula_sum   'Gd2 Cu1 H20 C32 N4 O28'
_cell_volume   1129.19203145
_cell_formula_units_Z   1
loop_
 _symmetry_equiv_pos_site_id
 _symmetry_equiv_pos_as_xyz
  1  'x, y, z'
loop_
 _atom_site_type_symbol
 _atom_site_label
 _atom_site_symmetry_multiplicity
 _atom_site_fract_x
 _atom_site_fract_y
 _atom_site_fract_z
 _atom_site_occupancy
  Gd  Gd0  1  0.58736000  0.60977000  0.62479000  1.0
  Gd  Gd1  1  0.41264000  0.39022000  0.37521000  1.0
  Cu  Cu2  1  0.00000000  0.50000000  0.50000000  1.0
  H  H3  1  0.36568000  0.97985000  0.45147000  1.0
  H  H4  1  0.63433000  0.02014000  0.54854000  1.0
  H  H5  1  0.96265000  0.18045000  0.35861000  1.0
  H  H6  1  0.03736000  0.81955000  0.64139000  1.0
  H  H7  1  0.16491000  0.74911000  0.32370000  1.0
  H  H8  1  0.83509000  0.25089000  0.67630000  1.0
  H  H9  1  0.66981000  0.47817000  0.94686000  1.0
  H  H10  1  0.33019000  0.52183000  0.05313000  1.0
  H  H11  1  0.92293000  0.31582000  0.20934000  1.0
  H  H12  1  0.07706000  0.68419000  0.79066000  1.0
  H  H13  1  0.13150000  0.33912000  0.83079000  1.0
  H  H14  1  0.86850000  0.66089000  0.16921000  1.0
  H  H15  1  0.46055000  0.84984000  0.80478000  1.0
  H  H16  1  0.53946000  0.15017000  0.19521000  1.0
  H  H17  1  0.34684000  0.87665000  0.72857000  1.0
  H  H18  1  0.65316000  0.12334000  0.27143000  1.0
  H  H19  1  0.80952000  0.55893000  0.37718000  1.0
  H  H20  1  0.19048000  0.44107000  0.62281000  1.0
  H  H21  1  0.71565000  0.46795000  0.37994000  1.0
  H  H22  1  0.28435000  0.53205000  0.62005000  1.0
  C  C23  1  0.27586000  0.85144000  0.39099000  1.0
  C  C24  1  0.72415000  0.14856000  0.60901000  1.0
  C  C25  1  0.27816000  0.97630000  0.41753000  1.0
  C  C26  1  0.72185000  0.02370000  0.58248000  1.0
  C  C27  1  0.16649000  0.09492000  0.40448000  1.0
  C  C28  1  0.83351000  0.90508000  0.59553000  1.0
  C  C29  1  0.05297000  0.08949000  0.36357000  1.0
  C  C30  1  0.94704000  0.91050000  0.63643000  1.0
  C  C31  1  0.05629000  0.96598000  0.33157000  1.0
  C  C32  1  0.94372000  0.03402000  0.66843000  1.0
  C  C33  1  0.16611000  0.84573000  0.34466000  1.0
  C  C34  1  0.83389000  0.15426000  0.65535000  1.0
  C  C35  1  0.38497000  0.72332000  0.42274000  1.0
  C  C36  1  0.61503000  0.27668000  0.57726000  1.0
  C  C37  1  0.16119000  0.23014000  0.43596000  1.0
  C  C38  1  0.83881000  0.76986000  0.56405000  1.0
  C  C39  1  0.89946000  0.41768000  0.87582000  1.0
  C  C40  1  0.10054000  0.58233000  0.12417000  1.0
  C  C41  1  0.77403000  0.43553000  0.96826000  1.0
  C  C42  1  0.22597000  0.56448000  0.03173000  1.0
  C  C43  1  0.78248000  0.39772000  0.08845000  1.0
  C  C44  1  0.21752000  0.60229000  0.91154000  1.0
  C  C45  1  0.91581000  0.34327000  0.11615000  1.0
  C  C46  1  0.08418000  0.65673000  0.88385000  1.0
  C  C47  1  0.03909000  0.32242000  0.02190000  1.0
  C  C48  1  0.96091000  0.67759000  0.97811000  1.0
  C  C49  1  0.03331000  0.35819000  0.90220000  1.0
  C  C50  1  0.96669000  0.64181000  0.09779000  1.0
  C  C51  1  0.89219000  0.46002000  0.74763000  1.0
  C  C52  1  0.10781000  0.53997000  0.25237000  1.0
  C  C53  1  0.65000000  0.40864000  0.18724000  1.0
  C  C54  1  0.35000000  0.59137000  0.81275000  1.0
  N  N55  1  0.93638000  0.96399000  0.28764000  1.0
  N  N56  1  0.06362000  0.03601000  0.71237000  1.0
  N  N57  1  0.18064000  0.26154000  0.04889000  1.0
  N  N58  1  0.81935000  0.73847000  0.95111000  1.0
  O  O59  1  0.39087000  0.61246000  0.38651000  1.0
  O  O60  1  0.60913000  0.38753000  0.61349000  1.0
  O  O61  1  0.46072000  0.73618000  0.48835000  1.0
  O  O62  1  0.53929000  0.26381000  0.51165000  1.0
  O  O63  1  0.27430000  0.24826000  0.43814000  1.0
  O  O64  1  0.72571000  0.75174000  0.56187000  1.0
  O  O65  1  0.03493000  0.31854000  0.45828000  1.0
  O  O66  1  0.96507000  0.68146000  0.54171000  1.0
  O  O67  1  0.84137000  0.07499000  0.27758000  1.0
  O  O68  1  0.15862000  0.92501000  0.72245000  1.0
  O  O69  1  0.93417000  0.85462000  0.26342000  1.0
  O  O70  1  0.06583000  0.14539000  0.73658000  1.0
  O  O71  1  0.01192000  0.44037000  0.66870000  1.0
  O  O72  1  0.98808000  0.55963000  0.33130000  1.0
  O  O73  1  0.77223000  0.51044000  0.72262000  1.0
  O  O74  1  0.22777000  0.48954000  0.27738000  1.0
  O  O75  1  0.53241000  0.43098000  0.16082000  1.0
  O  O76  1  0.46758000  0.56902000  0.83918000  1.0
  O  O77  1  0.66064000  0.38723000  0.29829000  1.0
  O  O78  1  0.33935000  0.61278000  0.70171000  1.0
  O  O79  1  0.18446000  0.24703000  0.15770000  1.0
  O  O80  1  0.81553000  0.75298000  0.84231000  1.0
  O  O81  1  0.28774000  0.22904000  0.96198000  1.0
  O  O82  1  0.71225000  0.77096000  0.03803000  1.0
  O  O83  1  0.44927000  0.83312000  0.72654000  1.0
  O  O84  1  0.55073000  0.16688000  0.27345000  1.0
  O  O85  1  0.73816000  0.52432000  0.43076000  1.0
  O  O86  1  0.26184000  0.47568000  0.56924000  1.0
