# generated using pymatgen
data_Co3H34C44S3(NO3)4
_symmetry_space_group_name_H-M   'P 1'
_cell_length_a   14.94760000
_cell_length_b   17.06970000
_cell_length_c   21.76190000
_cell_angle_alpha   90.00020000
_cell_angle_beta   90.00010000
_cell_angle_gamma   89.99990000
_symmetry_Int_Tables_number   1
_chemical_formula_structural   Co3H34C44S3(NO3)4
_chemical_formula_sum   'Co12 H136 C176 S12 N16 O48'
_cell_volume   5552.57158533
_cell_formula_units_Z   4
loop_
 _symmetry_equiv_pos_site_id
 _symmetry_equiv_pos_as_xyz
  1  'x, y, z'
loop_
 _atom_site_type_symbol
 _atom_site_label
 _atom_site_symmetry_multiplicity
 _atom_site_fract_x
 _atom_site_fract_y
 _atom_site_fract_z
 _atom_site_occupancy
  Co  Co0  1  0.49999000  0.24999000  0.59479000  1.0
  Co  Co1  1  0.50000000  0.75000000  0.90521000  1.0
  Co  Co2  1  0.50001000  0.75000000  0.40521000  1.0
  Co  Co3  1  0.50000000  0.25000000  0.09480000  1.0
  Co  Co4  1  0.73093000  0.27530000  0.61352000  1.0
  Co  Co5  1  0.26907000  0.22469000  0.61351000  1.0
  Co  Co6  1  0.73093000  0.72470000  0.88648000  1.0
  Co  Co7  1  0.26908000  0.77530000  0.88648000  1.0
  Co  Co8  1  0.26908000  0.72469000  0.38648000  1.0
  Co  Co9  1  0.73094000  0.77530000  0.38648000  1.0
  Co  Co10  1  0.26907000  0.27531000  0.11352000  1.0
  Co  Co11  1  0.73092000  0.22470000  0.11353000  1.0
  H  H12  1  0.42946000  0.43397000  0.71753000  1.0
  H  H13  1  0.57054000  0.06602000  0.71750000  1.0
  H  H14  1  0.42945000  0.56603000  0.78247000  1.0
  H  H15  1  0.57056000  0.93396000  0.78247000  1.0
  H  H16  1  0.57055000  0.56602000  0.28250000  1.0
  H  H17  1  0.42945000  0.93398000  0.28249000  1.0
  H  H18  1  0.57057000  0.43395000  0.21754000  1.0
  H  H19  1  0.42945000  0.06604000  0.21755000  1.0
  H  H20  1  0.49238000  0.41939000  0.43197000  1.0
  H  H21  1  0.50761000  0.08062000  0.43196000  1.0
  H  H22  1  0.49237000  0.58062000  0.06803000  1.0
  H  H23  1  0.50761000  0.91939000  0.06803000  1.0
  H  H24  1  0.50763000  0.58062000  0.56804000  1.0
  H  H25  1  0.49237000  0.91938000  0.56803000  1.0
  H  H26  1  0.50761000  0.41939000  0.93198000  1.0
  H  H27  1  0.49239000  0.08061000  0.93198000  1.0
  H  H28  1  0.52089000  0.56384000  0.38923000  1.0
  H  H29  1  0.47913000  0.93616000  0.38923000  1.0
  H  H30  1  0.52089000  0.43618000  0.11077000  1.0
  H  H31  1  0.47910000  0.06383000  0.11078000  1.0
  H  H32  1  0.47912000  0.43617000  0.61078000  1.0
  H  H33  1  0.52088000  0.06384000  0.61076000  1.0
  H  H34  1  0.47911000  0.56383000  0.88922000  1.0
  H  H35  1  0.52090000  0.93616000  0.88923000  1.0
  H  H36  1  0.88861000  0.27839000  0.52753000  1.0
  H  H37  1  0.11138000  0.22161000  0.52753000  1.0
  H  H38  1  0.88860000  0.72160000  0.97246000  1.0
  H  H39  1  0.11139000  0.77838000  0.97245000  1.0
  H  H40  1  0.11139000  0.72163000  0.47245000  1.0
  H  H41  1  0.88860000  0.77842000  0.47246000  1.0
  H  H42  1  0.11139000  0.27838000  0.02755000  1.0
  H  H43  1  0.88858000  0.22160000  0.02754000  1.0
  H  H44  1  0.02519000  0.36153000  0.51256000  1.0
  H  H45  1  0.97479000  0.13847000  0.51257000  1.0
  H  H46  1  0.02518000  0.63846000  0.98743000  1.0
  H  H47  1  0.97481000  0.86152000  0.98742000  1.0
  H  H48  1  0.97480000  0.63849000  0.48743000  1.0
  H  H49  1  0.02519000  0.86155000  0.48743000  1.0
  H  H50  1  0.97480000  0.36151000  0.01257000  1.0
  H  H51  1  0.02517000  0.13847000  0.01257000  1.0
  H  H52  1  0.95829000  0.47669000  0.68317000  1.0
  H  H53  1  0.04171000  0.02330000  0.68316000  1.0
  H  H54  1  0.95829000  0.52332000  0.81682000  1.0
  H  H55  1  0.04172000  0.97671000  0.81683000  1.0
  H  H56  1  0.04172000  0.52331000  0.31684000  1.0
  H  H57  1  0.95830000  0.97669000  0.31682000  1.0
  H  H58  1  0.04172000  0.47670000  0.18316000  1.0
  H  H59  1  0.95829000  0.02331000  0.18317000  1.0
  H  H60  1  0.82668000  0.38882000  0.69095000  1.0
  H  H61  1  0.17333000  0.11116000  0.69094000  1.0
  H  H62  1  0.82667000  0.61118000  0.80904000  1.0
  H  H63  1  0.17335000  0.88884000  0.80905000  1.0
  H  H64  1  0.17334000  0.61117000  0.30905000  1.0
  H  H65  1  0.82668000  0.88883000  0.30904000  1.0
  H  H66  1  0.17335000  0.38884000  0.19095000  1.0
  H  H67  1  0.82667000  0.11117000  0.19096000  1.0
  H  H68  1  0.14380000  0.44100000  0.58124000  1.0
  H  H69  1  0.85619000  0.05900000  0.58125000  1.0
  H  H70  1  0.14380000  0.55900000  0.91875000  1.0
  H  H71  1  0.85621000  0.94099000  0.91875000  1.0
  H  H72  1  0.85620000  0.55901000  0.41875000  1.0
  H  H73  1  0.14380000  0.94100000  0.41875000  1.0
  H  H74  1  0.85620000  0.44100000  0.08125000  1.0
  H  H75  1  0.14380000  0.05900000  0.08125000  1.0
  H  H76  1  0.07788000  0.51305000  0.54574000  1.0
  H  H77  1  0.92211000  0.98695000  0.54574000  1.0
  H  H78  1  0.07787000  0.48695000  0.95425000  1.0
  H  H79  1  0.92213000  0.01305000  0.95425000  1.0
  H  H80  1  0.92213000  0.48696000  0.45426000  1.0
  H  H81  1  0.07787000  0.01306000  0.45425000  1.0
  H  H82  1  0.92212000  0.51304000  0.04575000  1.0
  H  H83  1  0.07786000  0.98695000  0.04575000  1.0
  H  H84  1  0.04053000  0.57080000  0.64890000  1.0
  H  H85  1  0.95946000  0.92920000  0.64890000  1.0
  H  H86  1  0.04053000  0.42921000  0.85109000  1.0
  H  H87  1  0.95947000  0.07080000  0.85109000  1.0
  H  H88  1  0.95948000  0.42920000  0.35110000  1.0
  H  H89  1  0.04054000  0.07079000  0.35108000  1.0
  H  H90  1  0.95947000  0.57080000  0.14890000  1.0
  H  H91  1  0.04053000  0.92920000  0.14891000  1.0
  H  H92  1  0.10674000  0.49887000  0.68515000  1.0
  H  H93  1  0.89326000  0.00113000  0.68515000  1.0
  H  H94  1  0.10674000  0.50114000  0.81485000  1.0
  H  H95  1  0.89326000  0.99886000  0.81484000  1.0
  H  H96  1  0.89326000  0.50113000  0.31485000  1.0
  H  H97  1  0.10675000  0.99886000  0.31484000  1.0
  H  H98  1  0.89328000  0.49887000  0.18516000  1.0
  H  H99  1  0.10673000  0.00114000  0.18516000  1.0
  H  H100  1  0.17457000  0.62797000  0.59890000  1.0
  H  H101  1  0.82541000  0.87203000  0.59890000  1.0
  H  H102  1  0.17456000  0.37203000  0.90110000  1.0
  H  H103  1  0.82543000  0.12797000  0.90110000  1.0
  H  H104  1  0.82544000  0.37203000  0.40111000  1.0
  H  H105  1  0.17457000  0.12797000  0.40109000  1.0
  H  H106  1  0.82542000  0.62797000  0.09890000  1.0
  H  H107  1  0.17457000  0.87204000  0.09891000  1.0
  H  H108  1  0.24216000  0.55158000  0.62595000  1.0
  H  H109  1  0.75783000  0.94843000  0.62596000  1.0
  H  H110  1  0.24216000  0.44842000  0.87404000  1.0
  H  H111  1  0.75784000  0.05157000  0.87404000  1.0
  H  H112  1  0.75785000  0.44842000  0.37405000  1.0
  H  H113  1  0.24216000  0.05157000  0.37404000  1.0
  H  H114  1  0.75784000  0.55156000  0.12597000  1.0
  H  H115  1  0.24216000  0.94844000  0.12596000  1.0
  H  H116  1  0.34509000  0.63034000  0.68633000  1.0
  H  H117  1  0.65489000  0.86966000  0.68634000  1.0
  H  H118  1  0.34508000  0.36963000  0.81367000  1.0
  H  H119  1  0.65491000  0.13034000  0.81367000  1.0
  H  H120  1  0.65492000  0.36968000  0.31367000  1.0
  H  H121  1  0.34510000  0.13034000  0.31366000  1.0
  H  H122  1  0.65491000  0.63034000  0.18633000  1.0
  H  H123  1  0.34510000  0.86965000  0.18633000  1.0
  H  H124  1  0.37096000  0.70081000  0.78539000  1.0
  H  H125  1  0.62903000  0.79919000  0.78540000  1.0
  H  H126  1  0.37095000  0.29916000  0.71462000  1.0
  H  H127  1  0.62905000  0.20081000  0.71461000  1.0
  H  H128  1  0.62904000  0.29921000  0.21461000  1.0
  H  H129  1  0.37097000  0.20082000  0.21461000  1.0
  H  H130  1  0.62904000  0.70082000  0.28539000  1.0
  H  H131  1  0.37096000  0.79917000  0.28539000  1.0
  H  H132  1  0.09933000  0.71211000  0.82144000  1.0
  H  H133  1  0.90066000  0.78789000  0.82143000  1.0
  H  H134  1  0.09932000  0.28789000  0.67856000  1.0
  H  H135  1  0.90067000  0.21211000  0.67856000  1.0
  H  H136  1  0.90067000  0.28789000  0.17857000  1.0
  H  H137  1  0.09933000  0.21211000  0.17856000  1.0
  H  H138  1  0.90067000  0.71211000  0.32144000  1.0
  H  H139  1  0.09933000  0.78790000  0.32144000  1.0
  H  H140  1  0.06159000  0.64461000  0.72428000  1.0
  H  H141  1  0.93839000  0.85539000  0.72427000  1.0
  H  H142  1  0.06159000  0.35540000  0.77571000  1.0
  H  H143  1  0.93841000  0.14460000  0.77572000  1.0
  H  H144  1  0.93841000  0.35538000  0.27573000  1.0
  H  H145  1  0.06159000  0.14460000  0.27572000  1.0
  H  H146  1  0.93841000  0.64460000  0.22429000  1.0
  H  H147  1  0.06160000  0.85541000  0.22428000  1.0
  C  C148  1  0.59760000  0.36817000  0.68366000  1.0
  C  C149  1  0.40239000  0.13181000  0.68363000  1.0
  C  C150  1  0.59759000  0.63184000  0.81635000  1.0
  C  C151  1  0.40242000  0.86815000  0.81634000  1.0
  C  C152  1  0.40241000  0.63183000  0.31636000  1.0
  C  C153  1  0.59759000  0.86817000  0.31636000  1.0
  C  C154  1  0.40241000  0.36815000  0.18367000  1.0
  C  C155  1  0.59760000  0.13185000  0.18368000  1.0
  C  C156  1  0.57442000  0.43819000  0.72033000  1.0
  C  C157  1  0.42556000  0.06179000  0.72031000  1.0
  C  C158  1  0.57443000  0.56181000  0.77967000  1.0
  C  C159  1  0.42557000  0.93817000  0.77966000  1.0
  C  C160  1  0.42557000  0.56180000  0.27969000  1.0
  C  C161  1  0.57442000  0.93819000  0.27969000  1.0
  C  C162  1  0.42557000  0.43818000  0.22034000  1.0
  C  C163  1  0.57443000  0.06183000  0.22036000  1.0
  C  C164  1  0.48874000  0.46487000  0.73318000  1.0
  C  C165  1  0.51125000  0.03511000  0.73316000  1.0
  C  C166  1  0.48874000  0.53513000  0.76682000  1.0
  C  C167  1  0.51126000  0.96486000  0.76681000  1.0
  C  C168  1  0.51125000  0.53512000  0.26684000  1.0
  C  C169  1  0.48874000  0.96489000  0.26684000  1.0
  C  C170  1  0.51126000  0.46486000  0.23320000  1.0
  C  C171  1  0.48874000  0.03514000  0.23320000  1.0
  C  C172  1  0.62028000  0.35918000  0.51991000  1.0
  C  C173  1  0.37971000  0.14082000  0.51990000  1.0
  C  C174  1  0.62027000  0.64082000  0.98008000  1.0
  C  C175  1  0.37972000  0.85919000  0.98008000  1.0
  C  C176  1  0.37973000  0.64082000  0.48009000  1.0
  C  C177  1  0.62027000  0.85918000  0.48009000  1.0
  C  C178  1  0.37972000  0.35919000  0.01992000  1.0
  C  C179  1  0.62028000  0.14081000  0.01992000  1.0
  C  C180  1  0.61622000  0.43195000  0.48298000  1.0
  C  C181  1  0.38378000  0.06806000  0.48296000  1.0
  C  C182  1  0.61620000  0.56806000  0.01703000  1.0
  C  C183  1  0.38378000  0.93196000  0.01702000  1.0
  C  C184  1  0.38380000  0.56806000  0.51703000  1.0
  C  C185  1  0.61622000  0.93194000  0.51703000  1.0
  C  C186  1  0.38378000  0.43196000  0.98298000  1.0
  C  C187  1  0.61622000  0.06804000  0.98298000  1.0
  C  C188  1  0.54984000  0.45603000  0.44279000  1.0
  C  C189  1  0.45016000  0.04397000  0.44278000  1.0
  C  C190  1  0.54983000  0.54398000  0.05721000  1.0
  C  C191  1  0.45016000  0.95603000  0.05721000  1.0
  C  C192  1  0.45017000  0.54398000  0.55722000  1.0
  C  C193  1  0.54983000  0.95602000  0.55721000  1.0
  C  C194  1  0.45016000  0.45603000  0.94279000  1.0
  C  C195  1  0.54984000  0.04396000  0.94279000  1.0
  C  C196  1  0.56438000  0.53238000  0.42055000  1.0
  C  C197  1  0.43563000  0.96762000  0.42054000  1.0
  C  C198  1  0.56437000  0.46763000  0.07945000  1.0
  C  C199  1  0.43562000  0.03237000  0.07945000  1.0
  C  C200  1  0.43564000  0.46763000  0.57946000  1.0
  C  C201  1  0.56437000  0.03237000  0.57945000  1.0
  C  C202  1  0.43562000  0.53238000  0.92055000  1.0
  C  C203  1  0.56438000  0.96762000  0.92055000  1.0
  C  C204  1  0.64161000  0.56620000  0.44399000  1.0
  C  C205  1  0.35840000  0.93380000  0.44398000  1.0
  C  C206  1  0.64160000  0.43381000  0.05601000  1.0
  C  C207  1  0.35839000  0.06620000  0.05602000  1.0
  C  C208  1  0.35840000  0.43381000  0.55602000  1.0
  C  C209  1  0.64161000  0.06620000  0.55601000  1.0
  C  C210  1  0.35839000  0.56620000  0.94399000  1.0
  C  C211  1  0.64161000  0.93380000  0.94400000  1.0
  C  C212  1  0.67613000  0.64420000  0.42905000  1.0
  C  C213  1  0.32389000  0.85579000  0.42905000  1.0
  C  C214  1  0.67611000  0.35580000  0.07095000  1.0
  C  C215  1  0.32388000  0.14421000  0.07096000  1.0
  C  C216  1  0.32388000  0.35580000  0.57095000  1.0
  C  C217  1  0.67611000  0.14420000  0.57095000  1.0
  C  C218  1  0.32388000  0.64421000  0.92905000  1.0
  C  C219  1  0.67612000  0.85579000  0.92905000  1.0
  C  C220  1  0.90755000  0.32312000  0.56088000  1.0
  C  C221  1  0.09245000  0.17688000  0.56088000  1.0
  C  C222  1  0.90753000  0.67688000  0.93912000  1.0
  C  C223  1  0.09245000  0.82311000  0.93911000  1.0
  C  C224  1  0.09245000  0.67690000  0.43911000  1.0
  C  C225  1  0.90754000  0.82314000  0.43912000  1.0
  C  C226  1  0.09245000  0.32311000  0.06089000  1.0
  C  C227  1  0.90753000  0.17688000  0.06088000  1.0
  C  C228  1  0.98262000  0.36992000  0.55275000  1.0
  C  C229  1  0.01736000  0.13009000  0.55275000  1.0
  C  C230  1  0.98262000  0.63008000  0.94724000  1.0
  C  C231  1  0.01739000  0.86992000  0.94723000  1.0
  C  C232  1  0.01739000  0.63009000  0.44724000  1.0
  C  C233  1  0.98262000  0.86993000  0.44724000  1.0
  C  C234  1  0.01738000  0.36991000  0.05276000  1.0
  C  C235  1  0.98261000  0.13008000  0.05276000  1.0
  C  C236  1  0.00414000  0.42746000  0.59646000  1.0
  C  C237  1  0.99584000  0.07254000  0.59645000  1.0
  C  C238  1  0.00414000  0.57254000  0.90353000  1.0
  C  C239  1  0.99586000  0.92746000  0.90353000  1.0
  C  C240  1  0.99586000  0.57255000  0.40354000  1.0
  C  C241  1  0.00415000  0.92746000  0.40353000  1.0
  C  C242  1  0.99585000  0.42746000  0.09646000  1.0
  C  C243  1  0.00413000  0.07255000  0.09647000  1.0
  C  C244  1  0.94684000  0.43346000  0.64723000  1.0
  C  C245  1  0.05316000  0.06653000  0.64722000  1.0
  C  C246  1  0.94683000  0.56654000  0.85276000  1.0
  C  C247  1  0.05317000  0.93347000  0.85276000  1.0
  C  C248  1  0.05317000  0.56653000  0.35277000  1.0
  C  C249  1  0.94685000  0.93347000  0.35276000  1.0
  C  C250  1  0.05317000  0.43347000  0.14723000  1.0
  C  C251  1  0.94684000  0.06654000  0.14724000  1.0
  C  C252  1  0.87327000  0.38427000  0.65255000  1.0
  C  C253  1  0.12673000  0.11572000  0.65254000  1.0
  C  C254  1  0.87326000  0.61573000  0.84744000  1.0
  C  C255  1  0.12675000  0.88429000  0.84745000  1.0
  C  C256  1  0.12674000  0.61573000  0.34745000  1.0
  C  C257  1  0.87326000  0.88428000  0.34744000  1.0
  C  C258  1  0.12674000  0.38428000  0.15255000  1.0
  C  C259  1  0.87325000  0.11572000  0.15255000  1.0
  C  C260  1  0.08508000  0.47906000  0.58865000  1.0
  C  C261  1  0.91490000  0.02094000  0.58866000  1.0
  C  C262  1  0.08508000  0.52094000  0.91134000  1.0
  C  C263  1  0.91492000  0.97906000  0.91134000  1.0
  C  C264  1  0.91492000  0.52094000  0.41134000  1.0
  C  C265  1  0.08508000  0.97906000  0.41134000  1.0
  C  C266  1  0.91492000  0.47906000  0.08866000  1.0
  C  C267  1  0.08507000  0.02094000  0.08866000  1.0
  C  C268  1  0.10040000  0.53397000  0.64280000  1.0
  C  C269  1  0.89959000  0.96603000  0.64281000  1.0
  C  C270  1  0.10040000  0.46603000  0.85719000  1.0
  C  C271  1  0.89960000  0.03396000  0.85719000  1.0
  C  C272  1  0.89961000  0.46604000  0.35720000  1.0
  C  C273  1  0.10041000  0.03396000  0.35718000  1.0
  C  C274  1  0.89961000  0.53396000  0.14281000  1.0
  C  C275  1  0.10040000  0.96603000  0.14281000  1.0
  C  C276  1  0.18269000  0.58655000  0.63748000  1.0
  C  C277  1  0.81729000  0.91345000  0.63748000  1.0
  C  C278  1  0.18268000  0.41345000  0.86251000  1.0
  C  C279  1  0.81731000  0.08654000  0.86252000  1.0
  C  C280  1  0.81732000  0.41345000  0.36253000  1.0
  C  C281  1  0.18270000  0.08655000  0.36251000  1.0
  C  C282  1  0.81731000  0.58654000  0.13748000  1.0
  C  C283  1  0.18270000  0.91346000  0.13749000  1.0
  C  C284  1  0.20065000  0.63127000  0.69586000  1.0
  C  C285  1  0.79932000  0.86874000  0.69586000  1.0
  C  C286  1  0.20065000  0.36872000  0.80414000  1.0
  C  C287  1  0.79935000  0.13126000  0.80414000  1.0
  C  C288  1  0.79935000  0.36874000  0.30414000  1.0
  C  C289  1  0.20066000  0.13126000  0.30414000  1.0
  C  C290  1  0.79935000  0.63126000  0.19586000  1.0
  C  C291  1  0.20066000  0.86875000  0.19586000  1.0
  C  C292  1  0.28822000  0.64846000  0.71443000  1.0
  C  C293  1  0.71175000  0.85155000  0.71443000  1.0
  C  C294  1  0.28822000  0.35153000  0.78557000  1.0
  C  C295  1  0.71177000  0.14846000  0.78556000  1.0
  C  C296  1  0.71178000  0.35156000  0.28557000  1.0
  C  C297  1  0.28823000  0.14845000  0.28557000  1.0
  C  C298  1  0.71178000  0.64845000  0.21444000  1.0
  C  C299  1  0.28823000  0.85155000  0.21443000  1.0
  C  C300  1  0.30330000  0.68763000  0.76951000  1.0
  C  C301  1  0.69669000  0.81237000  0.76952000  1.0
  C  C302  1  0.30328000  0.31233000  0.73050000  1.0
  C  C303  1  0.69671000  0.18764000  0.73049000  1.0
  C  C304  1  0.69671000  0.31238000  0.23049000  1.0
  C  C305  1  0.30330000  0.18763000  0.23049000  1.0
  C  C306  1  0.69671000  0.68765000  0.26951000  1.0
  C  C307  1  0.30330000  0.81236000  0.26950000  1.0
  C  C308  1  0.15193000  0.69388000  0.78976000  1.0
  C  C309  1  0.84806000  0.80612000  0.78975000  1.0
  C  C310  1  0.15192000  0.30612000  0.71024000  1.0
  C  C311  1  0.84808000  0.19388000  0.71024000  1.0
  C  C312  1  0.84808000  0.30613000  0.21025000  1.0
  C  C313  1  0.15193000  0.19387000  0.21024000  1.0
  C  C314  1  0.84808000  0.69387000  0.28976000  1.0
  C  C315  1  0.15194000  0.80614000  0.28976000  1.0
  C  C316  1  0.13158000  0.65561000  0.73519000  1.0
  C  C317  1  0.86840000  0.84438000  0.73518000  1.0
  C  C318  1  0.13158000  0.34438000  0.76481000  1.0
  C  C319  1  0.86842000  0.15561000  0.76481000  1.0
  C  C320  1  0.86842000  0.34439000  0.26482000  1.0
  C  C321  1  0.13159000  0.15561000  0.26482000  1.0
  C  C322  1  0.86842000  0.65561000  0.23519000  1.0
  C  C323  1  0.13159000  0.84440000  0.23519000  1.0
  S  S324  1  0.65474000  0.50001000  0.75001000  1.0
  S  S325  1  0.34527000  0.99998000  0.74998000  1.0
  S  S326  1  0.34529000  0.49999000  0.25002000  1.0
  S  S327  1  0.65474000  0.00001000  0.25003000  1.0
  S  S328  1  0.69692000  0.50296000  0.49291000  1.0
  S  S329  1  0.30309000  0.99705000  0.49290000  1.0
  S  S330  1  0.69690000  0.49705000  0.00709000  1.0
  S  S331  1  0.30308000  0.00295000  0.00709000  1.0
  S  S332  1  0.30310000  0.49705000  0.50709000  1.0
  S  S333  1  0.69691000  0.00294000  0.50710000  1.0
  S  S334  1  0.30309000  0.50297000  0.99291000  1.0
  S  S335  1  0.69691000  0.99704000  0.99291000  1.0
  N  N336  1  0.85320000  0.32963000  0.61013000  1.0
  N  N337  1  0.14679000  0.17037000  0.61012000  1.0
  N  N338  1  0.85320000  0.67037000  0.88986000  1.0
  N  N339  1  0.14680000  0.82963000  0.88987000  1.0
  N  N340  1  0.14680000  0.67037000  0.38987000  1.0
  N  N341  1  0.85320000  0.82964000  0.38987000  1.0
  N  N342  1  0.14681000  0.32963000  0.11013000  1.0
  N  N343  1  0.85320000  0.17037000  0.11014000  1.0
  N  N344  1  0.23618000  0.71005000  0.80706000  1.0
  N  N345  1  0.76381000  0.78995000  0.80706000  1.0
  N  N346  1  0.23617000  0.28992000  0.69294000  1.0
  N  N347  1  0.76383000  0.21005000  0.69294000  1.0
  N  N348  1  0.76383000  0.28996000  0.19295000  1.0
  N  N349  1  0.23619000  0.21006000  0.19294000  1.0
  N  N350  1  0.76383000  0.71007000  0.30706000  1.0
  N  N351  1  0.23619000  0.78995000  0.30706000  1.0
  O  O352  1  0.53248000  0.32701000  0.66488000  1.0
  O  O353  1  0.46752000  0.17296000  0.66486000  1.0
  O  O354  1  0.53247000  0.67300000  0.83513000  1.0
  O  O355  1  0.46755000  0.82701000  0.83513000  1.0
  O  O356  1  0.46753000  0.67297000  0.33514000  1.0
  O  O357  1  0.53248000  0.82700000  0.33513000  1.0
  O  O358  1  0.46753000  0.32700000  0.16488000  1.0
  O  O359  1  0.53248000  0.17298000  0.16488000  1.0
  O  O360  1  0.68076000  0.35531000  0.67348000  1.0
  O  O361  1  0.31923000  0.14467000  0.67346000  1.0
  O  O362  1  0.68075000  0.64471000  0.82652000  1.0
  O  O363  1  0.31927000  0.85528000  0.82651000  1.0
  O  O364  1  0.31925000  0.64470000  0.32652000  1.0
  O  O365  1  0.68075000  0.85531000  0.32654000  1.0
  O  O366  1  0.31926000  0.35530000  0.17349000  1.0
  O  O367  1  0.68076000  0.14471000  0.17351000  1.0
  O  O368  1  0.54682000  0.32389000  0.52915000  1.0
  O  O369  1  0.45318000  0.17611000  0.52914000  1.0
  O  O370  1  0.54681000  0.67611000  0.97085000  1.0
  O  O371  1  0.45319000  0.82390000  0.97084000  1.0
  O  O372  1  0.45319000  0.67611000  0.47085000  1.0
  O  O373  1  0.54681000  0.82389000  0.47085000  1.0
  O  O374  1  0.45318000  0.32389000  0.02915000  1.0
  O  O375  1  0.54681000  0.17610000  0.02916000  1.0
  O  O376  1  0.69783000  0.34097000  0.54054000  1.0
  O  O377  1  0.30216000  0.15903000  0.54051000  1.0
  O  O378  1  0.69781000  0.65902000  0.95945000  1.0
  O  O379  1  0.30218000  0.84098000  0.95945000  1.0
  O  O380  1  0.30219000  0.65903000  0.45945000  1.0
  O  O381  1  0.69782000  0.84097000  0.45947000  1.0
  O  O382  1  0.30217000  0.34099000  0.04054000  1.0
  O  O383  1  0.69782000  0.15902000  0.04055000  1.0
  O  O384  1  0.62398000  0.69324000  0.40122000  1.0
  O  O385  1  0.37603000  0.80675000  0.40121000  1.0
  O  O386  1  0.62397000  0.30677000  0.09878000  1.0
  O  O387  1  0.37604000  0.19324000  0.09879000  1.0
  O  O388  1  0.37603000  0.30677000  0.59878000  1.0
  O  O389  1  0.62397000  0.19324000  0.59878000  1.0
  O  O390  1  0.37603000  0.69324000  0.90121000  1.0
  O  O391  1  0.62398000  0.80676000  0.90122000  1.0
  O  O392  1  0.75714000  0.66358000  0.43908000  1.0
  O  O393  1  0.24289000  0.83641000  0.43909000  1.0
  O  O394  1  0.75711000  0.33642000  0.06091000  1.0
  O  O395  1  0.24288000  0.16360000  0.06091000  1.0
  O  O396  1  0.24288000  0.33642000  0.56091000  1.0
  O  O397  1  0.75712000  0.16358000  0.56091000  1.0
  O  O398  1  0.24288000  0.66359000  0.93909000  1.0
  O  O399  1  0.75712000  0.83641000  0.93909000  1.0
