# generated using pymatgen
data_ZnH12C14(NO)4
_symmetry_space_group_name_H-M   'P 1'
_cell_length_a   6.79477000
_cell_length_b   11.91480000
_cell_length_c   18.62310000
_cell_angle_alpha   89.99980000
_cell_angle_beta   80.15550000
_cell_angle_gamma   89.99990000
_symmetry_Int_Tables_number   1
_chemical_formula_structural   ZnH12C14(NO)4
_chemical_formula_sum   'Zn4 H48 C56 N16 O16'
_cell_volume   1485.49479436
_cell_formula_units_Z   4
loop_
 _symmetry_equiv_pos_site_id
 _symmetry_equiv_pos_as_xyz
  1  'x, y, z'
loop_
 _atom_site_type_symbol
 _atom_site_label
 _atom_site_symmetry_multiplicity
 _atom_site_fract_x
 _atom_site_fract_y
 _atom_site_fract_z
 _atom_site_occupancy
  Zn  Zn0  1  0.22332000  0.79358000  0.64097000  1.0
  Zn  Zn1  1  0.22331000  0.70642000  0.14098000  1.0
  Zn  Zn2  1  0.77670000  0.20641000  0.35902000  1.0
  Zn  Zn3  1  0.77668000  0.29358000  0.85902000  1.0
  H  H4  1  0.55474000  0.61224000  0.63991000  1.0
  H  H5  1  0.55474000  0.88776000  0.13992000  1.0
  H  H6  1  0.44526000  0.38775000  0.36009000  1.0
  H  H7  1  0.44525000  0.11225000  0.86009000  1.0
  H  H8  1  0.91463000  0.14808000  0.55345000  1.0
  H  H9  1  0.91463000  0.35193000  0.05345000  1.0
  H  H10  1  0.08536000  0.85192000  0.44655000  1.0
  H  H11  1  0.08535000  0.64808000  0.94655000  1.0
  H  H12  1  0.28822000  0.71616000  0.36429000  1.0
  H  H13  1  0.28822000  0.78384000  0.86429000  1.0
  H  H14  1  0.71180000  0.28384000  0.63570000  1.0
  H  H15  1  0.71178000  0.21615000  0.13571000  1.0
  H  H16  1  0.80930000  0.53445000  0.26465000  1.0
  H  H17  1  0.80929000  0.96555000  0.76466000  1.0
  H  H18  1  0.19072000  0.46554000  0.73534000  1.0
  H  H19  1  0.19070000  0.03445000  0.23535000  1.0
  H  H20  1  0.90507000  0.50539000  0.38673000  1.0
  H  H21  1  0.90506000  0.99461000  0.88673000  1.0
  H  H22  1  0.09494000  0.49460000  0.61327000  1.0
  H  H23  1  0.09493000  0.00539000  0.11327000  1.0
  H  H24  1  0.69105000  0.58230000  0.49764000  1.0
  H  H25  1  0.69105000  0.91770000  0.99764000  1.0
  H  H26  1  0.30895000  0.41770000  0.50236000  1.0
  H  H27  1  0.30894000  0.08230000  0.00237000  1.0
  H  H28  1  0.85455000  0.71140000  0.56801000  1.0
  H  H29  1  0.85455000  0.78861000  0.06802000  1.0
  H  H30  1  0.14545000  0.28860000  0.43198000  1.0
  H  H31  1  0.14544000  0.21140000  0.93198000  1.0
  H  H32  1  0.60244000  0.56905000  0.77177000  1.0
  H  H33  1  0.60243000  0.93095000  0.27178000  1.0
  H  H34  1  0.39757000  0.43095000  0.22823000  1.0
  H  H35  1  0.39757000  0.06906000  0.72823000  1.0
  H  H36  1  0.97135000  0.66558000  0.78119000  1.0
  H  H37  1  0.97135000  0.83442000  0.28120000  1.0
  H  H38  1  0.02867000  0.33442000  0.21881000  1.0
  H  H39  1  0.02865000  0.16558000  0.71880000  1.0
  H  H40  1  0.84450000  0.96199000  0.62851000  1.0
  H  H41  1  0.84451000  0.53801000  0.12851000  1.0
  H  H42  1  0.15549000  0.03800000  0.37148000  1.0
  H  H43  1  0.15549000  0.46199000  0.87149000  1.0
  H  H44  1  0.28361000  0.18195000  0.51588000  1.0
  H  H45  1  0.28360000  0.31806000  0.01588000  1.0
  H  H46  1  0.71639000  0.81806000  0.48413000  1.0
  H  H47  1  0.71639000  0.68194000  0.98413000  1.0
  H  H48  1  0.47049000  0.00007000  0.57069000  1.0
  H  H49  1  0.47050000  0.49993000  0.07069000  1.0
  H  H50  1  0.52950000  0.99993000  0.42931000  1.0
  H  H51  1  0.52950000  0.50007000  0.92931000  1.0
  C  C52  1  0.47642000  0.65556000  0.43827000  1.0
  C  C53  1  0.47641000  0.84444000  0.93827000  1.0
  C  C54  1  0.52359000  0.34443000  0.56172000  1.0
  C  C55  1  0.52358000  0.15557000  0.06173000  1.0
  C  C56  1  0.42378000  0.67071000  0.36953000  1.0
  C  C57  1  0.42377000  0.82929000  0.86953000  1.0
  C  C58  1  0.57623000  0.32928000  0.63046000  1.0
  C  C59  1  0.57622000  0.17072000  0.13047000  1.0
  C  C60  1  0.54319000  0.62819000  0.30700000  1.0
  C  C61  1  0.54319000  0.87180000  0.80700000  1.0
  C  C62  1  0.45681000  0.37180000  0.69299000  1.0
  C  C63  1  0.45680000  0.12820000  0.19300000  1.0
  C  C64  1  0.71703000  0.56830000  0.31350000  1.0
  C  C65  1  0.71701000  0.93170000  0.81350000  1.0
  C  C66  1  0.28298000  0.43169000  0.68650000  1.0
  C  C67  1  0.28297000  0.06830000  0.18651000  1.0
  C  C68  1  0.77032000  0.55229000  0.38191000  1.0
  C  C69  1  0.77031000  0.94771000  0.88192000  1.0
  C  C70  1  0.22969000  0.44771000  0.61808000  1.0
  C  C71  1  0.22968000  0.05229000  0.11809000  1.0
  C  C72  1  0.65075000  0.59571000  0.44415000  1.0
  C  C73  1  0.65074000  0.90429000  0.94415000  1.0
  C  C74  1  0.34926000  0.40428000  0.55584000  1.0
  C  C75  1  0.34925000  0.09572000  0.05585000  1.0
  C  C76  1  0.34664000  0.70700000  0.50307000  1.0
  C  C77  1  0.34663000  0.79299000  0.00308000  1.0
  C  C78  1  0.65338000  0.29299000  0.49692000  1.0
  C  C79  1  0.65336000  0.20701000  0.99693000  1.0
  C  C80  1  0.48206000  0.64483000  0.23386000  1.0
  C  C81  1  0.48205000  0.85517000  0.73386000  1.0
  C  C82  1  0.51795000  0.35517000  0.76614000  1.0
  C  C83  1  0.51794000  0.14483000  0.26614000  1.0
  C  C84  1  0.83783000  0.68586000  0.62442000  1.0
  C  C85  1  0.83782000  0.81414000  0.12443000  1.0
  C  C86  1  0.16218000  0.31413000  0.37558000  1.0
  C  C87  1  0.16217000  0.18586000  0.87558000  1.0
  C  C88  1  0.71066000  0.61169000  0.73149000  1.0
  C  C89  1  0.71066000  0.88831000  0.23150000  1.0
  C  C90  1  0.28936000  0.38831000  0.26850000  1.0
  C  C91  1  0.28934000  0.11170000  0.76850000  1.0
  C  C92  1  0.89246000  0.65945000  0.73546000  1.0
  C  C93  1  0.89246000  0.84055000  0.23546000  1.0
  C  C94  1  0.10755000  0.34055000  0.26453000  1.0
  C  C95  1  0.10755000  0.15945000  0.76453000  1.0
  C  C96  1  0.99063000  0.99604000  0.60533000  1.0
  C  C97  1  0.99063000  0.50396000  0.10534000  1.0
  C  C98  1  0.00937000  0.00395000  0.39467000  1.0
  C  C99  1  0.00937000  0.49604000  0.89466000  1.0
  C  C100  1  0.22286000  0.10977000  0.54729000  1.0
  C  C101  1  0.22286000  0.39024000  0.04728000  1.0
  C  C102  1  0.77714000  0.89024000  0.45272000  1.0
  C  C103  1  0.77713000  0.60976000  0.95272000  1.0
  C  C104  1  0.31379000  0.01964000  0.57372000  1.0
  C  C105  1  0.31379000  0.48036000  0.07372000  1.0
  C  C106  1  0.68622000  0.98035000  0.42628000  1.0
  C  C107  1  0.68621000  0.51964000  0.92628000  1.0
  N  N108  1  0.97034000  0.70512000  0.66818000  1.0
  N  N109  1  0.97034000  0.79488000  0.16818000  1.0
  N  N110  1  0.02967000  0.29487000  0.33182000  1.0
  N  N111  1  0.02965000  0.20512000  0.83182000  1.0
  N  N112  1  0.68056000  0.62895000  0.66096000  1.0
  N  N113  1  0.68056000  0.87106000  0.16096000  1.0
  N  N114  1  0.31944000  0.37105000  0.33904000  1.0
  N  N115  1  0.31943000  0.12895000  0.83904000  1.0
  N  N116  1  0.16752000  0.94918000  0.60962000  1.0
  N  N117  1  0.16752000  0.55082000  0.10962000  1.0
  N  N118  1  0.83248000  0.05082000  0.39038000  1.0
  N  N119  1  0.83248000  0.44918000  0.89038000  1.0
  N  N120  1  0.02040000  0.09385000  0.56825000  1.0
  N  N121  1  0.02040000  0.40616000  0.06825000  1.0
  N  N122  1  0.97959000  0.90615000  0.43175000  1.0
  N  N123  1  0.97959000  0.59384000  0.93175000  1.0
  O  O124  1  0.41401000  0.70799000  0.56411000  1.0
  O  O125  1  0.41401000  0.79201000  0.06412000  1.0
  O  O126  1  0.58599000  0.29201000  0.43588000  1.0
  O  O127  1  0.58599000  0.20800000  0.93589000  1.0
  O  O128  1  0.18068000  0.74905000  0.49624000  1.0
  O  O129  1  0.18068000  0.75095000  0.99625000  1.0
  O  O130  1  0.81933000  0.25095000  0.50375000  1.0
  O  O131  1  0.81931000  0.24905000  0.00376000  1.0
  O  O132  1  0.32957000  0.71008000  0.23337000  1.0
  O  O133  1  0.32955000  0.78993000  0.73338000  1.0
  O  O134  1  0.67045000  0.28993000  0.76662000  1.0
  O  O135  1  0.67044000  0.21007000  0.26662000  1.0
  O  O136  1  0.57422000  0.59529000  0.17870000  1.0
  O  O137  1  0.57422000  0.90470000  0.67870000  1.0
  O  O138  1  0.42579000  0.40471000  0.82129000  1.0
  O  O139  1  0.42578000  0.09529000  0.32130000  1.0
