# generated using pymatgen
data_CsH4C4IN2O3
_symmetry_space_group_name_H-M   'P 1'
_cell_length_a   7.33341000
_cell_length_b   7.49180000
_cell_length_c   9.37808000
_cell_angle_alpha   110.73000000
_cell_angle_beta   102.71000000
_cell_angle_gamma   93.80220000
_symmetry_Int_Tables_number   1
_chemical_formula_structural   CsH4C4IN2O3
_chemical_formula_sum   'Cs2 H8 C8 I2 N4 O6'
_cell_volume   464.16315970
_cell_formula_units_Z   2
loop_
 _symmetry_equiv_pos_site_id
 _symmetry_equiv_pos_as_xyz
  1  'x, y, z'
loop_
 _atom_site_type_symbol
 _atom_site_label
 _atom_site_symmetry_multiplicity
 _atom_site_fract_x
 _atom_site_fract_y
 _atom_site_fract_z
 _atom_site_occupancy
  Cs  Cs0  1  0.66715000  0.90681000  0.28517000  1.0
  Cs  Cs1  1  0.33285000  0.09319000  0.71483000  1.0
  H  H2  1  0.95311000  0.43338000  0.84657000  1.0
  H  H3  1  0.04689000  0.56662000  0.15343000  1.0
  H  H4  1  0.73224000  0.45469000  0.89230000  1.0
  H  H5  1  0.26776000  0.54531000  0.10770000  1.0
  H  H6  1  0.72839000  0.47824000  0.45162000  1.0
  H  H7  1  0.27161000  0.52176000  0.54838000  1.0
  H  H8  1  0.95536000  0.95738000  0.85889000  1.0
  H  H9  1  0.04464000  0.04262000  0.14111000  1.0
  C  C10  1  0.88461000  0.71476000  0.90503000  1.0
  C  C11  1  0.11539000  0.28524000  0.09497000  1.0
  C  C12  1  0.73414000  0.42029000  0.65420000  1.0
  C  C13  1  0.26585000  0.57971000  0.34580000  1.0
  C  C14  1  0.82389000  0.50030000  0.82902000  1.0
  C  C15  1  0.17610000  0.49969000  0.17098000  1.0
  C  C16  1  0.85728000  0.72730000  0.64452000  1.0
  C  C17  1  0.14271000  0.27270000  0.35549000  1.0
  I  I18  1  0.63962000  0.34178000  0.15590000  1.0
  I  I19  1  0.36038000  0.65821000  0.84410000  1.0
  N  N20  1  0.77099000  0.53618000  0.57476000  1.0
  N  N21  1  0.22901000  0.46382000  0.42524000  1.0
  N  N22  1  0.89458000  0.81173000  0.80748000  1.0
  N  N23  1  0.10542000  0.18827000  0.19252000  1.0
  O  O24  1  0.93031000  0.80100000  0.05102000  1.0
  O  O25  1  0.06969000  0.19900000  0.94898000  1.0
  O  O26  1  0.64132000  0.25643000  0.58299000  1.0
  O  O27  1  0.35867000  0.74357000  0.41701000  1.0
  O  O28  1  0.89547000  0.82044000  0.56680000  1.0
  O  O29  1  0.10453000  0.17957000  0.43320000  1.0
