# generated using pymatgen
data_InH11C8O5
_symmetry_space_group_name_H-M   'P 1'
_cell_length_a   7.19631000
_cell_length_b   8.66039000
_cell_length_c   9.71972000
_cell_angle_alpha   102.95100000
_cell_angle_beta   102.45500000
_cell_angle_gamma   99.90090000
_symmetry_Int_Tables_number   1
_chemical_formula_structural   InH11C8O5
_chemical_formula_sum   'In2 H22 C16 O10'
_cell_volume   560.80134371
_cell_formula_units_Z   2
loop_
 _symmetry_equiv_pos_site_id
 _symmetry_equiv_pos_as_xyz
  1  'x, y, z'
loop_
 _atom_site_type_symbol
 _atom_site_label
 _atom_site_symmetry_multiplicity
 _atom_site_fract_x
 _atom_site_fract_y
 _atom_site_fract_z
 _atom_site_occupancy
  In  In0  1  0.99999000  0.50000000  0.00000000  1.0
  In  In1  1  0.49999000  0.49999000  0.99999000  1.0
  H  H2  1  0.47917000  0.98065000  0.69875000  1.0
  H  H3  1  0.78710000  0.11723000  0.55544000  1.0
  H  H4  1  0.81038000  0.97762000  0.66149000  1.0
  H  H5  1  0.08141000  0.26672000  0.34125000  1.0
  H  H6  1  0.06021000  0.28611000  0.52252000  1.0
  H  H7  1  0.20004000  0.56322000  0.39345000  1.0
  H  H8  1  0.34941000  0.48960000  0.52204000  1.0
  H  H9  1  0.28897000  0.16456000  0.60812000  1.0
  H  H10  1  0.46601000  0.23053000  0.52048000  1.0
  H  H11  1  0.73686000  0.25091000  0.36736000  1.0
  H  H12  1  0.52085000  0.01937000  0.30124000  1.0
  H  H13  1  0.21293000  0.88277000  0.44456000  1.0
  H  H14  1  0.18964000  0.02239000  0.33851000  1.0
  H  H15  1  0.91857000  0.73329000  0.65874000  1.0
  H  H16  1  0.93978000  0.71387000  0.47747000  1.0
  H  H17  1  0.79996000  0.43678000  0.60657000  1.0
  H  H18  1  0.65057000  0.51040000  0.47797000  1.0
  H  H19  1  0.71106000  0.83547000  0.39187000  1.0
  H  H20  1  0.53402000  0.76948000  0.47951000  1.0
  H  H21  1  0.26312000  0.74908000  0.63266000  1.0
  H  H22  1  0.81177000  0.73641000  0.05776000  1.0
  H  H23  1  0.18822000  0.26359000  0.94222000  1.0
  C  C24  1  0.70363000  0.01632000  0.58490000  1.0
  C  C25  1  0.04993000  0.34688000  0.43379000  1.0
  C  C26  1  0.84044000  0.36928000  0.38957000  1.0
  C  C27  1  0.20206000  0.50931000  0.48593000  1.0
  C  C28  1  0.79343000  0.41342000  0.24403000  1.0
  C  C29  1  0.64171000  0.22331000  0.79344000  1.0
  C  C30  1  0.55395000  0.07807000  0.65979000  1.0
  C  C31  1  0.39645000  0.12478000  0.55193000  1.0
  C  C32  1  0.29639000  0.98371000  0.41510000  1.0
  C  C33  1  0.95007000  0.65312000  0.56621000  1.0
  C  C34  1  0.15955000  0.63072000  0.61044000  1.0
  C  C35  1  0.79792000  0.49070000  0.51408000  1.0
  C  C36  1  0.20654000  0.58656000  0.75598000  1.0
  C  C37  1  0.35830000  0.77670000  0.20657000  1.0
  C  C38  1  0.44605000  0.92194000  0.34020000  1.0
  C  C39  1  0.60358000  0.87524000  0.44805000  1.0
  O  O40  1  0.77239000  0.63045000  0.98579000  1.0
  O  O41  1  0.52797000  0.26424000  0.87180000  1.0
  O  O42  1  0.64015000  0.46796000  0.21373000  1.0
  O  O43  1  0.81992000  0.29598000  0.81550000  1.0
  O  O44  1  0.90652000  0.38717000  0.16146000  1.0
  O  O45  1  0.22761000  0.36953000  0.01421000  1.0
  O  O46  1  0.47205000  0.73575000  0.12820000  1.0
  O  O47  1  0.35982000  0.53201000  0.78627000  1.0
  O  O48  1  0.18010000  0.70403000  0.18451000  1.0
  O  O49  1  0.09346000  0.61282000  0.83855000  1.0
