# generated using pymatgen
data_TbH8C6O7
_symmetry_space_group_name_H-M   'P 1'
_cell_length_a   7.67464000
_cell_length_b   10.70484782
_cell_length_c   12.67800000
_cell_angle_alpha   71.95283960
_cell_angle_beta   72.39400000
_cell_angle_gamma   69.00881764
_symmetry_Int_Tables_number   1
_chemical_formula_structural   TbH8C6O7
_chemical_formula_sum   'Tb4 H32 C24 O28'
_cell_volume   902.83704096
_cell_formula_units_Z   4
loop_
 _symmetry_equiv_pos_site_id
 _symmetry_equiv_pos_as_xyz
  1  'x, y, z'
loop_
 _atom_site_type_symbol
 _atom_site_label
 _atom_site_symmetry_multiplicity
 _atom_site_fract_x
 _atom_site_fract_y
 _atom_site_fract_z
 _atom_site_occupancy
  Tb  Tb0  1  0.05486000  0.68983000  0.77082000  1.0
  Tb  Tb1  1  0.51551000  0.81009000  0.72926000  1.0
  Tb  Tb2  1  0.94515000  0.31016000  0.22918000  1.0
  Tb  Tb3  1  0.48449000  0.18991000  0.27074000  1.0
  H  H4  1  0.80804000  0.50259000  0.85460000  1.0
  H  H5  1  0.16524000  0.99734000  0.64539000  1.0
  H  H6  1  0.19196000  0.49741000  0.14540000  1.0
  H  H7  1  0.83476000  0.00266000  0.35461000  1.0
  H  H8  1  0.99451000  0.42035000  0.91236000  1.0
  H  H9  1  0.32723000  0.07960000  0.58771000  1.0
  H  H10  1  0.00548000  0.57965000  0.08764000  1.0
  H  H11  1  0.67277000  0.92040000  0.41229000  1.0
  H  H12  1  0.48692000  0.86484000  0.04149000  1.0
  H  H13  1  0.39296000  0.63519000  0.45855000  1.0
  H  H14  1  0.51308000  0.13516000  0.95851000  1.0
  H  H15  1  0.60704000  0.36481000  0.54146000  1.0
  H  H16  1  0.62861000  0.74267000  0.13846000  1.0
  H  H17  1  0.50954000  0.75735000  0.36163000  1.0
  H  H18  1  0.37139000  0.25733000  0.86154000  1.0
  H  H19  1  0.49046000  0.24265000  0.63837000  1.0
  H  H20  1  0.40371000  0.66678000  0.01442000  1.0
  H  H21  1  0.08479000  0.83327000  0.48549000  1.0
  H  H22  1  0.59629000  0.33322000  0.98558000  1.0
  H  H23  1  0.91521000  0.16673000  0.51451000  1.0
  H  H24  1  0.30837000  0.70334000  0.14959000  1.0
  H  H25  1  0.16128000  0.79677000  0.35028000  1.0
  H  H26  1  0.69163000  0.29666000  0.85041000  1.0
  H  H27  1  0.83871000  0.20323000  0.64972000  1.0
  H  H28  1  0.84199000  0.63581000  0.47090000  1.0
  H  H29  1  0.94869000  0.86420000  0.02898000  1.0
  H  H30  1  0.15801000  0.36419000  0.52910000  1.0
  H  H31  1  0.05130000  0.13580000  0.97101000  1.0
  H  H32  1  0.80619000  0.49850000  0.58381000  1.0
  H  H33  1  0.88845000  0.00160000  0.91614000  1.0
  H  H34  1  0.19381000  0.50150000  0.41619000  1.0
  H  H35  1  0.11155000  0.99840000  0.08386000  1.0
  C  C36  1  0.73862000  0.73289000  0.96445000  1.0
  C  C37  1  0.43590000  0.76707000  0.53564000  1.0
  C  C38  1  0.26138000  0.26711000  0.03555000  1.0
  C  C39  1  0.56410000  0.23293000  0.46436000  1.0
  C  C40  1  0.57241000  0.75726000  0.06426000  1.0
  C  C41  1  0.39371000  0.74276000  0.43580000  1.0
  C  C42  1  0.42759000  0.24274000  0.93574000  1.0
  C  C43  1  0.60629000  0.25724000  0.56420000  1.0
  C  C44  1  0.44381000  0.66486000  0.09128000  1.0
  C  C45  1  0.19989000  0.83518000  0.40868000  1.0
  C  C46  1  0.55619000  0.33514000  0.90872000  1.0
  C  C47  1  0.80011000  0.16482000  0.59132000  1.0
  C  C48  1  0.53295000  0.51534000  0.14516000  1.0
  C  C49  1  0.19352000  0.98473000  0.35484000  1.0
  C  C50  1  0.46706000  0.48466000  0.85484000  1.0
  C  C51  1  0.80648000  0.01527000  0.64516000  1.0
  C  C52  1  0.97176000  0.60531000  0.60606000  1.0
  C  C53  1  0.18310000  0.89480000  0.89390000  1.0
  C  C54  1  0.02824000  0.39469000  0.39393000  1.0
  C  C55  1  0.81690000  0.10520000  0.10610000  1.0
  C  C56  1  0.91597000  0.54904000  0.53059000  1.0
  C  C57  1  0.99555000  0.95103000  0.96935000  1.0
  C  C58  1  0.08403000  0.45096000  0.46941000  1.0
  C  C59  1  0.00445000  0.04897000  0.03065000  1.0
  O  O60  1  0.91061000  0.68335000  0.97638000  1.0
  O  O61  1  0.57026000  0.81669000  0.52364000  1.0
  O  O62  1  0.08939000  0.31665000  0.02362000  1.0
  O  O63  1  0.42974000  0.18331000  0.47636000  1.0
  O  O64  1  0.70922000  0.76572000  0.86340000  1.0
  O  O65  1  0.33843000  0.73419000  0.63671000  1.0
  O  O66  1  0.29078000  0.23428000  0.13660000  1.0
  O  O67  1  0.66157000  0.26581000  0.36329000  1.0
  O  O68  1  0.43267000  0.43229000  0.17191000  1.0
  O  O69  1  0.03693000  0.06787000  0.32820000  1.0
  O  O70  1  0.56733000  0.56771000  0.82809000  1.0
  O  O71  1  0.96307000  0.93213000  0.67180000  1.0
  O  O72  1  0.70056000  0.48251000  0.15977000  1.0
  O  O73  1  0.34303000  0.01746000  0.34014000  1.0
  O  O74  1  0.29945000  0.51748000  0.84023000  1.0
  O  O75  1  0.65697000  0.98254000  0.65986000  1.0
  O  O76  1  0.84229000  0.69503000  0.65946000  1.0
  O  O77  1  0.19681000  0.80496000  0.84056000  1.0
  O  O78  1  0.15772000  0.30497000  0.34054000  1.0
  O  O79  1  0.80320000  0.19504000  0.15944000  1.0
  O  O80  1  0.14136000  0.56772000  0.61843000  1.0
  O  O81  1  0.32745000  0.93241000  0.88159000  1.0
  O  O82  1  0.85864000  0.43228000  0.38157000  1.0
  O  O83  1  0.67255000  0.06759000  0.11841000  1.0
  O  O84  1  0.94586000  0.48825000  0.84607000  1.0
  O  O85  1  0.28009000  0.01176000  0.65400000  1.0
  O  O86  1  0.05413000  0.51176000  0.15394000  1.0
  O  O87  1  0.71991000  0.98824000  0.34600000  1.0
