# generated using pymatgen
data_HgH8C11I3N3O
_symmetry_space_group_name_H-M   'P 1'
_cell_length_a   6.71715000
_cell_length_b   7.62278811
_cell_length_c   17.80420000
_cell_angle_alpha   102.17830631
_cell_angle_beta   90.06330000
_cell_angle_gamma   116.12226915
_symmetry_Int_Tables_number   1
_chemical_formula_structural   HgH8C11I3N3O
_chemical_formula_sum   'Hg2 H16 C22 I6 N6 O2'
_cell_volume   795.49715127
_cell_formula_units_Z   2
loop_
 _symmetry_equiv_pos_site_id
 _symmetry_equiv_pos_as_xyz
  1  'x, y, z'
loop_
 _atom_site_type_symbol
 _atom_site_label
 _atom_site_symmetry_multiplicity
 _atom_site_fract_x
 _atom_site_fract_y
 _atom_site_fract_z
 _atom_site_occupancy
  Hg  Hg0  1  0.15637000  0.31407000  0.44580000  1.0
  Hg  Hg1  1  0.84361000  0.68592000  0.55420000  1.0
  H  H2  1  0.48372000  0.96467000  0.31382000  1.0
  H  H3  1  0.51626000  0.03532000  0.68618000  1.0
  H  H4  1  0.38476000  0.76831000  0.41729000  1.0
  H  H5  1  0.61525000  0.23170000  0.58272000  1.0
  H  H6  1  0.11603000  0.23314000  0.24721000  1.0
  H  H7  1  0.88398000  0.76686000  0.75279000  1.0
  H  H8  1  0.40275000  0.80432000  0.99768000  1.0
  H  H9  1  0.59726000  0.19568000  0.00232000  1.0
  H  H10  1  0.20627000  0.40996000  0.76897000  1.0
  H  H11  1  0.79373000  0.59005000  0.23103000  1.0
  H  H12  1  0.05792000  0.11468000  0.82851000  1.0
  H  H13  1  0.94207000  0.88532000  0.17149000  1.0
  H  H14  1  0.07980000  0.16031000  0.97003000  1.0
  H  H15  1  0.92019000  0.83969000  0.02997000  1.0
  H  H16  1  0.33807000  0.67539000  0.10209000  1.0
  H  H17  1  0.66192000  0.32461000  0.89790000  1.0
  C  C18  1  0.40124000  0.80078000  0.29854000  1.0
  C  C19  1  0.59876000  0.19923000  0.70146000  1.0
  C  C20  1  0.34681000  0.69274000  0.35605000  1.0
  C  C21  1  0.65318000  0.30725000  0.64395000  1.0
  C  C22  1  0.19819000  0.39689000  0.26234000  1.0
  C  C23  1  0.80182000  0.60311000  0.73766000  1.0
  C  C24  1  0.25293000  0.50646000  0.20526000  1.0
  C  C25  1  0.74708000  0.49354000  0.79473000  1.0
  C  C26  1  0.19804000  0.39777000  0.12118000  1.0
  C  C27  1  0.80194000  0.60223000  0.87882000  1.0
  C  C28  1  0.24299000  0.48578000  0.99288000  1.0
  C  C29  1  0.75701000  0.51422000  0.00711000  1.0
  C  C30  1  0.32727000  0.65357000  0.96000000  1.0
  C  C31  1  0.67275000  0.34644000  0.04000000  1.0
  C  C32  1  0.31324000  0.62493000  0.88005000  1.0
  C  C33  1  0.68676000  0.37507000  0.11995000  1.0
  C  C34  1  0.21675000  0.43180000  0.83157000  1.0
  C  C35  1  0.78324000  0.56820000  0.16843000  1.0
  C  C36  1  0.13392000  0.26669000  0.86516000  1.0
  C  C37  1  0.86608000  0.73331000  0.13483000  1.0
  C  C38  1  0.14525000  0.29052000  0.94512000  1.0
  C  C39  1  0.85473000  0.70947000  0.05488000  1.0
  I  I40  1  0.31829000  0.63673000  0.56858000  1.0
  I  I41  1  0.68171000  0.36326000  0.43142000  1.0
  I  I42  1  0.96376000  0.92599000  0.37282000  1.0
  I  I43  1  0.03624000  0.07401000  0.62718000  1.0
  I  I44  1  0.44098000  0.88045000  0.83317000  1.0
  I  I45  1  0.55905000  0.11955000  0.16683000  1.0
  N  N46  1  0.35473000  0.70888000  0.22385000  1.0
  N  N47  1  0.64526000  0.29112000  0.77616000  1.0
  N  N48  1  0.24598000  0.49204000  0.33749000  1.0
  N  N49  1  0.75402000  0.50796000  0.66251000  1.0
  N  N50  1  0.26336000  0.52706000  0.07353000  1.0
  N  N51  1  0.73665000  0.47295000  0.92647000  1.0
  O  O52  1  0.10440000  0.21198000  0.10145000  1.0
  O  O53  1  0.89561000  0.78802000  0.89855000  1.0
