# generated using pymatgen
data_ZnH32C30NO7
_symmetry_space_group_name_H-M   'P 1'
_cell_length_a   10.73270000
_cell_length_b   18.20896110
_cell_length_c   19.48590000
_cell_angle_alpha   89.03884263
_cell_angle_beta   89.30580000
_cell_angle_gamma   74.27637504
_symmetry_Int_Tables_number   1
_chemical_formula_structural   ZnH32C30NO7
_chemical_formula_sum   'Zn2 H64 C60 N2 O14'
_cell_volume   3665.02512574
_cell_formula_units_Z   2
loop_
 _symmetry_equiv_pos_site_id
 _symmetry_equiv_pos_as_xyz
  1  'x, y, z'
loop_
 _atom_site_type_symbol
 _atom_site_label
 _atom_site_symmetry_multiplicity
 _atom_site_fract_x
 _atom_site_fract_y
 _atom_site_fract_z
 _atom_site_occupancy
  Zn  Zn0  1  0.06130000  0.41815000  0.49952000  1.0
  Zn  Zn1  1  0.93152000  0.58098000  0.50176000  1.0
  H  H2  1  0.59182000  0.54829000  0.51425000  1.0
  H  H3  1  0.41325000  0.43858000  0.50129000  1.0
  H  H4  1  0.27950000  0.16327000  0.38940000  1.0
  H  H5  1  0.85056000  0.86580000  0.54402000  1.0
  H  H6  1  0.41331000  0.18808000  0.59383000  1.0
  H  H7  1  0.52276000  0.80215000  0.46091000  1.0
  H  H8  1  0.57218000  0.10320000  0.56746000  1.0
  H  H9  1  0.46142000  0.90873000  0.42651000  1.0
  H  H10  1  0.65437000  0.37479000  0.49192000  1.0
  H  H11  1  0.34823000  0.61292000  0.51811000  1.0
  H  H12  1  0.91454000  0.61757000  0.14626000  1.0
  H  H13  1  0.93524000  0.36850000  0.84215000  1.0
  H  H14  1  0.91386000  0.38149000  0.17114000  1.0
  H  H15  1  0.85556000  0.61417000  0.84189000  1.0
  H  H16  1  0.96156000  0.38919000  0.29503000  1.0
  H  H17  1  0.88561000  0.61171000  0.71527000  1.0
  H  H18  1  0.02862000  0.38331000  0.06636000  1.0
  H  H19  1  0.74765000  0.60153000  0.93671000  1.0
  H  H20  1  0.02420000  0.38032000  0.94015000  1.0
  H  H21  1  0.75512000  0.60539000  0.06303000  1.0
  H  H22  1  0.13643000  0.29642000  0.39870000  1.0
  H  H23  1  0.96968000  0.72740000  0.54284000  1.0
  H  H24  1  0.47515000  0.29379000  0.62430000  1.0
  H  H25  1  0.35728000  0.27458000  0.68295000  1.0
  H  H26  1  0.38818000  0.43380000  0.64867000  1.0
  H  H27  1  0.28010000  0.41239000  0.71011000  1.0
  H  H28  1  0.47305000  0.33277000  0.77834000  1.0
  H  H29  1  0.48064000  0.42835000  0.76755000  1.0
  H  H30  1  0.57948000  0.35580000  0.71609000  1.0
  H  H31  1  0.72695000  0.66220000  0.35131000  1.0
  H  H32  1  0.56134000  0.71693000  0.36221000  1.0
  H  H33  1  0.66114000  0.54262000  0.37094000  1.0
  H  H34  1  0.49775000  0.59552000  0.38166000  1.0
  H  H35  1  0.49648000  0.64697000  0.25949000  1.0
  H  H36  1  0.53634000  0.54581000  0.26163000  1.0
  H  H37  1  0.66024000  0.59246000  0.24900000  1.0
  H  H38  1  0.79875000  0.91260000  0.67463000  1.0
  H  H39  1  0.66286000  0.88615000  0.64244000  1.0
  H  H40  1  0.65469000  0.03734000  0.71249000  1.0
  H  H41  1  0.51832000  0.01339000  0.67902000  1.0
  H  H42  1  0.55360000  0.90127000  0.76179000  1.0
  H  H43  1  0.53410000  0.98788000  0.80639000  1.0
  H  H44  1  0.69065000  0.92459000  0.79565000  1.0
  H  H45  1  0.10690000  0.08434000  0.40698000  1.0
  H  H46  1  0.17077000  0.08616000  0.49049000  1.0
  H  H47  1  0.14834000  0.94263000  0.41657000  1.0
  H  H48  1  0.21350000  0.94335000  0.49949000  1.0
  H  H49  1  0.99738000  0.02554000  0.54219000  1.0
  H  H50  1  0.98001000  0.93988000  0.50685000  1.0
  H  H51  1  0.93196000  0.02629000  0.45897000  1.0
  H  H52  1  0.14556000  0.64679000  0.25420000  1.0
  H  H53  1  0.12189000  0.59320000  0.32862000  1.0
  H  H54  1  0.00877000  0.76564000  0.30998000  1.0
  H  H55  1  0.98901000  0.71015000  0.38295000  1.0
  H  H56  1  0.22715000  0.67468000  0.40491000  1.0
  H  H57  1  0.16580000  0.77532000  0.40184000  1.0
  H  H58  1  0.25330000  0.72680000  0.33040000  1.0
  H  H59  1  0.84887000  0.37858000  0.63475000  1.0
  H  H60  1  0.80538000  0.32306000  0.70315000  1.0
  H  H61  1  0.02978000  0.27148000  0.60064000  1.0
  H  H62  1  0.00218000  0.21548000  0.67163000  1.0
  H  H63  1  0.78031000  0.21975000  0.62201000  1.0
  H  H64  1  0.90882000  0.17673000  0.56507000  1.0
  H  H65  1  0.81789000  0.27228000  0.54996000  1.0
  C  C66  1  0.96172000  0.49635000  0.63249000  1.0
  C  C67  1  0.98639000  0.50474000  0.36679000  1.0
  C  C68  1  0.96381000  0.50612000  0.29081000  1.0
  C  C69  1  0.93122000  0.49070000  0.70752000  1.0
  C  C70  1  0.96528000  0.43088000  0.03809000  1.0
  C  C71  1  0.81124000  0.55390000  0.96481000  1.0
  C  C72  1  0.96255000  0.42920000  0.96685000  1.0
  C  C73  1  0.81503000  0.55601000  0.03610000  1.0
  C  C74  1  0.88741000  0.49119000  0.92842000  1.0
  C  C75  1  0.89401000  0.49509000  0.07416000  1.0
  C  C76  1  0.20194000  0.26987000  0.43994000  1.0
  C  C77  1  0.87029000  0.74778000  0.52473000  1.0
  C  C78  1  0.28035000  0.19586000  0.43543000  1.0
  C  C79  1  0.80325000  0.82436000  0.52551000  1.0
  C  C80  1  0.35697000  0.16320000  0.49215000  1.0
  C  C81  1  0.67393000  0.84762000  0.50274000  1.0
  C  C82  1  0.35768000  0.21026000  0.54823000  1.0
  C  C83  1  0.62251000  0.79026000  0.47792000  1.0
  C  C84  1  0.28239000  0.28622000  0.54653000  1.0
  C  C85  1  0.69849000  0.71485000  0.47557000  1.0
  C  C86  1  0.54303000  0.06073000  0.53749000  1.0
  C  C87  1  0.48585000  0.94995000  0.46001000  1.0
  C  C88  1  0.20101000  0.54904000  0.50685000  1.0
  C  C89  1  0.80295000  0.43835000  0.49638000  1.0
  C  C90  1  0.61964000  0.98584000  0.54373000  1.0
  C  C91  1  0.40543000  0.02402000  0.45630000  1.0
  C  C92  1  0.59441000  0.92784000  0.50291000  1.0
  C  C93  1  0.43474000  0.08270000  0.49447000  1.0
  C  C94  1  0.33473000  0.55610000  0.51198000  1.0
  C  C95  1  0.66893000  0.43124000  0.49885000  1.0
  C  C96  1  0.43593000  0.49312000  0.50771000  1.0
  C  C97  1  0.56881000  0.49384000  0.50832000  1.0
  C  C98  1  0.94848000  0.57121000  0.24768000  1.0
  C  C99  1  0.94369000  0.42161000  0.74482000  1.0
  C  C100  1  0.92093000  0.56692000  0.17814000  1.0
  C  C101  1  0.92530000  0.42316000  0.81601000  1.0
  C  C102  1  0.90996000  0.49913000  0.14899000  1.0
  C  C103  1  0.89482000  0.49138000  0.85276000  1.0
  C  C104  1  0.92456000  0.43462000  0.19203000  1.0
  C  C105  1  0.87752000  0.56000000  0.81515000  1.0
  C  C106  1  0.95113000  0.43873000  0.26119000  1.0
  C  C107  1  0.89519000  0.55895000  0.74449000  1.0
  C  C108  1  0.37915000  0.31801000  0.64815000  1.0
  C  C109  1  0.37614000  0.39043000  0.68625000  1.0
  C  C110  1  0.48300000  0.37591000  0.73998000  1.0
  C  C111  1  0.63350000  0.66288000  0.37567000  1.0
  C  C112  1  0.58853000  0.59480000  0.35447000  1.0
  C  C113  1  0.56941000  0.59516000  0.27684000  1.0
  C  C114  1  0.70140000  0.93509000  0.65313000  1.0
  C  C115  1  0.61340000  0.98933000  0.70293000  1.0
  C  C116  1  0.59704000  0.94854000  0.77035000  1.0
  C  C117  1  0.17525000  0.05070000  0.44474000  1.0
  C  C118  1  0.14141000  0.97691000  0.46319000  1.0
  C  C119  1  0.00552000  0.99303000  0.49453000  1.0
  C  C120  1  0.07908000  0.64455000  0.29754000  1.0
  C  C121  1  0.05637000  0.71510000  0.34129000  1.0
  C  C122  1  0.18288000  0.72342000  0.37108000  1.0
  C  C123  1  0.88675000  0.33156000  0.67141000  1.0
  C  C124  1  0.95397000  0.25921000  0.63371000  1.0
  C  C125  1  0.85959000  0.23043000  0.59040000  1.0
  N  N126  1  0.20025000  0.31418000  0.49468000  1.0
  N  N127  1  0.81943000  0.69337000  0.50029000  1.0
  O  O128  1  0.01683000  0.43499000  0.60171000  1.0
  O  O129  1  0.94821000  0.56801000  0.39805000  1.0
  O  O130  1  0.93184000  0.56333000  0.60574000  1.0
  O  O131  1  0.03914000  0.44003000  0.39409000  1.0
  O  O132  1  0.18993000  0.48177000  0.50041000  1.0
  O  O133  1  0.81581000  0.50567000  0.49917000  1.0
  O  O134  1  0.10708000  0.60971000  0.50829000  1.0
  O  O135  1  0.89643000  0.37763000  0.49208000  1.0
  O  O136  1  0.28295000  0.33737000  0.59498000  1.0
  O  O137  1  0.65191000  0.65892000  0.45007000  1.0
  O  O138  1  0.72167000  0.97221000  0.58909000  1.0
  O  O139  1  0.30177000  0.03719000  0.41229000  1.0
  O  O140  1  0.95677000  0.64113000  0.26942000  1.0
  O  O141  1  0.97913000  0.35014000  0.71653000  1.0
