# generated using pymatgen
data_ZnH6C12SN2O9
_symmetry_space_group_name_H-M   'P 1'
_cell_length_a   9.68705000
_cell_length_b   10.88660000
_cell_length_c   10.89250000
_cell_angle_alpha   91.95350000
_cell_angle_beta   89.99930000
_cell_angle_gamma   89.99990000
_symmetry_Int_Tables_number   1
_chemical_formula_structural   ZnH6C12SN2O9
_chemical_formula_sum   'Zn2 H12 C24 S2 N4 O18'
_cell_volume   1148.04497011
_cell_formula_units_Z   2
loop_
 _symmetry_equiv_pos_site_id
 _symmetry_equiv_pos_as_xyz
  1  'x, y, z'
loop_
 _atom_site_type_symbol
 _atom_site_label
 _atom_site_symmetry_multiplicity
 _atom_site_fract_x
 _atom_site_fract_y
 _atom_site_fract_z
 _atom_site_occupancy
  Zn  Zn0  1  0.36120000  0.49999000  0.50000000  1.0
  Zn  Zn1  1  0.65239000  0.50000000  0.50000000  1.0
  H  H2  1  0.72052000  0.88399000  0.51352000  1.0
  H  H3  1  0.72052000  0.11600000  0.48651000  1.0
  H  H4  1  0.73270000  0.51348000  0.11510000  1.0
  H  H5  1  0.73269000  0.48652000  0.88489000  1.0
  H  H6  1  0.28969000  0.48848000  0.88463000  1.0
  H  H7  1  0.28969000  0.51154000  0.11537000  1.0
  H  H8  1  0.87508000  0.38220000  0.64573000  1.0
  H  H9  1  0.87509000  0.61781000  0.35427000  1.0
  H  H10  1  0.13978000  0.38348000  0.64664000  1.0
  H  H11  1  0.13979000  0.61652000  0.35336000  1.0
  H  H12  1  0.07317000  0.85896000  0.82516000  1.0
  H  H13  1  0.07319000  0.14104000  0.17483000  1.0
  C  C14  1  0.51141000  0.52685000  0.26496000  1.0
  C  C15  1  0.51141000  0.47315000  0.73503000  1.0
  C  C16  1  0.50443000  0.73926000  0.53869000  1.0
  C  C17  1  0.50443000  0.26073000  0.46131000  1.0
  C  C18  1  0.24717000  0.90027000  0.58151000  1.0
  C  C19  1  0.24718000  0.09973000  0.41850000  1.0
  C  C20  1  0.12583000  0.95471000  0.54544000  1.0
  C  C21  1  0.12584000  0.04530000  0.45457000  1.0
  C  C22  1  0.37479000  0.05827000  0.47119000  1.0
  C  C23  1  0.37479000  0.94173000  0.52882000  1.0
  C  C24  1  0.50290000  0.87670000  0.53393000  1.0
  C  C25  1  0.50291000  0.12329000  0.46608000  1.0
  C  C26  1  0.62528000  0.93689000  0.51133000  1.0
  C  C27  1  0.62528000  0.06310000  0.48869000  1.0
  C  C28  1  0.63641000  0.50780000  0.06357000  1.0
  C  C29  1  0.63641000  0.49221000  0.93642000  1.0
  C  C30  1  0.51123000  0.48470000  0.87205000  1.0
  C  C31  1  0.51123000  0.51530000  0.12794000  1.0
  C  C32  1  0.38593000  0.49277000  0.93635000  1.0
  C  C33  1  0.38594000  0.50724000  0.06365000  1.0
  C  C34  1  0.93562000  0.43425000  0.58107000  1.0
  C  C35  1  0.93563000  0.56576000  0.41893000  1.0
  C  C36  1  0.07926000  0.43467000  0.58129000  1.0
  C  C37  1  0.07927000  0.56533000  0.41871000  1.0
  S  S38  1  0.25414000  0.81124000  0.72275000  1.0
  S  S39  1  0.25418000  0.18873000  0.27724000  1.0
  N  N40  1  0.14941000  0.50000000  0.50000000  1.0
  N  N41  1  0.86527000  0.50000000  0.50000000  1.0
  N  N42  1  0.99203000  0.93211000  0.60486000  1.0
  N  N43  1  0.99204000  0.06790000  0.39514000  1.0
  O  O44  1  0.39458000  0.52629000  0.31867000  1.0
  O  O45  1  0.39457000  0.47370000  0.68132000  1.0
  O  O46  1  0.62838000  0.53424000  0.31885000  1.0
  O  O47  1  0.62838000  0.46577000  0.68114000  1.0
  O  O48  1  0.38662000  0.68749000  0.52843000  1.0
  O  O49  1  0.38662000  0.31250000  0.47157000  1.0
  O  O50  1  0.62028000  0.68610000  0.54291000  1.0
  O  O51  1  0.62029000  0.31390000  0.45709000  1.0
  O  O52  1  0.18351000  0.69560000  0.71298000  1.0
  O  O53  1  0.39164000  0.82373000  0.76918000  1.0
  O  O54  1  0.16039000  0.90175000  0.81035000  1.0
  O  O55  1  0.18354000  0.30440000  0.28700000  1.0
  O  O56  1  0.39165000  0.17622000  0.23082000  1.0
  O  O57  1  0.16039000  0.09823000  0.18965000  1.0
  O  O58  1  0.95541000  0.82469000  0.61869000  1.0
  O  O59  1  0.92506000  0.02508000  0.63685000  1.0
  O  O60  1  0.95543000  0.17532000  0.38131000  1.0
  O  O61  1  0.92507000  0.97493000  0.36315000  1.0
