# generated using pymatgen
data_AgH6(C5N)2
_symmetry_space_group_name_H-M   'P 1'
_cell_length_a   5.42712000
_cell_length_b   7.62471000
_cell_length_c   19.25780000
_cell_angle_alpha   81.92490000
_cell_angle_beta   89.99950000
_cell_angle_gamma   89.99870000
_symmetry_Int_Tables_number   1
_chemical_formula_structural   AgH6(C5N)2
_chemical_formula_sum   'Ag4 H24 C40 N8'
_cell_volume   788.99058170
_cell_formula_units_Z   4
loop_
 _symmetry_equiv_pos_site_id
 _symmetry_equiv_pos_as_xyz
  1  'x, y, z'
loop_
 _atom_site_type_symbol
 _atom_site_label
 _atom_site_symmetry_multiplicity
 _atom_site_fract_x
 _atom_site_fract_y
 _atom_site_fract_z
 _atom_site_occupancy
  Ag  Ag0  1  0.18185000  0.80797000  0.27811000  1.0
  Ag  Ag1  1  0.68186000  0.69202000  0.22188000  1.0
  Ag  Ag2  1  0.81815000  0.19202000  0.72188000  1.0
  Ag  Ag3  1  0.31814000  0.30796000  0.77811000  1.0
  H  H4  1  0.15618000  0.24344000  0.18602000  1.0
  H  H5  1  0.65618000  0.25656000  0.31399000  1.0
  H  H6  1  0.84385000  0.75656000  0.81398000  1.0
  H  H7  1  0.34381000  0.74343000  0.68602000  1.0
  H  H8  1  0.75375000  0.01268000  0.08024000  1.0
  H  H9  1  0.25373000  0.48735000  0.41977000  1.0
  H  H10  1  0.24626000  0.98732000  0.91976000  1.0
  H  H11  1  0.74627000  0.51268000  0.58023000  1.0
  H  H12  1  0.80203000  0.16976000  0.93881000  1.0
  H  H13  1  0.30199000  0.33024000  0.56118000  1.0
  H  H14  1  0.19798000  0.83024000  0.06119000  1.0
  H  H15  1  0.69797000  0.66975000  0.43882000  1.0
  H  H16  1  0.10264000  0.13672000  0.03729000  1.0
  H  H17  1  0.60262000  0.36329000  0.46270000  1.0
  H  H18  1  0.89737000  0.86329000  0.96270000  1.0
  H  H19  1  0.39735000  0.63670000  0.53730000  1.0
  H  H20  1  0.81655000  0.36150000  0.15655000  1.0
  H  H21  1  0.31655000  0.13850000  0.34345000  1.0
  H  H22  1  0.18347000  0.63850000  0.84345000  1.0
  H  H23  1  0.68342000  0.86151000  0.65655000  1.0
  H  H24  1  0.15575000  0.58067000  0.15848000  1.0
  H  H25  1  0.65573000  0.91931000  0.34153000  1.0
  H  H26  1  0.84427000  0.41933000  0.84152000  1.0
  H  H27  1  0.34422000  0.08068000  0.65848000  1.0
  C  C28  1  0.30001000  0.16206000  0.16805000  1.0
  C  C29  1  0.80001000  0.33794000  0.33196000  1.0
  C  C30  1  0.70002000  0.83793000  0.83195000  1.0
  C  C31  1  0.19999000  0.66206000  0.66805000  1.0
  C  C32  1  0.46245000  0.19852000  0.11082000  1.0
  C  C33  1  0.96244000  0.30149000  0.38918000  1.0
  C  C34  1  0.53758000  0.80148000  0.88918000  1.0
  C  C35  1  0.03755000  0.69851000  0.61082000  1.0
  C  C36  1  0.60654000  0.04453000  0.11434000  1.0
  C  C37  1  0.10652000  0.45547000  0.38567000  1.0
  C  C38  1  0.39348000  0.95546000  0.88566000  1.0
  C  C39  1  0.89347000  0.54453000  0.61433000  1.0
  C  C40  1  0.95445000  0.26274000  0.93969000  1.0
  C  C41  1  0.45439000  0.23727000  0.56030000  1.0
  C  C42  1  0.04558000  0.73726000  0.06030000  1.0
  C  C43  1  0.54557000  0.76273000  0.43970000  1.0
  C  C44  1  0.11966000  0.24520000  0.99429000  1.0
  C  C45  1  0.61962000  0.25480000  0.50571000  1.0
  C  C46  1  0.88039000  0.75480000  0.00571000  1.0
  C  C47  1  0.38035000  0.74519000  0.49429000  1.0
  C  C48  1  0.31422000  0.36964000  0.99806000  1.0
  C  C49  1  0.81419000  0.13036000  0.50194000  1.0
  C  C50  1  0.68581000  0.63036000  0.00194000  1.0
  C  C51  1  0.18577000  0.86964000  0.49806000  1.0
  C  C52  1  0.47789000  0.35428000  0.05568000  1.0
  C  C53  1  0.97786000  0.14572000  0.44431000  1.0
  C  C54  1  0.52214000  0.64572000  0.94431000  1.0
  C  C55  1  0.02211000  0.85429000  0.55569000  1.0
  C  C56  1  0.66298000  0.48380000  0.05808000  1.0
  C  C57  1  0.16294000  0.01619000  0.44192000  1.0
  C  C58  1  0.33703000  0.51621000  0.94192000  1.0
  C  C59  1  0.83702000  0.98380000  0.55807000  1.0
  C  C60  1  0.83425000  0.47289000  0.11475000  1.0
  C  C61  1  0.33424000  0.02711000  0.38526000  1.0
  C  C62  1  0.16576000  0.52713000  0.88526000  1.0
  C  C63  1  0.66572000  0.97288000  0.61474000  1.0
  C  C64  1  0.02169000  0.59463000  0.11579000  1.0
  C  C65  1  0.52168000  0.90536000  0.38422000  1.0
  C  C66  1  0.97834000  0.40537000  0.88422000  1.0
  C  C67  1  0.47829000  0.09463000  0.61578000  1.0
  N  N68  1  0.34501000  0.99861000  0.20249000  1.0
  N  N69  1  0.84501000  0.50140000  0.29751000  1.0
  N  N70  1  0.65501000  0.00139000  0.79750000  1.0
  N  N71  1  0.15499000  0.49860000  0.70249000  1.0
  N  N72  1  0.53384000  0.92587000  0.16908000  1.0
  N  N73  1  0.03383000  0.57414000  0.33092000  1.0
  N  N74  1  0.46618000  0.07413000  0.83092000  1.0
  N  N75  1  0.96618000  0.42587000  0.66907000  1.0
