# generated using pymatgen
data_CdH24C34(BrN6)2
_symmetry_space_group_name_H-M   'P 1'
_cell_length_a   8.21066000
_cell_length_b   8.56884000
_cell_length_c   13.10590000
_cell_angle_alpha   99.34000000
_cell_angle_beta   97.77180000
_cell_angle_gamma   113.85000000
_symmetry_Int_Tables_number   1
_chemical_formula_structural   CdH24C34(BrN6)2
_chemical_formula_sum   'Cd1 H24 C34 Br2 N12'
_cell_volume   811.28735362
_cell_formula_units_Z   1
loop_
 _symmetry_equiv_pos_site_id
 _symmetry_equiv_pos_as_xyz
  1  'x, y, z'
loop_
 _atom_site_type_symbol
 _atom_site_label
 _atom_site_symmetry_multiplicity
 _atom_site_fract_x
 _atom_site_fract_y
 _atom_site_fract_z
 _atom_site_occupancy
  Cd  Cd0  1  0.50000000  0.50000000  0.50000000  1.0
  H  H1  1  0.48166000  0.30635000  0.10813000  1.0
  H  H2  1  0.51833000  0.69365000  0.89187000  1.0
  H  H3  1  0.23631000  0.01125000  0.01309000  1.0
  H  H4  1  0.76369000  0.98875000  0.98690000  1.0
  H  H5  1  0.45904000  0.01351000  0.74832000  1.0
  H  H6  1  0.54096000  0.98650000  0.25168000  1.0
  H  H7  1  0.71517000  0.30735000  0.83109000  1.0
  H  H8  1  0.28483000  0.69265000  0.16891000  1.0
  H  H9  1  0.07284000  0.10033000  0.11419000  1.0
  H  H10  1  0.92716000  0.89967000  0.88581000  1.0
  H  H11  1  0.27430000  0.36658000  0.25816000  1.0
  H  H12  1  0.72569000  0.63342000  0.74184000  1.0
  H  H13  1  0.29189000  0.06758000  0.47412000  1.0
  H  H14  1  0.70811000  0.93242000  0.52588000  1.0
  H  H15  1  0.09730000  0.78881000  0.34067000  1.0
  H  H16  1  0.90270000  0.21119000  0.65933000  1.0
  H  H17  1  0.65324000  0.64555000  0.28259000  1.0
  H  H18  1  0.34675000  0.35445000  0.71740000  1.0
  H  H19  1  0.77398000  0.33513000  0.46232000  1.0
  H  H20  1  0.22602000  0.66487000  0.53768000  1.0
  H  H21  1  0.94428000  0.25287000  0.33398000  1.0
  H  H22  1  0.05572000  0.74713000  0.66602000  1.0
  H  H23  1  0.97207000  0.38107000  0.17366000  1.0
  H  H24  1  0.02793000  0.61893000  0.82634000  1.0
  C  C25  1  0.62341000  0.33116000  0.97814000  1.0
  C  C26  1  0.37660000  0.66884000  0.02186000  1.0
  C  C27  1  0.48508000  0.24605000  0.02920000  1.0
  C  C28  1  0.51492000  0.75395000  0.97080000  1.0
  C  C29  1  0.34602000  0.08142000  0.97570000  1.0
  C  C30  1  0.65398000  0.91858000  0.02430000  1.0
  C  C31  1  0.46896000  0.08116000  0.82882000  1.0
  C  C32  1  0.53105000  0.91885000  0.17118000  1.0
  C  C33  1  0.61396000  0.24498000  0.87525000  1.0
  C  C34  1  0.38604000  0.75502000  0.12475000  1.0
  C  C35  1  0.76775000  0.50914000  0.02217000  1.0
  C  C36  1  0.23225000  0.49086000  0.97783000  1.0
  C  C37  1  0.95654000  0.76772000  0.12617000  1.0
  C  C38  1  0.04346000  0.23228000  0.87383000  1.0
  C  C39  1  0.06532000  0.91997000  0.21473000  1.0
  C  C40  1  0.93468000  0.08003000  0.78527000  1.0
  C  C41  1  0.11956000  0.08680000  0.19261000  1.0
  C  C42  1  0.88044000  0.91320000  0.80739000  1.0
  C  C43  1  0.23121000  0.23520000  0.27259000  1.0
  C  C44  1  0.76879000  0.76480000  0.72741000  1.0
  C  C45  1  0.23727000  0.06868000  0.39369000  1.0
  C  C46  1  0.76273000  0.93132000  0.60631000  1.0
  C  C47  1  0.12648000  0.91235000  0.31816000  1.0
  C  C48  1  0.87352000  0.08766000  0.68184000  1.0
  C  C49  1  0.81713000  0.52342000  0.21791000  1.0
  C  C50  1  0.18286000  0.47658000  0.78209000  1.0
  C  C51  1  0.72201000  0.56109000  0.29172000  1.0
  C  C52  1  0.27799000  0.43891000  0.70828000  1.0
  C  C53  1  0.78982000  0.38646000  0.39137000  1.0
  C  C54  1  0.21018000  0.61354000  0.60863000  1.0
  C  C55  1  0.88367000  0.34150000  0.32027000  1.0
  C  C56  1  0.11633000  0.65850000  0.67973000  1.0
  C  C57  1  0.89847000  0.41114000  0.23132000  1.0
  C  C58  1  0.10153000  0.58886000  0.76868000  1.0
  Br  Br59  1  0.39548000  0.69338000  0.38505000  1.0
  Br  Br60  1  0.60452000  0.30662000  0.61495000  1.0
  N  N61  1  0.33572000  0.99899000  0.87715000  1.0
  N  N62  1  0.66428000  0.00101000  0.12285000  1.0
  N  N63  1  0.84539000  0.61586000  0.96161000  1.0
  N  N64  1  0.15461000  0.38413000  0.03839000  1.0
  N  N65  1  0.96148000  0.77568000  0.02606000  1.0
  N  N66  1  0.03852000  0.22432000  0.97394000  1.0
  N  N67  1  0.83561000  0.59946000  0.12780000  1.0
  N  N68  1  0.16439000  0.40054000  0.87219000  1.0
  N  N69  1  0.28888000  0.22759000  0.37216000  1.0
  N  N70  1  0.71112000  0.77241000  0.62784000  1.0
  N  N71  1  0.70964000  0.49343000  0.37731000  1.0
  N  N72  1  0.29036000  0.50657000  0.62269000  1.0
