# generated using pymatgen
data_ZnH9C11N5
_symmetry_space_group_name_H-M   'P 1'
_cell_length_a   14.49580000
_cell_length_b   16.76120000
_cell_length_c   17.04860000
_cell_angle_alpha   90.04250000
_cell_angle_beta   71.30400000
_cell_angle_gamma   90.11160000
_symmetry_Int_Tables_number   1
_chemical_formula_structural   ZnH9C11N5
_chemical_formula_sum   'Zn8 H72 C88 N40'
_cell_volume   3923.66439830
_cell_formula_units_Z   8
loop_
 _symmetry_equiv_pos_site_id
 _symmetry_equiv_pos_as_xyz
  1  'x, y, z'
loop_
 _atom_site_type_symbol
 _atom_site_label
 _atom_site_symmetry_multiplicity
 _atom_site_fract_x
 _atom_site_fract_y
 _atom_site_fract_z
 _atom_site_occupancy
  Zn  Zn0  1  0.53575000  0.10304000  0.48931000  1.0
  Zn  Zn1  1  0.50131000  0.84480000  0.53802000  1.0
  Zn  Zn2  1  0.99333000  0.65998000  0.04859000  1.0
  Zn  Zn3  1  0.04219000  0.40112000  0.98542000  1.0
  Zn  Zn4  1  0.70370000  0.96305000  0.46213000  1.0
  Zn  Zn5  1  0.31852000  0.99867000  0.51720000  1.0
  Zn  Zn6  1  0.19771000  0.54547000  0.97323000  1.0
  Zn  Zn7  1  0.82231000  0.50125000  0.02269000  1.0
  H  H8  1  0.60877000  0.19012000  0.32751000  1.0
  H  H9  1  0.22687000  0.92913000  0.67831000  1.0
  H  H10  1  0.49561000  0.17647000  0.65941000  1.0
  H  H11  1  0.50861000  0.78711000  0.36762000  1.0
  H  H12  1  0.01251000  0.74613000  0.88815000  1.0
  H  H13  1  0.01182000  0.32566000  0.15273000  1.0
  H  H14  1  0.71868000  0.57152000  0.18435000  1.0
  H  H15  1  0.10199000  0.33437000  0.80756000  1.0
  H  H16  1  0.35691000  0.69694000  0.51983000  1.0
  H  H17  1  0.63038000  0.23045000  0.59246000  1.0
  H  H18  1  0.50641000  0.80687000  0.72615000  1.0
  H  H19  1  0.46572000  0.25387000  0.38298000  1.0
  H  H20  1  0.97596000  0.24950000  0.87963000  1.0
  H  H21  1  0.98793000  0.68415000  0.24245000  1.0
  H  H22  1  0.14706000  0.26559000  0.06985000  1.0
  H  H23  1  0.84512000  0.80303000  0.02387000  1.0
  H  H24  1  0.29936000  0.05305000  0.34174000  1.0
  H  H25  1  0.75761000  0.96026000  0.62710000  1.0
  H  H26  1  0.86629000  0.06041000  0.53800000  1.0
  H  H27  1  0.28837000  0.89485000  0.38574000  1.0
  H  H28  1  0.80325000  0.60107000  0.88084000  1.0
  H  H29  1  0.36133000  0.44966000  0.05453000  1.0
  H  H30  1  0.24255000  0.53676000  0.13923000  1.0
  H  H31  1  0.78443000  0.43951000  0.85732000  1.0
  H  H32  1  0.79846000  0.75573000  0.68454000  1.0
  H  H33  1  0.19074000  0.24337000  0.32876000  1.0
  H  H34  1  0.14600000  0.63303000  0.47636000  1.0
  H  H35  1  0.96857000  0.24027000  0.58350000  1.0
  H  H36  1  0.47469000  0.26057000  0.07717000  1.0
  H  H37  1  0.65066000  0.86311000  0.96448000  1.0
  H  H38  1  0.68560000  0.25158000  0.83646000  1.0
  H  H39  1  0.27999000  0.73629000  0.19341000  1.0
  H  H40  1  0.38780000  0.11714000  0.15495000  1.0
  H  H41  1  0.75640000  0.95340000  0.82307000  1.0
  H  H42  1  0.77365000  0.10938000  0.75431000  1.0
  H  H43  1  0.18116000  0.82874000  0.33648000  1.0
  H  H44  1  0.69330000  0.66530000  0.82674000  1.0
  H  H45  1  0.27746000  0.38754000  0.24984000  1.0
  H  H46  1  0.24492000  0.54096000  0.33436000  1.0
  H  H47  1  0.88003000  0.38193000  0.66454000  1.0
  H  H48  1  0.20077000  0.18002000  0.17132000  1.0
  H  H49  1  0.90159000  0.83388000  0.78046000  1.0
  H  H50  1  0.96011000  0.17424000  0.73837000  1.0
  H  H51  1  0.03733000  0.70845000  0.38779000  1.0
  H  H52  1  0.54901000  0.78518000  0.87046000  1.0
  H  H53  1  0.46441000  0.32419000  0.23396000  1.0
  H  H54  1  0.39007000  0.66108000  0.28448000  1.0
  H  H55  1  0.69378000  0.31748000  0.68041000  1.0
  H  H56  1  0.54592000  0.75400000  0.20921000  1.0
  H  H57  1  0.39734000  0.32512000  0.71625000  1.0
  H  H58  1  0.25527000  0.79030000  0.70804000  1.0
  H  H59  1  0.73379000  0.28800000  0.29397000  1.0
  H  H60  1  0.20567000  0.23223000  0.75753000  1.0
  H  H61  1  0.75404000  0.71057000  0.20271000  1.0
  H  H62  1  0.88581000  0.17233000  0.18578000  1.0
  H  H63  1  0.04154000  0.75269000  0.72695000  1.0
  H  H64  1  0.88268000  0.81875000  0.32806000  1.0
  H  H65  1  0.86350000  0.79482000  0.23898000  1.0
  H  H66  1  0.16002000  0.05939000  0.64328000  1.0
  H  H67  1  0.13997000  0.13481000  0.71698000  1.0
  H  H68  1  0.96859000  0.78550000  0.60027000  1.0
  H  H69  1  0.99041000  0.84270000  0.51564000  1.0
  H  H70  1  0.85970000  0.95301000  0.27526000  1.0
  H  H71  1  0.91747000  0.03934000  0.23638000  1.0
  H  H72  1  0.38987000  0.46440000  0.87028000  1.0
  H  H73  1  0.42748000  0.45398000  0.76864000  1.0
  H  H74  1  0.51241000  0.65430000  0.99327000  1.0
  H  H75  1  0.48459000  0.71573000  0.07560000  1.0
  H  H76  1  0.66061000  0.35484000  0.21180000  1.0
  H  H77  1  0.66984000  0.44033000  0.15529000  1.0
  H  H78  1  0.35304000  0.60263000  0.80779000  1.0
  H  H79  1  0.34272000  0.66446000  0.73398000  1.0
  C  C80  1  0.65617000  0.14040000  0.32839000  1.0
  C  C81  1  0.18367000  0.91345000  0.63881000  1.0
  C  C82  1  0.43153000  0.14906000  0.65105000  1.0
  C  C83  1  0.58226000  0.80434000  0.36371000  1.0
  C  C84  1  0.08256000  0.71882000  0.88139000  1.0
  C  C85  1  0.94647000  0.35496000  0.14937000  1.0
  C  C86  1  0.68159000  0.58551000  0.13980000  1.0
  C  C87  1  0.15374000  0.37608000  0.81864000  1.0
  C  C88  1  0.25931000  0.21216000  0.18563000  1.0
  C  C89  1  0.82297000  0.82290000  0.79956000  1.0
  C  C90  1  0.90044000  0.20614000  0.72577000  1.0
  C  C91  1  0.11604000  0.69827000  0.36363000  1.0
  C  C92  1  0.62772000  0.79572000  0.84979000  1.0
  C  C93  1  0.40548000  0.29212000  0.22011000  1.0
  C  C94  1  0.31133000  0.67156000  0.30639000  1.0
  C  C95  1  0.75287000  0.28552000  0.69386000  1.0
  C  C96  1  0.61452000  0.72059000  0.19170000  1.0
  C  C97  1  0.31918000  0.31271000  0.74151000  1.0
  C  C98  1  0.18280000  0.76433000  0.73696000  1.0
  C  C99  1  0.79996000  0.27103000  0.24394000  1.0
  C  C100  1  0.28469000  0.23974000  0.73051000  1.0
  C  C101  1  0.68344000  0.74076000  0.22694000  1.0
  C  C102  1  0.82014000  0.19202000  0.23464000  1.0
  C  C103  1  0.11190000  0.78350000  0.70372000  1.0
  C  C104  1  0.34793000  0.75404000  0.49307000  1.0
  C  C105  1  0.67953000  0.18025000  0.57209000  1.0
  C  C106  1  0.56392000  0.84633000  0.68998000  1.0
  C  C107  1  0.42833000  0.19745000  0.38379000  1.0
  C  C108  1  0.93290000  0.30341000  0.88454000  1.0
  C  C109  1  0.04670000  0.64682000  0.20480000  1.0
  C  C110  1  0.19176000  0.31913000  0.05846000  1.0
  C  C111  1  0.84255000  0.74539000  0.99543000  1.0
  C  C112  1  0.74083000  0.82183000  0.33182000  1.0
  C  C113  1  0.28327000  0.11112000  0.65549000  1.0
  C  C114  1  0.08392000  0.86136000  0.57852000  1.0
  C  C115  1  0.77648000  0.05375000  0.30595000  1.0
  C  C116  1  0.28156000  0.44562000  0.82213000  1.0
  C  C117  1  0.59277000  0.63537000  0.06821000  1.0
  C  C118  1  0.79694000  0.39760000  0.16643000  1.0
  C  C119  1  0.23514000  0.67646000  0.84076000  1.0
  C  C120  1  0.34401000  0.09513000  0.36223000  1.0
  C  C121  1  0.69229000  0.92423000  0.63874000  1.0
  C  C122  1  0.80025000  0.09412000  0.54433000  1.0
  C  C123  1  0.31542000  0.85535000  0.42376000  1.0
  C  C124  1  0.82298000  0.64204000  0.92215000  1.0
  C  C125  1  0.30122000  0.41261000  0.05062000  1.0
  C  C126  1  0.17651000  0.57171000  0.15170000  1.0
  C  C127  1  0.83593000  0.40034000  0.87251000  1.0
  C  C128  1  0.75599000  0.13196000  0.28518000  1.0
  C  C129  1  0.12369000  0.84702000  0.64402000  1.0
  C  C130  1  0.33356000  0.17138000  0.68468000  1.0
  C  C131  1  0.66945000  0.78951000  0.29997000  1.0
  C  C132  1  0.16756000  0.72075000  0.81337000  1.0
  C  C133  1  0.84910000  0.33646000  0.19132000  1.0
  C  C134  1  0.62641000  0.65293000  0.13672000  1.0
  C  C135  1  0.25611000  0.37534000  0.78809000  1.0
  C  C136  1  0.30374000  0.77228000  0.43328000  1.0
  C  C137  1  0.76647000  0.16467000  0.58866000  1.0
  C  C138  1  0.64607000  0.87520000  0.70718000  1.0
  C  C139  1  0.37823000  0.17067000  0.33069000  1.0
  C  C140  1  0.87388000  0.32673000  0.83758000  1.0
  C  C141  1  0.12887000  0.61802000  0.22176000  1.0
  C  C142  1  0.27260000  0.33646000  0.08381000  1.0
  C  C143  1  0.80729000  0.72483000  0.93061000  1.0
  C  C144  1  0.36266000  0.17745000  0.17599000  1.0
  C  C145  1  0.74259000  0.88906000  0.82369000  1.0
  C  C146  1  0.79748000  0.17051000  0.73542000  1.0
  C  C147  1  0.19584000  0.76465000  0.33515000  1.0
  C  C148  1  0.70775000  0.72950000  0.82523000  1.0
  C  C149  1  0.30222000  0.32688000  0.22988000  1.0
  C  C150  1  0.23111000  0.60522000  0.33448000  1.0
  C  C151  1  0.85590000  0.32105000  0.68420000  1.0
  C  C152  1  0.76705000  0.77879000  0.74774000  1.0
  C  C153  1  0.25306000  0.24802000  0.27196000  1.0
  C  C154  1  0.17632000  0.65592000  0.41317000  1.0
  C  C155  1  0.90548000  0.24289000  0.63989000  1.0
  C  C156  1  0.41150000  0.25666000  0.13343000  1.0
  C  C157  1  0.68406000  0.83932000  0.90199000  1.0
  C  C158  1  0.74770000  0.24842000  0.77934000  1.0
  C  C159  1  0.25161000  0.71448000  0.25728000  1.0
  C  C160  1  0.68536000  0.84546000  0.77109000  1.0
  C  C161  1  0.35705000  0.21277000  0.26330000  1.0
  C  C162  1  0.25650000  0.72351000  0.38541000  1.0
  C  C163  1  0.80154000  0.20721000  0.64874000  1.0
  C  C164  1  0.30716000  0.29158000  0.14256000  1.0
  C  C165  1  0.76431000  0.77185000  0.87837000  1.0
  C  C166  1  0.85138000  0.28446000  0.77076000  1.0
  C  C167  1  0.17004000  0.64771000  0.28458000  1.0
  N  N168  1  0.61996000  0.07449000  0.37302000  1.0
  N  N169  1  0.18153000  0.96153000  0.57530000  1.0
  N  N170  1  0.44102000  0.08225000  0.60390000  1.0
  N  N171  1  0.60017000  0.84028000  0.42803000  1.0
  N  N172  1  0.09730000  0.67881000  0.94479000  1.0
  N  N173  1  0.95378000  0.42134000  0.10168000  1.0
  N  N174  1  0.68272000  0.53370000  0.07813000  1.0
  N  N175  1  0.12090000  0.43971000  0.86912000  1.0
  N  N176  1  0.38113000  0.82229000  0.51804000  1.0
  N  N177  1  0.66162000  0.12309000  0.52318000  1.0
  N  N178  1  0.56348000  0.87509000  0.61579000  1.0
  N  N179  1  0.42493000  0.14219000  0.44230000  1.0
  N  N180  1  0.93112000  0.35895000  0.94253000  1.0
  N  N181  1  0.04756000  0.62086000  0.12917000  1.0
  N  N182  1  0.17249000  0.38028000  0.01469000  1.0
  N  N183  1  0.87465000  0.67879000  0.02413000  1.0
  N  N184  1  0.69992000  0.85150000  0.40876000  1.0
  N  N185  1  0.34779000  0.05823000  0.60801000  1.0
  N  N186  1  0.11948000  0.92842000  0.53689000  1.0
  N  N187  1  0.69535000  0.02056000  0.35971000  1.0
  N  N188  1  0.20061000  0.48345000  0.86927000  1.0
  N  N189  1  0.62713000  0.56541000  0.03276000  1.0
  N  N190  1  0.85954000  0.44761000  0.11264000  1.0
  N  N191  1  0.19360000  0.65302000  0.92034000  1.0
  N  N192  1  0.37216000  0.07876000  0.42847000  1.0
  N  N193  1  0.64301000  0.92309000  0.58380000  1.0
  N  N194  1  0.73715000  0.06975000  0.50574000  1.0
  N  N195  1  0.36220000  0.88519000  0.47368000  1.0
  N  N196  1  0.86366000  0.61454000  0.97733000  1.0
  N  N197  1  0.24108000  0.43844000  0.00989000  1.0
  N  N198  1  0.12820000  0.57464000  0.09611000  1.0
  N  N199  1  0.87060000  0.41899000  0.93464000  1.0
  N  N200  1  0.84099000  0.82887000  0.29104000  1.0
  N  N201  1  0.18582000  0.10782000  0.66650000  1.0
  N  N202  1  0.02079000  0.81232000  0.55288000  1.0
  N  N203  1  0.86440000  0.01333000  0.28346000  1.0
  N  N204  1  0.37366000  0.47732000  0.81743000  1.0
  N  N205  1  0.53817000  0.68445000  0.03377000  1.0
  N  N206  1  0.69730000  0.40664000  0.19287000  1.0
  N  N207  1  0.33051000  0.65819000  0.79582000  1.0
