# generated using pymatgen
data_SnH15C11ClO2
_symmetry_space_group_name_H-M   'P 1'
_cell_length_a   9.68951000
_cell_length_b   11.22230000
_cell_length_c   13.20730000
_cell_angle_alpha   113.69900000
_cell_angle_beta   90.00000000
_cell_angle_gamma   90.00000000
_symmetry_Int_Tables_number   1
_chemical_formula_structural   SnH15C11ClO2
_chemical_formula_sum   'Sn4 H60 C44 Cl4 O8'
_cell_volume   1315.03263983
_cell_formula_units_Z   4
loop_
 _symmetry_equiv_pos_site_id
 _symmetry_equiv_pos_as_xyz
  1  'x, y, z'
loop_
 _atom_site_type_symbol
 _atom_site_label
 _atom_site_symmetry_multiplicity
 _atom_site_fract_x
 _atom_site_fract_y
 _atom_site_fract_z
 _atom_site_occupancy
  Sn  Sn0  1  0.38424000  0.05154000  0.72128000  1.0
  Sn  Sn1  1  0.88424000  0.94846000  0.77872000  1.0
  Sn  Sn2  1  0.61576000  0.94846000  0.27872000  1.0
  Sn  Sn3  1  0.11576000  0.05155000  0.22129000  1.0
  H  H4  1  0.79551000  0.33011000  0.85002000  1.0
  H  H5  1  0.29551000  0.66989000  0.64998000  1.0
  H  H6  1  0.20449000  0.66989000  0.14998000  1.0
  H  H7  1  0.70449000  0.33011000  0.35002000  1.0
  H  H8  1  0.88351000  0.21031000  0.73972000  1.0
  H  H9  1  0.38351000  0.78969000  0.76028000  1.0
  H  H10  1  0.11650000  0.78969000  0.26028000  1.0
  H  H11  1  0.61649000  0.21031000  0.23972000  1.0
  H  H12  1  0.96120000  0.27918000  0.60548000  1.0
  H  H13  1  0.46120000  0.72082000  0.89452000  1.0
  H  H14  1  0.03880000  0.72082000  0.39452000  1.0
  H  H15  1  0.53880000  0.27918000  0.10548000  1.0
  H  H16  1  0.93778000  0.40982000  0.49330000  1.0
  H  H17  1  0.43778000  0.59018000  0.00671000  1.0
  H  H18  1  0.06222000  0.59018000  0.50670000  1.0
  H  H19  1  0.56222000  0.40982000  0.99329000  1.0
  H  H20  1  0.55034000  0.56161000  0.65428000  1.0
  H  H21  1  0.05035000  0.43839000  0.84572000  1.0
  H  H22  1  0.44966000  0.43838000  0.34573000  1.0
  H  H23  1  0.94965000  0.56161000  0.15428000  1.0
  H  H24  1  0.57429000  0.43107000  0.76580000  1.0
  H  H25  1  0.07429000  0.56892000  0.73420000  1.0
  H  H26  1  0.42571000  0.56893000  0.23420000  1.0
  H  H27  1  0.92570000  0.43108000  0.26580000  1.0
  H  H28  1  0.17161000  0.21952000  0.75248000  1.0
  H  H29  1  0.67161000  0.78048000  0.74752000  1.0
  H  H30  1  0.82839000  0.78048000  0.24752000  1.0
  H  H31  1  0.32839000  0.21952000  0.25248000  1.0
  H  H32  1  0.17530000  0.10729000  0.61075000  1.0
  H  H33  1  0.67531000  0.89271000  0.88925000  1.0
  H  H34  1  0.82469000  0.89271000  0.38925000  1.0
  H  H35  1  0.32469000  0.10729000  0.11075000  1.0
  H  H36  1  0.29343000  0.24202000  0.66012000  1.0
  H  H37  1  0.79343000  0.75798000  0.83989000  1.0
  H  H38  1  0.70657000  0.75798000  0.33989000  1.0
  H  H39  1  0.20657000  0.24202000  0.16011000  1.0
  H  H40  1  0.48144000  0.15917000  0.93095000  1.0
  H  H41  1  0.98144000  0.84083000  0.56905000  1.0
  H  H42  1  0.51857000  0.84084000  0.06905000  1.0
  H  H43  1  0.01856000  0.15917000  0.43095000  1.0
  H  H44  1  0.44300000  0.99256000  0.89785000  1.0
  H  H45  1  0.94300000  0.00744000  0.60215000  1.0
  H  H46  1  0.55700000  0.00744000  0.10215000  1.0
  H  H47  1  0.05700000  0.99256000  0.39785000  1.0
  H  H48  1  0.30566000  0.10929000  0.93240000  1.0
  H  H49  1  0.80566000  0.89071000  0.56760000  1.0
  H  H50  1  0.69435000  0.89071000  0.06760000  1.0
  H  H51  1  0.19434000  0.10929000  0.43240000  1.0
  H  H52  1  0.39642000  0.83653000  0.52754000  1.0
  H  H53  1  0.89641000  0.16348000  0.97246000  1.0
  H  H54  1  0.60358000  0.16348000  0.47246000  1.0
  H  H55  1  0.10358000  0.83653000  0.02754000  1.0
  H  H56  1  0.53181000  0.82820000  0.61656000  1.0
  H  H57  1  0.03181000  0.17180000  0.88344000  1.0
  H  H58  1  0.46819000  0.17180000  0.38344000  1.0
  H  H59  1  0.96819000  0.82820000  0.11656000  1.0
  H  H60  1  0.55004000  0.93105000  0.54398000  1.0
  H  H61  1  0.05004000  0.06895000  0.95602000  1.0
  H  H62  1  0.44996000  0.06895000  0.45602000  1.0
  H  H63  1  0.94996000  0.93105000  0.04398000  1.0
  C  C64  1  0.66999000  0.17202000  0.75500000  1.0
  C  C65  1  0.17000000  0.82798000  0.74500000  1.0
  C  C66  1  0.33001000  0.82798000  0.24500000  1.0
  C  C67  1  0.83001000  0.17202000  0.25500000  1.0
  C  C68  1  0.78685000  0.26583000  0.76139000  1.0
  C  C69  1  0.28686000  0.73417000  0.73861000  1.0
  C  C70  1  0.21315000  0.73417000  0.23861000  1.0
  C  C71  1  0.71315000  0.26583000  0.26139000  1.0
  C  C72  1  0.76965000  0.34551000  0.69388000  1.0
  C  C73  1  0.26966000  0.65449000  0.80611000  1.0
  C  C74  1  0.23035000  0.65449000  0.30612000  1.0
  C  C75  1  0.73034000  0.34551000  0.19389000  1.0
  C  C76  1  0.87054000  0.34092000  0.61654000  1.0
  C  C77  1  0.37054000  0.65908000  0.88346000  1.0
  C  C78  1  0.12946000  0.65908000  0.38346000  1.0
  C  C79  1  0.62946000  0.34092000  0.11654000  1.0
  C  C80  1  0.85858000  0.41484000  0.55344000  1.0
  C  C81  1  0.35858000  0.58516000  0.94656000  1.0
  C  C82  1  0.14142000  0.58516000  0.44656000  1.0
  C  C83  1  0.64142000  0.41484000  0.05344000  1.0
  C  C84  1  0.74353000  0.49486000  0.56854000  1.0
  C  C85  1  0.24354000  0.50514000  0.93146000  1.0
  C  C86  1  0.25646000  0.50514000  0.43146000  1.0
  C  C87  1  0.75646000  0.49486000  0.06854000  1.0
  C  C88  1  0.64066000  0.50025000  0.64433000  1.0
  C  C89  1  0.14067000  0.49975000  0.85567000  1.0
  C  C90  1  0.35934000  0.49975000  0.35567000  1.0
  C  C91  1  0.85933000  0.50025000  0.14433000  1.0
  C  C92  1  0.65469000  0.42641000  0.70681000  1.0
  C  C93  1  0.15469000  0.57359000  0.79318000  1.0
  C  C94  1  0.34531000  0.57359000  0.29319000  1.0
  C  C95  1  0.84531000  0.42641000  0.20682000  1.0
  C  C96  1  0.23835000  0.16959000  0.68088000  1.0
  C  C97  1  0.73835000  0.83041000  0.81912000  1.0
  C  C98  1  0.76165000  0.83041000  0.31912000  1.0
  C  C99  1  0.26165000  0.16959000  0.18088000  1.0
  C  C100  1  0.40607000  0.08173000  0.89170000  1.0
  C  C101  1  0.90607000  0.91828000  0.60830000  1.0
  C  C102  1  0.59393000  0.91828000  0.10830000  1.0
  C  C103  1  0.09393000  0.08173000  0.39170000  1.0
  C  C104  1  0.47650000  0.89224000  0.58604000  1.0
  C  C105  1  0.97650000  0.10776000  0.91396000  1.0
  C  C106  1  0.52350000  0.10775000  0.41396000  1.0
  C  C107  1  0.02350000  0.89225000  0.08604000  1.0
  Cl  Cl108  1  0.72771000  0.59032000  0.49287000  1.0
  Cl  Cl109  1  0.22771000  0.40969000  0.00713000  1.0
  Cl  Cl110  1  0.27229000  0.40968000  0.50713000  1.0
  Cl  Cl111  1  0.77229000  0.59032000  0.99287000  1.0
  O  O112  1  0.54972000  0.19669000  0.72877000  1.0
  O  O113  1  0.04972000  0.80331000  0.77123000  1.0
  O  O114  1  0.45028000  0.80331000  0.27123000  1.0
  O  O115  1  0.95028000  0.19669000  0.22877000  1.0
  O  O116  1  0.69338000  0.07564000  0.77950000  1.0
  O  O117  1  0.19338000  0.92436000  0.72051000  1.0
  O  O118  1  0.30662000  0.92436000  0.22050000  1.0
  O  O119  1  0.80663000  0.07564000  0.27950000  1.0
