# generated using pymatgen
data_MnH16C10SO9
_symmetry_space_group_name_H-M   'P 1'
_cell_length_a   5.03511000
_cell_length_b   11.28240000
_cell_length_c   12.09500000
_cell_angle_alpha   89.99940000
_cell_angle_beta   85.29830000
_cell_angle_gamma   89.99990000
_symmetry_Int_Tables_number   1
_chemical_formula_structural   MnH16C10SO9
_chemical_formula_sum   'Mn2 H32 C20 S2 O18'
_cell_volume   684.78216961
_cell_formula_units_Z   2
loop_
 _symmetry_equiv_pos_site_id
 _symmetry_equiv_pos_as_xyz
  1  'x, y, z'
loop_
 _atom_site_type_symbol
 _atom_site_label
 _atom_site_symmetry_multiplicity
 _atom_site_fract_x
 _atom_site_fract_y
 _atom_site_fract_z
 _atom_site_occupancy
  Mn  Mn0  1  0.42050000  0.77550000  0.90388000  1.0
  Mn  Mn1  1  0.57952000  0.27550000  0.09612000  1.0
  H  H2  1  0.98106000  0.63812000  0.91650000  1.0
  H  H3  1  0.01896000  0.13813000  0.08350000  1.0
  H  H4  1  0.24497000  0.56131000  0.91267000  1.0
  H  H5  1  0.75504000  0.06131000  0.08733000  1.0
  H  H6  1  0.00069000  0.85031000  0.78467000  1.0
  H  H7  1  0.99932000  0.35032000  0.21533000  1.0
  H  H8  1  0.11644000  0.73325000  0.72713000  1.0
  H  H9  1  0.88356000  0.23326000  0.27287000  1.0
  H  H10  1  0.13683000  0.95836000  0.96630000  1.0
  H  H11  1  0.86319000  0.45837000  0.03369000  1.0
  H  H12  1  0.95472000  0.84806000  0.01595000  1.0
  H  H13  1  0.04528000  0.34807000  0.98404000  1.0
  H  H14  1  0.64961000  0.69568000  0.09178000  1.0
  H  H15  1  0.35040000  0.19567000  0.90822000  1.0
  H  H16  1  0.58274000  0.83596000  0.10930000  1.0
  H  H17  1  0.41725000  0.33595000  0.89070000  1.0
  H  H18  1  0.78245000  0.39374000  0.69312000  1.0
  H  H19  1  0.21754000  0.89375000  0.30688000  1.0
  H  H20  1  0.00454000  0.43167000  0.79229000  1.0
  H  H21  1  0.99547000  0.93167000  0.20771000  1.0
  H  H22  1  0.96742000  0.78136000  0.53734000  1.0
  H  H23  1  0.03259000  0.28136000  0.46266000  1.0
  H  H24  1  0.68530000  0.83491000  0.38599000  1.0
  H  H25  1  0.31467000  0.33492000  0.61401000  1.0
  H  H26  1  0.41683000  0.47106000  0.37424000  1.0
  H  H27  1  0.58315000  0.97105000  0.62577000  1.0
  H  H28  1  0.70600000  0.41835000  0.51716000  1.0
  H  H29  1  0.29399000  0.91836000  0.48283000  1.0
  H  H30  1  0.10218000  0.65583000  0.18040000  1.0
  H  H31  1  0.89782000  0.15584000  0.81960000  1.0
  H  H32  1  0.08661000  0.56095000  0.29856000  1.0
  H  H33  1  0.91338000  0.06094000  0.70143000  1.0
  C  C34  1  0.64958000  0.53397000  0.80492000  1.0
  C  C35  1  0.35042000  0.03397000  0.19508000  1.0
  C  C36  1  0.86761000  0.46904000  0.73515000  1.0
  C  C37  1  0.13238000  0.96905000  0.26485000  1.0
  C  C38  1  0.85655000  0.59607000  0.53863000  1.0
  C  C39  1  0.14348000  0.09606000  0.46137000  1.0
  C  C40  1  0.84754000  0.71353000  0.50083000  1.0
  C  C41  1  0.15248000  0.21353000  0.49917000  1.0
  C  C42  1  0.68777000  0.74403000  0.41665000  1.0
  C  C43  1  0.31224000  0.24404000  0.58334000  1.0
  C  C44  1  0.52852000  0.65795000  0.37084000  1.0
  C  C45  1  0.47146000  0.15795000  0.62917000  1.0
  C  C46  1  0.53556000  0.54060000  0.40829000  1.0
  C  C47  1  0.46441000  0.04060000  0.59172000  1.0
  C  C48  1  0.70170000  0.51046000  0.49046000  1.0
  C  C49  1  0.29830000  0.01046000  0.50955000  1.0
  C  C50  1  0.22238000  0.60787000  0.23758000  1.0
  C  C51  1  0.77760000  0.10787000  0.76241000  1.0
  C  C52  1  0.40178000  0.52027000  0.16970000  1.0
  C  C53  1  0.59823000  0.02027000  0.83031000  1.0
  S  S54  1  0.07763000  0.55801000  0.63968000  1.0
  S  S55  1  0.92240000  0.05802000  0.36031000  1.0
  O  O56  1  0.14611000  0.62754000  0.95449000  1.0
  O  O57  1  0.85391000  0.12755000  0.04551000  1.0
  O  O58  1  0.17002000  0.80852000  0.76145000  1.0
  O  O59  1  0.82998000  0.30853000  0.23855000  1.0
  O  O60  1  0.13738000  0.88238000  0.00653000  1.0
  O  O61  1  0.86262000  0.38239000  0.99347000  1.0
  O  O62  1  0.65472000  0.77597000  0.05440000  1.0
  O  O63  1  0.34529000  0.27596000  0.94560000  1.0
  O  O64  1  0.69145000  0.64076000  0.83487000  1.0
  O  O65  1  0.30854000  0.14077000  0.16514000  1.0
  O  O66  1  0.43787000  0.47661000  0.83259000  1.0
  O  O67  1  0.56211000  0.97661000  0.16741000  1.0
  O  O68  1  0.37339000  0.69630000  0.28965000  1.0
  O  O69  1  0.62662000  0.19629000  0.71035000  1.0
  O  O70  1  0.31277000  0.41439000  0.16130000  1.0
  O  O71  1  0.68721000  0.91439000  0.83869000  1.0
  O  O72  1  0.62346000  0.55614000  0.12582000  1.0
  O  O73  1  0.37655000  0.05614000  0.87418000  1.0
