# generated using pymatgen
data_ZnH6(C3N2)2
_symmetry_space_group_name_H-M   'P 1'
_cell_length_a   12.48260000
_cell_length_b   17.78460000
_cell_length_c   17.78507447
_cell_angle_alpha   82.93026324
_cell_angle_beta   69.45352131
_cell_angle_gamma   69.45760000
_symmetry_Int_Tables_number   1
_chemical_formula_structural   ZnH6(C3N2)2
_chemical_formula_sum   'Zn16 H96 C96 N64'
_cell_volume   3462.00677363
_cell_formula_units_Z   16
loop_
 _symmetry_equiv_pos_site_id
 _symmetry_equiv_pos_as_xyz
  1  'x, y, z'
loop_
 _atom_site_type_symbol
 _atom_site_label
 _atom_site_symmetry_multiplicity
 _atom_site_fract_x
 _atom_site_fract_y
 _atom_site_fract_z
 _atom_site_occupancy
  Zn  Zn0  1  0.64574000  0.75515000  0.94755000  1.0
  Zn  Zn1  1  0.34843000  0.24485000  0.05245000  1.0
  Zn  Zn2  1  0.84328000  0.55243000  0.25513000  1.0
  Zn  Zn3  1  0.65087000  0.44754000  0.74485000  1.0
  Zn  Zn4  1  0.14573000  0.94755000  0.75515000  1.0
  Zn  Zn5  1  0.84844000  0.05245000  0.24485000  1.0
  Zn  Zn6  1  0.34326000  0.25515000  0.55246000  1.0
  Zn  Zn7  1  0.15084000  0.74487000  0.44757000  1.0
  Zn  Zn8  1  0.14197000  0.54909000  0.75054000  1.0
  Zn  Zn9  1  0.44161000  0.45091000  0.24943000  1.0
  Zn  Zn10  1  0.14250000  0.74944000  0.04909000  1.0
  Zn  Zn11  1  0.94105000  0.25057000  0.95092000  1.0
  Zn  Zn12  1  0.64195000  0.75057000  0.54909000  1.0
  Zn  Zn13  1  0.94160000  0.24946000  0.45091000  1.0
  Zn  Zn14  1  0.64254000  0.04908000  0.74943000  1.0
  Zn  Zn15  1  0.44103000  0.95091000  0.25056000  1.0
  H  H16  1  0.67239000  0.92523000  0.89131000  1.0
  H  H17  1  0.48895000  0.07478000  0.10867000  1.0
  H  H18  1  0.81372000  0.60868000  0.42521000  1.0
  H  H19  1  0.84761000  0.39130000  0.57478000  1.0
  H  H20  1  0.17240000  0.89134000  0.92522000  1.0
  H  H21  1  0.98894000  0.10869000  0.07477000  1.0
  H  H22  1  0.31369000  0.42522000  0.60870000  1.0
  H  H23  1  0.34761000  0.57479000  0.39132000  1.0
  H  H24  1  0.54318000  0.78242000  0.79633000  1.0
  H  H25  1  0.12197000  0.21756000  0.20368000  1.0
  H  H26  1  0.58953000  0.70368000  0.28243000  1.0
  H  H27  1  0.57560000  0.29633000  0.71758000  1.0
  H  H28  1  0.04321000  0.79633000  0.78244000  1.0
  H  H29  1  0.62193000  0.20367000  0.21758000  1.0
  H  H30  1  0.08951000  0.28242000  0.70367000  1.0
  H  H31  1  0.07564000  0.71757000  0.29632000  1.0
  H  H32  1  0.52214000  0.92636000  0.71250000  1.0
  H  H33  1  0.16103000  0.07364000  0.28749000  1.0
  H  H34  1  0.48467000  0.78750000  0.42636000  1.0
  H  H35  1  0.69848000  0.21249000  0.57362000  1.0
  H  H36  1  0.02216000  0.71251000  0.92636000  1.0
  H  H37  1  0.66100000  0.28749000  0.07364000  1.0
  H  H38  1  0.98459000  0.42638000  0.78751000  1.0
  H  H39  1  0.19853000  0.57364000  0.21250000  1.0
  H  H40  1  0.44427000  0.87070000  0.09282000  1.0
  H  H41  1  0.40777000  0.12930000  0.90718000  1.0
  H  H42  1  0.78711000  0.40716000  0.37071000  1.0
  H  H43  1  0.56494000  0.59283000  0.62926000  1.0
  H  H44  1  0.94425000  0.09283000  0.87070000  1.0
  H  H45  1  0.90779000  0.90718000  0.12930000  1.0
  H  H46  1  0.28703000  0.37074000  0.40717000  1.0
  H  H47  1  0.06498000  0.62929000  0.59284000  1.0
  H  H48  1  0.82238000  0.76826000  0.03961000  1.0
  H  H49  1  0.63025000  0.23175000  0.96038000  1.0
  H  H50  1  0.11198000  0.46040000  0.26825000  1.0
  H  H51  1  0.84057000  0.53962000  0.73174000  1.0
  H  H52  1  0.32238000  0.03962000  0.76825000  1.0
  H  H53  1  0.13025000  0.96039000  0.23174000  1.0
  H  H54  1  0.61193000  0.26826000  0.46038000  1.0
  H  H55  1  0.34063000  0.73175000  0.53960000  1.0
  H  H56  1  0.72124000  0.85100000  0.18481000  1.0
  H  H57  1  0.75701000  0.14900000  0.81521000  1.0
  H  H58  1  0.15609000  0.31521000  0.35099000  1.0
  H  H59  1  0.82221000  0.68477000  0.64901000  1.0
  H  H60  1  0.22122000  0.18479000  0.85100000  1.0
  H  H61  1  0.25705000  0.81519000  0.14900000  1.0
  H  H62  1  0.65599000  0.35099000  0.31523000  1.0
  H  H63  1  0.32229000  0.64901000  0.68479000  1.0
  H  H64  1  0.38116000  0.79051000  0.93619000  1.0
  H  H65  1  0.10786000  0.20947000  0.06381000  1.0
  H  H66  1  0.56735000  0.56381000  0.29051000  1.0
  H  H67  1  0.42169000  0.43616000  0.70942000  1.0
  H  H68  1  0.88114000  0.93619000  0.79053000  1.0
  H  H69  1  0.60786000  0.06381000  0.20949000  1.0
  H  H70  1  0.06727000  0.29058000  0.56384000  1.0
  H  H71  1  0.92167000  0.70949000  0.43619000  1.0
  H  H72  1  0.57858000  0.61092000  0.06086000  1.0
  H  H73  1  0.25039000  0.38908000  0.93916000  1.0
  H  H74  1  0.88946000  0.43914000  0.11090000  1.0
  H  H75  1  0.43951000  0.56083000  0.88904000  1.0
  H  H76  1  0.07863000  0.06084000  0.61092000  1.0
  H  H77  1  0.75036000  0.93914000  0.38908000  1.0
  H  H78  1  0.38938000  0.11096000  0.43917000  1.0
  H  H79  1  0.93951000  0.88910000  0.56086000  1.0
  H  H80  1  0.34223000  0.60949000  0.10959000  1.0
  H  H81  1  0.06135000  0.39051000  0.89045000  1.0
  H  H82  1  0.70183000  0.39041000  0.10947000  1.0
  H  H83  1  0.20176000  0.60956000  0.89050000  1.0
  H  H84  1  0.84232000  0.10955000  0.60948000  1.0
  H  H85  1  0.56131000  0.89041000  0.39051000  1.0
  H  H86  1  0.20182000  0.10950000  0.39044000  1.0
  H  H87  1  0.70171000  0.89053000  0.60959000  1.0
  H  H88  1  0.87617000  0.68798000  0.78817000  1.0
  H  H89  1  0.35233000  0.31201000  0.21184000  1.0
  H  H90  1  0.91431000  0.71184000  0.18799000  1.0
  H  H91  1  0.81416000  0.28812000  0.81200000  1.0
  H  H92  1  0.37618000  0.78816000  0.68799000  1.0
  H  H93  1  0.85232000  0.21183000  0.31202000  1.0
  H  H94  1  0.41428000  0.18800000  0.71188000  1.0
  H  H95  1  0.31414000  0.81201000  0.28816000  1.0
  H  H96  1  0.81213000  0.61574000  0.03029000  1.0
  H  H97  1  0.45813000  0.38425000  0.96969000  1.0
  H  H98  1  0.09241000  0.46969000  0.11574000  1.0
  H  H99  1  0.67789000  0.53028000  0.88425000  1.0
  H  H100  1  0.31207000  0.03031000  0.61575000  1.0
  H  H101  1  0.95816000  0.96971000  0.38426000  1.0
  H  H102  1  0.59242000  0.11575000  0.46972000  1.0
  H  H103  1  0.17784000  0.88426000  0.53031000  1.0
  H  H104  1  0.03974000  0.52036000  0.93842000  1.0
  H  H105  1  0.49851000  0.47963000  0.06155000  1.0
  H  H106  1  0.22817000  0.56156000  0.02036000  1.0
  H  H107  1  0.81007000  0.43842000  0.97963000  1.0
  H  H108  1  0.53969000  0.93845000  0.52037000  1.0
  H  H109  1  0.99852000  0.06158000  0.47964000  1.0
  H  H110  1  0.72812000  0.02037000  0.56158000  1.0
  H  H111  1  0.31009000  0.97964000  0.43844000  1.0
  C  C112  1  0.63527000  0.90576000  0.85338000  1.0
  C  C113  1  0.39444000  0.09427000  0.14660000  1.0
  C  C114  1  0.73869000  0.64660000  0.40572000  1.0
  C  C115  1  0.79104000  0.35335000  0.59426000  1.0
  C  C116  1  0.13531000  0.85340000  0.90573000  1.0
  C  C117  1  0.89440000  0.14662000  0.09425000  1.0
  C  C118  1  0.23865000  0.40574000  0.64665000  1.0
  C  C119  1  0.29101000  0.59428000  0.35340000  1.0
  C  C120  1  0.56659000  0.83359000  0.80394000  1.0
  C  C121  1  0.20418000  0.16641000  0.19608000  1.0
  C  C122  1  0.62059000  0.69607000  0.33358000  1.0
  C  C123  1  0.65017000  0.30394000  0.66640000  1.0
  C  C124  1  0.06667000  0.80392000  0.83359000  1.0
  C  C125  1  0.70413000  0.19606000  0.16641000  1.0
  C  C126  1  0.12051000  0.33360000  0.69606000  1.0
  C  C127  1  0.15024000  0.66642000  0.30393000  1.0
  C  C128  1  0.55715000  0.90477000  0.76188000  1.0
  C  C129  1  0.22387000  0.09523000  0.23812000  1.0
  C  C130  1  0.56909000  0.73812000  0.40477000  1.0
  C  C131  1  0.71187000  0.26189000  0.59521000  1.0
  C  C132  1  0.05722000  0.76188000  0.90477000  1.0
  C  C133  1  0.72380000  0.23812000  0.09523000  1.0
  C  C134  1  0.06897000  0.40479000  0.73811000  1.0
  C  C135  1  0.21198000  0.59523000  0.26188000  1.0
  C  C136  1  0.53376000  0.85384000  0.09820000  1.0
  C  C137  1  0.48579000  0.14616000  0.90180000  1.0
  C  C138  1  0.88197000  0.40180000  0.35388000  1.0
  C  C139  1  0.63763000  0.59818000  0.64608000  1.0
  C  C140  1  0.03375000  0.09820000  0.85384000  1.0
  C  C141  1  0.98580000  0.90180000  0.14616000  1.0
  C  C142  1  0.38189000  0.35392000  0.40182000  1.0
  C  C143  1  0.13765000  0.64612000  0.59820000  1.0
  C  C144  1  0.72883000  0.80169000  0.07226000  1.0
  C  C145  1  0.60274000  0.19833000  0.92774000  1.0
  C  C146  1  0.05109000  0.42775000  0.30169000  1.0
  C  C147  1  0.78039000  0.57226000  0.69835000  1.0
  C  C148  1  0.22881000  0.07226000  0.80167000  1.0
  C  C149  1  0.10278000  0.92774000  0.19831000  1.0
  C  C150  1  0.55100000  0.30165000  0.42774000  1.0
  C  C151  1  0.28053000  0.69831000  0.57225000  1.0
  C  C152  1  0.67905000  0.84274000  0.14393000  1.0
  C  C153  1  0.66568000  0.15727000  0.85606000  1.0
  C  C154  1  0.07299000  0.35609000  0.34276000  1.0
  C  C155  1  0.77172000  0.64391000  0.65727000  1.0
  C  C156  1  0.17901000  0.14394000  0.84273000  1.0
  C  C157  1  0.16572000  0.85607000  0.15726000  1.0
  C  C158  1  0.57290000  0.34273000  0.35609000  1.0
  C  C159  1  0.27184000  0.65724000  0.64391000  1.0
  C  C160  1  0.40295000  0.74072000  0.97628000  1.0
  C  C161  1  0.11995000  0.25927000  0.02373000  1.0
  C  C162  1  0.62924000  0.52371000  0.24071000  1.0
  C  C163  1  0.39366000  0.47625000  0.75922000  1.0
  C  C164  1  0.90295000  0.97627000  0.74073000  1.0
  C  C165  1  0.61995000  0.02372000  0.25928000  1.0
  C  C166  1  0.12913000  0.24078000  0.52375000  1.0
  C  C167  1  0.89366000  0.75929000  0.47629000  1.0
  C  C168  1  0.50286000  0.64776000  0.04160000  1.0
  C  C169  1  0.19220000  0.35227000  0.95848000  1.0
  C  C170  1  0.79448000  0.45841000  0.14772000  1.0
  C  C171  1  0.40063000  0.54154000  0.85221000  1.0
  C  C172  1  0.00295000  0.04152000  0.64773000  1.0
  C  C173  1  0.69222000  0.95840000  0.35224000  1.0
  C  C174  1  0.29438000  0.14779000  0.45846000  1.0
  C  C175  1  0.90061000  0.85228000  0.54159000  1.0
  C  C176  1  0.38572000  0.64673000  0.06559000  1.0
  C  C177  1  0.09801000  0.35333000  0.93449000  1.0
  C  C178  1  0.70132000  0.43443000  0.14668000  1.0
  C  C179  1  0.28246000  0.56553000  0.85327000  1.0
  C  C180  1  0.88583000  0.06551000  0.64667000  1.0
  C  C181  1  0.59804000  0.93441000  0.35327000  1.0
  C  C182  1  0.20126000  0.14673000  0.43447000  1.0
  C  C183  1  0.78243000  0.85332000  0.56557000  1.0
  C  C184  1  0.88970000  0.65482000  0.84144000  1.0
  C  C185  1  0.38598000  0.34516000  0.15856000  1.0
  C  C186  1  0.98112000  0.65856000  0.15483000  1.0
  C  C187  1  0.79445000  0.34141000  0.84519000  1.0
  C  C188  1  0.38970000  0.84144000  0.65484000  1.0
  C  C189  1  0.88596000  0.15856000  0.34518000  1.0
  C  C190  1  0.48105000  0.15481000  0.65859000  1.0
  C  C191  1  0.29451000  0.84517000  0.34144000  1.0
  C  C192  1  0.85876000  0.61648000  0.96614000  1.0
  C  C193  1  0.44134000  0.38351000  0.03385000  1.0
  C  C194  1  0.07487000  0.53385000  0.11647000  1.0
  C  C195  1  0.72527000  0.46612000  0.88349000  1.0
  C  C196  1  0.35870000  0.96615000  0.61649000  1.0
  C  C197  1  0.94139000  0.03386000  0.38352000  1.0
  C  C198  1  0.57488000  0.11651000  0.53388000  1.0
  C  C199  1  0.22519000  0.88353000  0.46615000  1.0
  C  C200  1  0.97202000  0.56903000  0.92045000  1.0
  C  C201  1  0.46149000  0.43096000  0.07951000  1.0
  C  C202  1  0.14247000  0.57953000  0.06903000  1.0
  C  C203  1  0.79100000  0.42044000  0.93097000  1.0
  C  C204  1  0.47196000  0.92049000  0.56904000  1.0
  C  C205  1  0.96150000  0.07955000  0.43097000  1.0
  C  C206  1  0.64241000  0.06903000  0.57956000  1.0
  C  C207  1  0.29103000  0.93097000  0.42047000  1.0
  N  N208  1  0.61618000  0.83474000  0.86202000  1.0
  N  N209  1  0.31297000  0.16527000  0.13798000  1.0
  N  N210  1  0.72824000  0.63798000  0.33471000  1.0
  N  N211  1  0.70093000  0.36200000  0.66527000  1.0
  N  N212  1  0.11622000  0.86202000  0.83473000  1.0
  N  N213  1  0.81294000  0.13798000  0.16526000  1.0
  N  N214  1  0.22820000  0.33473000  0.63800000  1.0
  N  N215  1  0.20093000  0.66529000  0.36202000  1.0
  N  N216  1  0.60138000  0.95010000  0.79343000  1.0
  N  N217  1  0.34495000  0.04991000  0.20656000  1.0
  N  N218  1  0.64485000  0.70657000  0.45009000  1.0
  N  N219  1  0.80146000  0.29342000  0.54990000  1.0
  N  N220  1  0.10142000  0.79344000  0.95009000  1.0
  N  N221  1  0.84491000  0.20657000  0.04990000  1.0
  N  N222  1  0.14478000  0.45010000  0.70658000  1.0
  N  N223  1  0.30151000  0.54991000  0.29343000  1.0
  N  N224  1  0.63600000  0.80894000  0.04365000  1.0
  N  N225  1  0.48858000  0.19106000  0.95635000  1.0
  N  N226  1  0.92965000  0.45634000  0.30896000  1.0
  N  N227  1  0.69488000  0.54365000  0.69103000  1.0
  N  N228  1  0.13599000  0.04365000  0.80894000  1.0
  N  N229  1  0.98859000  0.95635000  0.19106000  1.0
  N  N230  1  0.42956000  0.30897000  0.45635000  1.0
  N  N231  1  0.19495000  0.69104000  0.54366000  1.0
  N  N232  1  0.55514000  0.87578000  0.15997000  1.0
  N  N233  1  0.59087000  0.12422000  0.84003000  1.0
  N  N234  1  0.96514000  0.34005000  0.37581000  1.0
  N  N235  1  0.68094000  0.65995000  0.62417000  1.0
  N  N236  1  0.05512000  0.15997000  0.87578000  1.0
  N  N237  1  0.09089000  0.84003000  0.12422000  1.0
  N  N238  1  0.46506000  0.37583000  0.34005000  1.0
  N  N239  1  0.18100000  0.62419000  0.65995000  1.0
  N  N240  1  0.51299000  0.70768000  0.98485000  1.0
  N  N241  1  0.20551000  0.29231000  0.01518000  1.0
  N  N242  1  0.74785000  0.51514000  0.20766000  1.0
  N  N243  1  0.47066000  0.48482000  0.79227000  1.0
  N  N244  1  0.01300000  0.98482000  0.70769000  1.0
  N  N245  1  0.70552000  0.01515000  0.29232000  1.0
  N  N246  1  0.24775000  0.20773000  0.51518000  1.0
  N  N247  1  0.97065000  0.79234000  0.48486000  1.0
  N  N248  1  0.32300000  0.70564000  0.02367000  1.0
  N  N249  1  0.05228000  0.29439000  0.97637000  1.0
  N  N250  1  0.59669000  0.47634000  0.20561000  1.0
  N  N251  1  0.27863000  0.52364000  0.79434000  1.0
  N  N252  1  0.82304000  0.02363000  0.70561000  1.0
  N  N253  1  0.55230000  0.97633000  0.29437000  1.0
  N  N254  1  0.09661000  0.20566000  0.47636000  1.0
  N  N255  1  0.77864000  0.79439000  0.52366000  1.0
  N  N256  1  0.80729000  0.67068000  0.91551000  1.0
  N  N257  1  0.39347000  0.32930000  0.08450000  1.0
  N  N258  1  0.97278000  0.58449000  0.17067000  1.0
  N  N259  1  0.72798000  0.41548000  0.82930000  1.0
  N  N260  1  0.30727000  0.91550000  0.67070000  1.0
  N  N261  1  0.89348000  0.08449000  0.32932000  1.0
  N  N262  1  0.47276000  0.17070000  0.58452000  1.0
  N  N263  1  0.22794000  0.82932000  0.41551000  1.0
  N  N264  1  0.99091000  0.59367000  0.84141000  1.0
  N  N265  1  0.42600000  0.40632000  0.15857000  1.0
  N  N266  1  0.08232000  0.65857000  0.09368000  1.0
  N  N267  1  0.83451000  0.34139000  0.90634000  1.0
  N  N268  1  0.49089000  0.84143000  0.59368000  1.0
  N  N269  1  0.92599000  0.15859000  0.40633000  1.0
  N  N270  1  0.58224000  0.09366000  0.65861000  1.0
  N  N271  1  0.33457000  0.90632000  0.34143000  1.0
