# generated using pymatgen
data_CuH28C20S4(NO)4
_symmetry_space_group_name_H-M   'P 1'
_cell_length_a   7.35917000
_cell_length_b   10.42180000
_cell_length_c   10.73840000
_cell_angle_alpha   96.18210000
_cell_angle_beta   92.37520000
_cell_angle_gamma   104.37200000
_symmetry_Int_Tables_number   1
_chemical_formula_structural   CuH28C20S4(NO)4
_chemical_formula_sum   'Cu1 H28 C20 S4 N4 O4'
_cell_volume   791.18624144
_cell_formula_units_Z   1
loop_
 _symmetry_equiv_pos_site_id
 _symmetry_equiv_pos_as_xyz
  1  'x, y, z'
loop_
 _atom_site_type_symbol
 _atom_site_label
 _atom_site_symmetry_multiplicity
 _atom_site_fract_x
 _atom_site_fract_y
 _atom_site_fract_z
 _atom_site_occupancy
  Cu  Cu0  1  0.50000000  0.50001000  0.50000000  1.0
  H  H1  1  0.71400000  0.35996000  0.97331000  1.0
  H  H2  1  0.28601000  0.64003000  0.02670000  1.0
  H  H3  1  0.55788000  0.46188000  0.76912000  1.0
  H  H4  1  0.44212000  0.53813000  0.23088000  1.0
  H  H5  1  0.35807000  0.42466000  0.95145000  1.0
  H  H6  1  0.64193000  0.57533000  0.04855000  1.0
  H  H7  1  0.89456000  0.47131000  0.71423000  1.0
  H  H8  1  0.10544000  0.52868000  0.28577000  1.0
  H  H9  1  0.11716000  0.50905000  0.54475000  1.0
  H  H10  1  0.88284000  0.49096000  0.45526000  1.0
  H  H11  1  0.91544000  0.29787000  0.10427000  1.0
  H  H12  1  0.08457000  0.70211000  0.89573000  1.0
  H  H13  1  0.15831000  0.35435000  0.08871000  1.0
  H  H14  1  0.84171000  0.64563000  0.91129000  1.0
  H  H15  1  0.01611000  0.23041000  0.97284000  1.0
  H  H16  1  0.98389000  0.76956000  0.02715000  1.0
  H  H17  1  0.42928000  0.19144000  0.73845000  1.0
  H  H18  1  0.57072000  0.80857000  0.26155000  1.0
  H  H19  1  0.34703000  0.03306000  0.64027000  1.0
  H  H20  1  0.65296000  0.96694000  0.35973000  1.0
  H  H21  1  0.27528000  0.17625000  0.59911000  1.0
  H  H22  1  0.72472000  0.82376000  0.40090000  1.0
  H  H23  1  0.88148000  0.14090000  0.59388000  1.0
  H  H24  1  0.11851000  0.85910000  0.40612000  1.0
  H  H25  1  0.69508000  0.01691000  0.64555000  1.0
  H  H26  1  0.30490000  0.98309000  0.35444000  1.0
  H  H27  1  0.77091000  0.18107000  0.73571000  1.0
  H  H28  1  0.22908000  0.81893000  0.26429000  1.0
  C  C29  1  0.41072000  0.46464000  0.76263000  1.0
  C  C30  1  0.58928000  0.53537000  0.23737000  1.0
  C  C31  1  0.29812000  0.44466000  0.86339000  1.0
  C  C32  1  0.70188000  0.55534000  0.13660000  1.0
  C  C33  1  0.10833000  0.44661000  0.84941000  1.0
  C  C34  1  0.89168000  0.55337000  0.15060000  1.0
  C  C35  1  0.04051000  0.47031000  0.73276000  1.0
  C  C36  1  0.95949000  0.52968000  0.26724000  1.0
  C  C37  1  0.16159000  0.48908000  0.63675000  1.0
  C  C38  1  0.83842000  0.51092000  0.36325000  1.0
  C  C39  1  0.98328000  0.42867000  0.95809000  1.0
  C  C40  1  0.01672000  0.57131000  0.04192000  1.0
  C  C41  1  0.02124000  0.32194000  0.03536000  1.0
  C  C42  1  0.97876000  0.67805000  0.96463000  1.0
  C  C43  1  0.17217000  0.27186000  0.37157000  1.0
  C  C44  1  0.82785000  0.72816000  0.62843000  1.0
  C  C45  1  0.38949000  0.14199000  0.64231000  1.0
  C  C46  1  0.61050000  0.85803000  0.35770000  1.0
  C  C47  1  0.75046000  0.12426000  0.64181000  1.0
  C  C48  1  0.24954000  0.87575000  0.35818000  1.0
  S  S49  1  0.99974000  0.14147000  0.33329000  1.0
  S  S50  1  0.00028000  0.85855000  0.66666667  1.0
  S  S51  1  0.58842000  0.18461000  0.54794000  1.0
  S  S52  1  0.41157000  0.81540000  0.45206000  1.0
  N  N53  1  0.34200000  0.48506000  0.65084000  1.0
  N  N54  1  0.65799000  0.51496000  0.34916000  1.0
  N  N55  1  0.29818000  0.36921000  0.39717000  1.0
  N  N56  1  0.70183000  0.63083000  0.60283000  1.0
  O  O57  1  0.79184000  0.38811000  0.90496000  1.0
  O  O58  1  0.20815000  0.61186000  0.09504000  1.0
  O  O59  1  0.65869000  0.33500000  0.56709000  1.0
  O  O60  1  0.34130000  0.66501000  0.43291000  1.0
