# generated using pymatgen
data_ZnH4C3N4O3
_symmetry_space_group_name_H-M   'P 1'
_cell_length_a   7.68766000
_cell_length_b   12.70760000
_cell_length_c   12.83200000
_cell_angle_alpha   90.00000000
_cell_angle_beta   90.00000000
_cell_angle_gamma   90.00000000
_symmetry_Int_Tables_number   1
_chemical_formula_structural   ZnH4C3N4O3
_chemical_formula_sum   'Zn8 H32 C24 N32 O24'
_cell_volume   1253.57999983
_cell_formula_units_Z   8
loop_
 _symmetry_equiv_pos_site_id
 _symmetry_equiv_pos_as_xyz
  1  'x, y, z'
loop_
 _atom_site_type_symbol
 _atom_site_label
 _atom_site_symmetry_multiplicity
 _atom_site_fract_x
 _atom_site_fract_y
 _atom_site_fract_z
 _atom_site_occupancy
  Zn  Zn0  1  0.87344000  0.28667000  0.49679000  1.0
  Zn  Zn1  1  0.87344000  0.21333000  0.00321000  1.0
  Zn  Zn2  1  0.37340000  0.99750000  0.71396000  1.0
  Zn  Zn3  1  0.37340000  0.50250000  0.78604000  1.0
  Zn  Zn4  1  0.12656000  0.71333000  0.50321000  1.0
  Zn  Zn5  1  0.12656000  0.78667000  0.99679000  1.0
  Zn  Zn6  1  0.62661000  0.00250000  0.28604000  1.0
  Zn  Zn7  1  0.62660000  0.49750000  0.21396000  1.0
  H  H8  1  0.14948000  0.39506000  0.58206000  1.0
  H  H9  1  0.14948000  0.10494000  0.91794000  1.0
  H  H10  1  0.64969000  0.08201000  0.60529000  1.0
  H  H11  1  0.64969000  0.41799000  0.89471000  1.0
  H  H12  1  0.85052000  0.60494000  0.41794000  1.0
  H  H13  1  0.85052000  0.89506000  0.08206000  1.0
  H  H14  1  0.35031000  0.91799000  0.39471000  1.0
  H  H15  1  0.35031000  0.58201000  0.10529000  1.0
  H  H16  1  0.98704000  0.39713000  0.65940000  1.0
  H  H17  1  0.98704000  0.10287000  0.84060000  1.0
  H  H18  1  0.48730000  0.16030000  0.60204000  1.0
  H  H19  1  0.48730000  0.33970000  0.89797000  1.0
  H  H20  1  0.01296000  0.60287000  0.34060000  1.0
  H  H21  1  0.01296000  0.89713000  0.15940000  1.0
  H  H22  1  0.51270000  0.83970000  0.39796000  1.0
  H  H23  1  0.51270000  0.66029000  0.10204000  1.0
  H  H24  1  0.19424000  0.41409000  0.23541000  1.0
  H  H25  1  0.19424000  0.08591000  0.26459000  1.0
  H  H26  1  0.69398000  0.73470000  0.58554000  1.0
  H  H27  1  0.69398000  0.76530000  0.91446000  1.0
  H  H28  1  0.80576000  0.58591000  0.76459000  1.0
  H  H29  1  0.80576000  0.91409000  0.73541000  1.0
  H  H30  1  0.30602000  0.26530000  0.41446000  1.0
  H  H31  1  0.30602000  0.23470000  0.08554000  1.0
  H  H32  1  0.03987000  0.34919000  0.15870000  1.0
  H  H33  1  0.03987000  0.15081000  0.34130000  1.0
  H  H34  1  0.53972000  0.65662000  0.64916000  1.0
  H  H35  1  0.53972000  0.84338000  0.85084000  1.0
  H  H36  1  0.96013000  0.65081000  0.84130000  1.0
  H  H37  1  0.96013000  0.84919000  0.65870000  1.0
  H  H38  1  0.46027000  0.34338000  0.35084000  1.0
  H  H39  1  0.46028000  0.15662000  0.14916000  1.0
  C  C40  1  0.01055000  0.51516000  0.16260000  1.0
  C  C41  1  0.01055000  0.98484000  0.33740000  1.0
  C  C42  1  0.51048000  0.66199000  0.48477000  1.0
  C  C43  1  0.51048000  0.83801000  0.01523000  1.0
  C  C44  1  0.98945000  0.48484000  0.83740000  1.0
  C  C45  1  0.98945000  0.01516000  0.66260000  1.0
  C  C46  1  0.48952000  0.33800000  0.51523000  1.0
  C  C47  1  0.48952000  0.16200000  0.98477000  1.0
  C  C48  1  0.05612000  0.41436000  0.21463000  1.0
  C  C49  1  0.05612000  0.08564000  0.28537000  1.0
  C  C50  1  0.55589000  0.71362000  0.58509000  1.0
  C  C51  1  0.55589000  0.78638000  0.91491000  1.0
  C  C52  1  0.94389000  0.58564000  0.78537000  1.0
  C  C53  1  0.94388000  0.91436000  0.71463000  1.0
  C  C54  1  0.44410000  0.28638000  0.41491000  1.0
  C  C55  1  0.44410000  0.21362000  0.08509000  1.0
  C  C56  1  0.94595000  0.38270000  0.30821000  1.0
  C  C57  1  0.94595000  0.11730000  0.19179000  1.0
  C  C58  1  0.44575000  0.80789000  0.61730000  1.0
  C  C59  1  0.44575000  0.69211000  0.88270000  1.0
  C  C60  1  0.05403000  0.61731000  0.69178000  1.0
  C  C61  1  0.05403000  0.88269000  0.80822000  1.0
  C  C62  1  0.55427000  0.19211000  0.38270000  1.0
  C  C63  1  0.55427000  0.30789000  0.11730000  1.0
  N  N64  1  0.12440000  0.57810000  0.11376000  1.0
  N  N65  1  0.12441000  0.92190000  0.38624000  1.0
  N  N66  1  0.62451000  0.61398000  0.42154000  1.0
  N  N67  1  0.62451000  0.88602000  0.07846000  1.0
  N  N68  1  0.87560000  0.42190000  0.88624000  1.0
  N  N69  1  0.87560000  0.07810000  0.61376000  1.0
  N  N70  1  0.37549000  0.38602000  0.57846000  1.0
  N  N71  1  0.37549000  0.11398000  0.92154000  1.0
  N  N72  1  0.02827000  0.65842000  0.07671000  1.0
  N  N73  1  0.02827000  0.84158000  0.42329000  1.0
  N  N74  1  0.52836000  0.57739000  0.34163000  1.0
  N  N75  1  0.52836000  0.92261000  0.15837000  1.0
  N  N76  1  0.97174000  0.34158000  0.92330000  1.0
  N  N77  1  0.97173000  0.15841000  0.57670000  1.0
  N  N78  1  0.47164000  0.42261000  0.65837000  1.0
  N  N79  1  0.47164000  0.07739000  0.84163000  1.0
  N  N80  1  0.86336000  0.64722000  0.10106000  1.0
  N  N81  1  0.86336000  0.85278000  0.39894000  1.0
  N  N82  1  0.36323000  0.60119000  0.35339000  1.0
  N  N83  1  0.36323000  0.89882000  0.14662000  1.0
  N  N84  1  0.13664000  0.35278000  0.89894000  1.0
  N  N85  1  0.13664000  0.14722000  0.60106000  1.0
  N  N86  1  0.63677000  0.39881000  0.64661000  1.0
  N  N87  1  0.63677000  0.10119000  0.85339000  1.0
  N  N88  1  0.84957000  0.55734000  0.15489000  1.0
  N  N89  1  0.84957000  0.94266000  0.34510000  1.0
  N  N90  1  0.34935000  0.65416000  0.44322000  1.0
  N  N91  1  0.34935000  0.84584000  0.05678000  1.0
  N  N92  1  0.15043000  0.44267000  0.84511000  1.0
  N  N93  1  0.15043000  0.05733000  0.65490000  1.0
  N  N94  1  0.65065000  0.34584000  0.55678000  1.0
  N  N95  1  0.65065000  0.15416000  0.94322000  1.0
  O  O96  1  0.78914000  0.41045000  0.31790000  1.0
  O  O97  1  0.78916000  0.08955000  0.18210000  1.0
  O  O98  1  0.28932000  0.81839000  0.58918000  1.0
  O  O99  1  0.28933000  0.68161000  0.91082000  1.0
  O  O100  1  0.21086000  0.58955000  0.68210000  1.0
  O  O101  1  0.21086000  0.91045000  0.81790000  1.0
  O  O102  1  0.71066000  0.18161000  0.41081000  1.0
  O  O103  1  0.71066000  0.31839000  0.08919000  1.0
  O  O104  1  0.01863000  0.39722000  0.58605000  1.0
  O  O105  1  0.01862000  0.10278000  0.91395000  1.0
  O  O106  1  0.51881000  0.08625000  0.60383000  1.0
  O  O107  1  0.51881000  0.41375000  0.89617000  1.0
  O  O108  1  0.98138000  0.60278000  0.41394000  1.0
  O  O109  1  0.98138000  0.89722000  0.08606000  1.0
  O  O110  1  0.48120000  0.91375000  0.39617000  1.0
  O  O111  1  0.48120000  0.58625000  0.10383000  1.0
  O  O112  1  0.02240000  0.32264000  0.37428000  1.0
  O  O113  1  0.02240000  0.17736000  0.12571000  1.0
  O  O114  1  0.52191000  0.87351000  0.67804000  1.0
  O  O115  1  0.52191000  0.62650000  0.82197000  1.0
  O  O116  1  0.97760000  0.67736000  0.62572000  1.0
  O  O117  1  0.97760000  0.82264000  0.87428000  1.0
  O  O118  1  0.47809000  0.12649000  0.32196000  1.0
  O  O119  1  0.47808000  0.37351000  0.17804000  1.0
