# generated using pymatgen
data_Zn4H6C24S4Cl2O17
_symmetry_space_group_name_H-M   'P 1'
_cell_length_a   19.69200000
_cell_length_b   19.70680000
_cell_length_c   33.43880000
_cell_angle_alpha   78.97730000
_cell_angle_beta   79.01910000
_cell_angle_gamma   63.84710000
_symmetry_Int_Tables_number   1
_chemical_formula_structural   Zn4H6C24S4Cl2O17
_chemical_formula_sum   'Zn16 H24 C96 S16 Cl8 O68'
_cell_volume   11349.69439174
_cell_formula_units_Z   4
loop_
 _symmetry_equiv_pos_site_id
 _symmetry_equiv_pos_as_xyz
  1  'x, y, z'
loop_
 _atom_site_type_symbol
 _atom_site_label
 _atom_site_symmetry_multiplicity
 _atom_site_fract_x
 _atom_site_fract_y
 _atom_site_fract_z
 _atom_site_occupancy
  Zn  Zn0  1  0.05726000  0.40021000  0.47865000  1.0
  Zn  Zn1  1  0.98375000  0.48326000  0.55943000  1.0
  Zn  Zn2  1  0.05844000  0.56152000  0.48258000  1.0
  Zn  Zn3  1  0.90063000  0.55468000  0.47935000  1.0
  Zn  Zn4  1  0.69343000  0.34962000  0.27098000  1.0
  Zn  Zn5  1  0.68933000  0.19007000  0.26757000  1.0
  Zn  Zn6  1  0.76873000  0.26563000  0.19020000  1.0
  Zn  Zn7  1  0.84732000  0.19417000  0.27208000  1.0
  Zn  Zn8  1  0.26734000  0.76787000  0.68980000  1.0
  Zn  Zn9  1  0.34862000  0.69547000  0.77092000  1.0
  Zn  Zn10  1  0.19285000  0.84908000  0.77160000  1.0
  Zn  Zn11  1  0.19172000  0.68872000  0.76723000  1.0
  Zn  Zn12  1  0.56023000  0.05987000  0.98250000  1.0
  Zn  Zn13  1  0.40128000  0.05611000  0.97871000  1.0
  Zn  Zn14  1  0.55614000  0.90120000  0.97873000  1.0
  Zn  Zn15  1  0.48281000  0.98227000  0.06003000  1.0
  H  H16  1  0.46288000  0.24004000  0.34090000  1.0
  H  H17  1  0.47926000  0.70243000  0.60125000  1.0
  H  H18  1  0.20243000  0.97927000  0.60146000  1.0
  H  H19  1  0.94879000  0.97028000  0.34806000  1.0
  H  H20  1  0.54767000  0.77053000  0.14854000  1.0
  H  H21  1  0.16260000  0.14127000  0.04036000  1.0
  H  H22  1  0.30087000  0.27981000  0.90191000  1.0
  H  H23  1  0.78692000  0.01005000  0.90909000  1.0
  H  H24  1  0.81014000  0.52707000  0.41859000  1.0
  H  H25  1  0.93983000  0.22298000  0.33130000  1.0
  H  H26  1  0.72276000  0.44005000  0.33135000  1.0
  H  H27  1  0.02723000  0.30993000  0.41861000  1.0
  H  H28  1  0.13584000  0.63579000  0.52703000  1.0
  H  H29  1  0.11443000  0.61445000  0.72290000  1.0
  H  H30  1  0.22302000  0.72300000  0.61439000  1.0
  H  H31  1  0.02720000  0.52716000  0.63571000  1.0
  H  H32  1  0.72291000  0.22285000  0.11441000  1.0
  H  H33  1  0.52697000  0.02710000  0.13556000  1.0
  H  H34  1  0.63565000  0.13574000  0.02707000  1.0
  H  H35  1  0.61425000  0.11413000  0.22287000  1.0
  H  H36  1  0.22273000  0.94013000  0.83143000  1.0
  H  H37  1  0.52732000  0.80996000  0.91866000  1.0
  H  H38  1  0.31017000  0.02715000  0.91868000  1.0
  H  H39  1  0.43990000  0.72301000  0.83147000  1.0
  C  C40  1  0.06158000  0.31619000  0.56155000  1.0
  C  C41  1  0.06996000  0.57047000  0.56994000  1.0
  C  C42  1  0.18383000  0.43932000  0.43879000  1.0
  C  C43  1  0.93755000  0.68405000  0.43884000  1.0
  C  C44  1  0.93011000  0.42958000  0.43015000  1.0
  C  C45  1  0.81629000  0.56115000  0.56175000  1.0
  C  C46  1  0.56543000  0.31119000  0.31148000  1.0
  C  C47  1  0.68018000  0.17955000  0.18012000  1.0
  C  C48  1  0.68910000  0.43345000  0.18839000  1.0
  C  C49  1  0.93450000  0.18788000  0.18923000  1.0
  C  C50  1  0.81965000  0.32013000  0.32007000  1.0
  C  C51  1  0.81141000  0.06554000  0.31165000  1.0
  C  C52  1  0.43413000  0.68916000  0.68813000  1.0
  C  C53  1  0.31987000  0.82044000  0.81991000  1.0
  C  C54  1  0.18882000  0.93425000  0.68833000  1.0
  C  C55  1  0.06608000  0.81068000  0.81130000  1.0
  C  C56  1  0.18045000  0.67987000  0.67994000  1.0
  C  C57  1  0.31234000  0.56596000  0.81123000  1.0
  C  C58  1  0.43810000  0.18431000  0.93852000  1.0
  C  C59  1  0.43006000  0.93001000  0.93010000  1.0
  C  C60  1  0.68438000  0.93885000  0.93857000  1.0
  C  C61  1  0.56135000  0.81573000  0.06168000  1.0
  C  C62  1  0.57003000  0.06995000  0.06989000  1.0
  C  C63  1  0.31550000  0.06162000  0.06127000  1.0
  C  C64  1  0.90218000  0.40190000  0.40198000  1.0
  C  C65  1  0.84792000  0.34810000  0.34788000  1.0
  C  C66  1  0.82920000  0.44779000  0.38833000  1.0
  C  C67  1  0.92098000  0.30229000  0.36148000  1.0
  C  C68  1  0.80229000  0.42105000  0.36149000  1.0
  C  C69  1  0.94789000  0.32900000  0.38832000  1.0
  C  C70  1  0.09814000  0.59820000  0.59793000  1.0
  C  C71  1  0.15223000  0.65213000  0.65198000  1.0
  C  C72  1  0.14149000  0.64146000  0.58183000  1.0
  C  C73  1  0.10886000  0.60887000  0.66808000  1.0
  C  C74  1  0.16829000  0.66829000  0.60866000  1.0
  C  C75  1  0.08206000  0.58202000  0.64124000  1.0
  C  C76  1  0.30449000  0.45489000  0.40104000  1.0
  C  C77  1  0.44591000  0.29673000  0.34891000  1.0
  C  C78  1  0.25843000  0.41572000  0.41393000  1.0
  C  C79  1  0.49077000  0.33663000  0.33650000  1.0
  C  C80  1  0.37773000  0.33980000  0.37249000  1.0
  C  C81  1  0.37257000  0.41146000  0.37738000  1.0
  C  C82  1  0.72605000  0.57588000  0.62980000  1.0
  C  C83  1  0.52407000  0.67362000  0.62117000  1.0
  C  C84  1  0.74236000  0.58538000  0.58718000  1.0
  C  C85  1  0.50915000  0.66367000  0.66354000  1.0
  C  C86  1  0.60332000  0.64154000  0.60874000  1.0
  C  C87  1  0.64660000  0.60800000  0.64205000  1.0
  C  C88  1  0.07593000  0.22600000  0.62966000  1.0
  C  C89  1  0.17363000  0.02411000  0.62131000  1.0
  C  C90  1  0.08550000  0.24226000  0.58703000  1.0
  C  C91  1  0.16361000  0.00926000  0.66368000  1.0
  C  C92  1  0.14161000  0.10329000  0.60877000  1.0
  C  C93  1  0.10802000  0.14661000  0.64202000  1.0
  C  C94  1  0.84312000  0.80067000  0.39714000  1.0
  C  C95  1  0.90458000  0.94972000  0.35257000  1.0
  C  C96  1  0.91172000  0.75836000  0.41374000  1.0
  C  C97  1  0.83594000  0.99071000  0.33645000  1.0
  C  C98  1  0.90745000  0.88013000  0.37478000  1.0
  C  C99  1  0.84078000  0.87015000  0.37492000  1.0
  C  C100  1  0.65198000  0.15188000  0.15205000  1.0
  C  C101  1  0.59796000  0.09795000  0.09789000  1.0
  C  C102  1  0.66810000  0.16809000  0.10874000  1.0
  C  C103  1  0.58180000  0.08185000  0.14121000  1.0
  C  C104  1  0.64130000  0.14127000  0.08187000  1.0
  C  C105  1  0.60857000  0.10865000  0.16807000  1.0
  C  C106  1  0.67411000  0.52381000  0.12027000  1.0
  C  C107  1  0.57651000  0.72571000  0.12867000  1.0
  C  C108  1  0.66469000  0.50745000  0.16289000  1.0
  C  C109  1  0.58652000  0.74067000  0.08629000  1.0
  C  C110  1  0.60844000  0.64650000  0.14119000  1.0
  C  C111  1  0.64197000  0.60323000  0.10792000  1.0
  C  C112  1  0.08177000  0.12399000  0.17803000  1.0
  C  C113  1  0.17002000  0.12488000  0.07274000  1.0
  C  C114  1  0.00966000  0.16283000  0.16493000  1.0
  C  C115  1  0.24103000  0.08625000  0.08648000  1.0
  C  C116  1  0.11164000  0.13879000  0.10612000  1.0
  C  C117  1  0.13989000  0.11030000  0.14444000  1.0
  C  C118  1  0.34791000  0.84829000  0.84794000  1.0
  C  C119  1  0.40206000  0.90215000  0.90208000  1.0
  C  C120  1  0.30219000  0.92119000  0.86161000  1.0
  C  C121  1  0.44778000  0.82920000  0.88846000  1.0
  C  C122  1  0.32904000  0.94793000  0.88845000  1.0
  C  C123  1  0.42088000  0.80245000  0.86161000  1.0
  C  C124  1  0.40681000  0.44918000  0.85286000  1.0
  C  C125  1  0.34517000  0.30024000  0.89745000  1.0
  C  C126  1  0.33818000  0.49155000  0.83627000  1.0
  C  C127  1  0.41377000  0.25909000  0.91361000  1.0
  C  C128  1  0.34246000  0.36974000  0.87521000  1.0
  C  C129  1  0.40918000  0.37964000  0.87507000  1.0
  C  C130  1  0.94532000  0.79519000  0.84899000  1.0
  C  C131  1  0.80389000  0.95333000  0.90114000  1.0
  C  C132  1  0.99138000  0.83436000  0.83608000  1.0
  C  C133  1  0.75910000  0.91337000  0.91363000  1.0
  C  C134  1  0.87201000  0.91028000  0.87752000  1.0
  C  C135  1  0.87721000  0.83858000  0.87265000  1.0
  S  S136  1  0.29863000  0.32623000  0.39705000  1.0
  S  S137  1  0.45099000  0.42617000  0.35316000  1.0
  S  S138  1  0.66065000  0.63333000  0.56245000  1.0
  S  S139  1  0.59044000  0.61568000  0.68854000  1.0
  S  S140  1  0.13347000  0.16054000  0.56241000  1.0
  S  S141  1  0.11561000  0.09056000  0.68857000  1.0
  S  S142  1  0.97281000  0.80375000  0.40206000  1.0
  S  S143  1  0.77469000  0.94567000  0.34793000  1.0
  S  S144  1  0.61664000  0.58917000  0.18754000  1.0
  S  S145  1  0.63445000  0.65937000  0.06138000  1.0
  S  S146  1  0.01347000  0.18235000  0.11168000  1.0
  S  S147  1  0.23772000  0.06654000  0.13964000  1.0
  S  S148  1  0.27710000  0.44615000  0.84794000  1.0
  S  S149  1  0.47518000  0.30399000  0.90208000  1.0
  S  S150  1  0.95111000  0.92389000  0.85294000  1.0
  S  S151  1  0.79886000  0.82383000  0.89695000  1.0
  Cl  Cl152  1  0.28547000  0.54348000  0.41122000  1.0
  Cl  Cl153  1  0.79014000  0.53213000  0.66459000  1.0
  Cl  Cl154  1  0.03222000  0.29006000  0.66440000  1.0
  Cl  Cl155  1  0.76907000  0.77582000  0.40162000  1.0
  Cl  Cl156  1  0.71774000  0.45975000  0.08553000  1.0
  Cl  Cl157  1  0.10202000  0.09498000  0.22747000  1.0
  Cl  Cl158  1  0.48087000  0.47399000  0.84841000  1.0
  Cl  Cl159  1  0.96444000  0.70660000  0.83877000  1.0
  O  O160  1  0.00051000  0.49939000  0.49945000  1.0
  O  O161  1  0.07807000  0.31448000  0.52260000  1.0
  O  O162  1  0.03102000  0.53127000  0.58525000  1.0
  O  O163  1  0.15498000  0.50508000  0.45076000  1.0
  O  O164  1  0.02676000  0.37542000  0.58009000  1.0
  O  O165  1  0.15430000  0.39100000  0.44623000  1.0
  O  O166  1  0.08474000  0.58601000  0.53083000  1.0
  O  O167  1  0.00412000  0.65855000  0.45015000  1.0
  O  O168  1  0.88739000  0.49558000  0.44221000  1.0
  O  O169  1  0.89239000  0.65138000  0.44730000  1.0
  O  O170  1  0.99636000  0.38722000  0.44208000  1.0
  O  O171  1  0.87573000  0.52661000  0.58018000  1.0
  O  O172  1  0.81438000  0.57711000  0.52279000  1.0
  O  O173  1  0.74912000  0.25029000  0.25026000  1.0
  O  O174  1  0.59656000  0.35802000  0.30337000  1.0
  O  O175  1  0.66471000  0.16440000  0.21921000  1.0
  O  O176  1  0.72456000  0.37405000  0.17003000  1.0
  O  O177  1  0.59254000  0.24492000  0.30006000  1.0
  O  O178  1  0.67227000  0.43542000  0.22732000  1.0
  O  O179  1  0.71973000  0.21818000  0.16490000  1.0
  O  O180  1  0.87702000  0.22274000  0.16880000  1.0
  O  O181  1  0.86190000  0.25368000  0.30839000  1.0
  O  O182  1  0.93237000  0.17311000  0.22815000  1.0
  O  O183  1  0.75346000  0.36251000  0.30804000  1.0
  O  O184  1  0.74507000  0.09303000  0.29996000  1.0
  O  O185  1  0.85818000  0.09653000  0.30395000  1.0
  O  O186  1  0.24968000  0.75088000  0.74980000  1.0
  O  O187  1  0.37583000  0.72445000  0.66866000  1.0
  O  O188  1  0.36250000  0.75435000  0.80791000  1.0
  O  O189  1  0.17280000  0.93403000  0.72731000  1.0
  O  O190  1  0.43409000  0.67355000  0.72713000  1.0
  O  O191  1  0.22429000  0.87617000  0.66875000  1.0
  O  O192  1  0.25352000  0.86266000  0.80805000  1.0
  O  O193  1  0.09558000  0.85906000  0.80385000  1.0
  O  O194  1  0.16562000  0.66427000  0.71904000  1.0
  O  O195  1  0.09523000  0.74487000  0.79936000  1.0
  O  O196  1  0.21945000  0.71912000  0.66466000  1.0
  O  O197  1  0.35751000  0.59867000  0.80290000  1.0
  O  O198  1  0.24583000  0.59166000  0.79983000  1.0
  O  O199  1  0.50006000  0.99994000  0.99999000  1.0
  O  O200  1  0.50465000  0.15664000  0.94997000  1.0
  O  O201  1  0.38763000  0.99623000  0.94204000  1.0
  O  O202  1  0.65324000  0.89200000  0.94661000  1.0
  O  O203  1  0.39111000  0.15356000  0.94657000  1.0
  O  O204  1  0.65711000  0.00511000  0.94999000  1.0
  O  O205  1  0.49631000  0.88758000  0.94204000  1.0
  O  O206  1  0.57732000  0.81591000  0.02269000  1.0
  O  O207  1  0.53094000  0.03081000  0.08513000  1.0
  O  O208  1  0.52592000  0.87394000  0.08116000  1.0
  O  O209  1  0.58529000  0.08520000  0.03078000  1.0
  O  O210  1  0.31536000  0.07785000  0.02240000  1.0
  O  O211  1  0.37407000  0.02594000  0.08068000  1.0
  O  O212  1  0.78266000  0.51746000  0.39984000  1.0
  O  O213  1  0.96750000  0.23263000  0.34990000  1.0
  O  O214  1  0.73258000  0.46759000  0.34995000  1.0
  O  O215  1  0.01758000  0.28240000  0.39992000  1.0
  O  O216  1  0.15905000  0.65883000  0.54118000  1.0
  O  O217  1  0.09123000  0.59147000  0.70871000  1.0
  O  O218  1  0.20895000  0.70896000  0.59119000  1.0
  O  O219  1  0.04144000  0.54138000  0.65877000  1.0
  O  O220  1  0.70866000  0.20881000  0.09128000  1.0
  O  O221  1  0.54114000  0.04120000  0.15869000  1.0
  O  O222  1  0.65886000  0.15876000  0.04123000  1.0
  O  O223  1  0.59101000  0.09114000  0.20870000  1.0
  O  O224  1  0.23249000  0.96770000  0.85004000  1.0
  O  O225  1  0.51746000  0.78256000  0.90001000  1.0
  O  O226  1  0.28248000  0.01759000  0.90005000  1.0
  O  O227  1  0.46737000  0.73277000  0.85014000  1.0
