# generated using pymatgen
data_CoH16(C12N5)2
_symmetry_space_group_name_H-M   'P 1'
_cell_length_a   9.35097000
_cell_length_b   16.48780000
_cell_length_c   16.48810000
_cell_angle_alpha   116.48700000
_cell_angle_beta   100.89400000
_cell_angle_gamma   100.90900000
_symmetry_Int_Tables_number   1
_chemical_formula_structural   CoH16(C12N5)2
_chemical_formula_sum   'Co3 H48 C72 N30'
_cell_volume   2123.28959684
_cell_formula_units_Z   3
loop_
 _symmetry_equiv_pos_site_id
 _symmetry_equiv_pos_as_xyz
  1  'x, y, z'
loop_
 _atom_site_type_symbol
 _atom_site_label
 _atom_site_symmetry_multiplicity
 _atom_site_fract_x
 _atom_site_fract_y
 _atom_site_fract_z
 _atom_site_occupancy
  Co  Co0  1  0.00000000  0.50000000  0.50000000  1.0
  Co  Co1  1  0.50000000  0.50000000  0.00000000  1.0
  Co  Co2  1  0.50000000  0.00000000  0.50000000  1.0
  H  H3  1  0.92056000  0.28076000  0.42224000  1.0
  H  H4  1  0.49851000  0.57771000  0.85857000  1.0
  H  H5  1  0.63948000  0.14141000  0.71912000  1.0
  H  H6  1  0.07944000  0.71924000  0.57775000  1.0
  H  H7  1  0.50149000  0.42229000  0.14143000  1.0
  H  H8  1  0.36052000  0.85859000  0.28089000  1.0
  H  H9  1  0.67639000  0.14361000  0.33271000  1.0
  H  H10  1  0.34391000  0.66715000  0.81077000  1.0
  H  H11  1  0.53223000  0.18909000  0.85616000  1.0
  H  H12  1  0.32360000  0.85639000  0.66729000  1.0
  H  H13  1  0.65609000  0.33285000  0.18923000  1.0
  H  H14  1  0.46777000  0.81092000  0.14384000  1.0
  H  H15  1  0.42924000  0.17498000  0.28495000  1.0
  H  H16  1  0.14437000  0.71487000  0.88971000  1.0
  H  H17  1  0.25376000  0.11003000  0.82479000  1.0
  H  H18  1  0.57076000  0.82502000  0.71506000  1.0
  H  H19  1  0.85563000  0.28513000  0.11028000  1.0
  H  H20  1  0.74625000  0.88997000  0.17522000  1.0
  H  H21  1  0.43919000  0.34490000  0.33119000  1.0
  H  H22  1  0.10798000  0.66880000  0.01354000  1.0
  H  H23  1  0.09374000  0.98639000  0.65482000  1.0
  H  H24  1  0.56080000  0.65510000  0.66881000  1.0
  H  H25  1  0.89203000  0.33121000  0.98645000  1.0
  H  H26  1  0.90626000  0.01361000  0.34518000  1.0
  H  H27  1  0.41952000  0.63445000  0.38435000  1.0
  H  H28  1  0.03580000  0.61581000  0.25034000  1.0
  H  H29  1  0.78519000  0.74989000  0.36543000  1.0
  H  H30  1  0.58048000  0.36555000  0.61565000  1.0
  H  H31  1  0.96419000  0.38419000  0.74966000  1.0
  H  H32  1  0.21481000  0.25011000  0.63457000  1.0
  H  H33  1  0.34514000  0.77834000  0.40400000  1.0
  H  H34  1  0.94196000  0.59619000  0.37468000  1.0
  H  H35  1  0.56706000  0.62543000  0.22160000  1.0
  H  H36  1  0.65486000  0.22166000  0.59600000  1.0
  H  H37  1  0.05803000  0.40381000  0.62532000  1.0
  H  H38  1  0.43294000  0.37457000  0.77839000  1.0
  H  H39  1  0.76035000  0.96064000  0.61099000  1.0
  H  H40  1  0.14889000  0.38850000  0.34940000  1.0
  H  H41  1  0.79932000  0.65057000  0.03915000  1.0
  H  H42  1  0.23966000  0.03936000  0.38901000  1.0
  H  H43  1  0.85111000  0.61150000  0.65060000  1.0
  H  H44  1  0.20068000  0.34943000  0.96085000  1.0
  H  H45  1  0.85540000  0.82418000  0.59514000  1.0
  H  H46  1  0.25937000  0.40418000  0.22849000  1.0
  H  H47  1  0.03068000  0.77150000  0.17555000  1.0
  H  H48  1  0.14460000  0.17582000  0.40486000  1.0
  H  H49  1  0.74063000  0.59582000  0.77150000  1.0
  H  H50  1  0.96932000  0.22850000  0.82445000  1.0
  C  C51  1  0.81080000  0.29080000  0.39985000  1.0
  C  C52  1  0.41115000  0.60013000  0.89097000  1.0
  C  C53  1  0.51966000  0.10902000  0.70904000  1.0
  C  C54  1  0.18920000  0.70920000  0.60014000  1.0
  C  C55  1  0.58886000  0.39987000  0.10903000  1.0
  C  C56  1  0.48034000  0.89098000  0.29096000  1.0
  C  C57  1  0.67436000  0.21516000  0.34959000  1.0
  C  C58  1  0.32498000  0.65036000  0.86550000  1.0
  C  C59  1  0.45872000  0.13439000  0.78463000  1.0
  C  C60  1  0.32564000  0.78484000  0.65041000  1.0
  C  C61  1  0.67502000  0.34965000  0.13450000  1.0
  C  C62  1  0.54128000  0.86561000  0.21537000  1.0
  C  C63  1  0.53760000  0.23268000  0.32301000  1.0
  C  C64  1  0.21470000  0.67690000  0.90950000  1.0
  C  C65  1  0.30440000  0.09033000  0.76709000  1.0
  C  C66  1  0.46240000  0.76731000  0.67699000  1.0
  C  C67  1  0.78530000  0.32311000  0.09050000  1.0
  C  C68  1  0.69560000  0.90967000  0.23291000  1.0
  C  C69  1  0.54174000  0.32577000  0.34788000  1.0
  C  C70  1  0.19392000  0.65212000  0.97780000  1.0
  C  C71  1  0.21547000  0.02214000  0.67399000  1.0
  C  C72  1  0.45826000  0.67423000  0.65213000  1.0
  C  C73  1  0.80608000  0.34788000  0.02220000  1.0
  C  C74  1  0.78453000  0.97786000  0.32601000  1.0
  C  C75  1  0.68209000  0.39819000  0.39845000  1.0
  C  C76  1  0.28369000  0.60158000  0.99975000  1.0
  C  C77  1  0.28353000  0.00031000  0.60163000  1.0
  C  C78  1  0.31791000  0.60181000  0.60155000  1.0
  C  C79  1  0.71631000  0.39842000  0.00025000  1.0
  C  C80  1  0.71648000  0.99969000  0.39838000  1.0
  C  C81  1  0.70256000  0.49774000  0.43216000  1.0
  C  C82  1  0.27037000  0.56783000  0.06557000  1.0
  C  C83  1  0.20455000  0.93454000  0.50209000  1.0
  C  C84  1  0.29744000  0.50226000  0.56784000  1.0
  C  C85  1  0.72963000  0.43217000  0.93443000  1.0
  C  C86  1  0.79545000  0.06546000  0.49790000  1.0
  C  C87  1  0.69518000  0.63649000  0.47555000  1.0
  C  C88  1  0.21938000  0.52423000  0.16079000  1.0
  C  C89  1  0.05845000  0.83932000  0.36332000  1.0
  C  C90  1  0.30482000  0.36351000  0.52445000  1.0
  C  C91  1  0.78062000  0.47577000  0.83921000  1.0
  C  C92  1  0.94155000  0.16068000  0.63668000  1.0
  C  C93  1  0.64419000  0.71789000  0.48822000  1.0
  C  C94  1  0.15575000  0.51150000  0.22952000  1.0
  C  C95  1  0.92608000  0.77059000  0.28192000  1.0
  C  C96  1  0.35582000  0.28212000  0.51178000  1.0
  C  C97  1  0.84424000  0.48851000  0.77048000  1.0
  C  C98  1  0.07392000  0.22941000  0.71808000  1.0
  C  C99  1  0.49796000  0.70583000  0.43490000  1.0
  C  C100  1  0.06334000  0.56507000  0.27103000  1.0
  C  C101  1  0.79210000  0.72912000  0.29402000  1.0
  C  C102  1  0.50205000  0.29416000  0.56511000  1.0
  C  C103  1  0.93665000  0.43493000  0.72897000  1.0
  C  C104  1  0.20790000  0.27088000  0.70598000  1.0
  C  C105  1  0.45649000  0.78588000  0.44655000  1.0
  C  C106  1  0.01040000  0.55347000  0.33951000  1.0
  C  C107  1  0.67065000  0.66060000  0.21402000  1.0
  C  C108  1  0.54351000  0.21412000  0.55345000  1.0
  C  C109  1  0.98959000  0.44653000  0.66049000  1.0
  C  C110  1  0.32934000  0.33940000  0.78598000  1.0
  C  C111  1  0.68822000  0.88721000  0.56117000  1.0
  C  C112  1  0.12682000  0.43846000  0.32588000  1.0
  C  C113  1  0.80076000  0.67414000  0.11259000  1.0
  C  C114  1  0.31179000  0.11279000  0.43883000  1.0
  C  C115  1  0.87317000  0.56154000  0.67412000  1.0
  C  C116  1  0.19924000  0.32586000  0.88741000  1.0
  C  C117  1  0.74043000  0.81151000  0.55299000  1.0
  C  C118  1  0.18696000  0.44654000  0.25821000  1.0
  C  C119  1  0.92856000  0.74182000  0.18826000  1.0
  C  C120  1  0.25956000  0.18848000  0.44701000  1.0
  C  C121  1  0.81304000  0.55346000  0.74178000  1.0
  C  C122  1  0.07144000  0.25818000  0.81174000  1.0
  N  N123  1  0.81637000  0.38122000  0.42419000  1.0
  N  N124  1  0.39226000  0.57583000  0.95709000  1.0
  N  N125  1  0.43484000  0.04295000  0.61863000  1.0
  N  N126  1  0.18364000  0.61877000  0.57581000  1.0
  N  N127  1  0.60774000  0.42417000  0.04291000  1.0
  N  N128  1  0.56516000  0.95705000  0.38138000  1.0
  N  N129  1  0.84724000  0.55763000  0.48636000  1.0
  N  N130  1  0.36077000  0.51356000  0.07122000  1.0
  N  N131  1  0.28946000  0.92880000  0.44224000  1.0
  N  N132  1  0.15276000  0.44237000  0.51364000  1.0
  N  N133  1  0.63923000  0.48644000  0.92878000  1.0
  N  N134  1  0.71054000  0.07120000  0.55776000  1.0
  N  N135  1  0.84364000  0.64705000  0.51530000  1.0
  N  N136  1  0.32807000  0.48450000  0.13161000  1.0
  N  N137  1  0.19647000  0.86843000  0.35283000  1.0
  N  N138  1  0.15636000  0.35295000  0.48470000  1.0
  N  N139  1  0.67193000  0.51550000  0.86839000  1.0
  N  N140  1  0.80353000  0.13157000  0.64718000  1.0
  N  N141  1  0.60333000  0.54433000  0.42293000  1.0
  N  N142  1  0.18027000  0.57697000  0.12135000  1.0
  N  N143  1  0.05864000  0.87881000  0.45545000  1.0
  N  N144  1  0.39667000  0.45567000  0.57708000  1.0
  N  N145  1  0.81973000  0.42303000  0.87865000  1.0
  N  N146  1  0.94136000  0.12119000  0.54456000  1.0
  N  N147  1  0.54917000  0.87574000  0.50836000  1.0
  N  N148  1  0.04105000  0.49151000  0.36742000  1.0
  N  N149  1  0.67342000  0.63261000  0.12415000  1.0
  N  N150  1  0.45083000  0.12426000  0.49164000  1.0
  N  N151  1  0.95895000  0.50849000  0.63258000  1.0
  N  N152  1  0.32658000  0.36739000  0.87585000  1.0
