# generated using pymatgen
data_CaPH7(C3O2)2
_symmetry_space_group_name_H-M   'P 1'
_cell_length_a   5.87520000
_cell_length_b   10.31220000
_cell_length_c   14.90370000
_cell_angle_alpha   89.99890000
_cell_angle_beta   95.83220000
_cell_angle_gamma   89.99950000
_symmetry_Int_Tables_number   1
_chemical_formula_structural   CaPH7(C3O2)2
_chemical_formula_sum   'Ca4 P4 H28 C24 O16'
_cell_volume   898.28517230
_cell_formula_units_Z   4
loop_
 _symmetry_equiv_pos_site_id
 _symmetry_equiv_pos_as_xyz
  1  'x, y, z'
loop_
 _atom_site_type_symbol
 _atom_site_label
 _atom_site_symmetry_multiplicity
 _atom_site_fract_x
 _atom_site_fract_y
 _atom_site_fract_z
 _atom_site_occupancy
  Ca  Ca0  1  0.12330000  0.35432000  0.46057000  1.0
  Ca  Ca1  1  0.37674000  0.85431000  0.53944000  1.0
  Ca  Ca2  1  0.87674000  0.64568000  0.53943000  1.0
  Ca  Ca3  1  0.62330000  0.14567000  0.46057000  1.0
  P  P4  1  0.58173000  0.45767000  0.36433000  1.0
  P  P5  1  0.91830000  0.95766000  0.63568000  1.0
  P  P6  1  0.41829000  0.54232000  0.63568000  1.0
  P  P7  1  0.08174000  0.04233000  0.36432000  1.0
  H  H8  1  0.38695000  0.32578000  0.19961000  1.0
  H  H9  1  0.11304000  0.82576000  0.80041000  1.0
  H  H10  1  0.61305000  0.67423000  0.80039000  1.0
  H  H11  1  0.88695000  0.17424000  0.19962000  1.0
  H  H12  1  0.99553000  0.54453000  0.28842000  1.0
  H  H13  1  0.50448000  0.04452000  0.71156000  1.0
  H  H14  1  0.00447000  0.45546000  0.71158000  1.0
  H  H15  1  0.49556000  0.95548000  0.28842000  1.0
  H  H16  1  0.50904000  0.31741000  0.04507000  1.0
  H  H17  1  0.99087000  0.81739000  0.95494000  1.0
  H  H18  1  0.49093000  0.68261000  0.95493000  1.0
  H  H19  1  0.00903000  0.18263000  0.04507000  1.0
  H  H20  1  0.12188000  0.52987000  0.13625000  1.0
  H  H21  1  0.37805000  0.02987000  0.86372000  1.0
  H  H22  1  0.87810000  0.47014000  0.86374000  1.0
  H  H23  1  0.62190000  0.97016000  0.13625000  1.0
  H  H24  1  0.87418000  0.41938000  0.01243000  1.0
  H  H25  1  0.62572000  0.91936000  0.98756000  1.0
  H  H26  1  0.12578000  0.58064000  0.98756000  1.0
  H  H27  1  0.37418000  0.08066000  0.01244000  1.0
  H  H28  1  0.93943000  0.20795000  0.60873000  1.0
  H  H29  1  0.56060000  0.70795000  0.39127000  1.0
  H  H30  1  0.06059000  0.79205000  0.39127000  1.0
  H  H31  1  0.43943000  0.29204000  0.60873000  1.0
  H  H32  1  0.77358000  0.33766000  0.59905000  1.0
  H  H33  1  0.72644000  0.83767000  0.40095000  1.0
  H  H34  1  0.22644000  0.66233000  0.40095000  1.0
  H  H35  1  0.27359000  0.16233000  0.59905000  1.0
  C  C36  1  0.68066000  0.43763000  0.25426000  1.0
  C  C37  1  0.81936000  0.93763000  0.74574000  1.0
  C  C38  1  0.31933000  0.56237000  0.74573000  1.0
  C  C39  1  0.18066000  0.06238000  0.25426000  1.0
  C  C40  1  0.54572000  0.37262000  0.18527000  1.0
  C  C41  1  0.95426000  0.87260000  0.81474000  1.0
  C  C42  1  0.45426000  0.62738000  0.81472000  1.0
  C  C43  1  0.04573000  0.12739000  0.18528000  1.0
  C  C44  1  0.88773000  0.49447000  0.23546000  1.0
  C  C45  1  0.61228000  0.99447000  0.76452000  1.0
  C  C46  1  0.11226000  0.50553000  0.76453000  1.0
  C  C47  1  0.38774000  0.00554000  0.23547000  1.0
  C  C48  1  0.61497000  0.36754000  0.09849000  1.0
  C  C49  1  0.88499000  0.86751000  0.90151000  1.0
  C  C50  1  0.38500000  0.63247000  0.90150000  1.0
  C  C51  1  0.11499000  0.13249000  0.09850000  1.0
  C  C52  1  0.95814000  0.48745000  0.14894000  1.0
  C  C53  1  0.54183000  0.98744000  0.85104000  1.0
  C  C54  1  0.04184000  0.51255000  0.85105000  1.0
  C  C55  1  0.45816000  0.01257000  0.14894000  1.0
  C  C56  1  0.82048000  0.42516000  0.08016000  1.0
  C  C57  1  0.67948000  0.92513000  0.91984000  1.0
  C  C58  1  0.17948000  0.57485000  0.91983000  1.0
  C  C59  1  0.32051000  0.07487000  0.08016000  1.0
  O  O60  1  0.79817000  0.48334000  0.43037000  1.0
  O  O61  1  0.70187000  0.98332000  0.56963000  1.0
  O  O62  1  0.20184000  0.51665000  0.56962000  1.0
  O  O63  1  0.29820000  0.01665000  0.43039000  1.0
  O  O64  1  0.45937000  0.33173000  0.38960000  1.0
  O  O65  1  0.04067000  0.83173000  0.61041000  1.0
  O  O66  1  0.54068000  0.66827000  0.61040000  1.0
  O  O67  1  0.95936000  0.16828000  0.38961000  1.0
  O  O68  1  0.41568000  0.57306000  0.35935000  1.0
  O  O69  1  0.08435000  0.07306000  0.64065000  1.0
  O  O70  1  0.58435000  0.42691000  0.64065000  1.0
  O  O71  1  0.91567000  0.92692000  0.35936000  1.0
  O  O72  1  0.86734000  0.27554000  0.56630000  1.0
  O  O73  1  0.63269000  0.77554000  0.43370000  1.0
  O  O74  1  0.13269000  0.72446000  0.43371000  1.0
  O  O75  1  0.36733000  0.22445000  0.56630000  1.0
