# generated using pymatgen
data_CdH16C11O9
_symmetry_space_group_name_H-M   'P 1'
_cell_length_a   7.43014000
_cell_length_b   8.19318000
_cell_length_c   11.72140000
_cell_angle_alpha   88.18920000
_cell_angle_beta   85.36840000
_cell_angle_gamma   88.55100000
_symmetry_Int_Tables_number   1
_chemical_formula_structural   CdH16C11O9
_chemical_formula_sum   'Cd2 H32 C22 O18'
_cell_volume   710.68706936
_cell_formula_units_Z   2
loop_
 _symmetry_equiv_pos_site_id
 _symmetry_equiv_pos_as_xyz
  1  'x, y, z'
loop_
 _atom_site_type_symbol
 _atom_site_label
 _atom_site_symmetry_multiplicity
 _atom_site_fract_x
 _atom_site_fract_y
 _atom_site_fract_z
 _atom_site_occupancy
  Cd  Cd0  1  0.75105000  0.23453000  0.00562000  1.0
  Cd  Cd1  1  0.24895000  0.76546000  0.99438000  1.0
  H  H2  1  0.22796000  0.35348000  0.70677000  1.0
  H  H3  1  0.77203000  0.64652000  0.29323000  1.0
  H  H4  1  0.03230000  0.31856000  0.63126000  1.0
  H  H5  1  0.96769000  0.68144000  0.36874000  1.0
  H  H6  1  0.24536000  0.40895000  0.49928000  1.0
  H  H7  1  0.75464000  0.59105000  0.50072000  1.0
  H  H8  1  0.41054000  0.86439000  0.33359000  1.0
  H  H9  1  0.58947000  0.13561000  0.66641000  1.0
  H  H10  1  0.09257000  0.86717000  0.65794000  1.0
  H  H11  1  0.90744000  0.13283000  0.34206000  1.0
  H  H12  1  0.13095000  0.12645000  0.48138000  1.0
  H  H13  1  0.86905000  0.87355000  0.51862000  1.0
  H  H14  1  0.36466000  0.11319000  0.43445000  1.0
  H  H15  1  0.63534000  0.88682000  0.56555000  1.0
  H  H16  1  0.29507000  0.10756000  0.58323000  1.0
  H  H17  1  0.70493000  0.89244000  0.41677000  1.0
  H  H18  1  0.29661000  0.34541000  0.29821000  1.0
  H  H19  1  0.70338000  0.65459000  0.70179000  1.0
  H  H20  1  0.49053000  0.32743000  0.37983000  1.0
  H  H21  1  0.50947000  0.67257000  0.62016000  1.0
  H  H22  1  0.41443000  0.16545000  0.92723000  1.0
  H  H23  1  0.58557000  0.83454000  0.07278000  1.0
  H  H24  1  0.47041000  0.34456000  0.87869000  1.0
  H  H25  1  0.52959000  0.65543000  0.12131000  1.0
  H  H26  1  0.83621000  0.88448000  0.95918000  1.0
  H  H27  1  0.16379000  0.11552000  0.04082000  1.0
  H  H28  1  0.85630000  0.91192000  0.08797000  1.0
  H  H29  1  0.14370000  0.08808000  0.91204000  1.0
  H  H30  1  0.05598000  0.37491000  0.11457000  1.0
  H  H31  1  0.94402000  0.62509000  0.88543000  1.0
  H  H32  1  0.97381000  0.23494000  0.19232000  1.0
  H  H33  1  0.02619000  0.76506000  0.80769000  1.0
  C  C34  1  0.97955000  0.33189000  0.81134000  1.0
  C  C35  1  0.02045000  0.66811000  0.18866000  1.0
  C  C36  1  0.08408000  0.38641000  0.70081000  1.0
  C  C37  1  0.91592000  0.61359000  0.29919000  1.0
  C  C38  1  0.15606000  0.62956000  0.58757000  1.0
  C  C39  1  0.84394000  0.37044000  0.41243000  1.0
  C  C40  1  0.24553000  0.54147000  0.49824000  1.0
  C  C41  1  0.75447000  0.45853000  0.50176000  1.0
  C  C42  1  0.33687000  0.63030000  0.40792000  1.0
  C  C43  1  0.66313000  0.36970000  0.59208000  1.0
  C  C44  1  0.33906000  0.80114000  0.40625000  1.0
  C  C45  1  0.66094000  0.19887000  0.59375000  1.0
  C  C46  1  0.25253000  0.88626000  0.49679000  1.0
  C  C47  1  0.74747000  0.11374000  0.50321000  1.0
  C  C48  1  0.15947000  0.79993000  0.58703000  1.0
  C  C49  1  0.84053000  0.20008000  0.41298000  1.0
  C  C50  1  0.26140000  0.06863000  0.49892000  1.0
  C  C51  1  0.73860000  0.93137000  0.50108000  1.0
  C  C52  1  0.43407000  0.38954000  0.30567000  1.0
  C  C53  1  0.56593000  0.61046000  0.69432000  1.0
  C  C54  1  0.55245000  0.34619000  0.19870000  1.0
  C  C55  1  0.44755000  0.65382000  0.80130000  1.0
  O  O56  1  0.89424000  0.43466000  0.87652000  1.0
  O  O57  1  0.10576000  0.56533000  0.12348000  1.0
  O  O58  1  0.98010000  0.17912000  0.83384000  1.0
  O  O59  1  0.01990000  0.82088000  0.16616000  1.0
  O  O60  1  0.06207000  0.55839000  0.68149000  1.0
  O  O61  1  0.93793000  0.44161000  0.31851000  1.0
  O  O62  1  0.43187000  0.56173000  0.31641000  1.0
  O  O63  1  0.56813000  0.43827000  0.68359000  1.0
  O  O64  1  0.61274000  0.45783000  0.12872000  1.0
  O  O65  1  0.38726000  0.54218000  0.87127000  1.0
  O  O66  1  0.58583000  0.19497000  0.18447000  1.0
  O  O67  1  0.41417000  0.80503000  0.81552000  1.0
  O  O68  1  0.51755000  0.23105000  0.89399000  1.0
  O  O69  1  0.48245000  0.76895000  0.10601000  1.0
  O  O70  1  0.77739000  0.94401000  0.02565000  1.0
  O  O71  1  0.22261000  0.05599000  0.97435000  1.0
  O  O72  1  0.01908000  0.25656000  0.11297000  1.0
  O  O73  1  0.98092000  0.74343000  0.88703000  1.0
