# generated using pymatgen
data_Ag4H25C30S2N5O8
_symmetry_space_group_name_H-M   'P 1'
_cell_length_a   10.23310000
_cell_length_b   11.84040000
_cell_length_c   13.85780000
_cell_angle_alpha   83.79370000
_cell_angle_beta   80.83870000
_cell_angle_gamma   87.40270000
_symmetry_Int_Tables_number   1
_chemical_formula_structural   Ag4H25C30S2N5O8
_chemical_formula_sum   'Ag8 H50 C60 S4 N10 O16'
_cell_volume   1647.25724859
_cell_formula_units_Z   2
loop_
 _symmetry_equiv_pos_site_id
 _symmetry_equiv_pos_as_xyz
  1  'x, y, z'
loop_
 _atom_site_type_symbol
 _atom_site_label
 _atom_site_symmetry_multiplicity
 _atom_site_fract_x
 _atom_site_fract_y
 _atom_site_fract_z
 _atom_site_occupancy
  Ag  Ag0  1  0.46945000  0.83217000  0.27165000  1.0
  Ag  Ag1  1  0.53054000  0.16782000  0.72836000  1.0
  Ag  Ag2  1  0.44347000  0.85861000  0.50217000  1.0
  Ag  Ag3  1  0.55653000  0.14139000  0.49783000  1.0
  Ag  Ag4  1  0.76607000  0.01613000  0.36701000  1.0
  Ag  Ag5  1  0.23393000  0.98387000  0.63300000  1.0
  Ag  Ag6  1  0.77150000  0.92653000  0.15637000  1.0
  Ag  Ag7  1  0.22851000  0.07348000  0.84363000  1.0
  H  H8  1  0.47190000  0.56809000  0.26714000  1.0
  H  H9  1  0.52810000  0.43190000  0.73286000  1.0
  H  H10  1  0.34565000  0.40856000  0.22281000  1.0
  H  H11  1  0.65435000  0.59143000  0.77721000  1.0
  H  H12  1  0.14170000  0.45991000  0.14389000  1.0
  H  H13  1  0.85830000  0.54007000  0.85613000  1.0
  H  H14  1  0.07442000  0.66456000  0.11386000  1.0
  H  H15  1  0.92558000  0.33543000  0.88614000  1.0
  H  H16  1  0.28741000  0.89914000  0.16809000  1.0
  H  H17  1  0.71261000  0.10084000  0.83189000  1.0
  H  H18  1  0.00587000  0.83884000  0.13975000  1.0
  H  H19  1  0.99413000  0.16115000  0.86024000  1.0
  H  H20  1  0.25325000  0.06884000  0.15163000  1.0
  H  H21  1  0.74677000  0.93115000  0.84837000  1.0
  H  H22  1  0.19724000  0.27216000  0.11950000  1.0
  H  H23  1  0.80277000  0.72781000  0.88051000  1.0
  H  H24  1  0.96700000  0.33120000  0.08240000  1.0
  H  H25  1  0.03302000  0.66880000  0.91761000  1.0
  H  H26  1  0.80239000  0.17950000  0.09148000  1.0
  H  H27  1  0.19762000  0.82051000  0.90852000  1.0
  H  H28  1  0.40443000  0.61356000  0.50006000  1.0
  H  H29  1  0.59557000  0.38642000  0.49994000  1.0
  H  H30  1  0.23398000  0.47893000  0.47882000  1.0
  H  H31  1  0.76600000  0.52108000  0.52118000  1.0
  H  H32  1  0.02830000  0.56079000  0.41028000  1.0
  H  H33  1  0.97169000  0.43924000  0.58972000  1.0
  H  H34  1  0.00432000  0.76669000  0.37209000  1.0
  H  H35  1  0.99567000  0.23332000  0.62790000  1.0
  H  H36  1  0.26386000  0.97272000  0.41399000  1.0
  H  H37  1  0.73614000  0.02728000  0.58601000  1.0
  H  H38  1  0.97757000  0.93395000  0.38159000  1.0
  H  H39  1  0.02244000  0.06606000  0.61839000  1.0
  H  H40  1  0.23205000  0.15545000  0.40142000  1.0
  H  H41  1  0.76795000  0.84459000  0.59857000  1.0
  H  H42  1  0.18064000  0.36010000  0.37003000  1.0
  H  H43  1  0.81932000  0.63993000  0.62996000  1.0
  H  H44  1  0.95787000  0.42351000  0.32102000  1.0
  H  H45  1  0.04210000  0.57650000  0.67898000  1.0
  H  H46  1  0.79503000  0.27379000  0.31431000  1.0
  H  H47  1  0.20493000  0.72623000  0.68569000  1.0
  H  H48  1  0.75053000  0.66819000  0.15578000  1.0
  H  H49  1  0.24947000  0.33180000  0.84422000  1.0
  H  H50  1  0.66246000  0.52964000  0.05764000  1.0
  H  H51  1  0.33754000  0.47037000  0.94236000  1.0
  H  H52  1  0.50706000  0.60514000  0.93971000  1.0
  H  H53  1  0.49296000  0.39486000  0.06028000  1.0
  H  H54  1  0.44699000  0.81053000  0.92512000  1.0
  H  H55  1  0.55303000  0.18946000  0.07488000  1.0
  H  H56  1  0.59070000  0.01391000  0.07697000  1.0
  H  H57  1  0.40930000  0.98606000  0.92303000  1.0
  C  C58  1  0.38380000  0.58478000  0.23194000  1.0
  C  C59  1  0.61621000  0.41521000  0.76806000  1.0
  C  C60  1  0.31301000  0.49680000  0.20751000  1.0
  C  C61  1  0.68700000  0.50319000  0.79250000  1.0
  C  C62  1  0.20025000  0.52590000  0.16400000  1.0
  C  C63  1  0.79977000  0.47409000  0.83600000  1.0
  C  C64  1  0.16239000  0.63964000  0.14712000  1.0
  C  C65  1  0.83762000  0.36034000  0.85288000  1.0
  C  C66  1  0.23887000  0.72375000  0.17348000  1.0
  C  C67  1  0.76113000  0.27625000  0.82651000  1.0
  C  C68  1  0.20730000  0.84485000  0.15949000  1.0
  C  C69  1  0.79270000  0.15514000  0.84051000  1.0
  C  C70  1  0.08940000  0.89216000  0.14280000  1.0
  C  C71  1  0.91059000  0.10783000  0.85722000  1.0
  C  C72  1  0.06069000  0.01392000  0.13084000  1.0
  C  C73  1  0.93931000  0.98607000  0.86917000  1.0
  C  C74  1  0.15576000  0.09511000  0.13357000  1.0
  C  C75  1  0.84425000  0.90488000  0.86644000  1.0
  C  C76  1  0.12344000  0.20971000  0.11653000  1.0
  C  C77  1  0.87657000  0.79028000  0.88348000  1.0
  C  C78  1  0.99666000  0.24219000  0.09689000  1.0
  C  C79  1  0.00336000  0.75780000  0.90312000  1.0
  C  C80  1  0.90487000  0.15823000  0.10009000  1.0
  C  C81  1  0.09514000  0.84177000  0.89991000  1.0
  C  C82  1  0.31293000  0.64443000  0.47402000  1.0
  C  C83  1  0.68707000  0.35556000  0.52598000  1.0
  C  C84  1  0.21888000  0.56974000  0.45910000  1.0
  C  C85  1  0.78110000  0.43027000  0.54090000  1.0
  C  C86  1  0.10606000  0.61503000  0.42251000  1.0
  C  C87  1  0.89391000  0.38500000  0.57750000  1.0
  C  C88  1  0.09102000  0.73181000  0.40265000  1.0
  C  C89  1  0.90897000  0.26821000  0.59736000  1.0
  C  C90  1  0.18731000  0.80325000  0.42229000  1.0
  C  C91  1  0.81267000  0.19676000  0.57772000  1.0
  C  C92  1  0.17575000  0.92657000  0.40767000  1.0
  C  C93  1  0.82424000  0.07344000  0.59234000  1.0
  C  C94  1  0.06396000  0.98272000  0.38769000  1.0
  C  C95  1  0.93604000  0.01729000  0.61232000  1.0
  C  C96  1  0.04217000  0.10468000  0.37267000  1.0
  C  C97  1  0.95783000  0.89533000  0.62733000  1.0
  C  C98  1  0.13676000  0.18380000  0.38071000  1.0
  C  C99  1  0.86324000  0.81622000  0.61929000  1.0
  C  C100  1  0.10762000  0.29901000  0.36249000  1.0
  C  C101  1  0.89236000  0.70100000  0.63750000  1.0
  C  C102  1  0.98482000  0.33401000  0.33619000  1.0
  C  C103  1  0.01515000  0.66600000  0.66380000  1.0
  C  C104  1  0.89367000  0.25155000  0.33216000  1.0
  C  C105  1  0.10631000  0.74845000  0.66783000  1.0
  C  C106  1  0.68471000  0.69528000  0.10251000  1.0
  C  C107  1  0.31530000  0.30472000  0.89750000  1.0
  C  C108  1  0.63378000  0.61946000  0.04899000  1.0
  C  C109  1  0.36623000  0.38055000  0.95102000  1.0
  C  C110  1  0.54682000  0.66127000  0.98448000  1.0
  C  C111  1  0.45319000  0.33873000  0.01553000  1.0
  C  C112  1  0.51289000  0.77634000  0.97623000  1.0
  C  C113  1  0.48712000  0.22365000  0.02377000  1.0
  C  C114  1  0.56831000  0.84892000  0.03160000  1.0
  C  C115  1  0.43171000  0.15107000  0.96839000  1.0
  C  C116  1  0.54059000  0.97049000  0.02799000  1.0
  C  C117  1  0.45942000  0.02949000  0.97200000  1.0
  S  S118  1  0.48602000  0.10420000  0.27703000  1.0
  S  S119  1  0.51398000  0.89579000  0.72297000  1.0
  S  S120  1  0.72451000  0.74542000  0.36710000  1.0
  S  S121  1  0.27549000  0.25458000  0.63291000  1.0
  N  N122  1  0.34917000  0.69496000  0.21482000  1.0
  N  N123  1  0.65083000  0.30503000  0.78519000  1.0
  N  N124  1  0.93486000  0.04683000  0.11752000  1.0
  N  N125  1  0.06514000  0.95317000  0.88247000  1.0
  N  N126  1  0.29792000  0.75815000  0.45712000  1.0
  N  N127  1  0.70208000  0.24185000  0.54286000  1.0
  N  N128  1  0.92041000  0.13993000  0.35065000  1.0
  N  N129  1  0.07959000  0.86008000  0.64934000  1.0
  N  N130  1  0.65399000  0.80714000  0.09352000  1.0
  N  N131  1  0.34603000  0.19286000  0.90649000  1.0
  O  O132  1  0.41592000  0.01719000  0.23346000  1.0
  O  O133  1  0.58408000  0.98281000  0.76654000  1.0
  O  O134  1  0.46673000  0.06792000  0.38704000  1.0
  O  O135  1  0.53328000  0.93207000  0.61296000  1.0
  O  O136  1  0.63090000  0.09975000  0.23554000  1.0
  O  O137  1  0.36910000  0.90025000  0.76446000  1.0
  O  O138  1  0.42868000  0.21804000  0.25608000  1.0
  O  O139  1  0.57132000  0.78196000  0.74392000  1.0
  O  O140  1  0.66649000  0.85622000  0.40777000  1.0
  O  O141  1  0.33352000  0.14378000  0.59224000  1.0
  O  O142  1  0.82993000  0.77686000  0.28139000  1.0
  O  O143  1  0.17006000  0.22313000  0.71860000  1.0
  O  O144  1  0.61221000  0.68996000  0.33497000  1.0
  O  O145  1  0.38779000  0.31004000  0.66502000  1.0
  O  O146  1  0.78017000  0.67309000  0.44381000  1.0
  O  O147  1  0.21983000  0.32691000  0.55619000  1.0
