# generated using pymatgen
data_TbH8C13NO5
_symmetry_space_group_name_H-M   'P 1'
_cell_length_a   8.21188000
_cell_length_b   21.81100000
_cell_length_c   21.81253234
_cell_angle_alpha   87.95905915
_cell_angle_beta   79.14697484
_cell_angle_gamma   79.17010000
_symmetry_Int_Tables_number   1
_chemical_formula_structural   TbH8C13NO5
_chemical_formula_sum   'Tb8 H64 C104 N8 O40'
_cell_volume   3768.60919492
_cell_formula_units_Z   8
loop_
 _symmetry_equiv_pos_site_id
 _symmetry_equiv_pos_as_xyz
  1  'x, y, z'
loop_
 _atom_site_type_symbol
 _atom_site_label
 _atom_site_symmetry_multiplicity
 _atom_site_fract_x
 _atom_site_fract_y
 _atom_site_fract_z
 _atom_site_occupancy
  Tb  Tb0  1  0.23169000  0.83295000  0.78023000  1.0
  Tb  Tb1  1  0.34477000  0.66702000  0.71979000  1.0
  Tb  Tb2  1  0.01199000  0.21980000  0.33294000  1.0
  Tb  Tb3  1  0.06468000  0.28023000  0.16703000  1.0
  Tb  Tb4  1  0.76831000  0.16705000  0.21977000  1.0
  Tb  Tb5  1  0.65523000  0.33298000  0.28021000  1.0
  Tb  Tb6  1  0.98801000  0.78020000  0.66706000  1.0
  Tb  Tb7  1  0.93531000  0.71977000  0.83297000  1.0
  H  H8  1  0.28733000  0.71855000  0.84204000  1.0
  H  H9  1  0.34774000  0.78144000  0.65796000  1.0
  H  H10  1  0.12920000  0.15796000  0.21862000  1.0
  H  H11  1  0.00598000  0.34208000  0.28137000  1.0
  H  H12  1  0.71267000  0.28145000  0.15796000  1.0
  H  H13  1  0.65226000  0.21856000  0.34204000  1.0
  H  H14  1  0.87080000  0.84204000  0.78138000  1.0
  H  H15  1  0.99402000  0.65792000  0.71863000  1.0
  H  H16  1  0.77020000  0.95283000  0.76800000  1.0
  H  H17  1  0.99069000  0.54715000  0.73211000  1.0
  H  H18  1  0.53811000  0.23222000  0.45288000  1.0
  H  H19  1  0.72307000  0.26778000  0.04708000  1.0
  H  H20  1  0.22980000  0.04717000  0.23200000  1.0
  H  H21  1  0.00931000  0.45285000  0.26789000  1.0
  H  H22  1  0.46189000  0.76778000  0.54712000  1.0
  H  H23  1  0.27692000  0.73222000  0.95292000  1.0
  H  H24  1  0.66047000  0.02412000  0.86094000  1.0
  H  H25  1  0.04553000  0.47589000  0.63913000  1.0
  H  H26  1  0.52150000  0.13918000  0.52410000  1.0
  H  H27  1  0.68496000  0.36085000  0.97592000  1.0
  H  H28  1  0.33952000  0.97588000  0.13906000  1.0
  H  H29  1  0.95445000  0.52411000  0.36088000  1.0
  H  H30  1  0.47850000  0.86082000  0.47590000  1.0
  H  H31  1  0.31504000  0.63915000  0.02409000  1.0
  H  H32  1  0.18924000  0.95828000  0.87880000  1.0
  H  H33  1  0.52628000  0.54148000  0.62126000  1.0
  H  H34  1  0.06822000  0.12120000  0.45828000  1.0
  H  H35  1  0.14788000  0.37878000  0.04167000  1.0
  H  H36  1  0.81076000  0.04172000  0.12120000  1.0
  H  H37  1  0.47371000  0.45852000  0.37874000  1.0
  H  H38  1  0.93178000  0.87880000  0.54172000  1.0
  H  H39  1  0.85212000  0.62123000  0.95833000  1.0
  H  H40  1  0.43726000  0.11793000  0.90022000  1.0
  H  H41  1  0.95483000  0.38192000  0.59986000  1.0
  H  H42  1  0.33717000  0.09982000  0.61787000  1.0
  H  H43  1  0.55532000  0.40041000  0.88211000  1.0
  H  H44  1  0.56275000  0.88208000  0.09978000  1.0
  H  H45  1  0.04517000  0.61808000  0.40014000  1.0
  H  H46  1  0.66283000  0.90018000  0.38213000  1.0
  H  H47  1  0.44469000  0.59959000  0.11789000  1.0
  H  H48  1  0.27922000  0.18359000  0.99165000  1.0
  H  H49  1  0.95375000  0.31627000  0.50842000  1.0
  H  H50  1  0.27058000  0.00837000  0.68358000  1.0
  H  H51  1  0.46253000  0.49173000  0.81641000  1.0
  H  H52  1  0.72078000  0.81641000  0.00836000  1.0
  H  H53  1  0.04625000  0.68373000  0.49158000  1.0
  H  H54  1  0.72942000  0.99163000  0.31642000  1.0
  H  H55  1  0.53747000  0.50827000  0.18359000  1.0
  H  H56  1  0.06743000  0.02744000  0.07255000  1.0
  H  H57  1  0.66745000  0.47251000  0.42750000  1.0
  H  H58  1  0.14056000  0.92737000  0.52735000  1.0
  H  H59  1  0.09472000  0.57245000  0.97259000  1.0
  H  H60  1  0.93256000  0.97256000  0.92746000  1.0
  H  H61  1  0.33254000  0.52749000  0.57250000  1.0
  H  H62  1  0.85944000  0.07263000  0.47265000  1.0
  H  H63  1  0.90528000  0.42755000  0.02741000  1.0
  H  H64  1  0.22274000  0.96131000  0.98199000  1.0
  H  H65  1  0.66626000  0.53861000  0.51807000  1.0
  H  H66  1  0.20556000  0.01793000  0.46117000  1.0
  H  H67  1  0.18430000  0.48196000  0.03873000  1.0
  H  H68  1  0.77726000  0.03869000  0.01801000  1.0
  H  H69  1  0.33372000  0.46138000  0.48193000  1.0
  H  H70  1  0.79450333  0.98207000  0.53883000  1.0
  H  H71  1  0.81571000  0.51804000  0.96127000  1.0
  C  C72  1  0.60023000  0.86934000  0.72649000  1.0
  C  C73  1  0.69591000  0.63059000  0.77356000  1.0
  C  C74  1  0.32678000  0.27364000  0.36931000  1.0
  C  C75  1  0.46957000  0.22637000  0.13067000  1.0
  C  C76  1  0.39977000  0.13065000  0.27352000  1.0
  C  C77  1  0.30408000  0.36942000  0.22644000  1.0
  C  C78  1  0.67321000  0.72636000  0.63069000  1.0
  C  C79  1  0.53043000  0.77363000  0.86933000  1.0
  C  C80  1  0.53733000  0.91879000  0.77656000  1.0
  C  C81  1  0.73249000  0.58114000  0.72348000  1.0
  C  C82  1  0.31402000  0.22353000  0.41874000  1.0
  C  C83  1  0.45621000  0.27648000  0.08124000  1.0
  C  C84  1  0.46267000  0.08121000  0.22344000  1.0
  C  C85  1  0.26751000  0.41886000  0.27651000  1.0
  C  C86  1  0.68598000  0.77647000  0.58126000  1.0
  C  C87  1  0.54379000  0.72351000  0.91876000  1.0
  C  C88  1  0.64149000  0.95642000  0.79383000  1.0
  C  C89  1  0.89154000  0.54353000  0.70623000  1.0
  C  C90  1  0.43537000  0.20629000  0.45641000  1.0
  C  C91  1  0.59801000  0.29372000  0.04357000  1.0
  C  C92  1  0.35851000  0.04357000  0.20617000  1.0
  C  C93  1  0.10845000  0.45647000  0.29377000  1.0
  C  C94  1  0.56463000  0.79371000  0.54359000  1.0
  C  C95  1  0.40199000  0.70628000  0.95643000  1.0
  C  C96  1  0.57978000  0.99593000  0.84513000  1.0
  C  C97  1  0.92078000  0.50403000  0.65492000  1.0
  C  C98  1  0.42507000  0.15495000  0.49588000  1.0
  C  C99  1  0.57601000  0.34508000  0.00411000  1.0
  C  C100  1  0.42022000  0.00407000  0.15487000  1.0
  C  C101  1  0.07921000  0.49597000  0.34508000  1.0
  C  C102  1  0.57494000  0.84505000  0.50412000  1.0
  C  C103  1  0.42400000  0.65492000  0.99589000  1.0
  C  C104  1  0.41521000  0.99710000  0.87817000  1.0
  C  C105  1  0.79043000  0.50281000  0.62188000  1.0
  C  C106  1  0.29364000  0.12184000  0.49702000  1.0
  C  C107  1  0.41267000  0.37820000  0.00295000  1.0
  C  C108  1  0.58479000  0.00290000  0.12183000  1.0
  C  C109  1  0.20956000  0.49720000  0.37812000  1.0
  C  C110  1  0.70636000  0.87816000  0.50298000  1.0
  C  C111  1  0.58733000  0.62180000  0.99705000  1.0
  C  C112  1  0.31888000  0.95896000  0.85581000  1.0
  C  C113  1  0.63361000  0.54088000  0.64424000  1.0
  C  C114  1  0.17493000  0.14420000  0.45892000  1.0
  C  C115  1  0.27818000  0.35581000  0.04105000  1.0
  C  C116  1  0.68112000  0.04104000  0.14419000  1.0
  C  C117  1  0.36639000  0.45912000  0.35576000  1.0
  C  C118  1  0.82507000  0.85580000  0.54108000  1.0
  C  C119  1  0.72183000  0.64419000  0.95895000  1.0
  C  C120  1  0.33830000  0.03538000  0.93413000  1.0
  C  C121  1  0.80769000  0.46449000  0.56594000  1.0
  C  C122  1  0.27268000  0.06585000  0.53530000  1.0
  C  C123  1  0.37398000  0.43418000  0.96467000  1.0
  C  C124  1  0.66170000  0.96462000  0.06587000  1.0
  C  C125  1  0.19230000  0.53551000  0.43406000  1.0
  C  C126  1  0.72732000  0.93415000  0.46470000  1.0
  C  C127  1  0.62603000  0.56582000  0.03533000  1.0
  C  C128  1  0.35741000  0.09774000  0.93835000  1.0
  C  C129  1  0.89301000  0.40212000  0.56174000  1.0
  C  C130  1  0.29569000  0.06167000  0.59769000  1.0
  C  C131  1  0.45526000  0.43847000  0.90230000  1.0
  C  C132  1  0.64259000  0.90226000  0.06165000  1.0
  C  C133  1  0.10698000  0.59788000  0.43826000  1.0
  C  C134  1  0.70431000  0.93833000  0.40231000  1.0
  C  C135  1  0.54475000  0.56153000  0.09770000  1.0
  C  C136  1  0.26878000  0.13469000  0.98904000  1.0
  C  C137  1  0.89191000  0.36517000  0.51104000  1.0
  C  C138  1  0.25769000  0.01096000  0.63466000  1.0
  C  C139  1  0.40321000  0.48909000  0.86531000  1.0
  C  C140  1  0.73122000  0.86531000  0.01096000  1.0
  C  C141  1  0.10809000  0.63483000  0.48896000  1.0
  C  C142  1  0.74231000  0.98904000  0.36534000  1.0
  C  C143  1  0.59680000  0.51091000  0.13469000  1.0
  C  C144  1  0.16054000  0.10994000  0.03702000  1.0
  C  C145  1  0.80704000  0.38998000  0.46306000  1.0
  C  C146  1  0.19766000  0.96295000  0.60987000  1.0
  C  C147  1  0.27006000  0.53699000  0.89006000  1.0
  C  C148  1  0.83946000  0.89007000  0.96299000  1.0
  C  C149  1  0.19296000  0.61002000  0.53694000  1.0
  C  C150  1  0.80235000  0.03705000  0.39012000  1.0
  C  C151  1  0.72995000  0.46301000  0.10994000  1.0
  C  C152  1  0.14812000  0.04692000  0.03439000  1.0
  C  C153  1  0.72923000  0.45300000  0.46570000  1.0
  C  C154  1  0.18287000  0.96557000  0.54684000  1.0
  C  C155  1  0.19486000  0.53431000  0.95309000  1.0
  C  C156  1  0.85187000  0.95308000  0.96562000  1.0
  C  C157  1  0.27077000  0.54699000  0.53430000  1.0
  C  C158  1  0.81713000  0.03444000  0.45316000  1.0
  C  C159  1  0.80514000  0.46569000  0.04691000  1.0
  C  C160  1  0.23496000  0.01015000  0.98365000  1.0
  C  C161  1  0.72868000  0.48977000  0.51641000  1.0
  C  C162  1  0.21904000  0.01630000  0.51004000  1.0
  C  C163  1  0.24518000  0.48363000  0.98989000  1.0
  C  C164  1  0.76504000  0.98985000  0.01635000  1.0
  C  C165  1  0.27132000  0.51023000  0.48358000  1.0
  C  C166  1  0.78095000  0.98370000  0.48996000  1.0
  C  C167  1  0.75483000  0.51637000  0.01011000  1.0
  C  C168  1  0.05534000  0.15004000  0.08995000  1.0
  C  C169  1  0.79511000  0.34997000  0.41002000  1.0
  C  C170  1  0.14545000  0.90999000  0.64997000  1.0
  C  C171  1  0.20496000  0.58995000  0.84999000  1.0
  C  C172  1  0.94467000  0.84996000  0.91005000  1.0
  C  C173  1  0.20489000  0.65003000  0.58998000  1.0
  C  C174  1  0.85456000  0.09001000  0.35003000  1.0
  C  C175  1  0.79505000  0.41005000  0.15001000  1.0
  N  N176  1  0.37732000  0.92107000  0.80680000  1.0
  N  N177  1  0.60501000  0.57881000  0.69324000  1.0
  N  N178  1  0.18430000  0.19324000  0.42103000  1.0
  N  N179  1  0.29855000  0.30678000  0.07894000  1.0
  N  N180  1  0.62268000  0.07892000  0.19321000  1.0
  N  N181  1  0.39498000  0.42119000  0.30676000  1.0
  N  N182  1  0.81569000  0.80676000  0.57897000  1.0
  N  N183  1  0.70145000  0.69322000  0.92106000  1.0
  O  O184  1  0.49684000  0.83582000  0.71678000  1.0
  O  O185  1  0.54933000  0.66409000  0.78326000  1.0
  O  O186  1  0.21367000  0.28333000  0.33581000  1.0
  O  O187  1  0.33258000  0.21664000  0.16415000  1.0
  O  O188  1  0.50316000  0.16417000  0.28323000  1.0
  O  O189  1  0.45066000  0.33591000  0.21674000  1.0
  O  O190  1  0.78632000  0.71667000  0.66420000  1.0
  O  O191  1  0.66741000  0.78336000  0.83585000  1.0
  O  O192  1  0.75253000  0.86385000  0.69919000  1.0
  O  O193  1  0.81536000  0.63611000  0.80088000  1.0
  O  O194  1  0.45169000  0.30100000  0.36381000  1.0
  O  O195  1  0.61627000  0.19906000  0.13619000  1.0
  O  O196  1  0.24748000  0.13615000  0.30081000  1.0
  O  O197  1  0.18464000  0.36390000  0.19912000  1.0
  O  O198  1  0.54831000  0.69900000  0.63619000  1.0
  O  O199  1  0.38371000  0.80094000  0.86382000  1.0
  O  O200  1  0.06309000  0.20782000  0.08911000  1.0
  O  O201  1  0.86002000  0.29223000  0.41073000  1.0
  O  O202  1  0.15268000  0.91076000  0.70772000  1.0
  O  O203  1  0.27059000  0.58922000  0.79223000  1.0
  O  O204  1  0.93691000  0.79218000  0.91090000  1.0
  O  O205  1  0.13999000  0.70777000  0.58927000  1.0
  O  O206  1  0.84733000  0.08924000  0.29228000  1.0
  O  O207  1  0.72942000  0.41078000  0.20777000  1.0
  O  O208  1  0.96332000  0.12308000  0.13221000  1.0
  O  O209  1  0.71844000  0.37700000  0.36778000  1.0
  O  O210  1  0.09543000  0.86778000  0.62305000  1.0
  O  O211  1  0.08595000  0.63216000  0.87698000  1.0
  O  O212  1  0.03668000  0.87693000  0.86779000  1.0
  O  O213  1  0.28157000  0.62299000  0.63222000  1.0
  O  O214  1  0.90458000  0.13223000  0.37695000  1.0
  O  O215  1  0.91404000  0.36783000  0.12302000  1.0
  O  O216  1  0.22306000  0.72907000  0.80877000  1.0
  O  O217  1  0.26082000  0.77089000  0.69126000  1.0
  O  O218  1  0.03173000  0.19124000  0.22909000  1.0
  O  O219  1  0.95225000  0.30877000  0.27090000  1.0
  O  O220  1  0.77695000  0.27093000  0.19122000  1.0
  O  O221  1  0.73918000  0.22911000  0.30874000  1.0
  O  O222  1  0.96827000  0.80876000  0.77091000  1.0
  O  O223  1  0.04775000  0.69123000  0.72910000  1.0
