# generated using pymatgen
data_CuH12C14(NO3)2
_symmetry_space_group_name_H-M   'P 1'
_cell_length_a   8.58666000
_cell_length_b   8.58664000
_cell_length_c   43.36810000
_cell_angle_alpha   90.00010000
_cell_angle_beta   90.00000000
_cell_angle_gamma   89.99960000
_symmetry_Int_Tables_number   1
_chemical_formula_structural   CuH12C14(NO3)2
_chemical_formula_sum   'Cu8 H96 C112 N16 O48'
_cell_volume   3197.55422196
_cell_formula_units_Z   8
loop_
 _symmetry_equiv_pos_site_id
 _symmetry_equiv_pos_as_xyz
  1  'x, y, z'
loop_
 _atom_site_type_symbol
 _atom_site_label
 _atom_site_symmetry_multiplicity
 _atom_site_fract_x
 _atom_site_fract_y
 _atom_site_fract_z
 _atom_site_occupancy
  Cu  Cu0  1  0.92668000  0.66043000  0.10802000  1.0
  Cu  Cu1  1  0.07332000  0.33957000  0.60802000  1.0
  Cu  Cu2  1  0.83957000  0.42668000  0.35802000  1.0
  Cu  Cu3  1  0.16043000  0.57332000  0.85802000  1.0
  Cu  Cu4  1  0.42668000  0.83957000  0.14198000  1.0
  Cu  Cu5  1  0.57332000  0.16044000  0.64198000  1.0
  Cu  Cu6  1  0.33956000  0.07333000  0.89198000  1.0
  Cu  Cu7  1  0.66043000  0.92667000  0.39198000  1.0
  H  H8  1  0.28191000  0.20317000  0.10113000  1.0
  H  H9  1  0.71810000  0.79683000  0.60113000  1.0
  H  H10  1  0.29682000  0.78189000  0.35113000  1.0
  H  H11  1  0.70317000  0.21810000  0.85113000  1.0
  H  H12  1  0.78190000  0.29682000  0.14887000  1.0
  H  H13  1  0.21810000  0.70318000  0.64887000  1.0
  H  H14  1  0.79682000  0.71810000  0.89887000  1.0
  H  H15  1  0.20318000  0.28191000  0.39887000  1.0
  H  H16  1  0.08873000  0.26348000  0.18201000  1.0
  H  H17  1  0.91127000  0.73653000  0.68201000  1.0
  H  H18  1  0.23654000  0.58870000  0.43201000  1.0
  H  H19  1  0.76347000  0.41128000  0.93201000  1.0
  H  H20  1  0.58872000  0.23653000  0.06799000  1.0
  H  H21  1  0.41128000  0.76347000  0.56799000  1.0
  H  H22  1  0.73653000  0.91128000  0.81799000  1.0
  H  H23  1  0.26347000  0.08874000  0.31799000  1.0
  H  H24  1  0.68775000  0.51913000  0.14785000  1.0
  H  H25  1  0.31225000  0.48087000  0.64785000  1.0
  H  H26  1  0.98087000  0.18774000  0.39785000  1.0
  H  H27  1  0.01913000  0.81226000  0.89785000  1.0
  H  H28  1  0.18775000  0.98087000  0.10215000  1.0
  H  H29  1  0.81225000  0.01914000  0.60215000  1.0
  H  H30  1  0.48086000  0.31226000  0.85215000  1.0
  H  H31  1  0.51913000  0.68774000  0.35215000  1.0
  H  H32  1  0.65980000  0.45639000  0.20274000  1.0
  H  H33  1  0.34020000  0.54361000  0.70274000  1.0
  H  H34  1  0.04361000  0.15980000  0.45275000  1.0
  H  H35  1  0.95638000  0.84020000  0.95274000  1.0
  H  H36  1  0.15980000  0.04361000  0.04726000  1.0
  H  H37  1  0.84020000  0.95639000  0.54726000  1.0
  H  H38  1  0.54361000  0.34020000  0.79725000  1.0
  H  H39  1  0.45639000  0.65980000  0.29726000  1.0
  H  H40  1  0.05602000  0.75830000  0.21980000  1.0
  H  H41  1  0.94398000  0.24171000  0.71980000  1.0
  H  H42  1  0.74170000  0.55603000  0.46980000  1.0
  H  H43  1  0.25830000  0.44397000  0.96980000  1.0
  H  H44  1  0.55603000  0.74170000  0.03020000  1.0
  H  H45  1  0.44397000  0.25830000  0.53020000  1.0
  H  H46  1  0.24171000  0.94397000  0.78020000  1.0
  H  H47  1  0.75829000  0.05602000  0.28020000  1.0
  H  H48  1  0.07309000  0.79878000  0.16394000  1.0
  H  H49  1  0.92691000  0.20122000  0.66394000  1.0
  H  H50  1  0.70121000  0.57308000  0.41393000  1.0
  H  H51  1  0.29878000  0.42691000  0.91393000  1.0
  H  H52  1  0.57309000  0.70122000  0.08606000  1.0
  H  H53  1  0.42691000  0.29878000  0.58606000  1.0
  H  H54  1  0.20122000  0.92691000  0.83606000  1.0
  H  H55  1  0.79878000  0.07309000  0.33606000  1.0
  H  H56  1  0.03632000  0.71515000  0.26524000  1.0
  H  H57  1  0.96368000  0.28484000  0.76524000  1.0
  H  H58  1  0.78485000  0.53634000  0.51524000  1.0
  H  H59  1  0.21515000  0.46367000  0.01524000  1.0
  H  H60  1  0.53633000  0.78485000  0.98476000  1.0
  H  H61  1  0.46367000  0.21515000  0.48476000  1.0
  H  H62  1  0.28484000  0.96368000  0.73476000  1.0
  H  H63  1  0.71516000  0.03632000  0.23476000  1.0
  H  H64  1  0.66197000  0.38960000  0.24668000  1.0
  H  H65  1  0.33803000  0.61040000  0.74668000  1.0
  H  H66  1  0.11040000  0.16197000  0.49668000  1.0
  H  H67  1  0.88959000  0.83803000  0.99668000  1.0
  H  H68  1  0.16197000  0.11040000  0.00332000  1.0
  H  H69  1  0.83803000  0.88960000  0.50332000  1.0
  H  H70  1  0.61040000  0.33803000  0.75332000  1.0
  H  H71  1  0.38960000  0.66197000  0.25332000  1.0
  H  H72  1  0.44660000  0.33876000  0.12640000  1.0
  H  H73  1  0.55341000  0.66125000  0.62640000  1.0
  H  H74  1  0.16125000  0.94659000  0.37641000  1.0
  H  H75  1  0.83875000  0.05341000  0.87640000  1.0
  H  H76  1  0.94660000  0.16125000  0.12359000  1.0
  H  H77  1  0.05341000  0.83876000  0.62360000  1.0
  H  H78  1  0.66124000  0.55341000  0.87360000  1.0
  H  H79  1  0.33876000  0.44660000  0.37360000  1.0
  H  H80  1  0.38072000  0.33439000  0.17763000  1.0
  H  H81  1  0.61929000  0.66561000  0.67763000  1.0
  H  H82  1  0.16560000  0.88067000  0.42764000  1.0
  H  H83  1  0.83439000  0.11930000  0.92764000  1.0
  H  H84  1  0.88070000  0.16561000  0.07236000  1.0
  H  H85  1  0.11929000  0.83439000  0.57237000  1.0
  H  H86  1  0.66561000  0.61929000  0.82237000  1.0
  H  H87  1  0.33440000  0.38073000  0.32237000  1.0
  H  H88  1  0.02032000  0.63652000  0.32031000  1.0
  H  H89  1  0.97968000  0.36347000  0.82031000  1.0
  H  H90  1  0.86348000  0.52032000  0.57031000  1.0
  H  H91  1  0.13652000  0.47968000  0.07031000  1.0
  H  H92  1  0.52032000  0.86347000  0.92969000  1.0
  H  H93  1  0.47967000  0.13653000  0.42969000  1.0
  H  H94  1  0.36347000  0.97969000  0.67969000  1.0
  H  H95  1  0.63653000  0.02031000  0.17969000  1.0
  H  H96  1  0.65605000  0.33313000  0.30263000  1.0
  H  H97  1  0.34394000  0.66686000  0.80263000  1.0
  H  H98  1  0.16686000  0.15605000  0.55263000  1.0
  H  H99  1  0.83313000  0.84395000  0.05263000  1.0
  H  H100  1  0.15605000  0.16686000  0.94737000  1.0
  H  H101  1  0.84395000  0.83313000  0.44737000  1.0
  H  H102  1  0.66687000  0.34395000  0.69737000  1.0
  H  H103  1  0.33314000  0.65605000  0.19737000  1.0
  C  C104  1  0.30748000  0.54393000  0.13020000  1.0
  C  C105  1  0.69253000  0.45607000  0.63020000  1.0
  C  C106  1  0.95607000  0.80745000  0.38020000  1.0
  C  C107  1  0.04393000  0.19254000  0.88020000  1.0
  C  C108  1  0.80747000  0.95606000  0.11980000  1.0
  C  C109  1  0.19254000  0.04393000  0.61980000  1.0
  C  C110  1  0.45607000  0.69252000  0.86980000  1.0
  C  C111  1  0.54393000  0.30747000  0.36980000  1.0
  C  C112  1  0.77222000  0.56236000  0.16451000  1.0
  C  C113  1  0.22778000  0.43764000  0.66451000  1.0
  C  C114  1  0.93764000  0.27221000  0.41451000  1.0
  C  C115  1  0.06236000  0.72778000  0.91451000  1.0
  C  C116  1  0.27222000  0.93764000  0.08549000  1.0
  C  C117  1  0.72779000  0.06236000  0.58549000  1.0
  C  C118  1  0.43764000  0.22779000  0.83549000  1.0
  C  C119  1  0.56236000  0.77221000  0.33549000  1.0
  C  C120  1  0.75590000  0.53095000  0.19569000  1.0
  C  C121  1  0.24410000  0.46904000  0.69569000  1.0
  C  C122  1  0.96904000  0.25590000  0.44570000  1.0
  C  C123  1  0.03095000  0.74410000  0.94569000  1.0
  C  C124  1  0.25590000  0.96904000  0.05431000  1.0
  C  C125  1  0.74410000  0.03096000  0.55430000  1.0
  C  C126  1  0.46904000  0.24410000  0.80430000  1.0
  C  C127  1  0.53095000  0.75590000  0.30431000  1.0
  C  C128  1  0.86050000  0.59585000  0.21704000  1.0
  C  C129  1  0.13951000  0.40415000  0.71704000  1.0
  C  C130  1  0.90415000  0.36050000  0.46704000  1.0
  C  C131  1  0.09585000  0.63950000  0.96704000  1.0
  C  C132  1  0.36050000  0.90415000  0.03296000  1.0
  C  C133  1  0.63950000  0.09586000  0.53296000  1.0
  C  C134  1  0.40414000  0.13950000  0.78296000  1.0
  C  C135  1  0.59585000  0.86049000  0.28296000  1.0
  C  C136  1  0.97360000  0.69714000  0.20507000  1.0
  C  C137  1  0.02640000  0.30286000  0.70507000  1.0
  C  C138  1  0.80286000  0.47360000  0.45507000  1.0
  C  C139  1  0.19714000  0.52640000  0.95507000  1.0
  C  C140  1  0.47360000  0.80286000  0.04493000  1.0
  C  C141  1  0.52640000  0.19714000  0.54493000  1.0
  C  C142  1  0.30286000  0.02640000  0.79493000  1.0
  C  C143  1  0.69714000  0.97359000  0.29493000  1.0
  C  C144  1  0.98509000  0.72082000  0.17344000  1.0
  C  C145  1  0.01491000  0.27918000  0.67344000  1.0
  C  C146  1  0.77917000  0.48509000  0.42344000  1.0
  C  C147  1  0.22082000  0.51491000  0.92344000  1.0
  C  C148  1  0.48509000  0.77918000  0.07656000  1.0
  C  C149  1  0.51491000  0.22083000  0.57656000  1.0
  C  C150  1  0.27918000  0.01491000  0.82656000  1.0
  C  C151  1  0.72082000  0.98508000  0.32656000  1.0
  C  C152  1  0.85164000  0.55811000  0.25028000  1.0
  C  C153  1  0.14836000  0.44189000  0.75028000  1.0
  C  C154  1  0.94189000  0.35164000  0.50028000  1.0
  C  C155  1  0.05810000  0.64835000  0.00028000  1.0
  C  C156  1  0.35164000  0.94189000  0.99972000  1.0
  C  C157  1  0.64836000  0.05811000  0.49972000  1.0
  C  C158  1  0.44189000  0.14836000  0.74972000  1.0
  C  C159  1  0.55811000  0.85164000  0.24972000  1.0
  C  C160  1  0.95126000  0.62752000  0.27199000  1.0
  C  C161  1  0.04874000  0.37248000  0.77199000  1.0
  C  C162  1  0.87248000  0.45127000  0.52199000  1.0
  C  C163  1  0.12751000  0.54873000  0.02199000  1.0
  C  C164  1  0.45126000  0.87248000  0.97801000  1.0
  C  C165  1  0.54873000  0.12752000  0.47801000  1.0
  C  C166  1  0.37248000  0.04874000  0.72801000  1.0
  C  C167  1  0.62752000  0.95126000  0.22801000  1.0
  C  C168  1  0.74408000  0.44899000  0.26177000  1.0
  C  C169  1  0.25591000  0.55101000  0.76176000  1.0
  C  C170  1  0.05101000  0.24410000  0.51177000  1.0
  C  C171  1  0.94898000  0.75590000  0.01177000  1.0
  C  C172  1  0.24409000  0.05101000  0.98824000  1.0
  C  C173  1  0.75591000  0.94899000  0.48824000  1.0
  C  C174  1  0.55101000  0.25591000  0.73824000  1.0
  C  C175  1  0.44899000  0.74409000  0.23823000  1.0
  C  C176  1  0.32300000  0.36705000  0.13013000  1.0
  C  C177  1  0.67701000  0.63296000  0.63013000  1.0
  C  C178  1  0.13296000  0.82300000  0.38013000  1.0
  C  C179  1  0.86704000  0.17700000  0.88013000  1.0
  C  C180  1  0.82300000  0.13296000  0.11987000  1.0
  C  C181  1  0.17700000  0.86704000  0.61987000  1.0
  C  C182  1  0.63295000  0.67700000  0.86987000  1.0
  C  C183  1  0.36705000  0.32300000  0.36987000  1.0
  C  C184  1  0.28216000  0.30199000  0.16234000  1.0
  C  C185  1  0.71785000  0.69802000  0.66234000  1.0
  C  C186  1  0.19801000  0.78213000  0.41234000  1.0
  C  C187  1  0.80198000  0.21785000  0.91234000  1.0
  C  C188  1  0.78215000  0.19801000  0.08766000  1.0
  C  C189  1  0.21785000  0.80199000  0.58766000  1.0
  C  C190  1  0.69801000  0.71785000  0.83766000  1.0
  C  C191  1  0.30199000  0.28216000  0.33766000  1.0
  C  C192  1  0.27656000  0.12289000  0.16122000  1.0
  C  C193  1  0.72344000  0.87712000  0.66122000  1.0
  C  C194  1  0.37712000  0.77653000  0.41122000  1.0
  C  C195  1  0.62288000  0.22346000  0.91122000  1.0
  C  C196  1  0.77654000  0.37712000  0.08878000  1.0
  C  C197  1  0.22345000  0.62289000  0.58878000  1.0
  C  C198  1  0.87711000  0.72345000  0.83878000  1.0
  C  C199  1  0.12289000  0.27656000  0.33878000  1.0
  C  C200  1  0.94334000  0.58581000  0.30292000  1.0
  C  C201  1  0.05666000  0.41418000  0.80292000  1.0
  C  C202  1  0.91417000  0.44336000  0.55292000  1.0
  C  C203  1  0.08582000  0.55665000  0.05292000  1.0
  C  C204  1  0.44334000  0.91419000  0.94708000  1.0
  C  C205  1  0.55665000  0.08581000  0.44708000  1.0
  C  C206  1  0.41418000  0.05666000  0.69708000  1.0
  C  C207  1  0.58583000  0.94334000  0.19708000  1.0
  C  C208  1  0.74042000  0.41476000  0.29303000  1.0
  C  C209  1  0.25957000  0.58524000  0.79303000  1.0
  C  C210  1  0.08525000  0.24041000  0.54303000  1.0
  C  C211  1  0.91476000  0.75957000  0.04303000  1.0
  C  C212  1  0.24042000  0.08524000  0.95697000  1.0
  C  C213  1  0.75957000  0.91477000  0.45697000  1.0
  C  C214  1  0.58524000  0.25958000  0.70697000  1.0
  C  C215  1  0.41476000  0.74042000  0.20697000  1.0
  N  N216  1  0.88837000  0.65106000  0.15345000  1.0
  N  N217  1  0.11163000  0.34894000  0.65345000  1.0
  N  N218  1  0.84893000  0.38836000  0.40345000  1.0
  N  N219  1  0.15106000  0.61163000  0.90345000  1.0
  N  N220  1  0.38837000  0.84894000  0.09655000  1.0
  N  N221  1  0.61163000  0.15107000  0.59655000  1.0
  N  N222  1  0.34893000  0.11163000  0.84655000  1.0
  N  N223  1  0.65107000  0.88837000  0.34655000  1.0
  N  N224  1  0.83904000  0.48100000  0.31321000  1.0
  N  N225  1  0.16096000  0.51900000  0.81321000  1.0
  N  N226  1  0.01900000  0.33904000  0.56321000  1.0
  N  N227  1  0.98100000  0.66096000  0.06321000  1.0
  N  N228  1  0.33904000  0.01900000  0.93679000  1.0
  N  N229  1  0.66095000  0.98100000  0.43679000  1.0
  N  N230  1  0.51900000  0.16097000  0.68679000  1.0
  N  N231  1  0.48101000  0.83904000  0.18679000  1.0
  O  O232  1  0.19232000  0.61253000  0.11932000  1.0
  O  O233  1  0.80769000  0.38748000  0.61932000  1.0
  O  O234  1  0.88749000  0.69232000  0.36932000  1.0
  O  O235  1  0.11251000  0.30768000  0.86932000  1.0
  O  O236  1  0.69233000  0.88748000  0.13068000  1.0
  O  O237  1  0.30768000  0.11252000  0.63068000  1.0
  O  O238  1  0.38748000  0.80769000  0.88069000  1.0
  O  O239  1  0.61252000  0.19230000  0.38069000  1.0
  O  O240  1  0.42676000  0.61089000  0.14298000  1.0
  O  O241  1  0.57325000  0.38912000  0.64298000  1.0
  O  O242  1  0.88911000  0.92675000  0.39299000  1.0
  O  O243  1  0.11089000  0.07325000  0.89299000  1.0
  O  O244  1  0.92676000  0.88911000  0.10702000  1.0
  O  O245  1  0.07325000  0.11089000  0.60702000  1.0
  O  O246  1  0.38911000  0.57325000  0.85702000  1.0
  O  O247  1  0.61089000  0.42674000  0.35702000  1.0
  O  O248  1  0.23084000  0.30190000  0.10587000  1.0
  O  O249  1  0.76918000  0.69811000  0.60587000  1.0
  O  O250  1  0.19810000  0.73082000  0.35587000  1.0
  O  O251  1  0.80189000  0.26917000  0.85587000  1.0
  O  O252  1  0.73084000  0.19810000  0.14413000  1.0
  O  O253  1  0.26918000  0.80190000  0.64413000  1.0
  O  O254  1  0.69810000  0.76917000  0.89413000  1.0
  O  O255  1  0.30189000  0.23083000  0.39413000  1.0
  O  O256  1  0.38416000  0.06314000  0.14431000  1.0
  O  O257  1  0.61584000  0.93686000  0.64431000  1.0
  O  O258  1  0.43686000  0.88414000  0.39431000  1.0
  O  O259  1  0.56314000  0.11585000  0.89431000  1.0
  O  O260  1  0.88415000  0.43686000  0.10568000  1.0
  O  O261  1  0.11585000  0.56314000  0.60569000  1.0
  O  O262  1  0.93686000  0.61585000  0.85568000  1.0
  O  O263  1  0.06315000  0.38417000  0.35569000  1.0
  O  O264  1  0.17168000  0.05442000  0.17592000  1.0
  O  O265  1  0.82832000  0.94559000  0.67592000  1.0
  O  O266  1  0.44559000  0.67166000  0.42592000  1.0
  O  O267  1  0.55441000  0.32834000  0.92592000  1.0
  O  O268  1  0.67167000  0.44559000  0.07408000  1.0
  O  O269  1  0.32833000  0.55441000  0.57408000  1.0
  O  O270  1  0.94559000  0.82833000  0.82408000  1.0
  O  O271  1  0.05442000  0.17169000  0.32408000  1.0
  O  O272  1  0.14026000  0.35943000  0.17470000  1.0
  O  O273  1  0.85975000  0.64058000  0.67470000  1.0
  O  O274  1  0.14058000  0.64022000  0.42469000  1.0
  O  O275  1  0.85942000  0.35975000  0.92470000  1.0
  O  O276  1  0.64025000  0.14058000  0.07530000  1.0
  O  O277  1  0.35975000  0.85942000  0.57530000  1.0
  O  O278  1  0.64057000  0.85975000  0.82530000  1.0
  O  O279  1  0.35942000  0.14027000  0.32530000  1.0
