# generated using pymatgen
data_ZnH10C16(SN)4
_symmetry_space_group_name_H-M   'P 1'
_cell_length_a   6.83758000
_cell_length_b   13.56750000
_cell_length_c   19.70280000
_cell_angle_alpha   82.26710000
_cell_angle_beta   89.98740000
_cell_angle_gamma   75.43700000
_symmetry_Int_Tables_number   1
_chemical_formula_structural   ZnH10C16(SN)4
_chemical_formula_sum   'Zn4 H40 C64 S16 N16'
_cell_volume   1751.91737216
_cell_formula_units_Z   4
loop_
 _symmetry_equiv_pos_site_id
 _symmetry_equiv_pos_as_xyz
  1  'x, y, z'
loop_
 _atom_site_type_symbol
 _atom_site_label
 _atom_site_symmetry_multiplicity
 _atom_site_fract_x
 _atom_site_fract_y
 _atom_site_fract_z
 _atom_site_occupancy
  Zn  Zn0  1  0.24215000  0.47692000  0.03627000  1.0
  Zn  Zn1  1  0.71922000  0.52291000  0.46361000  1.0
  Zn  Zn2  1  0.75784000  0.52306000  0.96373000  1.0
  Zn  Zn3  1  0.28078000  0.47710000  0.53638000  1.0
  H  H4  1  0.71421000  0.05507000  0.98275000  1.0
  H  H5  1  0.76916000  0.94502000  0.51785000  1.0
  H  H6  1  0.28582000  0.94492000  0.01725000  1.0
  H  H7  1  0.23081000  0.05498000  0.48214000  1.0
  H  H8  1  0.69672000  0.91566000  0.93402000  1.0
  H  H9  1  0.61219000  0.08459000  0.56654000  1.0
  H  H10  1  0.30330000  0.08432000  0.06598000  1.0
  H  H11  1  0.38781000  0.91542000  0.43346000  1.0
  H  H12  1  0.16032000  0.64442000  0.64839000  1.0
  H  H13  1  0.80409000  0.35587000  0.85161000  1.0
  H  H14  1  0.83968000  0.35559000  0.35160000  1.0
  H  H15  1  0.19591000  0.64413000  0.14839000  1.0
  H  H16  1  0.80779000  0.74400000  0.59049000  1.0
  H  H17  1  0.55170000  0.25592000  0.90979000  1.0
  H  H18  1  0.19221000  0.25601000  0.40951000  1.0
  H  H19  1  0.44828000  0.74407000  0.09020000  1.0
  H  H20  1  0.93058000  0.08003000  0.18593000  1.0
  H  H21  1  0.00821000  0.91974000  0.31435000  1.0
  H  H22  1  0.06942000  0.91997000  0.81407000  1.0
  H  H23  1  0.99181000  0.08029000  0.68564000  1.0
  H  H24  1  0.78643000  0.18050000  0.06446000  1.0
  H  H25  1  0.96612000  0.81946000  0.43609000  1.0
  H  H26  1  0.21359000  0.81949000  0.93554000  1.0
  H  H27  1  0.03387000  0.18055000  0.56389000  1.0
  H  H28  1  0.57142000  0.84818000  0.67803000  1.0
  H  H29  1  0.41952000  0.15148000  0.82241000  1.0
  H  H30  1  0.42857000  0.15182000  0.32197000  1.0
  H  H31  1  0.58049000  0.84852000  0.17758000  1.0
  H  H32  1  0.72528000  0.53718000  0.80304000  1.0
  H  H33  1  0.26210000  0.46284000  0.69697000  1.0
  H  H34  1  0.27470000  0.46281000  0.19696000  1.0
  H  H35  1  0.73790000  0.53718000  0.30303000  1.0
  H  H36  1  0.44574000  0.60810000  0.71340000  1.0
  H  H37  1  0.05358000  0.39165000  0.78667000  1.0
  H  H38  1  0.55425000  0.39190000  0.28660000  1.0
  H  H39  1  0.94639000  0.60837000  0.21333000  1.0
  H  H40  1  0.66826000  0.75087000  0.89536000  1.0
  H  H41  1  0.41902000  0.24956000  0.60497000  1.0
  H  H42  1  0.33175000  0.24910000  0.10465000  1.0
  H  H43  1  0.58098000  0.75044000  0.39503000  1.0
  C  C44  1  0.86111000  0.66093000  0.05110000  1.0
  C  C45  1  0.52159000  0.33901000  0.44904000  1.0
  C  C46  1  0.13889000  0.33905000  0.94891000  1.0
  C  C47  1  0.47840000  0.66100000  0.55096000  1.0
  C  C48  1  0.77231000  0.03029000  0.03537000  1.0
  C  C49  1  0.80196000  0.96968000  0.46514000  1.0
  C  C50  1  0.22770000  0.96970000  0.96464000  1.0
  C  C51  1  0.19801000  0.03033000  0.53485000  1.0
  C  C52  1  0.35188000  0.62468000  0.90256000  1.0
  C  C53  1  0.97601000  0.37536000  0.59750000  1.0
  C  C54  1  0.64810000  0.37531000  0.09744000  1.0
  C  C55  1  0.02400000  0.62464000  0.40250000  1.0
  C  C56  1  0.22653000  0.66036000  0.79062000  1.0
  C  C57  1  0.88626000  0.33963000  0.70944000  1.0
  C  C58  1  0.77346000  0.33963000  0.20938000  1.0
  C  C59  1  0.11376000  0.66037000  0.29056000  1.0
  C  C60  1  0.82119000  0.92831000  0.06573000  1.0
  C  C61  1  0.74850000  0.07158000  0.43469000  1.0
  C  C62  1  0.17882000  0.07167000  0.93427000  1.0
  C  C63  1  0.25149000  0.92843000  0.56530000  1.0
  C  C64  1  0.05519000  0.70330000  0.74311000  1.0
  C  C65  1  0.75773000  0.29675000  0.75700000  1.0
  C  C66  1  0.94481000  0.29670000  0.25689000  1.0
  C  C67  1  0.24228000  0.70325000  0.24300000  1.0
  C  C68  1  0.80945000  0.83752000  0.03641000  1.0
  C  C69  1  0.64622000  0.16244000  0.46399000  1.0
  C  C70  1  0.19056000  0.16247000  0.96359000  1.0
  C  C71  1  0.35378000  0.83758000  0.53601000  1.0
  C  C72  1  0.74040000  0.84338000  0.96826000  1.0
  C  C73  1  0.58354000  0.15678000  0.53221000  1.0
  C  C74  1  0.25962000  0.15660000  0.03175000  1.0
  C  C75  1  0.41646000  0.84323000  0.46779000  1.0
  C  C76  1  0.03828000  0.69058000  0.67486000  1.0
  C  C77  1  0.72827000  0.30955000  0.82524000  1.0
  C  C78  1  0.96171000  0.30943000  0.32514000  1.0
  C  C79  1  0.27172000  0.69045000  0.17476000  1.0
  C  C80  1  0.84925000  0.74545000  0.64358000  1.0
  C  C81  1  0.59431000  0.25458000  0.85667000  1.0
  C  C82  1  0.15075000  0.25456000  0.35643000  1.0
  C  C83  1  0.40569000  0.74542000  0.14333000  1.0
  C  C84  1  0.88577000  0.04699000  0.14298000  1.0
  C  C85  1  0.93080000  0.95285000  0.35734000  1.0
  C  C86  1  0.11423000  0.95300000  0.85702000  1.0
  C  C87  1  0.06920000  0.04717000  0.64265000  1.0
  C  C88  1  0.80974000  0.09806000  0.07938000  1.0
  C  C89  1  0.90672000  0.90186000  0.42108000  1.0
  C  C90  1  0.19027000  0.90192000  0.92062000  1.0
  C  C91  1  0.09328000  0.09815000  0.57891000  1.0
  C  C92  1  0.72465000  0.80037000  0.68798000  1.0
  C  C93  1  0.52471000  0.19945000  0.81239000  1.0
  C  C94  1  0.27534000  0.19963000  0.31202000  1.0
  C  C95  1  0.47530000  0.80055000  0.18761000  1.0
  C  C96  1  0.57153000  0.57338000  0.81650000  1.0
  C  C97  1  0.14444000  0.42662000  0.68356000  1.0
  C  C98  1  0.42846000  0.42662000  0.18350000  1.0
  C  C99  1  0.85554000  0.57339000  0.31645000  1.0
  C  C100  1  0.41760000  0.61273000  0.76747000  1.0
  C  C101  1  0.02992000  0.38717000  0.73258000  1.0
  C  C102  1  0.58238000  0.38727000  0.23252000  1.0
  C  C103  1  0.97009000  0.61283000  0.26742000  1.0
  C  C104  1  0.72675000  0.75271000  0.94645000  1.0
  C  C105  1  0.47929000  0.24754000  0.55387000  1.0
  C  C106  1  0.27326000  0.24727000  0.05356000  1.0
  C  C107  1  0.52071000  0.75246000  0.44613000  1.0
  S  S108  1  0.94431000  0.53989000  0.09874000  1.0
  S  S109  1  0.48430000  0.45991000  0.40122000  1.0
  S  S110  1  0.05569000  0.46009000  0.90128000  1.0
  S  S111  1  0.51570000  0.54010000  0.59879000  1.0
  S  S112  1  0.31908000  0.63038000  0.98983000  1.0
  S  S113  1  0.94912000  0.36960000  0.51023000  1.0
  S  S114  1  0.68091000  0.36960000  0.01017000  1.0
  S  S115  1  0.05088000  0.63041000  0.48977000  1.0
  S  S116  1  0.83564000  0.78410000  0.76794000  1.0
  S  S117  1  0.61921000  0.21569000  0.73236000  1.0
  S  S118  1  0.16435000  0.21590000  0.23207000  1.0
  S  S119  1  0.38080000  0.78432000  0.26763000  1.0
  S  S120  1  0.91476000  0.91715000  0.14905000  1.0
  S  S121  1  0.83002000  0.08267000  0.35123000  1.0
  S  S122  1  0.08524000  0.08284000  0.85096000  1.0
  S  S123  1  0.16999000  0.91734000  0.64877000  1.0
  N  N124  1  0.86847000  0.74606000  0.07721000  1.0
  N  N125  1  0.61362000  0.25377000  0.42303000  1.0
  N  N126  1  0.13154000  0.25393000  0.92280000  1.0
  N  N127  1  0.38637000  0.74624000  0.57697000  1.0
  N  N128  1  0.19658000  0.66781000  0.85783000  1.0
  N  N129  1  0.86365000  0.33225000  0.64223000  1.0
  N  N130  1  0.80341000  0.33219000  0.14217000  1.0
  N  N131  1  0.13637000  0.66776000  0.35777000  1.0
  N  N132  1  0.78358000  0.66214000  0.98723000  1.0
  N  N133  1  0.44559000  0.33800000  0.51296000  1.0
  N  N134  1  0.21643000  0.33784000  0.01278000  1.0
  N  N135  1  0.55442000  0.66200000  0.48705000  1.0
  N  N136  1  0.54107000  0.57829000  0.88367000  1.0
  N  N137  1  0.11883000  0.42177000  0.61639000  1.0
  N  N138  1  0.45892000  0.42170000  0.11634000  1.0
  N  N139  1  0.88117000  0.57824000  0.38361000  1.0
