# generated using pymatgen
data_ZnH9C14NCl2O5
_symmetry_space_group_name_H-M   'P 1'
_cell_length_a   7.98623000
_cell_length_b   13.08440000
_cell_length_c   14.41530000
_cell_angle_alpha   90.00000000
_cell_angle_beta   90.00000000
_cell_angle_gamma   92.92300000
_symmetry_Int_Tables_number   1
_chemical_formula_structural   ZnH9C14NCl2O5
_chemical_formula_sum   'Zn4 H36 C56 N4 Cl8 O20'
_cell_volume   1504.36739367
_cell_formula_units_Z   4
loop_
 _symmetry_equiv_pos_site_id
 _symmetry_equiv_pos_as_xyz
  1  'x, y, z'
loop_
 _atom_site_type_symbol
 _atom_site_label
 _atom_site_symmetry_multiplicity
 _atom_site_fract_x
 _atom_site_fract_y
 _atom_site_fract_z
 _atom_site_occupancy
  Zn  Zn0  1  0.93568000  0.93048000  0.07268000  1.0
  Zn  Zn1  1  0.56432000  0.56952000  0.57268000  1.0
  Zn  Zn2  1  0.06432000  0.06952000  0.92732000  1.0
  Zn  Zn3  1  0.43568000  0.43048000  0.42732000  1.0
  H  H4  1  0.10893000  0.45654000  0.91331000  1.0
  H  H5  1  0.39107000  0.04346000  0.41331000  1.0
  H  H6  1  0.89107000  0.54346000  0.08669000  1.0
  H  H7  1  0.60893000  0.95654000  0.58669000  1.0
  H  H8  1  0.16821000  0.70655000  0.71893000  1.0
  H  H9  1  0.33179000  0.79345000  0.21893000  1.0
  H  H10  1  0.83179000  0.29345000  0.28107000  1.0
  H  H11  1  0.66821000  0.20655000  0.78107000  1.0
  H  H12  1  0.32805000  0.80836000  0.83536000  1.0
  H  H13  1  0.17195000  0.69164000  0.33536000  1.0
  H  H14  1  0.67195000  0.19164000  0.16464000  1.0
  H  H15  1  0.82805000  0.30836000  0.66464000  1.0
  H  H16  1  0.50785000  0.86582000  0.93138000  1.0
  H  H17  1  0.99215000  0.63418000  0.43138000  1.0
  H  H18  1  0.49215000  0.13418000  0.06862000  1.0
  H  H19  1  0.00785000  0.36582000  0.56862000  1.0
  H  H20  1  0.51984000  0.87364000  0.05394000  1.0
  H  H21  1  0.98016000  0.62636000  0.55394000  1.0
  H  H22  1  0.48015000  0.12636000  0.94606000  1.0
  H  H23  1  0.01985000  0.37364000  0.44606000  1.0
  H  H24  1  0.73105000  0.73515000  0.06627000  1.0
  H  H25  1  0.76895000  0.76485000  0.56627000  1.0
  H  H26  1  0.26894000  0.26485000  0.93374000  1.0
  H  H27  1  0.23106000  0.23515000  0.43373000  1.0
  H  H28  1  0.59106000  0.61274000  0.18020000  1.0
  H  H29  1  0.90894000  0.88726000  0.68019000  1.0
  H  H30  1  0.40894000  0.38726000  0.81981000  1.0
  H  H31  1  0.09106000  0.11274000  0.31981000  1.0
  H  H32  1  0.80287000  0.80192000  0.39961000  1.0
  H  H33  1  0.69713000  0.69808000  0.89961000  1.0
  H  H34  1  0.19712000  0.19807000  0.60039000  1.0
  H  H35  1  0.30288000  0.30193000  0.10039000  1.0
  H  H36  1  0.93395000  0.91725000  0.27675000  1.0
  H  H37  1  0.56605000  0.58275000  0.77675000  1.0
  H  H38  1  0.06604000  0.08275000  0.72325000  1.0
  H  H39  1  0.43396000  0.41725000  0.22325000  1.0
  C  C40  1  0.31731000  0.68979000  0.94038000  1.0
  C  C41  1  0.18269000  0.81021000  0.44038000  1.0
  C  C42  1  0.68269000  0.31021000  0.05961000  1.0
  C  C43  1  0.81731000  0.18979000  0.55961000  1.0
  C  C44  1  0.25456000  0.58965000  0.96047000  1.0
  C  C45  1  0.24544000  0.91035000  0.46047000  1.0
  C  C46  1  0.74545000  0.41035000  0.03953000  1.0
  C  C47  1  0.75456000  0.08965000  0.53953000  1.0
  C  C48  1  0.15968000  0.53281000  0.89563000  1.0
  C  C49  1  0.34032000  0.96719000  0.39563000  1.0
  C  C50  1  0.84032000  0.46719000  0.10436000  1.0
  C  C51  1  0.65968000  0.03281000  0.60437000  1.0
  C  C52  1  0.12876000  0.57559000  0.80893000  1.0
  C  C53  1  0.37124000  0.92442000  0.30893000  1.0
  C  C54  1  0.87124000  0.42441000  0.19107000  1.0
  C  C55  1  0.62876000  0.07559000  0.69107000  1.0
  C  C56  1  0.19046000  0.67420000  0.78713000  1.0
  C  C57  1  0.30954000  0.82580000  0.28713000  1.0
  C  C58  1  0.80954000  0.32580000  0.21287000  1.0
  C  C59  1  0.69047000  0.17420000  0.71287000  1.0
  C  C60  1  0.28263000  0.73102000  0.85312000  1.0
  C  C61  1  0.21737000  0.76898000  0.35312000  1.0
  C  C62  1  0.71738000  0.26898000  0.14688000  1.0
  C  C63  1  0.78263000  0.23102000  0.64688000  1.0
  C  C64  1  0.43976000  0.84766000  0.99592000  1.0
  C  C65  1  0.06024000  0.65234000  0.49592000  1.0
  C  C66  1  0.56024000  0.15234000  0.00408000  1.0
  C  C67  1  0.93976000  0.34766000  0.50408000  1.0
  C  C68  1  0.27772000  0.90495000  0.00044000  1.0
  C  C69  1  0.22228000  0.59505000  0.50044000  1.0
  C  C70  1  0.72227000  0.09504000  0.99956000  1.0
  C  C71  1  0.77773000  0.40496000  0.49956000  1.0
  C  C72  1  0.74306000  0.74653000  0.14083000  1.0
  C  C73  1  0.75694000  0.75347000  0.64083000  1.0
  C  C74  1  0.25693000  0.25347000  0.85917000  1.0
  C  C75  1  0.24307000  0.24653000  0.35917000  1.0
  C  C76  1  0.66666667  0.67911000  0.20399000  1.0
  C  C77  1  0.83337000  0.82089000  0.70399000  1.0
  C  C78  1  0.33333333  0.32089000  0.79601000  1.0
  C  C79  1  0.16663000  0.17911000  0.29601000  1.0
  C  C80  1  0.68852000  0.69799000  0.29870000  1.0
  C  C81  1  0.81148000  0.80201000  0.79870000  1.0
  C  C82  1  0.31148000  0.30201000  0.70130000  1.0
  C  C83  1  0.18852000  0.19799000  0.20130000  1.0
  C  C84  1  0.78464000  0.78485000  0.32637000  1.0
  C  C85  1  0.71537000  0.71515000  0.82637000  1.0
  C  C86  1  0.21536000  0.21515000  0.67363000  1.0
  C  C87  1  0.28464000  0.28485000  0.17363000  1.0
  C  C88  1  0.85681000  0.84893000  0.25906000  1.0
  C  C89  1  0.64319000  0.65107000  0.75906000  1.0
  C  C90  1  0.14318000  0.15107000  0.74094000  1.0
  C  C91  1  0.35682000  0.34893000  0.24094000  1.0
  C  C92  1  0.61324000  0.62529000  0.37012000  1.0
  C  C93  1  0.88676000  0.87471000  0.87012000  1.0
  C  C94  1  0.38676000  0.37472000  0.62989000  1.0
  C  C95  1  0.11323000  0.12528000  0.12989000  1.0
  N  N96  1  0.83642000  0.82998000  0.16788000  1.0
  N  N97  1  0.66358000  0.67002000  0.66788000  1.0
  N  N98  1  0.16357000  0.17002000  0.83212000  1.0
  N  N99  1  0.33643000  0.32998000  0.33212000  1.0
  Cl  Cl100  1  0.29230000  0.53747000  0.06821000  1.0
  Cl  Cl101  1  0.20770000  0.96253000  0.56821000  1.0
  Cl  Cl102  1  0.70770000  0.46253000  0.93179000  1.0
  Cl  Cl103  1  0.79230000  0.03747000  0.43179000  1.0
  Cl  Cl104  1  0.00819000  0.50693000  0.72813000  1.0
  Cl  Cl105  1  0.49182000  0.99307000  0.22813000  1.0
  Cl  Cl106  1  0.99182000  0.49307000  0.27187000  1.0
  Cl  Cl107  1  0.50818000  0.00694000  0.77187000  1.0
  O  O108  1  0.16773000  0.87213000  0.05777000  1.0
  O  O109  1  0.33227000  0.62787000  0.55777000  1.0
  O  O110  1  0.83227000  0.12786000  0.94222000  1.0
  O  O111  1  0.66773000  0.37214000  0.44222000  1.0
  O  O112  1  0.27043000  0.98179000  0.94697000  1.0
  O  O113  1  0.22956000  0.51821000  0.44697000  1.0
  O  O114  1  0.72956000  0.01822000  0.05303000  1.0
  O  O115  1  0.77044000  0.48178000  0.55303000  1.0
  O  O116  1  0.41065000  0.73949000  0.00757000  1.0
  O  O117  1  0.08935000  0.76051000  0.50757000  1.0
  O  O118  1  0.58935000  0.26051000  0.99243000  1.0
  O  O119  1  0.91064000  0.23949000  0.49242000  1.0
  O  O120  1  0.63780000  0.65039000  0.45424000  1.0
  O  O121  1  0.86220000  0.84960000  0.95425000  1.0
  O  O122  1  0.36220000  0.34960000  0.54575000  1.0
  O  O123  1  0.13780000  0.15040000  0.04575000  1.0
  O  O124  1  0.53428000  0.54518000  0.34031000  1.0
  O  O125  1  0.96572000  0.95482000  0.84031000  1.0
  O  O126  1  0.46571000  0.45482000  0.65970000  1.0
  O  O127  1  0.03429000  0.04518000  0.15969000  1.0
