# generated using pymatgen
data_CdH10C6N8O5
_symmetry_space_group_name_H-M   'P 1'
_cell_length_a   6.69829000
_cell_length_b   8.68200054
_cell_length_c   11.73440000
_cell_angle_alpha   76.24144153
_cell_angle_beta   90.00630000
_cell_angle_gamma   67.30672992
_symmetry_Int_Tables_number   1
_chemical_formula_structural   CdH10C6N8O5
_chemical_formula_sum   'Cd2 H20 C12 N16 O10'
_cell_volume   608.29251122
_cell_formula_units_Z   2
loop_
 _symmetry_equiv_pos_site_id
 _symmetry_equiv_pos_as_xyz
  1  'x, y, z'
loop_
 _atom_site_type_symbol
 _atom_site_label
 _atom_site_symmetry_multiplicity
 _atom_site_fract_x
 _atom_site_fract_y
 _atom_site_fract_z
 _atom_site_occupancy
  Cd  Cd0  1  0.65835000  0.99994000  0.25001000  1.0
  Cd  Cd1  1  0.34166000  0.00005000  0.74999000  1.0
  H  H2  1  0.10554000  0.00809000  0.18366000  1.0
  H  H3  1  0.11379000  0.99177000  0.31635000  1.0
  H  H4  1  0.89446000  0.99191000  0.81634000  1.0
  H  H5  1  0.88621000  0.00823000  0.68365000  1.0
  H  H6  1  0.88782000  0.33679000  0.22563000  1.0
  H  H7  1  0.22452000  0.66300000  0.27441000  1.0
  H  H8  1  0.11218000  0.66321000  0.77437000  1.0
  H  H9  1  0.77548000  0.33700000  0.72559000  1.0
  H  H10  1  0.71928000  0.63992000  0.47193000  1.0
  H  H11  1  0.35975000  0.36011000  0.02795000  1.0
  H  H12  1  0.28071000  0.36009000  0.52807000  1.0
  H  H13  1  0.64025000  0.63989000  0.97205000  1.0
  H  H14  1  0.95693000  0.20247000  0.48626000  1.0
  H  H15  1  0.15941000  0.79747000  0.01375000  1.0
  H  H16  1  0.04308000  0.79752000  0.51375000  1.0
  H  H17  1  0.84059000  0.20253000  0.98626000  1.0
  H  H18  1  0.69116000  0.27103000  0.44058000  1.0
  H  H19  1  0.96230000  0.72881000  0.05942000  1.0
  H  H20  1  0.30883000  0.72898000  0.55943000  1.0
  H  H21  1  0.03770000  0.27119000  0.94058000  1.0
  C  C22  1  0.60639000  0.00869000  0.97849000  1.0
  C  C23  1  0.61507000  0.99129000  0.52153000  1.0
  C  C24  1  0.39361000  0.99131000  0.02151000  1.0
  C  C25  1  0.38491000  0.00872000  0.47846000  1.0
  C  C26  1  0.84385000  0.44786000  0.26254000  1.0
  C  C27  1  0.29178000  0.55198000  0.23747000  1.0
  C  C28  1  0.15615000  0.55214000  0.73746000  1.0
  C  C29  1  0.70822000  0.44802000  0.76253000  1.0
  C  C30  1  0.75870000  0.60367000  0.38989000  1.0
  C  C31  1  0.36278000  0.39628000  0.11003000  1.0
  C  C32  1  0.24131000  0.39632000  0.61011000  1.0
  C  C33  1  0.63722000  0.60372000  0.88997000  1.0
  N  N34  1  0.75729000  0.70531000  0.28624000  1.0
  N  N35  1  0.46298000  0.29461000  0.21368000  1.0
  N  N36  1  0.24272000  0.29468000  0.71376000  1.0
  N  N37  1  0.53701000  0.70540000  0.78632000  1.0
  N  N38  1  0.80958000  0.60770000  0.20471000  1.0
  N  N39  1  0.41744000  0.39213000  0.29527000  1.0
  N  N40  1  0.19042000  0.39230000  0.79530000  1.0
  N  N41  1  0.58256000  0.60787000  0.70473000  1.0
  N  N42  1  0.81395000  0.44045000  0.37923000  1.0
  N  N43  1  0.25461000  0.55946000  0.12074000  1.0
  N  N44  1  0.18605000  0.55955000  0.62077000  1.0
  N  N45  1  0.74539000  0.44054000  0.87926000  1.0
  N  N46  1  0.80744000  0.30568000  0.47051000  1.0
  N  N47  1  0.11322000  0.69423000  0.02948000  1.0
  N  N48  1  0.19256000  0.69432000  0.52949000  1.0
  N  N49  1  0.88677000  0.30578000  0.97052000  1.0
  O  O50  1  0.72239000  0.03940000  0.04869000  1.0
  O  O51  1  0.76176000  0.96068000  0.45133000  1.0
  O  O52  1  0.27761000  0.96060000  0.95130000  1.0
  O  O53  1  0.23822000  0.03932000  0.54867000  1.0
  O  O54  1  0.34924000  0.00978000  0.12307000  1.0
  O  O55  1  0.35901000  0.99036000  0.37686000  1.0
  O  O56  1  0.65076000  0.99022000  0.87692000  1.0
  O  O57  1  0.64097000  0.00965000  0.62314000  1.0
  O  O58  1  0.01527000  0.99984000  0.25003000  1.0
  O  O59  1  0.98473000  0.00016000  0.74997000  1.0
