# generated using pymatgen
data_RbH2C2(N3O)2
_symmetry_space_group_name_H-M   'P 1'
_cell_length_a   5.07035000
_cell_length_b   9.03047000
_cell_length_c   14.52150000
_cell_angle_alpha   106.83200000
_cell_angle_beta   89.99970000
_cell_angle_gamma   89.99990000
_symmetry_Int_Tables_number   1
_chemical_formula_structural   RbH2C2(N3O)2
_chemical_formula_sum   'Rb4 H8 C8 N24 O8'
_cell_volume   636.41934302
_cell_formula_units_Z   4
loop_
 _symmetry_equiv_pos_site_id
 _symmetry_equiv_pos_as_xyz
  1  'x, y, z'
loop_
 _atom_site_type_symbol
 _atom_site_label
 _atom_site_symmetry_multiplicity
 _atom_site_fract_x
 _atom_site_fract_y
 _atom_site_fract_z
 _atom_site_occupancy
  Rb  Rb0  1  0.70393000  0.46747000  0.12954000  1.0
  Rb  Rb1  1  0.20393000  0.03254000  0.37045000  1.0
  Rb  Rb2  1  0.29608000  0.53254000  0.87045000  1.0
  Rb  Rb3  1  0.79608000  0.96746000  0.62955000  1.0
  H  H4  1  0.19629000  0.37262000  0.25275000  1.0
  H  H5  1  0.69629000  0.12738000  0.24725000  1.0
  H  H6  1  0.80371000  0.62738000  0.74725000  1.0
  H  H7  1  0.30372000  0.87262000  0.75275000  1.0
  H  H8  1  0.19918000  0.56482000  0.32481000  1.0
  H  H9  1  0.69918000  0.93518000  0.17518000  1.0
  H  H10  1  0.80082000  0.43518000  0.67518000  1.0
  H  H11  1  0.30083000  0.06482000  0.82482000  1.0
  C  C12  1  0.90550000  0.43106000  0.35363000  1.0
  C  C13  1  0.40549000  0.06894000  0.14637000  1.0
  C  C14  1  0.09450000  0.56894000  0.64637000  1.0
  C  C15  1  0.59450000  0.93106000  0.85363000  1.0
  C  C16  1  0.58871000  0.46331000  0.46142000  1.0
  C  C17  1  0.08871000  0.03669000  0.03859000  1.0
  C  C18  1  0.41127000  0.53669000  0.53859000  1.0
  C  C19  1  0.91129000  0.96332000  0.96141000  1.0
  N  N20  1  0.77532000  0.54220000  0.42357000  1.0
  N  N21  1  0.27532000  0.95780000  0.07644000  1.0
  N  N22  1  0.22467000  0.45780000  0.57644000  1.0
  N  N23  1  0.72467000  0.04220000  0.92356000  1.0
  N  N24  1  0.68063000  0.76629000  0.39454000  1.0
  N  N25  1  0.18063000  0.73371000  0.10546000  1.0
  N  N26  1  0.31937000  0.23371000  0.60546000  1.0
  N  N27  1  0.81938000  0.26629000  0.89454000  1.0
  N  N28  1  0.80399000  0.29231000  0.34833000  1.0
  N  N29  1  0.30399000  0.20769000  0.15167000  1.0
  N  N30  1  0.19601000  0.70770000  0.65167000  1.0
  N  N31  1  0.69601000  0.79230000  0.84833000  1.0
  N  N32  1  0.09416000  0.46512000  0.29767000  1.0
  N  N33  1  0.59417000  0.03488000  0.20233000  1.0
  N  N34  1  0.90584000  0.53488000  0.70233000  1.0
  N  N35  1  0.40584000  0.96512000  0.79767000  1.0
  N  N36  1  0.60444000  0.31376000  0.41614000  1.0
  N  N37  1  0.10444000  0.18624000  0.08386000  1.0
  N  N38  1  0.39555000  0.68624000  0.58386000  1.0
  N  N39  1  0.89556000  0.81377000  0.91614000  1.0
  N  N40  1  0.82963000  0.69949000  0.44734000  1.0
  N  N41  1  0.32963000  0.80050000  0.05266000  1.0
  N  N42  1  0.17038000  0.30051000  0.55266000  1.0
  N  N43  1  0.67038000  0.19949000  0.94734000  1.0
  O  O44  1  0.51868000  0.69454000  0.33036000  1.0
  O  O45  1  0.01868000  0.80546000  0.16964000  1.0
  O  O46  1  0.48132000  0.30546000  0.66964000  1.0
  O  O47  1  0.98132000  0.19454000  0.83036000  1.0
  O  O48  1  0.71066000  0.91167000  0.41355000  1.0
  O  O49  1  0.21066000  0.58833000  0.08645000  1.0
  O  O50  1  0.28934000  0.08833000  0.58645000  1.0
  O  O51  1  0.78934000  0.41167000  0.91355000  1.0
