# generated using pymatgen
data_CuH9C7IN
_symmetry_space_group_name_H-M   'P 1'
_cell_length_a   4.23827000
_cell_length_b   10.02130000
_cell_length_c   10.89490000
_cell_angle_alpha   113.42800000
_cell_angle_beta   95.08710000
_cell_angle_gamma   102.10900000
_symmetry_Int_Tables_number   1
_chemical_formula_structural   CuH9C7IN
_chemical_formula_sum   'Cu2 H18 C14 I2 N2'
_cell_volume   407.43605804
_cell_formula_units_Z   2
loop_
 _symmetry_equiv_pos_site_id
 _symmetry_equiv_pos_as_xyz
  1  'x, y, z'
loop_
 _atom_site_type_symbol
 _atom_site_label
 _atom_site_symmetry_multiplicity
 _atom_site_fract_x
 _atom_site_fract_y
 _atom_site_fract_z
 _atom_site_occupancy
  Cu  Cu0  1  0.27494000  0.87921000  0.97382000  1.0
  Cu  Cu1  1  0.72506000  0.12079000  0.02618000  1.0
  H  H2  1  0.18046000  0.39206000  0.54995000  1.0
  H  H3  1  0.81954000  0.60794000  0.45005000  1.0
  H  H4  1  0.61713000  0.34282000  0.84657000  1.0
  H  H5  1  0.38287000  0.65718000  0.15343000  1.0
  H  H6  1  0.81992000  0.62239000  0.98174000  1.0
  H  H7  1  0.18008000  0.37762000  0.01826000  1.0
  H  H8  1  0.32124000  0.78051000  0.67430000  1.0
  H  H9  1  0.67875000  0.21948000  0.32569000  1.0
  H  H10  1  0.65693000  0.76137000  0.76647000  1.0
  H  H11  1  0.34307000  0.23862000  0.23352000  1.0
  H  H12  1  0.50899000  0.63277000  0.59094000  1.0
  H  H13  1  0.49100000  0.36723000  0.40906000  1.0
  H  H14  1  0.61070000  0.15154000  0.50184000  1.0
  H  H15  1  0.38931000  0.84846000  0.49817000  1.0
  H  H16  1  0.97305000  0.12778000  0.57357000  1.0
  H  H17  1  0.02695000  0.87222000  0.42644000  1.0
  H  H18  1  0.62264000  0.11901000  0.65163000  1.0
  H  H19  1  0.37735000  0.88099000  0.34838000  1.0
  C  C20  1  0.20504000  0.59391000  0.72721000  1.0
  C  C21  1  0.79496000  0.40609000  0.27278000  1.0
  C  C22  1  0.09445000  0.43887000  0.64561000  1.0
  C  C23  1  0.90555000  0.56113000  0.35439000  1.0
  C  C24  1  0.88214000  0.34320000  0.68551000  1.0
  C  C25  1  0.11787000  0.65680000  0.31450000  1.0
  C  C26  1  0.78294000  0.41105000  0.80959000  1.0
  C  C27  1  0.21707000  0.58896000  0.19042000  1.0
  C  C28  1  0.89714000  0.56613000  0.88564000  1.0
  C  C29  1  0.10286000  0.43388000  0.11436000  1.0
  C  C30  1  0.43566000  0.69649000  0.68657000  1.0
  C  C31  1  0.56433000  0.30351000  0.31342000  1.0
  C  C32  1  0.76508000  0.17648000  0.59905000  1.0
  C  C33  1  0.23492000  0.82351000  0.40096000  1.0
  I  I34  1  0.17753000  0.06275000  0.85936000  1.0
  I  I35  1  0.82248000  0.93725000  0.14064000  1.0
  N  N36  1  0.10625000  0.65753000  0.84775000  1.0
  N  N37  1  0.89375000  0.34248000  0.15225000  1.0
