# generated using pymatgen
data_CuH7C10INO2
_symmetry_space_group_name_H-M   'P 1'
_cell_length_a   4.12453000
_cell_length_b   10.04040000
_cell_length_c   12.30470000
_cell_angle_alpha   94.78750000
_cell_angle_beta   97.67230000
_cell_angle_gamma   99.53260000
_symmetry_Int_Tables_number   1
_chemical_formula_structural   CuH7C10INO2
_chemical_formula_sum   'Cu2 H14 C20 I2 N2 O4'
_cell_volume   495.11260147
_cell_formula_units_Z   2
loop_
 _symmetry_equiv_pos_site_id
 _symmetry_equiv_pos_as_xyz
  1  'x, y, z'
loop_
 _atom_site_type_symbol
 _atom_site_label
 _atom_site_symmetry_multiplicity
 _atom_site_fract_x
 _atom_site_fract_y
 _atom_site_fract_z
 _atom_site_occupancy
  Cu  Cu0  1  0.23641000  0.10562000  0.03635000  1.0
  Cu  Cu1  1  0.76361000  0.89438000  0.96365000  1.0
  H  H2  1  0.55076000  0.10596000  0.54843000  1.0
  H  H3  1  0.44922000  0.89403000  0.45156000  1.0
  H  H4  1  0.95150000  0.02717000  0.22526000  1.0
  H  H5  1  0.04852000  0.97283000  0.77474000  1.0
  H  H6  1  0.04853000  0.37808000  0.46205000  1.0
  H  H7  1  0.95146000  0.62192000  0.53795000  1.0
  H  H8  1  0.38139000  0.59710000  0.42273000  1.0
  H  H9  1  0.61860000  0.40290000  0.57728000  1.0
  H  H10  1  0.72246000  0.72403000  0.30012000  1.0
  H  H11  1  0.27754000  0.27597000  0.69989000  1.0
  H  H12  1  0.81670000  0.60790000  0.12389000  1.0
  H  H13  1  0.18330000  0.39210000  0.87612000  1.0
  H  H14  1  0.57924000  0.36252000  0.06973000  1.0
  H  H15  1  0.42077000  0.63749000  0.93028000  1.0
  C  C16  1  0.04589000  0.13465000  0.25136000  1.0
  C  C17  1  0.95411000  0.86535000  0.74863000  1.0
  C  C18  1  0.97551000  0.19382000  0.35190000  1.0
  C  C19  1  0.02448000  0.80617000  0.64809000  1.0
  C  C20  1  0.09750000  0.33038000  0.38453000  1.0
  C  C21  1  0.90249000  0.66962000  0.61546000  1.0
  C  C22  1  0.29063000  0.40654000  0.31726000  1.0
  C  C23  1  0.70938000  0.59346000  0.68274000  1.0
  C  C24  1  0.34749000  0.33965000  0.21564000  1.0
  C  C25  1  0.65252000  0.66035000  0.78436000  1.0
  C  C26  1  0.42917000  0.54618000  0.34624000  1.0
  C  C27  1  0.57083000  0.45382000  0.65376000  1.0
  C  C28  1  0.61576000  0.61686000  0.27772000  1.0
  C  C29  1  0.38424000  0.38314000  0.72228000  1.0
  C  C30  1  0.66774000  0.55058000  0.17709000  1.0
  C  C31  1  0.33226000  0.44942000  0.82292000  1.0
  C  C32  1  0.53665000  0.41487000  0.14649000  1.0
  C  C33  1  0.46336000  0.58514000  0.85352000  1.0
  C  C34  1  0.77414000  0.10741000  0.41866000  1.0
  C  C35  1  0.22584000  0.89258000  0.58132000  1.0
  I  I36  1  0.29593000  0.85173000  0.08823000  1.0
  I  I37  1  0.70408000  0.14827000  0.91177000  1.0
  N  N38  1  0.22307000  0.20347000  0.18495000  1.0
  N  N39  1  0.77695000  0.79653000  0.81505000  1.0
  O  O40  1  0.68298000  0.98270000  0.39104000  1.0
  O  O41  1  0.31701000  0.01731000  0.60895000  1.0
  O  O42  1  0.70072000  0.17219000  0.50749000  1.0
  O  O43  1  0.29926000  0.82781000  0.49251000  1.0
