# generated using pymatgen
data_ZnH12C14(N3O2)2
_symmetry_space_group_name_H-M   'P 1'
_cell_length_a   6.98446000
_cell_length_b   9.21268000
_cell_length_c   12.10750000
_cell_angle_alpha   90.00010000
_cell_angle_beta   90.00010000
_cell_angle_gamma   105.18700000
_symmetry_Int_Tables_number   1
_chemical_formula_structural   ZnH12C14(N3O2)2
_chemical_formula_sum   'Zn2 H24 C28 N12 O8'
_cell_volume   751.85621724
_cell_formula_units_Z   2
loop_
 _symmetry_equiv_pos_site_id
 _symmetry_equiv_pos_as_xyz
  1  'x, y, z'
loop_
 _atom_site_type_symbol
 _atom_site_label
 _atom_site_symmetry_multiplicity
 _atom_site_fract_x
 _atom_site_fract_y
 _atom_site_fract_z
 _atom_site_occupancy
  Zn  Zn0  1  0.09872000  0.74059000  0.30219000  1.0
  Zn  Zn1  1  0.90128000  0.25941000  0.80219000  1.0
  H  H2  1  0.74423000  0.22805000  0.23873000  1.0
  H  H3  1  0.25577000  0.77195000  0.73873000  1.0
  H  H4  1  0.85964000  0.33880000  0.35171000  1.0
  H  H5  1  0.14036000  0.66120000  0.85171000  1.0
  H  H6  1  0.49659000  0.27336000  0.37254000  1.0
  H  H7  1  0.50341000  0.72664000  0.87254000  1.0
  H  H8  1  0.47732000  0.07890000  0.35440000  1.0
  H  H9  1  0.52268000  0.92110000  0.85440000  1.0
  H  H10  1  0.78087000  0.93934000  0.23160000  1.0
  H  H11  1  0.21913000  0.06066000  0.73160000  1.0
  H  H12  1  0.08128000  0.23025000  0.48537000  1.0
  H  H13  1  0.91872000  0.76975000  0.98536000  1.0
  H  H14  1  0.82373000  0.36574000  0.55241000  1.0
  H  H15  1  0.17628000  0.63426000  0.05241000  1.0
  H  H16  1  0.39350000  0.94667000  0.53292000  1.0
  H  H17  1  0.60650000  0.05333000  0.03292000  1.0
  H  H18  1  0.56548000  0.45322000  0.79206000  1.0
  H  H19  1  0.43452000  0.54678000  0.29206000  1.0
  H  H20  1  0.88972000  0.62428000  0.74453000  1.0
  H  H21  1  0.11028000  0.37572000  0.24453000  1.0
  H  H22  1  0.92452000  0.78646000  0.57464000  1.0
  H  H23  1  0.07548000  0.21354000  0.07463000  1.0
  H  H24  1  0.62677000  0.77373000  0.45829000  1.0
  H  H25  1  0.37323000  0.22627000  0.95829000  1.0
  C  C26  1  0.77175000  0.22622000  0.32779000  1.0
  C  C27  1  0.22825000  0.77378000  0.82778000  1.0
  C  C28  1  0.57179000  0.18425000  0.38713000  1.0
  C  C29  1  0.42821000  0.81575000  0.88713000  1.0
  C  C30  1  0.87850000  0.98668000  0.29953000  1.0
  C  C31  1  0.12151000  0.01332000  0.79953000  1.0
  C  C32  1  0.03281000  0.13372000  0.43080000  1.0
  C  C33  1  0.96719000  0.86628000  0.93080000  1.0
  C  C34  1  0.72270000  0.25857000  0.57535000  1.0
  C  C35  1  0.27731000  0.74144000  0.07535000  1.0
  C  C36  1  0.50507000  0.04102000  0.56724000  1.0
  C  C37  1  0.49493000  0.95898000  0.06724000  1.0
  C  C38  1  0.43070000  0.60532000  0.55724000  1.0
  C  C39  1  0.56929000  0.39468000  0.05724000  1.0
  C  C40  1  0.41429000  0.51278000  0.65098000  1.0
  C  C41  1  0.58571000  0.48722000  0.15098000  1.0
  C  C42  1  0.57977000  0.52470000  0.71911000  1.0
  C  C43  1  0.42023000  0.47530000  0.21911000  1.0
  C  C44  1  0.76244000  0.62235000  0.69239000  1.0
  C  C45  1  0.23756000  0.37765000  0.19239000  1.0
  C  C46  1  0.78169000  0.71141000  0.59755000  1.0
  C  C47  1  0.21831000  0.28859000  0.09755000  1.0
  C  C48  1  0.61582000  0.70386000  0.53179000  1.0
  C  C49  1  0.38418000  0.29614000  0.03179000  1.0
  C  C50  1  0.25524000  0.60040000  0.48373000  1.0
  C  C51  1  0.74476000  0.39960000  0.98373000  1.0
  C  C52  1  0.23035000  0.39362000  0.68173000  1.0
  C  C53  1  0.76966000  0.60638000  0.18173000  1.0
  N  N54  1  0.00721000  0.92303000  0.34675000  1.0
  N  N55  1  0.99280000  0.07697000  0.84675000  1.0
  N  N56  1  0.10468000  0.01512000  0.43028000  1.0
  N  N57  1  0.89533000  0.98488000  0.93027000  1.0
  N  N58  1  0.89016000  0.12007000  0.35042000  1.0
  N  N59  1  0.10984000  0.87993000  0.85042000  1.0
  N  N60  1  0.70998000  0.19430000  0.67373000  1.0
  N  N61  1  0.29003000  0.80570000  0.17373000  1.0
  N  N62  1  0.57163000  0.05642000  0.66958000  1.0
  N  N63  1  0.42837000  0.94358000  0.16958000  1.0
  N  N64  1  0.59558000  0.16467000  0.50563000  1.0
  N  N65  1  0.40442000  0.83533000  0.00563000  1.0
  O  O66  1  0.27513000  0.72027000  0.42339000  1.0
  O  O67  1  0.72487000  0.27973000  0.92339000  1.0
  O  O68  1  0.10801000  0.48854000  0.48309000  1.0
  O  O69  1  0.89199000  0.51146000  0.98309000  1.0
  O  O70  1  0.21139000  0.26271000  0.64749000  1.0
  O  O71  1  0.78861000  0.73729000  0.14749000  1.0
  O  O72  1  0.11144000  0.43353000  0.75085000  1.0
  O  O73  1  0.88856000  0.56647000  0.25085000  1.0
