# generated using pymatgen
data_AgH9C5SNO3
_symmetry_space_group_name_H-M   'P 1'
_cell_length_a   4.71743000
_cell_length_b   11.44980000
_cell_length_c   15.81670000
_cell_angle_alpha   84.05080000
_cell_angle_beta   89.99940000
_cell_angle_gamma   89.99910000
_symmetry_Int_Tables_number   1
_chemical_formula_structural   AgH9C5SNO3
_chemical_formula_sum   'Ag4 H36 C20 S4 N4 O12'
_cell_volume   849.71618398
_cell_formula_units_Z   4
loop_
 _symmetry_equiv_pos_site_id
 _symmetry_equiv_pos_as_xyz
  1  'x, y, z'
loop_
 _atom_site_type_symbol
 _atom_site_label
 _atom_site_symmetry_multiplicity
 _atom_site_fract_x
 _atom_site_fract_y
 _atom_site_fract_z
 _atom_site_occupancy
  Ag  Ag0  1  0.46592000  0.71635000  0.14812000  1.0
  Ag  Ag1  1  0.96590000  0.78366000  0.35187000  1.0
  Ag  Ag2  1  0.53404000  0.28367000  0.85187000  1.0
  Ag  Ag3  1  0.03406000  0.21632000  0.64812000  1.0
  H  H4  1  0.81996000  0.74478000  0.89840000  1.0
  H  H5  1  0.31988000  0.75521000  0.60160000  1.0
  H  H6  1  0.18013000  0.25524000  0.10161000  1.0
  H  H7  1  0.68009000  0.24477000  0.39840000  1.0
  H  H8  1  0.96371000  0.72816000  0.00325000  1.0
  H  H9  1  0.46368000  0.77182000  0.49676000  1.0
  H  H10  1  0.03635000  0.27184000  0.99677000  1.0
  H  H11  1  0.53632000  0.22815000  0.50325000  1.0
  H  H12  1  0.62543000  0.79147000  0.98564000  1.0
  H  H13  1  0.12537000  0.70853000  0.51436000  1.0
  H  H14  1  0.37463000  0.20853000  0.01437000  1.0
  H  H15  1  0.87461000  0.29147000  0.48564000  1.0
  H  H16  1  0.93165000  0.42343000  0.12880000  1.0
  H  H17  1  0.43163000  0.07658000  0.37119000  1.0
  H  H18  1  0.06838000  0.57660000  0.87120000  1.0
  H  H19  1  0.56836000  0.92340000  0.62881000  1.0
  H  H20  1  0.06371000  0.55666000  0.16260000  1.0
  H  H21  1  0.56372000  0.94333000  0.33739000  1.0
  H  H22  1  0.93632000  0.44334000  0.83740000  1.0
  H  H23  1  0.43629000  0.05664000  0.66262000  1.0
  H  H24  1  0.22911000  0.42228000  0.19792000  1.0
  H  H25  1  0.72913000  0.07772000  0.30207000  1.0
  H  H26  1  0.77089000  0.57773000  0.80208000  1.0
  H  H27  1  0.27085000  0.92225000  0.69792000  1.0
  H  H28  1  0.84629000  0.08770000  0.06082000  1.0
  H  H29  1  0.34628000  0.41233000  0.43918000  1.0
  H  H30  1  0.15369000  0.91232000  0.93918000  1.0
  H  H31  1  0.65375000  0.58766000  0.56081000  1.0
  H  H32  1  0.59646000  0.06384000  0.14898000  1.0
  H  H33  1  0.09646000  0.43616000  0.35101000  1.0
  H  H34  1  0.40350000  0.93616000  0.85101000  1.0
  H  H35  1  0.90353000  0.56382000  0.64898000  1.0
  H  H36  1  0.58955000  0.97146000  0.06532000  1.0
  H  H37  1  0.08952000  0.52856000  0.43467000  1.0
  H  H38  1  0.41044000  0.02855000  0.93467000  1.0
  H  H39  1  0.91048000  0.47142000  0.56533000  1.0
  C  C40  1  0.63085000  0.60589000  0.98307000  1.0
  C  C41  1  0.13082000  0.89411000  0.51693000  1.0
  C  C42  1  0.36918000  0.39411000  0.01694000  1.0
  C  C43  1  0.86919000  0.10589000  0.48306000  1.0
  C  C44  1  0.32152000  0.48518000  0.06856000  1.0
  C  C45  1  0.82158000  0.01483000  0.43143000  1.0
  C  C46  1  0.67849000  0.51484000  0.93143000  1.0
  C  C47  1  0.17847000  0.98515000  0.56857000  1.0
  C  C48  1  0.76796000  0.72354000  0.96580000  1.0
  C  C49  1  0.26792000  0.77645000  0.53421000  1.0
  C  C50  1  0.23209000  0.27645000  0.03422000  1.0
  C  C51  1  0.73206000  0.22355000  0.46579000  1.0
  C  C52  1  0.12471000  0.47107000  0.14290000  1.0
  C  C53  1  0.62470000  0.02894000  0.35709000  1.0
  C  C54  1  0.87529000  0.52894000  0.85710000  1.0
  C  C55  1  0.37525000  0.97105000  0.64290000  1.0
  C  C56  1  0.72691000  0.02345000  0.10268000  1.0
  C  C57  1  0.22690000  0.47657000  0.39731000  1.0
  C  C58  1  0.27306000  0.97656000  0.89732000  1.0
  C  C59  1  0.77312000  0.52342000  0.60268000  1.0
  S  S60  1  0.97224000  0.92785000  0.15949000  1.0
  S  S61  1  0.47224000  0.57216000  0.34050000  1.0
  S  S62  1  0.02774000  0.07216000  0.84052000  1.0
  S  S63  1  0.52776000  0.42785000  0.65949000  1.0
  N  N64  1  0.45665000  0.58879000  0.05092000  1.0
  N  N65  1  0.95662000  0.91121000  0.44907000  1.0
  N  N66  1  0.54339000  0.41122000  0.94908000  1.0
  N  N67  1  0.04340000  0.08878000  0.55093000  1.0
  O  O68  1  0.14475000  0.87715000  0.09430000  1.0
  O  O69  1  0.64474000  0.62287000  0.40569000  1.0
  O  O70  1  0.85524000  0.12287000  0.90570000  1.0
  O  O71  1  0.35524000  0.37713000  0.59431000  1.0
  O  O72  1  0.79652000  0.83491000  0.20884000  1.0
  O  O73  1  0.29650000  0.66511000  0.29115000  1.0
  O  O74  1  0.20344000  0.16510000  0.79116000  1.0
  O  O75  1  0.70345000  0.33489000  0.70884000  1.0
  O  O76  1  0.13232000  0.99659000  0.21602000  1.0
  O  O77  1  0.63231000  0.50343000  0.28399000  1.0
  O  O78  1  0.86764000  0.00343000  0.78399000  1.0
  O  O79  1  0.36770000  0.49657000  0.71600000  1.0
