# generated using pymatgen
data_ZnH5C13Br4NO4
_symmetry_space_group_name_H-M   'P 1'
_cell_length_a   9.70564000
_cell_length_b   15.58600000
_cell_length_c   15.63630000
_cell_angle_alpha   89.93790000
_cell_angle_beta   82.93320000
_cell_angle_gamma   86.21590000
_symmetry_Int_Tables_number   1
_chemical_formula_structural   ZnH5C13Br4NO4
_chemical_formula_sum   'Zn4 H20 C52 Br16 N4 O16'
_cell_volume   2342.19068707
_cell_formula_units_Z   4
loop_
 _symmetry_equiv_pos_site_id
 _symmetry_equiv_pos_as_xyz
  1  'x, y, z'
loop_
 _atom_site_type_symbol
 _atom_site_label
 _atom_site_symmetry_multiplicity
 _atom_site_fract_x
 _atom_site_fract_y
 _atom_site_fract_z
 _atom_site_occupancy
  Zn  Zn0  1  0.63236000  0.49418000  0.98611000  1.0
  Zn  Zn1  1  0.65220000  0.99413000  0.48516000  1.0
  Zn  Zn2  1  0.34029000  0.51208000  0.01444000  1.0
  Zn  Zn3  1  0.36039000  0.00926000  0.51316000  1.0
  H  H4  1  0.41692000  0.79000000  0.90993000  1.0
  H  H5  1  0.79823000  0.24843000  0.84057000  1.0
  H  H6  1  0.52055000  0.68098000  0.54767000  1.0
  H  H7  1  0.80690000  0.73911000  0.33545000  1.0
  H  H8  1  0.12339000  0.60853000  0.93114000  1.0
  H  H9  1  0.14326000  0.10856000  0.43131000  1.0
  H  H10  1  0.87266000  0.59737000  0.90794000  1.0
  H  H11  1  0.89119000  0.09872000  0.41046000  1.0
  H  H12  1  0.81778000  0.37339000  0.15217000  1.0
  H  H13  1  0.86525000  0.30062000  0.06304000  1.0
  H  H14  1  0.83363000  0.87350000  0.65499000  1.0
  H  H15  1  0.27450000  0.71956000  0.19639000  1.0
  H  H16  1  0.89028000  0.80246000  0.56561000  1.0
  H  H17  1  0.44359000  0.28252000  0.40465000  1.0
  H  H18  1  0.28004000  0.22048000  0.68383000  1.0
  H  H19  1  0.66430000  0.18825000  0.04462000  1.0
  H  H20  1  0.81564000  0.33421000  0.76407000  1.0
  H  H21  1  0.69861000  0.69660000  0.55973000  1.0
  H  H22  1  0.82658000  0.82574000  0.26009000  1.0
  H  H23  1  0.48408000  0.17119000  0.04080000  1.0
  C  C24  1  0.48844000  0.38568000  0.88330000  1.0
  C  C25  1  0.06855000  0.94571000  0.55253000  1.0
  C  C26  1  0.06237000  0.55823000  0.96203000  1.0
  C  C27  1  0.08142000  0.05969000  0.46415000  1.0
  C  C28  1  0.92351000  0.55174000  0.94879000  1.0
  C  C29  1  0.94226000  0.05339000  0.45151000  1.0
  C  C30  1  0.91199000  0.43618000  0.03551000  1.0
  C  C31  1  0.93038000  0.93878000  0.53956000  1.0
  C  C32  1  0.89003000  0.36000000  0.09356000  1.0
  C  C33  1  0.90933000  0.86235000  0.59754000  1.0
  C  C34  1  0.04924000  0.36400000  0.10638000  1.0
  C  C35  1  0.48468000  0.39031000  0.12108000  1.0
  C  C36  1  0.06673000  0.86958000  0.61354000  1.0
  C  C37  1  0.48933000  0.62405000  0.11300000  1.0
  C  C38  1  0.48786000  0.61998000  0.88246000  1.0
  C  C39  1  0.50220000  0.12774000  0.60638000  1.0
  C  C40  1  0.50810000  0.11203000  0.37479000  1.0
  C  C41  1  0.52449000  0.23545000  0.16171000  1.0
  C  C42  1  0.60889000  0.27885000  0.77630000  1.0
  C  C43  1  0.54696000  0.74436000  0.67142000  1.0
  C  C44  1  0.61561000  0.77548000  0.27543000  1.0
  C  C45  1  0.48876000  0.32034000  0.18666000  1.0
  C  C46  1  0.50534000  0.88126000  0.38683000  1.0
  C  C47  1  0.48431000  0.32170000  0.81258000  1.0
  C  C48  1  0.50537000  0.82930000  0.69433000  1.0
  C  C49  1  0.49460000  0.81905000  0.31564000  1.0
  C  C50  1  0.46100000  0.33412000  0.27612000  1.0
  C  C51  1  0.36577000  0.29859000  0.77547000  1.0
  C  C52  1  0.46130000  0.84305000  0.78284000  1.0
  C  C53  1  0.37163000  0.79767000  0.28268000  1.0
  C  C54  1  0.45401000  0.77574000  0.84248000  1.0
  C  C55  1  0.37214000  0.73518000  0.21833000  1.0
  C  C56  1  0.46679000  0.26748000  0.33610000  1.0
  C  C57  1  0.50568000  0.89614000  0.62567000  1.0
  C  C58  1  0.37424000  0.23685000  0.70964000  1.0
  C  C59  1  0.49545000  0.69052000  0.81756000  1.0
  C  C60  1  0.49526000  0.69145000  0.18003000  1.0
  C  C61  1  0.50288000  0.18217000  0.30940000  1.0
  C  C62  1  0.50073000  0.19446000  0.67495000  1.0
  C  C63  1  0.54430000  0.67768000  0.73076000  1.0
  C  C64  1  0.61730000  0.71520000  0.20948000  1.0
  C  C65  1  0.53171000  0.16892000  0.22092000  1.0
  C  C66  1  0.61796000  0.21816000  0.71010000  1.0
  C  C67  1  0.59423000  0.61140000  0.66223000  1.0
  C  C68  1  0.56476000  0.17758000  0.08335000  1.0
  C  C69  1  0.77336000  0.70127000  0.20076000  1.0
  C  C70  1  0.57332000  0.10271000  0.15115000  1.0
  C  C71  1  0.77395000  0.20716000  0.70501000  1.0
  C  C72  1  0.76414000  0.27485000  0.78100000  1.0
  C  C73  1  0.59560000  0.68650000  0.59416000  1.0
  C  C74  1  0.77162000  0.76772000  0.27707000  1.0
  C  C75  1  0.05074000  0.44211000  0.04772000  1.0
  Br  Br76  1  0.41572000  0.44835000  0.31855000  1.0
  Br  Br77  1  0.87042000  0.74185000  0.09149000  1.0
  Br  Br78  1  0.76129000  0.04670000  0.15114000  1.0
  Br  Br79  1  0.87292000  0.24738000  0.59607000  1.0
  Br  Br80  1  0.46133000  0.52427000  0.64767000  1.0
  Br  Br81  1  0.84891000  0.58491000  0.22512000  1.0
  Br  Br82  1  0.43926000  0.01470000  0.14315000  1.0
  Br  Br83  1  0.85479000  0.09307000  0.73258000  1.0
  Br  Br84  1  0.18189000  0.34826000  0.80914000  1.0
  Br  Br85  1  0.41484000  0.95649000  0.82686000  1.0
  Br  Br86  1  0.19349000  0.85472000  0.31816000  1.0
  Br  Br87  1  0.07839000  0.38719000  0.22485000  1.0
  Br  Br88  1  0.16130000  0.26271000  0.05881000  1.0
  Br  Br89  1  0.08650000  0.89915000  0.73227000  1.0
  Br  Br90  1  0.18735000  0.76915000  0.57380000  1.0
  Br  Br91  1  0.77975000  0.55448000  0.66952000  1.0
  N  N92  1  0.12892000  0.50314000  0.01291000  1.0
  N  N93  1  0.14775000  0.00518000  0.51564000  1.0
  N  N94  1  0.84509000  0.48994000  0.98615000  1.0
  N  N95  1  0.86400000  0.99153000  0.48901000  1.0
  O  O96  1  0.60555000  0.38911000  0.91224000  1.0
  O  O97  1  0.59955000  0.57301000  0.88516000  1.0
  O  O98  1  0.61693000  0.08478000  0.58445000  1.0
  O  O99  1  0.62572000  0.09261000  0.39978000  1.0
  O  O100  1  0.37075000  0.59497000  0.10863000  1.0
  O  O101  1  0.37226000  0.61385000  0.92909000  1.0
  O  O102  1  0.38750000  0.11895000  0.57646000  1.0
  O  O103  1  0.39374000  0.07949000  0.39993000  1.0
  O  O104  1  0.60076000  0.42021000  0.09476000  1.0
  O  O105  1  0.62524000  0.90942000  0.38935000  1.0
  O  O106  1  0.61820000  0.89824000  0.57465000  1.0
  O  O107  1  0.37856000  0.43151000  0.90895000  1.0
  O  O108  1  0.36856000  0.41097000  0.09539000  1.0
  O  O109  1  0.39753000  0.89977000  0.43968000  1.0
  O  O110  1  0.39388000  0.94172000  0.62152000  1.0
  O  O111  1  0.60284000  0.60153000  0.06670000  1.0
