# generated using pymatgen
data_ZnH12C20N3O5
_symmetry_space_group_name_H-M   'P 1'
_cell_length_a   7.46299000
_cell_length_b   14.42730000
_cell_length_c   24.04960000
_cell_angle_alpha   103.85900000
_cell_angle_beta   90.00190000
_cell_angle_gamma   104.98500000
_symmetry_Int_Tables_number   1
_chemical_formula_structural   ZnH12C20N3O5
_chemical_formula_sum   'Zn4 H48 C80 N12 O20'
_cell_volume   2423.25505573
_cell_formula_units_Z   4
loop_
 _symmetry_equiv_pos_site_id
 _symmetry_equiv_pos_as_xyz
  1  'x, y, z'
loop_
 _atom_site_type_symbol
 _atom_site_label
 _atom_site_symmetry_multiplicity
 _atom_site_fract_x
 _atom_site_fract_y
 _atom_site_fract_z
 _atom_site_occupancy
  Zn  Zn0  1  0.88943000  0.06858000  0.00784000  1.0
  Zn  Zn1  1  0.82081000  0.93136000  0.49214000  1.0
  Zn  Zn2  1  0.11057000  0.93142000  0.99216000  1.0
  Zn  Zn3  1  0.17918000  0.06864000  0.50786000  1.0
  H  H4  1  0.13462000  0.25499000  0.17074000  1.0
  H  H5  1  0.87977000  0.74532000  0.32925000  1.0
  H  H6  1  0.86539000  0.74501000  0.82926000  1.0
  H  H7  1  0.12022000  0.25468000  0.67075000  1.0
  H  H8  1  0.31224000  0.35016000  0.26512000  1.0
  H  H9  1  0.96219000  0.65019000  0.23487000  1.0
  H  H10  1  0.68777000  0.64985000  0.73487000  1.0
  H  H11  1  0.03781000  0.34981000  0.76513000  1.0
  H  H12  1  0.70456000  0.17427000  0.22923000  1.0
  H  H13  1  0.53042000  0.82589000  0.27071000  1.0
  H  H14  1  0.29545000  0.82573000  0.77077000  1.0
  H  H15  1  0.46958000  0.17411000  0.72929000  1.0
  H  H16  1  0.53119000  0.08219000  0.13568000  1.0
  H  H17  1  0.44922000  0.91793000  0.36432000  1.0
  H  H18  1  0.46881000  0.91781000  0.86432000  1.0
  H  H19  1  0.55077000  0.08207000  0.63568000  1.0
  H  H20  1  0.95650000  0.34626000  0.34103000  1.0
  H  H21  1  0.61000000  0.65364000  0.15893000  1.0
  H  H22  1  0.04351000  0.65374000  0.65897000  1.0
  H  H23  1  0.39000000  0.34636000  0.84107000  1.0
  H  H24  1  0.06364000  0.24316000  0.39840000  1.0
  H  H25  1  0.82041000  0.75658000  0.10155000  1.0
  H  H26  1  0.93637000  0.75684000  0.60160000  1.0
  H  H27  1  0.17959000  0.24341000  0.89846000  1.0
  H  H28  1  0.49924000  0.06996000  0.39652000  1.0
  H  H29  1  0.42959000  0.93003000  0.10340000  1.0
  H  H30  1  0.50076000  0.93004000  0.60348000  1.0
  H  H31  1  0.57042000  0.06996000  0.89660000  1.0
  H  H32  1  0.39381000  0.16919000  0.33780000  1.0
  H  H33  1  0.22481000  0.83094000  0.16213000  1.0
  H  H34  1  0.60619000  0.83082000  0.66220000  1.0
  H  H35  1  0.77520000  0.16906000  0.83787000  1.0
  H  H36  1  0.53141000  0.11984000  0.03921000  1.0
  H  H37  1  0.41151000  0.87996000  0.46072000  1.0
  H  H38  1  0.46859000  0.88015000  0.96079000  1.0
  H  H39  1  0.58848000  0.12004000  0.53928000  1.0
  H  H40  1  0.39362000  0.26090000  0.03877000  1.0
  H  H41  1  0.13270000  0.73886000  0.46116000  1.0
  H  H42  1  0.60638000  0.73910000  0.96123000  1.0
  H  H43  1  0.86730000  0.26114000  0.53884000  1.0
  H  H44  1  0.92097000  0.41386000  0.98686000  1.0
  H  H45  1  0.50733000  0.58610000  0.51324000  1.0
  H  H46  1  0.07903000  0.58614000  0.01314000  1.0
  H  H47  1  0.49267000  0.41390000  0.48676000  1.0
  H  H48  1  0.03801000  0.26820000  0.99169000  1.0
  H  H49  1  0.76986000  0.73181000  0.50842000  1.0
  H  H50  1  0.96199000  0.73180000  0.00832000  1.0
  H  H51  1  0.23014000  0.26819000  0.49158000  1.0
  C  C52  1  0.31969000  0.16179000  0.14795000  1.0
  C  C53  1  0.15811000  0.83843000  0.35203000  1.0
  C  C54  1  0.68031000  0.83821000  0.85205000  1.0
  C  C55  1  0.84188000  0.16157000  0.64796000  1.0
  C  C56  1  0.26044000  0.23869000  0.18399000  1.0
  C  C57  1  0.02189000  0.76160000  0.31599000  1.0
  C  C58  1  0.73956000  0.76132000  0.81601000  1.0
  C  C59  1  0.97810000  0.23840000  0.68401000  1.0
  C  C60  1  0.35803000  0.29131000  0.23620000  1.0
  C  C61  1  0.06686000  0.70900000  0.26378000  1.0
  C  C62  1  0.64197000  0.70869000  0.76379000  1.0
  C  C63  1  0.93314000  0.29100000  0.73622000  1.0
  C  C64  1  0.51592000  0.26644000  0.25234000  1.0
  C  C65  1  0.24957000  0.73380000  0.24763000  1.0
  C  C66  1  0.48409000  0.73357000  0.74766000  1.0
  C  C67  1  0.75043000  0.26620000  0.75237000  1.0
  C  C68  1  0.57949000  0.19159000  0.21629000  1.0
  C  C69  1  0.38805000  0.80864000  0.28366000  1.0
  C  C70  1  0.42052000  0.80841000  0.78371000  1.0
  C  C71  1  0.61195000  0.19136000  0.71634000  1.0
  C  C72  1  0.48142000  0.13977000  0.16426000  1.0
  C  C73  1  0.34183000  0.86043000  0.33571000  1.0
  C  C74  1  0.51859000  0.86023000  0.83575000  1.0
  C  C75  1  0.65817000  0.13958000  0.66429000  1.0
  C  C76  1  0.21013000  0.10333000  0.09307000  1.0
  C  C77  1  0.10709000  0.89677000  0.40698000  1.0
  C  C78  1  0.78987000  0.89667000  0.90693000  1.0
  C  C79  1  0.89290000  0.10322000  0.59302000  1.0
  C  C80  1  0.67030000  0.26262000  0.33628000  1.0
  C  C81  1  0.40764000  0.73739000  0.16367000  1.0
  C  C82  1  0.32971000  0.73738000  0.66372000  1.0
  C  C83  1  0.59236000  0.26261000  0.83633000  1.0
  C  C84  1  0.85849000  0.28555000  0.35360000  1.0
  C  C85  1  0.57283000  0.71437000  0.14634000  1.0
  C  C86  1  0.14151000  0.71446000  0.64640000  1.0
  C  C87  1  0.42718000  0.28562000  0.85366000  1.0
  C  C88  1  0.91713000  0.22806000  0.38520000  1.0
  C  C89  1  0.68907000  0.77179000  0.11475000  1.0
  C  C90  1  0.08287000  0.77194000  0.61480000  1.0
  C  C91  1  0.31093000  0.22821000  0.88525000  1.0
  C  C92  1  0.78920000  0.14895000  0.39984000  1.0
  C  C93  1  0.64037000  0.85092000  0.10008000  1.0
  C  C94  1  0.21080000  0.85105000  0.60016000  1.0
  C  C95  1  0.35963000  0.14907000  0.89992000  1.0
  C  C96  1  0.59996000  0.12883000  0.38328000  1.0
  C  C97  1  0.47134000  0.87114000  0.11665000  1.0
  C  C98  1  0.40004000  0.87117000  0.61672000  1.0
  C  C99  1  0.52866000  0.12886000  0.88335000  1.0
  C  C100  1  0.54036000  0.18501000  0.35132000  1.0
  C  C101  1  0.35546000  0.81503000  0.14861000  1.0
  C  C102  1  0.45964000  0.81500000  0.64868000  1.0
  C  C103  1  0.64455000  0.18497000  0.85139000  1.0
  C  C104  1  0.85271000  0.08825000  0.43442000  1.0
  C  C105  1  0.76460000  0.91160000  0.06551000  1.0
  C  C106  1  0.14730000  0.91176000  0.56558000  1.0
  C  C107  1  0.23541000  0.08839000  0.93449000  1.0
  C  C108  1  0.61299000  0.18720000  0.02883000  1.0
  C  C109  1  0.42574000  0.81261000  0.47113000  1.0
  C  C110  1  0.38701000  0.81280000  0.97117000  1.0
  C  C111  1  0.57426000  0.18739000  0.52887000  1.0
  C  C112  1  0.53690000  0.26540000  0.02823000  1.0
  C  C113  1  0.27152000  0.73440000  0.47171000  1.0
  C  C114  1  0.46309000  0.73460000  0.97177000  1.0
  C  C115  1  0.72848000  0.26560000  0.52829000  1.0
  C  C116  1  0.64612000  0.34802000  0.01192000  1.0
  C  C117  1  0.29822000  0.65178000  0.48802000  1.0
  C  C118  1  0.35388000  0.65198000  0.98808000  1.0
  C  C119  1  0.70178000  0.34822000  0.51199000  1.0
  C  C120  1  0.83064000  0.35089000  0.99929000  1.0
  C  C121  1  0.47988000  0.64900000  0.50074000  1.0
  C  C122  1  0.16936000  0.64911000  0.00071000  1.0
  C  C123  1  0.52012000  0.35100000  0.49926000  1.0
  C  C124  1  0.89657000  0.27040000  0.00164000  1.0
  C  C125  1  0.62621000  0.72953000  0.49840000  1.0
  C  C126  1  0.10342000  0.72960000  0.99836000  1.0
  C  C127  1  0.37378000  0.27047000  0.50160000  1.0
  C  C128  1  0.56811000  0.42923000  0.00626000  1.0
  C  C129  1  0.13900000  0.57066000  0.49371000  1.0
  C  C130  1  0.43189000  0.57076000  0.99374000  1.0
  C  C131  1  0.86101000  0.42934000  0.50629000  1.0
  N  N132  1  0.78819000  0.18934000  0.01497000  1.0
  N  N133  1  0.59884000  0.81055000  0.48503000  1.0
  N  N134  1  0.21181000  0.81066000  0.98503000  1.0
  N  N135  1  0.40116000  0.18945000  0.51497000  1.0
  N  N136  1  0.38189000  0.41511000  0.00807000  1.0
  N  N137  1  0.96698000  0.58491000  0.49189000  1.0
  N  N138  1  0.61810000  0.58488000  0.99193000  1.0
  N  N139  1  0.03302000  0.41509000  0.50811000  1.0
  N  N140  1  0.31263000  0.48731000  0.00162000  1.0
  N  N141  1  0.82538000  0.51282000  0.49837000  1.0
  N  N142  1  0.68737000  0.51269000  0.99838000  1.0
  N  N143  1  0.17461000  0.48718000  0.50163000  1.0
  O  O144  1  0.25853000  0.02729000  0.06521000  1.0
  O  O145  1  0.23146000  0.97283000  0.43484000  1.0
  O  O146  1  0.74147000  0.97271000  0.93479000  1.0
  O  O147  1  0.76853000  0.02716000  0.56516000  1.0
  O  O148  1  0.07730000  0.13402000  0.07768000  1.0
  O  O149  1  0.94364000  0.86598000  0.42238000  1.0
  O  O150  1  0.92269000  0.86598000  0.92232000  1.0
  O  O151  1  0.05635000  0.13402000  0.57762000  1.0
  O  O152  1  0.02202000  0.11748000  0.45383000  1.0
  O  O153  1  0.90480000  0.88243000  0.04617000  1.0
  O  O154  1  0.97798000  0.88253000  0.54617000  1.0
  O  O155  1  0.09521000  0.11757000  0.95383000  1.0
  O  O156  1  0.73297000  0.01268000  0.44278000  1.0
  O  O157  1  0.72031000  0.98712000  0.05711000  1.0
  O  O158  1  0.26702000  0.98733000  0.55722000  1.0
  O  O159  1  0.27969000  0.01288000  0.94289000  1.0
  O  O160  1  0.61160000  0.31959000  0.30454000  1.0
  O  O161  1  0.29194000  0.68052000  0.19544000  1.0
  O  O162  1  0.38841000  0.68041000  0.69546000  1.0
  O  O163  1  0.70806000  0.31948000  0.80456000  1.0
