# generated using pymatgen
data_CdH70(C24O7)2
_symmetry_space_group_name_H-M   'P 1'
_cell_length_a   6.96595000
_cell_length_b   11.08030000
_cell_length_c   17.57750000
_cell_angle_alpha   72.48940000
_cell_angle_beta   78.57200000
_cell_angle_gamma   71.70090000
_symmetry_Int_Tables_number   1
_chemical_formula_structural   CdH70(C24O7)2
_chemical_formula_sum   'Cd1 H70 C48 O14'
_cell_volume   1220.34026592
_cell_formula_units_Z   1
loop_
 _symmetry_equiv_pos_site_id
 _symmetry_equiv_pos_as_xyz
  1  'x, y, z'
loop_
 _atom_site_type_symbol
 _atom_site_label
 _atom_site_symmetry_multiplicity
 _atom_site_fract_x
 _atom_site_fract_y
 _atom_site_fract_z
 _atom_site_occupancy
  Cd  Cd0  1  0.66008000  0.99972000  0.00004000  1.0
  H  H1  1  0.35077000  0.54074000  0.79751000  1.0
  H  H2  1  0.68992000  0.45921000  0.20251000  1.0
  H  H3  1  0.72077000  0.66307000  0.63390000  1.0
  H  H4  1  0.01814000  0.33727000  0.36616000  1.0
  H  H5  1  0.69685000  0.55849000  0.73135000  1.0
  H  H6  1  0.98746000  0.44145000  0.26857000  1.0
  H  H7  1  0.80691000  0.42659000  0.63378000  1.0
  H  H8  1  0.86813000  0.57382000  0.36597000  1.0
  H  H9  1  0.60266000  0.52095000  0.57778000  1.0
  H  H10  1  0.70210000  0.47960000  0.42204000  1.0
  H  H11  1  0.58094000  0.35039000  0.75130000  1.0
  H  H12  1  0.68333000  0.64990000  0.24844000  1.0
  H  H13  1  0.53221000  0.31301000  0.66755000  1.0
  H  H14  1  0.51372000  0.68733000  0.33221000  1.0
  H  H15  1  0.98539000  0.72052000  0.71040000  1.0
  H  H16  1  0.41684000  0.27959000  0.28972000  1.0
  H  H17  1  0.97160000  0.59654000  0.79982000  1.0
  H  H18  1  0.36829000  0.40373000  0.20036000  1.0
  H  H19  1  0.12263000  0.69684000  0.87127000  1.0
  H  H20  1  0.69072000  0.30335000  0.12877000  1.0
  H  H21  1  0.90620000  0.81152000  0.83046000  1.0
  H  H22  1  0.54794000  0.18881000  0.16959000  1.0
  H  H23  1  0.48021000  0.70980000  0.79407000  1.0
  H  H24  1  0.98421000  0.29022000  0.20596000  1.0
  H  H25  1  0.66888000  0.85410000  0.72815000  1.0
  H  H26  1  0.25119000  0.14580000  0.27164000  1.0
  H  H27  1  0.59659000  0.86599000  0.63533000  1.0
  H  H28  1  0.09834000  0.13407000  0.36454000  1.0
  H  H29  1  0.49022000  0.08752000  0.66004000  1.0
  H  H30  1  0.23719000  0.91240000  0.33996000  1.0
  H  H31  1  0.95051000  0.96312000  0.68711000  1.0
  H  H32  1  0.60010000  0.03716000  0.31305000  1.0
  H  H33  1  0.22992000  0.12395000  0.77791000  1.0
  H  H34  1  0.13072000  0.87589000  0.22222000  1.0
  H  H35  1  0.32319000  0.84855000  0.87470000  1.0
  H  H36  1  0.04598000  0.15113000  0.12527000  1.0
  H  H37  1  0.15856000  0.24446000  0.60373000  1.0
  H  H38  1  0.00616000  0.75582000  0.39618000  1.0
  H  H39  1  0.81946000  0.19248000  0.63033000  1.0
  H  H40  1  0.64184000  0.80782000  0.36963000  1.0
  H  H41  1  0.90466000  0.10237000  0.55623000  1.0
  H  H42  1  0.56281000  0.89744000  0.44396000  1.0
  H  H43  1  0.87881000  0.27385000  0.52810000  1.0
  H  H44  1  0.68044000  0.72592000  0.47178000  1.0
  H  H45  1  0.44863000  0.11748000  0.52258000  1.0
  H  H46  1  0.08863000  0.88234000  0.47742000  1.0
  H  H47  1  0.25465000  0.22829000  0.46400000  1.0
  H  H48  1  0.94696000  0.77135000  0.53601000  1.0
  H  H49  1  0.27199000  0.05724000  0.49437000  1.0
  H  H50  1  0.82364000  0.94246000  0.50593000  1.0
  H  H51  1  0.03314000  0.56509000  0.63723000  1.0
  H  H52  1  0.23604000  0.43524000  0.36263000  1.0
  H  H53  1  0.18523000  0.41343000  0.61866000  1.0
  H  H54  1  0.21852000  0.58678000  0.38133000  1.0
  H  H55  1  0.27448000  0.55490000  0.57970000  1.0
  H  H56  1  0.40978000  0.44509000  0.42027000  1.0
  H  H57  1  0.16573000  0.79754000  0.61182000  1.0
  H  H58  1  0.57519000  0.20288000  0.38847000  1.0
  H  H59  1  0.37825000  0.69975000  0.56390000  1.0
  H  H60  1  0.64316000  0.30052000  0.43625000  1.0
  H  H61  1  0.39327000  0.84427000  0.58121000  1.0
  H  H62  1  0.81905000  0.15584000  0.41890000  1.0
  H  H63  1  0.00438000  0.26714000  0.80153000  1.0
  H  H64  1  0.07364000  0.73215000  0.19845000  1.0
  H  H65  1  0.74617000  0.09559000  0.81073000  1.0
  H  H66  1  0.65168000  0.90429000  0.18922000  1.0
  H  H67  1  0.60058000  0.27150000  0.96091000  1.0
  H  H68  1  0.83339000  0.72824000  0.03875000  1.0
  H  H69  1  0.41909000  0.27212000  0.91868000  1.0
  H  H70  1  0.61038000  0.72734000  0.08111000  1.0
  C  C71  1  0.19664000  0.37269000  0.77677000  1.0
  C  C72  1  0.34678000  0.62703000  0.22315000  1.0
  C  C73  1  0.29158000  0.46836000  0.70814000  1.0
  C  C74  1  0.46897000  0.53177000  0.29181000  1.0
  C  C75  1  0.27943000  0.58737000  0.74105000  1.0
  C  C76  1  0.60863000  0.41267000  0.25897000  1.0
  C  C77  1  0.40884000  0.68141000  0.68885000  1.0
  C  C78  1  0.77959000  0.31865000  0.31124000  1.0
  C  C79  1  0.62987000  0.59865000  0.67403000  1.0
  C  C80  1  0.90319000  0.40151000  0.32592000  1.0
  C  C81  1  0.64702000  0.48456000  0.63918000  1.0
  C  C82  1  0.77154000  0.51585000  0.36061000  1.0
  C  C83  1  0.51966000  0.39467000  0.69309000  1.0
  C  C84  1  0.60829000  0.60564000  0.30671000  1.0
  C  C85  1  0.06243000  0.66440000  0.76437000  1.0
  C  C86  1  0.49162000  0.33577000  0.23571000  1.0
  C  C87  1  0.06287000  0.75642000  0.81405000  1.0
  C  C88  1  0.63335000  0.24378000  0.18599000  1.0
  C  C89  1  0.19228000  0.85186000  0.77097000  1.0
  C  C90  1  0.81485000  0.14829000  0.22907000  1.0
  C  C91  1  0.40972000  0.77506000  0.73986000  1.0
  C  C92  1  0.92476000  0.22494000  0.26019000  1.0
  C  C93  1  0.53615000  0.87427000  0.69673000  1.0
  C  C94  1  0.10725000  0.12568000  0.30319000  1.0
  C  C95  1  0.40481000  0.01611000  0.69388000  1.0
  C  C96  1  0.11431000  0.98391000  0.30614000  1.0
  C  C97  1  0.20762000  0.04209000  0.66013000  1.0
  C  C98  1  0.90915000  0.95815000  0.33996000  1.0
  C  C99  1  0.09927000  0.95716000  0.70113000  1.0
  C  C100  1  0.75694000  0.04311000  0.29897000  1.0
  C  C101  1  0.34166000  0.02772000  0.78128000  1.0
  C  C102  1  0.14993000  0.97212000  0.21878000  1.0
  C  C103  1  0.23033000  0.92381000  0.82974000  1.0
  C  C104  1  0.98321000  0.07607000  0.17034000  1.0
  C  C105  1  0.50253000  0.03323000  0.82533000  1.0
  C  C106  1  0.36034000  0.96649000  0.17464000  1.0
  C  C107  1  0.14429000  0.15693000  0.58974000  1.0
  C  C108  1  0.89039000  0.84323000  0.41031000  1.0
  C  C109  1  0.92395000  0.18313000  0.57555000  1.0
  C  C110  1  0.68219000  0.81688000  0.42449000  1.0
  C  C111  1  0.28877000  0.13898000  0.51337000  1.0
  C  C112  1  0.94098000  0.86084000  0.48675000  1.0
  C  C113  1  0.18972000  0.50325000  0.63167000  1.0
  C  C114  1  0.32550000  0.49689000  0.36829000  1.0
  C  C115  1  0.33131000  0.75940000  0.60738000  1.0
  C  C116  1  0.69857000  0.24084000  0.39278000  1.0
  C  C117  1  0.03126000  0.98408000  0.87590000  1.0
  C  C118  1  0.89036000  0.01568000  0.12431000  1.0
  O  O119  1  0.04313000  0.34089000  0.75821000  1.0
  O  O120  1  0.14294000  0.65869000  0.24183000  1.0
  O  O121  1  0.25651000  0.32497000  0.84353000  1.0
  O  O122  1  0.42543000  0.67443000  0.15626000  1.0
  O  O123  1  0.64435000  0.08657000  0.77879000  1.0
  O  O124  1  0.50889000  0.91349000  0.22118000  1.0
  O  O125  1  0.49110000  0.99581000  0.89964000  1.0
  O  O126  1  0.38590000  0.00348000  0.10033000  1.0
  O  O127  1  0.97105000  0.90892000  0.93974000  1.0
  O  O128  1  0.81869000  0.09077000  0.06049000  1.0
  O  O129  1  0.92800000  0.10362000  0.84707000  1.0
  O  O130  1  0.87792000  0.89612000  0.15317000  1.0
  O  O131  1  0.49133000  0.23104000  0.96700000  1.0
  O  O132  1  0.68972000  0.76864000  0.03281000  1.0
