# generated using pymatgen
data_CdH4(C2O)4
_symmetry_space_group_name_H-M   'P 1'
_cell_length_a   7.04126000
_cell_length_b   8.34092000
_cell_length_c   13.77430000
_cell_angle_alpha   106.68100000
_cell_angle_beta   89.99970000
_cell_angle_gamma   90.00000000
_symmetry_Int_Tables_number   1
_chemical_formula_structural   CdH4(C2O)4
_chemical_formula_sum   'Cd4 H16 C32 O16'
_cell_volume   774.92931110
_cell_formula_units_Z   4
loop_
 _symmetry_equiv_pos_site_id
 _symmetry_equiv_pos_as_xyz
  1  'x, y, z'
loop_
 _atom_site_type_symbol
 _atom_site_label
 _atom_site_symmetry_multiplicity
 _atom_site_fract_x
 _atom_site_fract_y
 _atom_site_fract_z
 _atom_site_occupancy
  Cd  Cd0  1  0.39125000  0.21381000  0.07611000  1.0
  Cd  Cd1  1  0.10875000  0.71381000  0.07611000  1.0
  Cd  Cd2  1  0.60875000  0.78619000  0.92389000  1.0
  Cd  Cd3  1  0.89125000  0.28619000  0.92389000  1.0
  H  H4  1  0.15322000  0.19610000  0.38508000  1.0
  H  H5  1  0.34678000  0.69609000  0.38508000  1.0
  H  H6  1  0.84678000  0.80390000  0.61492000  1.0
  H  H7  1  0.65321000  0.30390000  0.61492000  1.0
  H  H8  1  0.51631000  0.94811000  0.28751000  1.0
  H  H9  1  0.98370000  0.44811000  0.28750000  1.0
  H  H10  1  0.48369000  0.05189000  0.71249000  1.0
  H  H11  1  0.01631000  0.55189000  0.71250000  1.0
  H  H12  1  0.92943000  0.16811000  0.51923000  1.0
  H  H13  1  0.57057000  0.66811000  0.51923000  1.0
  H  H14  1  0.07057000  0.83190000  0.48077000  1.0
  H  H15  1  0.42943000  0.33189000  0.48077000  1.0
  H  H16  1  0.60676000  0.04719000  0.46948000  1.0
  H  H17  1  0.89325000  0.54720000  0.46947000  1.0
  H  H18  1  0.39324000  0.95281000  0.53052000  1.0
  H  H19  1  0.10676000  0.45280000  0.53052000  1.0
  C  C20  1  0.11330000  0.10706000  0.18866000  1.0
  C  C21  1  0.38670000  0.60706000  0.18866000  1.0
  C  C22  1  0.88670000  0.89294000  0.81134000  1.0
  C  C23  1  0.61330000  0.39294000  0.81134000  1.0
  C  C24  1  0.96852000  0.07806000  0.26175000  1.0
  C  C25  1  0.53148000  0.57805000  0.26175000  1.0
  C  C26  1  0.03147000  0.92194000  0.73825000  1.0
  C  C27  1  0.46852000  0.42194000  0.73825000  1.0
  C  C28  1  0.78800000  0.00544000  0.23372000  1.0
  C  C29  1  0.71200000  0.50544000  0.23372000  1.0
  C  C30  1  0.21200000  0.99456000  0.76628000  1.0
  C  C31  1  0.28800000  0.49456000  0.76628000  1.0
  C  C32  1  0.01452000  0.13821000  0.36499000  1.0
  C  C33  1  0.48548000  0.63820000  0.36499000  1.0
  C  C34  1  0.98548000  0.86179000  0.63501000  1.0
  C  C35  1  0.51452000  0.36180000  0.63501000  1.0
  C  C36  1  0.65715000  0.00045000  0.30978000  1.0
  C  C37  1  0.84285000  0.50046000  0.30978000  1.0
  C  C38  1  0.34285000  0.99955000  0.69022000  1.0
  C  C39  1  0.15715000  0.49955000  0.69022000  1.0
  C  C40  1  0.88780000  0.12490000  0.43969000  1.0
  C  C41  1  0.61220000  0.62489000  0.43969000  1.0
  C  C42  1  0.11220000  0.87511000  0.56031000  1.0
  C  C43  1  0.38780000  0.37511000  0.56031000  1.0
  C  C44  1  0.70807000  0.05666000  0.41163000  1.0
  C  C45  1  0.79193000  0.55666000  0.41162000  1.0
  C  C46  1  0.29193000  0.94334000  0.58838000  1.0
  C  C47  1  0.20807000  0.44334000  0.58838000  1.0
  C  C48  1  0.71978000  0.92923000  0.12725000  1.0
  C  C49  1  0.78022000  0.42923000  0.12724000  1.0
  C  C50  1  0.28022000  0.07077000  0.87276000  1.0
  C  C51  1  0.21978000  0.57077000  0.87276000  1.0
  O  O52  1  0.20941000  0.24256000  0.21744000  1.0
  O  O53  1  0.29060000  0.74256000  0.21744000  1.0
  O  O54  1  0.79059000  0.75744000  0.78256000  1.0
  O  O55  1  0.70940000  0.25744000  0.78256000  1.0
  O  O56  1  0.13885000  0.00247000  0.10185000  1.0
  O  O57  1  0.36115000  0.50247000  0.10185000  1.0
  O  O58  1  0.86115000  0.99753000  0.89815000  1.0
  O  O59  1  0.63885000  0.49753000  0.89815000  1.0
  O  O60  1  0.80498000  0.80207000  0.06853000  1.0
  O  O61  1  0.69502000  0.30208000  0.06853000  1.0
  O  O62  1  0.19501000  0.19793000  0.93147000  1.0
  O  O63  1  0.30498000  0.69792000  0.93147000  1.0
  O  O64  1  0.56721000  0.98014000  0.09732000  1.0
  O  O65  1  0.93280000  0.48014000  0.09731000  1.0
  O  O66  1  0.43279000  0.01986000  0.90269000  1.0
  O  O67  1  0.06720000  0.51986000  0.90269000  1.0
