# generated using pymatgen
data_CuPH7C2NClO3
_symmetry_space_group_name_H-M   'P 1'
_cell_length_a   6.30533000
_cell_length_b   7.63763000
_cell_length_c   7.77140000
_cell_angle_alpha   110.80100000
_cell_angle_beta   113.91300000
_cell_angle_gamma   90.01920000
_symmetry_Int_Tables_number   1
_chemical_formula_structural   CuPH7C2NClO3
_chemical_formula_sum   'Cu2 P2 H14 C4 N2 Cl2 O6'
_cell_volume   315.23665502
_cell_formula_units_Z   2
loop_
 _symmetry_equiv_pos_site_id
 _symmetry_equiv_pos_as_xyz
  1  'x, y, z'
loop_
 _atom_site_type_symbol
 _atom_site_label
 _atom_site_symmetry_multiplicity
 _atom_site_fract_x
 _atom_site_fract_y
 _atom_site_fract_z
 _atom_site_occupancy
  Cu  Cu0  1  0.09768000  0.91226000  0.19548000  1.0
  Cu  Cu1  1  0.90231000  0.08773000  0.80451000  1.0
  P  P2  1  0.34061000  0.03416000  0.68113000  1.0
  P  P3  1  0.65936000  0.96583000  0.31884000  1.0
  H  H4  1  0.28700000  0.43636000  0.57434000  1.0
  H  H5  1  0.71300000  0.56364000  0.42567000  1.0
  H  H6  1  0.26098000  0.48243000  0.80670000  1.0
  H  H7  1  0.45445000  0.51757000  0.19351000  1.0
  H  H8  1  0.73902000  0.51757000  0.19331000  1.0
  H  H9  1  0.54555000  0.48243000  0.80650000  1.0
  H  H10  1  0.39962000  0.71669000  0.51362000  1.0
  H  H11  1  0.88533000  0.28345000  0.48664000  1.0
  H  H12  1  0.60038000  0.28331000  0.48638000  1.0
  H  H13  1  0.11467000  0.71654000  0.51336000  1.0
  H  H14  1  0.56973000  0.78530000  0.87796000  1.0
  H  H15  1  0.69262000  0.21491000  0.12259000  1.0
  H  H16  1  0.43028000  0.21470000  0.12204000  1.0
  H  H17  1  0.30739000  0.78509000  0.87742000  1.0
  C  C18  1  0.30246000  0.77626000  0.60431000  1.0
  C  C19  1  0.69754000  0.22374000  0.39569000  1.0
  C  C20  1  0.36974000  0.51672000  0.73966000  1.0
  C  C21  1  0.63026000  0.48329000  0.26035000  1.0
  N  N22  1  0.39290000  0.72539000  0.78593000  1.0
  N  N23  1  0.60710000  0.27461000  0.21407000  1.0
  Cl  Cl24  1  0.92508000  0.72450000  0.85012000  1.0
  Cl  Cl25  1  0.07492000  0.27550000  0.14987000  1.0
  O  O26  1  0.24319000  0.07446000  0.48693000  1.0
  O  O27  1  0.75681000  0.92553000  0.51308000  1.0
  O  O28  1  0.21678000  0.11401000  0.82096000  1.0
  O  O29  1  0.39588000  0.88554000  0.17943000  1.0
  O  O30  1  0.78320000  0.88599000  0.17903000  1.0
  O  O31  1  0.60413000  0.11447000  0.82057000  1.0
