# generated using pymatgen
data_AlH3C27(OF2)6
_symmetry_space_group_name_H-M   'P 1'
_cell_length_a   4.07412000
_cell_length_b   27.87250000
_cell_length_c   27.88873890
_cell_angle_alpha   60.06592456
_cell_angle_beta   89.76638213
_cell_angle_gamma   89.57720000
_symmetry_Int_Tables_number   1
_chemical_formula_structural   AlH3C27(OF2)6
_chemical_formula_sum   'Al3 H9 C81 O18 F36'
_cell_volume   2744.38791156
_cell_formula_units_Z   3
loop_
 _symmetry_equiv_pos_site_id
 _symmetry_equiv_pos_as_xyz
  1  'x, y, z'
loop_
 _atom_site_type_symbol
 _atom_site_label
 _atom_site_symmetry_multiplicity
 _atom_site_fract_x
 _atom_site_fract_y
 _atom_site_fract_z
 _atom_site_occupancy
  Al  Al0  1  0.00111000  0.00018000  0.49990000  1.0
  Al  Al1  1  0.03388000  0.33373000  0.83315000  1.0
  Al  Al2  1  0.95673000  0.66704000  0.16641000  1.0
  H  H3  1  0.48988000  0.00023000  0.92254000  1.0
  H  H4  1  0.53636000  0.91152000  0.83331000  1.0
  H  H5  1  0.44345000  0.08889000  0.74490000  1.0
  H  H6  1  0.48947000  0.42249000  0.07757000  1.0
  H  H7  1  0.44137000  0.24479000  0.16647000  1.0
  H  H8  1  0.53915000  0.33325000  0.25522000  1.0
  H  H9  1  0.50930000  0.57740000  0.49970000  1.0
  H  H10  1  0.56328000  0.75503000  0.41113000  1.0
  H  H11  1  0.46750000  0.66687000  0.58825000  1.0
  C  C12  1  0.50569000  0.92699000  0.49980000  1.0
  C  C13  1  0.49869000  0.00023000  0.57307000  1.0
  C  C14  1  0.49899000  0.07332000  0.42669000  1.0
  C  C15  1  0.53586000  0.26074000  0.83296000  1.0
  C  C16  1  0.53032000  0.33339000  0.90638000  1.0
  C  C17  1  0.53135000  0.40694000  0.76038000  1.0
  C  C18  1  0.45611000  0.73973000  0.09318000  1.0
  C  C19  1  0.46169000  0.59356000  0.16713000  1.0
  C  C20  1  0.45704000  0.66736000  0.23928000  1.0
  C  C21  1  0.49910000  0.94974000  0.88400000  1.0
  C  C22  1  0.48981000  0.00021000  0.88366000  1.0
  C  C23  1  0.48057000  0.05068000  0.83366000  1.0
  C  C24  1  0.46943000  0.05020000  0.78368000  1.0
  C  C25  1  0.48990000  0.00021000  0.78324000  1.0
  C  C26  1  0.51011000  0.95021000  0.83352000  1.0
  C  C27  1  0.35742000  0.16111000  0.87504000  1.0
  C  C28  1  0.33682000  0.11157000  0.87442000  1.0
  C  C29  1  0.49057000  0.10381000  0.83355000  1.0
  C  C30  1  0.66493000  0.14965000  0.79301000  1.0
  C  C31  1  0.68060000  0.19958000  0.79293000  1.0
  C  C32  1  0.52697000  0.20623000  0.83395000  1.0
  C  C33  1  0.64676000  0.88915000  0.98517000  1.0
  C  C34  1  0.63013000  0.83954000  0.03524000  1.0
  C  C35  1  0.46355000  0.79409000  0.03957000  1.0
  C  C36  1  0.30931000  0.80041000  0.99228000  1.0
  C  C37  1  0.32100000  0.85040000  0.94253000  1.0
  C  C38  1  0.49200000  0.89661000  0.93693000  1.0
  C  C39  1  0.32793000  0.95995000  0.72330000  1.0
  C  C40  1  0.32896000  0.95971000  0.67349000  1.0
  C  C41  1  0.49618000  0.00023000  0.62666000  1.0
  C  C42  1  0.66064000  0.04077000  0.63318000  1.0
  C  C43  1  0.65705000  0.04058000  0.68320000  1.0
  C  C44  1  0.49133000  0.00025000  0.73021000  1.0
  C  C45  1  0.47857000  0.33357000  0.11596000  1.0
  C  C46  1  0.48962000  0.38361000  0.11642000  1.0
  C  C47  1  0.50103000  0.38399000  0.16647000  1.0
  C  C48  1  0.51175000  0.33349000  0.21639000  1.0
  C  C49  1  0.49007000  0.28319000  0.21668000  1.0
  C  C50  1  0.46813000  0.28357000  0.16636000  1.0
  C  C51  1  0.63868000  0.53499000  0.12558000  1.0
  C  C52  1  0.65331000  0.48486000  0.12598000  1.0
  C  C53  1  0.49612000  0.43697000  0.16674000  1.0
  C  C54  1  0.32507000  0.44292000  0.20742000  1.0
  C  C55  1  0.31509000  0.49274000  0.20768000  1.0
  C  C56  1  0.47116000  0.53973000  0.16668000  1.0
  C  C57  1  0.32968000  0.37431000  0.01486000  1.0
  C  C58  1  0.34849000  0.37496000  0.96467000  1.0
  C  C59  1  0.51960000  0.33397000  0.96011000  1.0
  C  C60  1  0.67531000  0.29287000  0.00730000  1.0
  C  C61  1  0.66110000  0.29288000  0.05719000  1.0
  C  C62  1  0.48615000  0.33342000  0.06296000  1.0
  C  C63  1  0.65944000  0.18311000  0.27626000  1.0
  C  C64  1  0.66305000  0.13315000  0.32606000  1.0
  C  C65  1  0.49629000  0.12682000  0.37309000  1.0
  C  C66  1  0.32648000  0.17373000  0.36677000  1.0
  C  C67  1  0.32553000  0.22349000  0.31675000  1.0
  C  C68  1  0.49152000  0.23019000  0.26962000  1.0
  C  C69  1  0.52253000  0.66630000  0.44932000  1.0
  C  C70  1  0.51133000  0.61631000  0.49973000  1.0
  C  C71  1  0.50194000  0.61602000  0.55015000  1.0
  C  C72  1  0.49369000  0.66657000  0.54964000  1.0
  C  C73  1  0.51607000  0.71679000  0.49970000  1.0
  C  C74  1  0.53612000  0.71630000  0.44978000  1.0
  C  C75  1  0.35943000  0.46522000  0.66033000  1.0
  C  C76  1  0.34730000  0.51523000  0.61058000  1.0
  C  C77  1  0.50508000  0.56310000  0.60333000  1.0
  C  C78  1  0.67427000  0.55722000  0.64988000  1.0
  C  C79  1  0.68111000  0.50756000  0.70000000  1.0
  C  C80  1  0.52452000  0.46060000  0.70609000  1.0
  C  C81  1  0.66398000  0.62557000  0.38836000  1.0
  C  C82  1  0.64113000  0.62502000  0.33882000  1.0
  C  C83  1  0.46937000  0.66624000  0.29382000  1.0
  C  C84  1  0.31651000  0.70734000  0.30054000  1.0
  C  C85  1  0.33468000  0.70721000  0.35045000  1.0
  C  C86  1  0.51091000  0.66651000  0.39618000  1.0
  C  C87  1  0.34871000  0.81696000  0.45929000  1.0
  C  C88  1  0.34457000  0.86699000  0.45911000  1.0
  C  C89  1  0.50992000  0.87343000  0.49968000  1.0
  C  C90  1  0.67883000  0.82651000  0.54017000  1.0
  C  C91  1  0.68022000  0.77668000  0.53992000  1.0
  C  C92  1  0.51568000  0.76987000  0.49961000  1.0
  O  O93  1  0.26287000  0.06481000  0.45990000  1.0
  O  O94  1  0.26805000  0.95998000  0.47526000  1.0
  O  O95  1  0.26427000  0.97557000  0.56453000  1.0
  O  O96  1  0.73713000  0.04030000  0.43513000  1.0
  O  O97  1  0.73466000  0.02486000  0.54003000  1.0
  O  O98  1  0.74013000  0.93553000  0.52451000  1.0
  O  O99  1  0.29620000  0.39867000  0.79346000  1.0
  O  O100  1  0.30157000  0.29411000  0.80796000  1.0
  O  O101  1  0.29784000  0.30855000  0.89791000  1.0
  O  O102  1  0.77161000  0.37470000  0.76838000  1.0
  O  O103  1  0.76953000  0.35754000  0.87436000  1.0
  O  O104  1  0.77487000  0.26871000  0.85697000  1.0
  O  O105  1  0.21761000  0.64338000  0.23146000  1.0
  O  O106  1  0.21617000  0.73187000  0.12524000  1.0
  O  O107  1  0.22180000  0.62573000  0.14287000  1.0
  O  O108  1  0.68922000  0.69242000  0.20575000  1.0
  O  O109  1  0.69508000  0.60205000  0.19183000  1.0
  O  O110  1  0.69162000  0.70648000  0.10155000  1.0
  F  F111  1  0.85055000  0.24207000  0.75244000  1.0
  F  F112  1  0.20589000  0.16542000  0.91592000  1.0
  F  F113  1  0.83479000  0.14613000  0.75295000  1.0
  F  F114  1  0.15385000  0.07068000  0.91458000  1.0
  F  F115  1  0.78253000  0.83553000  0.08004000  1.0
  F  F116  1  0.82715000  0.93036000  0.98415000  1.0
  F  F117  1  0.14265000  0.75758000  0.99452000  1.0
  F  F118  1  0.15070000  0.85356000  0.89935000  1.0
  F  F119  1  0.15186000  0.91998000  0.76560000  1.0
  F  F120  1  0.16448000  0.91857000  0.67234000  1.0
  F  F121  1  0.83110000  0.08058000  0.68570000  1.0
  F  F122  1  0.82700000  0.08189000  0.59110000  1.0
  F  F123  1  0.14779000  0.49540000  0.24825000  1.0
  F  F124  1  0.79330000  0.57947000  0.08483000  1.0
  F  F125  1  0.15295000  0.40007000  0.24743000  1.0
  F  F126  1  0.83382000  0.48337000  0.08576000  1.0
  F  F127  1  0.19463000  0.41587000  0.91995000  1.0
  F  F128  1  0.14622000  0.41445000  0.01618000  1.0
  F  F129  1  0.84665000  0.25247000  0.00478000  1.0
  F  F130  1  0.83321000  0.25282000  0.10029000  1.0
  F  F131  1  0.83554000  0.18555000  0.23372000  1.0
  F  F132  1  0.83171000  0.09095000  0.32703000  1.0
  F  F133  1  0.14739000  0.26594000  0.31436000  1.0
  F  F134  1  0.15941000  0.17271000  0.40902000  1.0
  F  F135  1  0.84635000  0.50500000  0.74315000  1.0
  F  F136  1  0.20469000  0.42076000  0.66410000  1.0
  F  F137  1  0.84735000  0.59997000  0.64698000  1.0
  F  F138  1  0.16846000  0.51661000  0.56897000  1.0
  F  F139  1  0.79194000  0.58406000  0.33442000  1.0
  F  F140  1  0.84815000  0.58525000  0.42921000  1.0
  F  F141  1  0.14441000  0.74790000  0.25818000  1.0
  F  F142  1  0.16519000  0.74730000  0.35412000  1.0
  F  F143  1  0.17348000  0.81448000  0.41934000  1.0
  F  F144  1  0.17661000  0.90916000  0.41801000  1.0
  F  F145  1  0.85717000  0.73423000  0.57991000  1.0
  F  F146  1  0.84433000  0.82762000  0.58130000  1.0
