# generated using pymatgen
data_LaH7C7(NO4)2
_symmetry_space_group_name_H-M   'P 1'
_cell_length_a   7.99605000
_cell_length_b   8.74040000
_cell_length_c   8.74461000
_cell_angle_alpha   115.37700000
_cell_angle_beta   100.17400000
_cell_angle_gamma   96.64480000
_symmetry_Int_Tables_number   1
_chemical_formula_structural   LaH7C7(NO4)2
_chemical_formula_sum   'La2 H14 C14 N4 O16'
_cell_volume   530.75602304
_cell_formula_units_Z   2
loop_
 _symmetry_equiv_pos_site_id
 _symmetry_equiv_pos_as_xyz
  1  'x, y, z'
loop_
 _atom_site_type_symbol
 _atom_site_label
 _atom_site_symmetry_multiplicity
 _atom_site_fract_x
 _atom_site_fract_y
 _atom_site_fract_z
 _atom_site_occupancy
  La  La0  1  0.33947000  0.08165000  0.32226000  1.0
  La  La1  1  0.66053000  0.91835000  0.67774000  1.0
  H  H2  1  0.32693000  0.42681000  0.03994000  1.0
  H  H3  1  0.67306000  0.57319000  0.96006000  1.0
  H  H4  1  0.97610000  0.58853000  0.76026000  1.0
  H  H5  1  0.02390000  0.41147000  0.23974000  1.0
  H  H6  1  0.01022000  0.35378000  0.47634000  1.0
  H  H7  1  0.98978000  0.64622000  0.52366000  1.0
  H  H8  1  0.17802000  0.68565000  0.12260000  1.0
  H  H9  1  0.82198000  0.31435000  0.87739000  1.0
  H  H10  1  0.52377000  0.21267000  0.10595000  1.0
  H  H11  1  0.47623000  0.78733000  0.89405000  1.0
  H  H12  1  0.27704000  0.72529000  0.31493000  1.0
  H  H13  1  0.72296000  0.27471000  0.68507000  1.0
  H  H14  1  0.66174000  0.12767000  0.16193000  1.0
  H  H15  1  0.33826000  0.87234000  0.83807000  1.0
  C  C16  1  0.27358000  0.28370000  0.75763000  1.0
  C  C17  1  0.72642000  0.71630000  0.24237000  1.0
  C  C18  1  0.25642000  0.41275000  0.91423000  1.0
  C  C19  1  0.74358000  0.58725000  0.08577000  1.0
  C  C20  1  0.06478000  0.50251000  0.76024000  1.0
  C  C21  1  0.93522000  0.49749000  0.23975000  1.0
  C  C22  1  0.08262000  0.37312000  0.60330000  1.0
  C  C23  1  0.91738000  0.62687000  0.39670000  1.0
  C  C24  1  0.57163000  0.49355000  0.56963000  1.0
  C  C25  1  0.42837000  0.50645000  0.43037000  1.0
  C  C26  1  0.94380000  0.02759000  0.06740000  1.0
  C  C27  1  0.05620000  0.97241000  0.93260000  1.0
  C  C28  1  0.39112000  0.16133000  0.75299000  1.0
  C  C29  1  0.60888000  0.83867000  0.24700000  1.0
  N  N30  1  0.15432000  0.52416000  0.91518000  1.0
  N  N31  1  0.84568000  0.47583000  0.08482000  1.0
  N  N32  1  0.18982000  0.26681000  0.60198000  1.0
  N  N33  1  0.81018000  0.73319000  0.39802000  1.0
  O  O34  1  0.38924000  0.04144000  0.60157000  1.0
  O  O35  1  0.61075000  0.95855000  0.39843000  1.0
  O  O36  1  0.48984000  0.18076000  0.89172000  1.0
  O  O37  1  0.51016000  0.81923000  0.10828000  1.0
  O  O38  1  0.55747000  0.34907000  0.57373000  1.0
  O  O39  1  0.44252000  0.65093000  0.42627000  1.0
  O  O40  1  0.30985000  0.37307000  0.33153000  1.0
  O  O41  1  0.69015000  0.62694000  0.66847000  1.0
  O  O42  1  0.01541000  0.06824000  0.22397000  1.0
  O  O43  1  0.98459000  0.93176000  0.77603000  1.0
  O  O44  1  0.21324000  0.97234000  0.99240000  1.0
  O  O45  1  0.78676000  0.02767000  0.00760000  1.0
  O  O46  1  0.20605000  0.77438000  0.24987000  1.0
  O  O47  1  0.79395000  0.22562000  0.75013000  1.0
  O  O48  1  0.57683000  0.19810000  0.20873000  1.0
  O  O49  1  0.42317000  0.80190000  0.79127000  1.0
