# generated using pymatgen
data_CdH18C20(N2O)6
_symmetry_space_group_name_H-M   'P 1'
_cell_length_a   9.84277000
_cell_length_b   10.40960000
_cell_length_c   11.26060000
_cell_angle_alpha   90.00000000
_cell_angle_beta   93.88080000
_cell_angle_gamma   90.00000000
_symmetry_Int_Tables_number   1
_chemical_formula_structural   CdH18C20(N2O)6
_chemical_formula_sum   'Cd2 H36 C40 N24 O12'
_cell_volume   1151.10763895
_cell_formula_units_Z   2
loop_
 _symmetry_equiv_pos_site_id
 _symmetry_equiv_pos_as_xyz
  1  'x, y, z'
loop_
 _atom_site_type_symbol
 _atom_site_label
 _atom_site_symmetry_multiplicity
 _atom_site_fract_x
 _atom_site_fract_y
 _atom_site_fract_z
 _atom_site_occupancy
  Cd  Cd0  1  0.00000000  0.50000000  0.50000000  1.0
  Cd  Cd1  1  0.50000000  0.00000000  0.00000000  1.0
  H  H2  1  0.27473000  0.60927000  0.66222000  1.0
  H  H3  1  0.22527000  0.10927000  0.83778000  1.0
  H  H4  1  0.72527000  0.39073000  0.33778000  1.0
  H  H5  1  0.77473000  0.89073000  0.16222000  1.0
  H  H6  1  0.26869000  0.32167000  0.39663000  1.0
  H  H7  1  0.23132000  0.82167000  0.10337000  1.0
  H  H8  1  0.73132000  0.67833000  0.60337000  1.0
  H  H9  1  0.76869000  0.17833000  0.89663000  1.0
  H  H10  1  0.50147000  0.29174000  0.54720000  1.0
  H  H11  1  0.99853000  0.79174000  0.95279000  1.0
  H  H12  1  0.49853000  0.70826000  0.45280000  1.0
  H  H13  1  0.00147000  0.20826000  0.04720000  1.0
  H  H14  1  0.50812000  0.57363000  0.76364000  1.0
  H  H15  1  0.99189000  0.07364000  0.73636000  1.0
  H  H16  1  0.49188000  0.42636000  0.23636000  1.0
  H  H17  1  0.00812000  0.92636000  0.26364000  1.0
  H  H18  1  0.61105000  0.44425000  0.71678000  1.0
  H  H19  1  0.88895000  0.94425000  0.78322000  1.0
  H  H20  1  0.38895000  0.55575000  0.28322000  1.0
  H  H21  1  0.11105000  0.05575000  0.21678000  1.0
  H  H22  1  0.28983000  0.20351000  0.13308000  1.0
  H  H23  1  0.21017000  0.70351000  0.36692000  1.0
  H  H24  1  0.71017000  0.79649000  0.86692000  1.0
  H  H25  1  0.78983000  0.29649000  0.63308000  1.0
  H  H26  1  0.13912000  0.39182000  0.17569000  1.0
  H  H27  1  0.36088000  0.89182000  0.32431000  1.0
  H  H28  1  0.86088000  0.60818000  0.82431000  1.0
  H  H29  1  0.63912000  0.10818000  0.67569000  1.0
  H  H30  1  0.14109000  0.58757000  0.05663000  1.0
  H  H31  1  0.35891000  0.08757000  0.44337000  1.0
  H  H32  1  0.85890000  0.41243000  0.94337000  1.0
  H  H33  1  0.64109000  0.91243000  0.55663000  1.0
  H  H34  1  0.29403000  0.61213000  0.88857000  1.0
  H  H35  1  0.20597000  0.11213000  0.61143000  1.0
  H  H36  1  0.70597000  0.38787000  0.11143000  1.0
  H  H37  1  0.79403000  0.88787000  0.38857000  1.0
  C  C38  1  0.30075000  0.52688000  0.60914000  1.0
  C  C39  1  0.19925000  0.02688000  0.89086000  1.0
  C  C40  1  0.69924000  0.47312000  0.39086000  1.0
  C  C41  1  0.80076000  0.97312000  0.10915000  1.0
  C  C42  1  0.30390000  0.37695000  0.47416000  1.0
  C  C43  1  0.19609000  0.87695000  0.02584000  1.0
  C  C44  1  0.69609000  0.62305000  0.52584000  1.0
  C  C45  1  0.80390000  0.12305000  0.97416000  1.0
  C  C46  1  0.41845000  0.35979000  0.54864000  1.0
  C  C47  1  0.08155000  0.85979000  0.95136000  1.0
  C  C48  1  0.58155000  0.64021000  0.45136000  1.0
  C  C49  1  0.91845000  0.14021000  0.04864000  1.0
  C  C50  1  0.50809000  0.47234000  0.73729000  1.0
  C  C51  1  0.99191000  0.97234000  0.76271000  1.0
  C  C52  1  0.49191000  0.52766000  0.26271000  1.0
  C  C53  1  0.00809000  0.02766000  0.23729000  1.0
  C  C54  1  0.37431000  0.41772000  0.91714000  1.0
  C  C55  1  0.12569000  0.91772000  0.58286000  1.0
  C  C56  1  0.62569000  0.58228000  0.08286000  1.0
  C  C57  1  0.87431000  0.08228000  0.41714000  1.0
  C  C58  1  0.37293000  0.30360000  0.98493000  1.0
  C  C59  1  0.12707000  0.80360000  0.51507000  1.0
  C  C60  1  0.62706000  0.69640000  0.01507000  1.0
  C  C61  1  0.87294000  0.19640000  0.48493000  1.0
  C  C62  1  0.28863000  0.29110000  0.08014000  1.0
  C  C63  1  0.21137000  0.79110000  0.41986000  1.0
  C  C64  1  0.71137000  0.70890000  0.91986000  1.0
  C  C65  1  0.78863000  0.20890000  0.58014000  1.0
  C  C66  1  0.20645000  0.39533000  0.10264000  1.0
  C  C67  1  0.29355000  0.89533000  0.39736000  1.0
  C  C68  1  0.79355000  0.60467000  0.89736000  1.0
  C  C69  1  0.70645000  0.10467000  0.60264000  1.0
  C  C70  1  0.20774000  0.50909000  0.03336000  1.0
  C  C71  1  0.29226000  0.00909000  0.46664000  1.0
  C  C72  1  0.79226000  0.49091000  0.96664000  1.0
  C  C73  1  0.70774000  0.99091000  0.53336000  1.0
  C  C74  1  0.29154000  0.52338000  0.93976000  1.0
  C  C75  1  0.20846000  0.02338000  0.56024000  1.0
  C  C76  1  0.70846000  0.47661000  0.06024000  1.0
  C  C77  1  0.79154000  0.97662000  0.43976000  1.0
  N  N78  1  0.23167000  0.48133000  0.51278000  1.0
  N  N79  1  0.26833000  0.98133000  0.98722000  1.0
  N  N80  1  0.76833000  0.51867000  0.48722000  1.0
  N  N81  1  0.73167000  0.01867000  0.01278000  1.0
  N  N82  1  0.41504000  0.45597000  0.63336000  1.0
  N  N83  1  0.08496000  0.95597000  0.86664000  1.0
  N  N84  1  0.58496000  0.54403000  0.36664000  1.0
  N  N85  1  0.91504000  0.04403000  0.13336000  1.0
  N  N86  1  0.46888000  0.39345000  0.83571000  1.0
  N  N87  1  0.03112000  0.89345000  0.66429000  1.0
  N  N88  1  0.53112000  0.60655000  0.16429000  1.0
  N  N89  1  0.96888000  0.10655000  0.33571000  1.0
  N  N90  1  0.52005000  0.27329000  0.84939000  1.0
  N  N91  1  0.97996000  0.77329000  0.65061000  1.0
  N  N92  1  0.47996000  0.72671000  0.15061000  1.0
  N  N93  1  0.02005000  0.22671000  0.34939000  1.0
  N  N94  1  0.46398000  0.21941000  0.93873000  1.0
  N  N95  1  0.03603000  0.71942000  0.56127000  1.0
  N  N96  1  0.53603000  0.78059000  0.06127000  1.0
  N  N97  1  0.96398000  0.28058000  0.43873000  1.0
  N  N98  1  0.04535000  0.33824000  0.75021000  1.0
  N  N99  1  0.45465000  0.83824000  0.74979000  1.0
  N  N100  1  0.95465000  0.66176000  0.24979000  1.0
  N  N101  1  0.54535000  0.16175000  0.25021000  1.0
  O  O102  1  0.98822000  0.44097000  0.70675000  1.0
  O  O103  1  0.51178000  0.94097000  0.79325000  1.0
  O  O104  1  0.01178000  0.55903000  0.29325000  1.0
  O  O105  1  0.48822000  0.05903000  0.20675000  1.0
  O  O106  1  0.14782000  0.29156000  0.70429000  1.0
  O  O107  1  0.35218000  0.79156000  0.79571000  1.0
  O  O108  1  0.85218000  0.70844000  0.29571000  1.0
  O  O109  1  0.64782000  0.20844000  0.20429000  1.0
  O  O110  1  0.99602000  0.28524000  0.83798000  1.0
  O  O111  1  0.50399000  0.78524000  0.66202000  1.0
  O  O112  1  0.00399000  0.71476000  0.16202000  1.0
  O  O113  1  0.49601000  0.21476000  0.33798000  1.0
