# generated using pymatgen
data_Zn3H22C22S2(NO)12
_symmetry_space_group_name_H-M   'P 1'
_cell_length_a   8.90952000
_cell_length_b   11.05660000
_cell_length_c   16.78100000
_cell_angle_alpha   90.00000000
_cell_angle_beta   90.00000000
_cell_angle_gamma   113.76000000
_symmetry_Int_Tables_number   1
_chemical_formula_structural   Zn3H22C22S2(NO)12
_chemical_formula_sum   'Zn6 H44 C44 S4 N24 O24'
_cell_volume   1512.96642862
_cell_formula_units_Z   2
loop_
 _symmetry_equiv_pos_site_id
 _symmetry_equiv_pos_as_xyz
  1  'x, y, z'
loop_
 _atom_site_type_symbol
 _atom_site_label
 _atom_site_symmetry_multiplicity
 _atom_site_fract_x
 _atom_site_fract_y
 _atom_site_fract_z
 _atom_site_occupancy
  Zn  Zn0  1  0.53632000  0.44487000  0.06771000  1.0
  Zn  Zn1  1  0.09144000  0.55511000  0.93231000  1.0
  Zn  Zn2  1  0.59145000  0.55511000  0.56769000  1.0
  Zn  Zn3  1  0.03632000  0.44487000  0.43229000  1.0
  Zn  Zn4  1  0.63354000  0.99992000  0.00007000  1.0
  Zn  Zn5  1  0.13354000  0.99992000  0.49993000  1.0
  H  H6  1  0.90550000  0.68362000  0.04118000  1.0
  H  H7  1  0.22169000  0.31630000  0.95897000  1.0
  H  H8  1  0.72169000  0.31630000  0.54102000  1.0
  H  H9  1  0.40551000  0.68362000  0.45881000  1.0
  H  H10  1  0.12902000  0.82453000  0.13431000  1.0
  H  H11  1  0.30464000  0.17549000  0.86593000  1.0
  H  H12  1  0.80466000  0.17550000  0.63407000  1.0
  H  H13  1  0.62901000  0.82453000  0.36569000  1.0
  H  H14  1  0.83505000  0.65300000  0.32973000  1.0
  H  H15  1  0.18265000  0.34708000  0.67039000  1.0
  H  H16  1  0.68264000  0.34709000  0.82961000  1.0
  H  H17  1  0.33504000  0.65299000  0.17027000  1.0
  H  H18  1  0.99737000  0.16600000  0.02395000  1.0
  H  H19  1  0.83153000  0.83390000  0.97611000  1.0
  H  H20  1  0.33153000  0.83391000  0.52389000  1.0
  H  H21  1  0.49736000  0.16599000  0.47605000  1.0
  H  H22  1  0.63277000  0.89791000  0.16586000  1.0
  H  H23  1  0.73484000  0.10201000  0.83431000  1.0
  H  H24  1  0.23483000  0.10201000  0.66569000  1.0
  H  H25  1  0.13277000  0.89791000  0.33413000  1.0
  H  H26  1  0.81955000  0.95091000  0.28379000  1.0
  H  H27  1  0.86854000  0.04909000  0.71635000  1.0
  H  H28  1  0.36853000  0.04909000  0.78365000  1.0
  H  H29  1  0.31956000  0.95091000  0.21621000  1.0
  H  H30  1  0.10767000  0.12234000  0.26909000  1.0
  H  H31  1  0.98530000  0.87766000  0.73095000  1.0
  H  H32  1  0.48531000  0.87767000  0.76905000  1.0
  H  H33  1  0.60768000  0.12234000  0.23091000  1.0
  H  H34  1  0.41569000  0.38375000  0.33442000  1.0
  H  H35  1  0.03250000  0.61635000  0.66561000  1.0
  H  H36  1  0.53250000  0.61635000  0.83439000  1.0
  H  H37  1  0.91568000  0.38375000  0.16558000  1.0
  H  H38  1  0.60808000  0.49880000  0.36304000  1.0
  H  H39  1  0.10970000  0.50119000  0.63701000  1.0
  H  H40  1  0.60970000  0.50120000  0.86298000  1.0
  H  H41  1  0.10808000  0.49880000  0.13696000  1.0
  H  H42  1  0.39492000  0.07985000  0.05689000  1.0
  H  H43  1  0.31496000  0.92001000  0.94313000  1.0
  H  H44  1  0.81495000  0.92001000  0.55687000  1.0
  H  H45  1  0.89492000  0.07984000  0.44312000  1.0
  H  H46  1  0.56524000  0.14618000  0.09650000  1.0
  H  H47  1  0.41916000  0.85398000  0.90346000  1.0
  H  H48  1  0.91916000  0.85398000  0.59654000  1.0
  H  H49  1  0.06524000  0.14618000  0.40350000  1.0
  C  C50  1  0.88865000  0.67574000  0.10574000  1.0
  C  C51  1  0.21282000  0.32417000  0.89441000  1.0
  C  C52  1  0.71282000  0.32418000  0.60558000  1.0
  C  C53  1  0.38866000  0.67574000  0.39426000  1.0
  C  C54  1  0.01206000  0.75411000  0.15771000  1.0
  C  C55  1  0.25809000  0.24588000  0.84248000  1.0
  C  C56  1  0.75809000  0.24588000  0.65752000  1.0
  C  C57  1  0.51206000  0.75411000  0.34229000  1.0
  C  C58  1  0.84962000  0.65734000  0.26498000  1.0
  C  C59  1  0.19266000  0.34266000  0.73514000  1.0
  C  C60  1  0.69266000  0.34266000  0.76485000  1.0
  C  C61  1  0.34962000  0.65734000  0.23502000  1.0
  C  C62  1  0.72590000  0.57526000  0.21398000  1.0
  C  C63  1  0.15089000  0.42472000  0.78610000  1.0
  C  C64  1  0.65088000  0.42472000  0.71389000  1.0
  C  C65  1  0.22590000  0.57526000  0.28602000  1.0
  C  C66  1  0.56737000  0.47393000  0.24106000  1.0
  C  C67  1  0.09382000  0.52610000  0.75898000  1.0
  C  C68  1  0.59382000  0.52610000  0.74102000  1.0
  C  C69  1  0.06737000  0.47394000  0.25894000  1.0
  C  C70  1  0.24569000  0.25281000  0.13419000  1.0
  C  C71  1  0.99301000  0.74717000  0.86581000  1.0
  C  C72  1  0.49302000  0.74718000  0.63419000  1.0
  C  C73  1  0.74569000  0.25281000  0.36581000  1.0
  C  C74  1  0.07576000  0.15401000  0.14512000  1.0
  C  C75  1  0.92177000  0.84590000  0.85492000  1.0
  C  C76  1  0.42178000  0.84591000  0.64508000  1.0
  C  C77  1  0.57576000  0.15402000  0.35488000  1.0
  C  C78  1  0.96317000  0.11992000  0.08232000  1.0
  C  C79  1  0.84333000  0.88000000  0.91775000  1.0
  C  C80  1  0.34334000  0.88001000  0.58225000  1.0
  C  C81  1  0.46317000  0.11992000  0.41768000  1.0
  C  C82  1  0.75791000  0.97185000  0.16183000  1.0
  C  C83  1  0.78605000  0.02808000  0.83831000  1.0
  C  C84  1  0.28605000  0.02808000  0.66169000  1.0
  C  C85  1  0.25791000  0.97185000  0.33817000  1.0
  C  C86  1  0.86262000  0.00092000  0.22727000  1.0
  C  C87  1  0.86168000  0.99905000  0.77284000  1.0
  C  C88  1  0.36168000  0.99905000  0.72716000  1.0
  C  C89  1  0.36262000  0.00092000  0.27273000  1.0
  C  C90  1  0.02213000  0.09447000  0.21940000  1.0
  C  C91  1  0.92762000  0.90548000  0.78065000  1.0
  C  C92  1  0.42762000  0.90549000  0.71935000  1.0
  C  C93  1  0.52213000  0.09447000  0.28060000  1.0
  S  S94  1  0.76223000  0.32691000  0.00992000  1.0
  S  S95  1  0.43535000  0.67317000  0.99009000  1.0
  S  S96  1  0.93536000  0.67317000  0.50991000  1.0
  S  S97  1  0.26223000  0.32692000  0.49008000  1.0
  N  N98  1  0.74813000  0.58692000  0.13424000  1.0
  N  N99  1  0.16117000  0.41298000  0.86585000  1.0
  N  N100  1  0.66116000  0.41298000  0.63414000  1.0
  N  N101  1  0.24813000  0.58693000  0.36576000  1.0
  N  N102  1  0.99246000  0.74544000  0.23679000  1.0
  N  N103  1  0.24735000  0.25456000  0.76339000  1.0
  N  N104  1  0.74735000  0.25457000  0.73660000  1.0
  N  N105  1  0.49245000  0.74544000  0.26321000  1.0
  N  N106  1  0.52853000  0.45299000  0.31846000  1.0
  N  N107  1  0.07602000  0.54706000  0.68157000  1.0
  N  N108  1  0.57601000  0.54706000  0.81843000  1.0
  N  N109  1  0.02853000  0.45299000  0.18154000  1.0
  N  N110  1  0.46919000  0.40999000  0.18263000  1.0
  N  N111  1  0.05956000  0.59009000  0.81738000  1.0
  N  N112  1  0.55956000  0.59010000  0.68262000  1.0
  N  N113  1  0.96919000  0.40999000  0.31737000  1.0
  N  N114  1  0.31872000  0.31569000  0.20046000  1.0
  N  N115  1  0.00342000  0.68441000  0.79953000  1.0
  N  N116  1  0.50342000  0.68441000  0.70047000  1.0
  N  N117  1  0.81872000  0.31569000  0.29954000  1.0
  N  N118  1  0.80679000  0.03258000  0.09109000  1.0
  N  N119  1  0.77426000  0.96734000  0.90904000  1.0
  N  N120  1  0.27426000  0.96734000  0.59096000  1.0
  N  N121  1  0.30679000  0.03258000  0.40891000  1.0
  O  O122  1  0.30999000  0.27248000  0.06334000  1.0
  O  O123  1  0.03747000  0.72744000  0.93669000  1.0
  O  O124  1  0.53749000  0.72746000  0.56330000  1.0
  O  O125  1  0.80998000  0.27249000  0.43667000  1.0
  O  O126  1  0.65504000  0.39265000  0.97850000  1.0
  O  O127  1  0.26242000  0.60716000  0.02145000  1.0
  O  O128  1  0.76243000  0.60715000  0.47855000  1.0
  O  O129  1  0.15503000  0.39264000  0.52151000  1.0
  O  O130  1  0.73721000  0.20957000  0.96026000  1.0
  O  O131  1  0.52724000  0.79062000  0.03978000  1.0
  O  O132  1  0.02724000  0.79063000  0.46022000  1.0
  O  O133  1  0.23723000  0.20958000  0.53975000  1.0
  O  O134  1  0.93727000  0.42257000  0.00766000  1.0
  O  O135  1  0.51513000  0.57780000  0.99250000  1.0
  O  O136  1  0.01515000  0.57781000  0.50750000  1.0
  O  O137  1  0.43727000  0.42259000  0.49234000  1.0
  O  O138  1  0.71948000  0.29011000  0.09507000  1.0
  O  O139  1  0.42954000  0.70990000  0.90494000  1.0
  O  O140  1  0.92953000  0.70990000  0.59506000  1.0
  O  O141  1  0.21947000  0.29011000  0.40494000  1.0
  O  O142  1  0.47907000  0.05656000  0.08153000  1.0
  O  O143  1  0.42247000  0.94351000  0.91851000  1.0
  O  O144  1  0.92247000  0.94351000  0.58149000  1.0
  O  O145  1  0.97907000  0.05655000  0.41847000  1.0
