# generated using pymatgen
data_KVPH3CO7
_symmetry_space_group_name_H-M   'P 1'
_cell_length_a   6.38435000
_cell_length_b   9.36055682
_cell_length_c   13.00697520
_cell_angle_alpha   71.43120898
_cell_angle_beta   75.80189143
_cell_angle_gamma   70.09502883
_symmetry_Int_Tables_number   1
_chemical_formula_structural   KVPH3CO7
_chemical_formula_sum   'K4 V4 P4 H12 C4 O28'
_cell_volume   684.60938111
_cell_formula_units_Z   4
loop_
 _symmetry_equiv_pos_site_id
 _symmetry_equiv_pos_as_xyz
  1  'x, y, z'
loop_
 _atom_site_type_symbol
 _atom_site_label
 _atom_site_symmetry_multiplicity
 _atom_site_fract_x
 _atom_site_fract_y
 _atom_site_fract_z
 _atom_site_occupancy
  K  K0  1  0.85528000  0.89481000  0.94199000  1.0
  K  K1  1  0.69212000  0.60508000  0.55808000  1.0
  K  K2  1  0.14473000  0.10518000  0.05801000  1.0
  K  K3  1  0.30789000  0.39492000  0.44192000  1.0
  V  V4  1  0.22327000  0.55169000  0.79319000  1.0
  V  V5  1  0.56891000  0.94796000  0.70678000  1.0
  V  V6  1  0.77674000  0.44830000  0.20681000  1.0
  V  V7  1  0.43108000  0.05202000  0.29323000  1.0
  P  P8  1  0.70836000  0.58192000  0.83017000  1.0
  P  P9  1  0.12100000  0.91768000  0.66990000  1.0
  P  P10  1  0.29165000  0.41808000  0.16983000  1.0
  P  P11  1  0.87900000  0.08232000  0.33011000  1.0
  H  H12  1  0.72806000  0.50012000  0.94030000  1.0
  H  H13  1  0.16933000  0.99958000  0.55978000  1.0
  H  H14  1  0.27195000  0.49988000  0.05969000  1.0
  H  H15  1  0.83066000  0.00043000  0.44022000  1.0
  H  H16  1  0.62414000  0.20275000  0.04389000  1.0
  H  H17  1  0.87091000  0.29710000  0.45638000  1.0
  H  H18  1  0.37585000  0.79724000  0.95611000  1.0
  H  H19  1  0.12910000  0.70290000  0.54362000  1.0
  H  H20  1  0.66532000  0.27873000  0.91902000  1.0
  H  H21  1  0.86394000  0.22096000  0.58122000  1.0
  H  H22  1  0.33467000  0.72127000  0.08099000  1.0
  H  H23  1  0.13607000  0.77905000  0.41877000  1.0
  C  C24  1  0.41438000  0.28266000  0.68809000  1.0
  C  C25  1  0.38550000  0.21698000  0.81169000  1.0
  C  C26  1  0.58561000  0.71732000  0.31193000  1.0
  C  C27  1  0.61449000  0.78303000  0.18833000  1.0
  O  O28  1  0.36968000  0.42981000  0.65077000  1.0
  O  O29  1  0.45113000  0.06984000  0.84899000  1.0
  O  O30  1  0.63034000  0.57017000  0.34922000  1.0
  O  O31  1  0.54889000  0.93013000  0.15100000  1.0
  O  O32  1  0.48307000  0.18240000  0.63062000  1.0
  O  O33  1  0.29607000  0.31720000  0.86916000  1.0
  O  O34  1  0.51692000  0.81764000  0.36937000  1.0
  O  O35  1  0.70392000  0.68284000  0.13082000  1.0
  O  O36  1  0.55221000  0.52325000  0.79019000  1.0
  O  O37  1  0.86631000  0.97665000  0.70982000  1.0
  O  O38  1  0.44781000  0.47675000  0.20981000  1.0
  O  O39  1  0.13367000  0.02335000  0.29019000  1.0
  O  O40  1  0.94061000  0.54170000  0.75895000  1.0
  O  O41  1  0.24221000  0.95755000  0.74118000  1.0
  O  O42  1  0.05938000  0.45830000  0.24105000  1.0
  O  O43  1  0.75781000  0.04244000  0.25882000  1.0
  O  O44  1  0.61592000  0.75702000  0.83328000  1.0
  O  O45  1  0.20595333  0.74262000  0.66666667  1.0
  O  O46  1  0.38408000  0.24298000  0.16672000  1.0
  O  O47  1  0.79404667  0.25738000  0.33333333  1.0
  O  O48  1  0.11656000  0.62009000  0.89941000  1.0
  O  O49  1  0.63677000  0.87965000  0.60051000  1.0
  O  O50  1  0.88344000  0.37992000  0.10059000  1.0
  O  O51  1  0.36322000  0.12035000  0.39950000  1.0
  O  O52  1  0.73396000  0.19132000  0.97684000  1.0
  O  O53  1  0.90238000  0.30861000  0.52338000  1.0
  O  O54  1  0.26604000  0.80867000  0.02316000  1.0
  O  O55  1  0.09764000  0.69139000  0.47661000  1.0
