# generated using pymatgen
data_Cd2H14C8O13
_symmetry_space_group_name_H-M   'P 1'
_cell_length_a   7.48326000
_cell_length_b   8.37280174
_cell_length_c   13.28270000
_cell_angle_alpha   93.97642683
_cell_angle_beta   90.01100000
_cell_angle_gamma   116.50803262
_symmetry_Int_Tables_number   1
_chemical_formula_structural   Cd2H14C8O13
_chemical_formula_sum   'Cd4 H28 C16 O26'
_cell_volume   742.50203670
_cell_formula_units_Z   2
loop_
 _symmetry_equiv_pos_site_id
 _symmetry_equiv_pos_as_xyz
  1  'x, y, z'
loop_
 _atom_site_type_symbol
 _atom_site_label
 _atom_site_symmetry_multiplicity
 _atom_site_fract_x
 _atom_site_fract_y
 _atom_site_fract_z
 _atom_site_occupancy
  Cd  Cd0  1  0.44806000  0.91242000  0.12847000  1.0
  Cd  Cd1  1  0.46462000  0.91232000  0.62835000  1.0
  Cd  Cd2  1  0.55194000  0.08758000  0.87153000  1.0
  Cd  Cd3  1  0.53538000  0.08768000  0.37165000  1.0
  H  H4  1  0.84657000  0.77002000  0.04866000  1.0
  H  H5  1  0.92416000  0.76992000  0.54865000  1.0
  H  H6  1  0.15342000  0.22997000  0.95134000  1.0
  H  H7  1  0.07584000  0.23008000  0.45135000  1.0
  H  H8  1  0.90971000  0.59164000  0.01996000  1.0
  H  H9  1  0.68288000  0.59156000  0.51993000  1.0
  H  H10  1  0.09029000  0.40836000  0.98004000  1.0
  H  H11  1  0.31712000  0.40844000  0.48007000  1.0
  H  H12  1  0.85591000  0.64695000  0.23783000  1.0
  H  H13  1  0.79146000  0.64640000  0.73777000  1.0
  H  H14  1  0.14409000  0.35305000  0.76217000  1.0
  H  H15  1  0.20854000  0.35360000  0.26223000  1.0
  H  H16  1  0.95794000  0.51132000  0.17446000  1.0
  H  H17  1  0.55393000  0.51113000  0.67436000  1.0
  H  H18  1  0.04205000  0.48867000  0.82553000  1.0
  H  H19  1  0.44607000  0.48888000  0.32564000  1.0
  H  H20  1  0.43884000  0.64025000  0.98548000  1.0
  H  H21  1  0.20144000  0.64013000  0.48561000  1.0
  H  H22  1  0.56116000  0.35975000  0.01452000  1.0
  H  H23  1  0.79856000  0.35987000  0.51439000  1.0
  H  H24  1  0.41502000  0.55383000  0.09148000  1.0
  H  H25  1  0.13869000  0.55387000  0.59163000  1.0
  H  H26  1  0.58498000  0.44617000  0.90852000  1.0
  H  H27  1  0.86131000  0.44613000  0.40837000  1.0
  H  H28  1  0.83335000  0.08025000  0.20865000  1.0
  H  H29  1  0.24668000  0.08003000  0.70847000  1.0
  H  H30  1  0.16665000  0.91975000  0.79135000  1.0
  H  H31  1  0.75332000  0.91997000  0.29153000  1.0
  C  C32  1  0.10626000  0.83756000  0.96021000  1.0
  C  C33  1  0.73172000  0.83739000  0.46019000  1.0
  C  C34  1  0.89373000  0.16243000  0.03978000  1.0
  C  C35  1  0.26828000  0.16261000  0.53980000  1.0
  C  C36  1  0.97280000  0.73579000  0.04337000  1.0
  C  C37  1  0.76374000  0.73569000  0.54335000  1.0
  C  C38  1  0.02720000  0.26421000  0.95663000  1.0
  C  C39  1  0.23626000  0.26431000  0.45665000  1.0
  C  C40  1  0.99348000  0.64665000  0.20884000  1.0
  C  C41  1  0.65373000  0.64638000  0.70877000  1.0
  C  C42  1  0.00651000  0.35334000  0.79116000  1.0
  C  C43  1  0.34627000  0.35362000  0.29123000  1.0
  C  C44  1  0.14014000  0.68998000  0.29751000  1.0
  C  C45  1  0.55048000  0.68995000  0.79741000  1.0
  C  C46  1  0.85986000  0.31002000  0.70249000  1.0
  C  C47  1  0.44952000  0.31006000  0.20259000  1.0
  O  O48  1  0.08130000  0.77797000  0.13749000  1.0
  O  O49  1  0.69730000  0.77779000  0.63745000  1.0
  O  O50  1  0.91870000  0.22203000  0.86251000  1.0
  O  O51  1  0.30270000  0.22221000  0.36255000  1.0
  O  O52  1  0.29040000  0.94533000  0.98292000  1.0
  O  O53  1  0.65512000  0.94509000  0.48291000  1.0
  O  O54  1  0.70960000  0.05467000  0.01708000  1.0
  O  O55  1  0.34488000  0.05491000  0.51709000  1.0
  O  O56  1  0.02407000  0.80770000  0.87379000  1.0
  O  O57  1  0.78391000  0.80749000  0.37375000  1.0
  O  O58  1  0.97594000  0.19230000  0.12621000  1.0
  O  O59  1  0.21609000  0.19251000  0.62625000  1.0
  O  O60  1  0.31861000  0.81070000  0.28923000  1.0
  O  O61  1  0.49289000  0.81086000  0.78906000  1.0
  O  O62  1  0.68139000  0.18930000  0.71077000  1.0
  O  O63  1  0.50711000  0.18914000  0.21095000  1.0
  O  O64  1  0.07896000  0.60074000  0.37373000  1.0
  O  O65  1  0.52230000  0.60075000  0.87366000  1.0
  O  O66  1  0.92104000  0.39926000  0.62627000  1.0
  O  O67  1  0.47771000  0.39926000  0.12635000  1.0
  O  O68  1  0.38611000  0.64061000  0.05479000  1.0
  O  O69  1  0.25437000  0.64052000  0.55498000  1.0
  O  O70  1  0.61389000  0.35939000  0.94521000  1.0
  O  O71  1  0.74562000  0.35947000  0.44502000  1.0
  O  O72  1  0.71751000  0.00022000  0.25015000  1.0
  O  O73  1  0.28249000  0.99978000  0.74985000  1.0
