# generated using pymatgen
data_ZnH8C19(NO3)2
_symmetry_space_group_name_H-M   'P 1'
_cell_length_a   5.56598000
_cell_length_b   16.75500000
_cell_length_c   26.15310000
_cell_angle_alpha   90.00000000
_cell_angle_beta   89.99990000
_cell_angle_gamma   98.50050000
_symmetry_Int_Tables_number   1
_chemical_formula_structural   ZnH8C19(NO3)2
_chemical_formula_sum   'Zn4 H32 C76 N8 O24'
_cell_volume   2412.19236851
_cell_formula_units_Z   4
loop_
 _symmetry_equiv_pos_site_id
 _symmetry_equiv_pos_as_xyz
  1  'x, y, z'
loop_
 _atom_site_type_symbol
 _atom_site_label
 _atom_site_symmetry_multiplicity
 _atom_site_fract_x
 _atom_site_fract_y
 _atom_site_fract_z
 _atom_site_occupancy
  Zn  Zn0  1  0.11926000  0.57882000  0.52070000  1.0
  Zn  Zn1  1  0.88074000  0.92118000  0.02070000  1.0
  Zn  Zn2  1  0.88074000  0.42118000  0.47930000  1.0
  Zn  Zn3  1  0.11926000  0.07883000  0.97930000  1.0
  H  H4  1  0.43445000  0.87838000  0.08612000  1.0
  H  H5  1  0.36170000  0.79947000  0.16751000  1.0
  H  H6  1  0.98471000  0.68378000  0.13049000  1.0
  H  H7  1  0.03293000  0.76792000  0.05011000  1.0
  H  H8  1  0.09926000  0.52695000  0.24574000  1.0
  H  H9  1  0.03456000  0.47352000  0.33526000  1.0
  H  H10  1  0.07918000  0.70525000  0.40789000  1.0
  H  H11  1  0.12549000  0.76280000  0.31900000  1.0
  H  H12  1  0.56555000  0.62162000  0.58612000  1.0
  H  H13  1  0.63830000  0.70053000  0.66751000  1.0
  H  H14  1  0.01530000  0.81622000  0.63049000  1.0
  H  H15  1  0.96707000  0.73208000  0.55011000  1.0
  H  H16  1  0.90075000  0.97305000  0.74573000  1.0
  H  H17  1  0.96545000  0.02648000  0.83526000  1.0
  H  H18  1  0.92082000  0.79475000  0.90789000  1.0
  H  H19  1  0.87452000  0.73720000  0.81900000  1.0
  H  H20  1  0.56555000  0.12162000  0.91388000  1.0
  H  H21  1  0.63830000  0.20053000  0.83249000  1.0
  H  H22  1  0.01529000  0.31622000  0.86951000  1.0
  H  H23  1  0.96707000  0.23208000  0.94989000  1.0
  H  H24  1  0.90074000  0.47306000  0.75426000  1.0
  H  H25  1  0.96545000  0.52648000  0.66474000  1.0
  H  H26  1  0.92082000  0.29475000  0.59211000  1.0
  H  H27  1  0.87451000  0.23720000  0.68100000  1.0
  H  H28  1  0.43445000  0.37838000  0.41388000  1.0
  H  H29  1  0.36170000  0.29947000  0.33249000  1.0
  H  H30  1  0.98471000  0.18378000  0.36951000  1.0
  H  H31  1  0.03293000  0.26792000  0.44989000  1.0
  H  H32  1  0.09926000  0.02694000  0.25427000  1.0
  H  H33  1  0.03455000  0.97352000  0.16474000  1.0
  H  H34  1  0.07918000  0.20525000  0.09211000  1.0
  H  H35  1  0.12549000  0.26280000  0.18100000  1.0
  C  C36  1  0.55111000  0.83439000  0.09707000  1.0
  C  C37  1  0.51138000  0.79069000  0.14223000  1.0
  C  C38  1  0.67248000  0.73758000  0.15492000  1.0
  C  C39  1  0.85865000  0.72569000  0.12140000  1.0
  C  C40  1  0.88586000  0.77194000  0.07709000  1.0
  C  C41  1  0.44382000  0.64172000  0.21337000  1.0
  C  C42  1  0.42248000  0.60670000  0.26521000  1.0
  C  C43  1  0.59560000  0.63363000  0.30372000  1.0
  C  C44  1  0.80080000  0.69148000  0.29172000  1.0
  C  C45  1  0.83785000  0.72478000  0.23971000  1.0
  C  C46  1  0.22743000  0.54758000  0.27614000  1.0
  C  C47  1  0.19277000  0.51756000  0.32602000  1.0
  C  C48  1  0.35060000  0.54622000  0.36534000  1.0
  C  C49  1  0.56356000  0.60230000  0.35474000  1.0
  C  C50  1  0.74678000  0.62867000  0.39176000  1.0
  C  C51  1  0.94151000  0.68717000  0.37888000  1.0
  C  C52  1  0.96928000  0.71854000  0.32927000  1.0
  C  C53  1  0.26459000  0.52340000  0.41859000  1.0
  C  C54  1  0.77141000  0.58749000  0.44233000  1.0
  C  C55  1  0.44889000  0.66561000  0.59707000  1.0
  C  C56  1  0.48862000  0.70931000  0.64223000  1.0
  C  C57  1  0.32753000  0.76242000  0.65492000  1.0
  C  C58  1  0.14135000  0.77431000  0.62140000  1.0
  C  C59  1  0.11414000  0.72806000  0.57709000  1.0
  C  C60  1  0.55618000  0.85828000  0.71337000  1.0
  C  C61  1  0.57753000  0.89330000  0.76521000  1.0
  C  C62  1  0.40440000  0.86637000  0.80371000  1.0
  C  C63  1  0.19920000  0.80852000  0.79172000  1.0
  C  C64  1  0.16215000  0.77522000  0.73971000  1.0
  C  C65  1  0.77258000  0.95242000  0.77614000  1.0
  C  C66  1  0.80723000  0.98244000  0.82602000  1.0
  C  C67  1  0.64940000  0.95378000  0.86534000  1.0
  C  C68  1  0.43644000  0.89770000  0.85474000  1.0
  C  C69  1  0.25322000  0.87133000  0.89176000  1.0
  C  C70  1  0.05849000  0.81283000  0.87888000  1.0
  C  C71  1  0.03072000  0.78146000  0.82927000  1.0
  C  C72  1  0.73541000  0.97660000  0.91859000  1.0
  C  C73  1  0.22859000  0.91251000  0.94233000  1.0
  C  C74  1  0.44889000  0.16561000  0.90293000  1.0
  C  C75  1  0.48862000  0.20931000  0.85777000  1.0
  C  C76  1  0.32753000  0.26242000  0.84508000  1.0
  C  C77  1  0.14135000  0.27431000  0.87860000  1.0
  C  C78  1  0.11414000  0.22806000  0.92291000  1.0
  C  C79  1  0.55617000  0.35828000  0.78663000  1.0
  C  C80  1  0.57752000  0.39330000  0.73479000  1.0
  C  C81  1  0.40440000  0.36637000  0.69628000  1.0
  C  C82  1  0.19920000  0.30852000  0.70828000  1.0
  C  C83  1  0.16215000  0.27522000  0.76029000  1.0
  C  C84  1  0.77257000  0.45242000  0.72386000  1.0
  C  C85  1  0.80723000  0.48244000  0.67398000  1.0
  C  C86  1  0.64940000  0.45378000  0.63466000  1.0
  C  C87  1  0.43644000  0.39770000  0.64526000  1.0
  C  C88  1  0.25322000  0.37133000  0.60824000  1.0
  C  C89  1  0.05849000  0.31283000  0.62112000  1.0
  C  C90  1  0.03072000  0.28146000  0.67073000  1.0
  C  C91  1  0.73541000  0.47660000  0.58141000  1.0
  C  C92  1  0.22859000  0.41251000  0.55767000  1.0
  C  C93  1  0.55111000  0.33439000  0.40293000  1.0
  C  C94  1  0.51138000  0.29069000  0.35777000  1.0
  C  C95  1  0.67247000  0.23758000  0.34508000  1.0
  C  C96  1  0.85865000  0.22569000  0.37860000  1.0
  C  C97  1  0.88586000  0.27194000  0.42291000  1.0
  C  C98  1  0.44382000  0.14172000  0.28663000  1.0
  C  C99  1  0.42247000  0.10670000  0.23479000  1.0
  C  C100  1  0.59560000  0.13363000  0.19628000  1.0
  C  C101  1  0.80080000  0.19148000  0.20828000  1.0
  C  C102  1  0.83785000  0.22478000  0.26029000  1.0
  C  C103  1  0.22743000  0.04758000  0.22386000  1.0
  C  C104  1  0.19277000  0.01756000  0.17398000  1.0
  C  C105  1  0.35060000  0.04622000  0.13466000  1.0
  C  C106  1  0.56356000  0.10230000  0.14526000  1.0
  C  C107  1  0.74678000  0.12867000  0.10824000  1.0
  C  C108  1  0.94151000  0.18717000  0.12112000  1.0
  C  C109  1  0.96928000  0.21854000  0.17073000  1.0
  C  C110  1  0.26459000  0.02340000  0.08141000  1.0
  C  C111  1  0.77141000  0.08749000  0.05767000  1.0
  N  N112  1  0.73870000  0.82655000  0.06574000  1.0
  N  N113  1  0.65272000  0.69849000  0.20386000  1.0
  N  N114  1  0.26130000  0.67345000  0.56574000  1.0
  N  N115  1  0.34729000  0.80151000  0.70386000  1.0
  N  N116  1  0.26130000  0.17345000  0.93426000  1.0
  N  N117  1  0.34728000  0.30151000  0.79614000  1.0
  N  N118  1  0.73870000  0.32655000  0.43426000  1.0
  N  N119  1  0.65271000  0.19849000  0.29614000  1.0
  O  O120  1  0.28734000  0.58029000  0.45150000  1.0
  O  O121  1  0.15664000  0.45224000  0.42501000  1.0
  O  O122  1  0.72718000  0.51048000  0.44154000  1.0
  O  O123  1  0.86092000  0.63097000  0.47926000  1.0
  O  O124  1  0.29251000  0.62375000  0.17929000  1.0
  O  O125  1  0.01401000  0.77455000  0.22729000  1.0
  O  O126  1  0.71267000  0.91971000  0.95150000  1.0
  O  O127  1  0.84336000  0.04776000  0.92501000  1.0
  O  O128  1  0.27282000  0.98952000  0.94154000  1.0
  O  O129  1  0.13908000  0.86903000  0.97926000  1.0
  O  O130  1  0.70749000  0.87625000  0.67929000  1.0
  O  O131  1  0.98599000  0.72545000  0.72728000  1.0
  O  O132  1  0.71267000  0.41971000  0.54850000  1.0
  O  O133  1  0.84336000  0.54776000  0.57499000  1.0
  O  O134  1  0.27281000  0.48952000  0.55846000  1.0
  O  O135  1  0.13908000  0.36903000  0.52074000  1.0
  O  O136  1  0.70749000  0.37625000  0.82071000  1.0
  O  O137  1  0.98599000  0.22545000  0.77271000  1.0
  O  O138  1  0.28733000  0.08029000  0.04850000  1.0
  O  O139  1  0.15664000  0.95224000  0.07499000  1.0
  O  O140  1  0.72718000  0.01048000  0.05846000  1.0
  O  O141  1  0.86091000  0.13097000  0.02074000  1.0
  O  O142  1  0.29250000  0.12375000  0.32071000  1.0
  O  O143  1  0.01401000  0.27455000  0.27272000  1.0
