# generated using pymatgen
data_NdH11C18N3O7
_symmetry_space_group_name_H-M   'P 1'
_cell_length_a   7.40555000
_cell_length_b   11.97180000
_cell_length_c   19.32410000
_cell_angle_alpha   98.04250000
_cell_angle_beta   89.99800000
_cell_angle_gamma   89.98790000
_symmetry_Int_Tables_number   1
_chemical_formula_structural   NdH11C18N3O7
_chemical_formula_sum   'Nd4 H44 C72 N12 O28'
_cell_volume   1696.38106498
_cell_formula_units_Z   4
loop_
 _symmetry_equiv_pos_site_id
 _symmetry_equiv_pos_as_xyz
  1  'x, y, z'
loop_
 _atom_site_type_symbol
 _atom_site_label
 _atom_site_symmetry_multiplicity
 _atom_site_fract_x
 _atom_site_fract_y
 _atom_site_fract_z
 _atom_site_occupancy
  Nd  Nd0  1  0.74583000  0.94307000  0.02558000  1.0
  Nd  Nd1  1  0.74573000  0.05694000  0.47441000  1.0
  Nd  Nd2  1  0.25427000  0.05695000  0.97441000  1.0
  Nd  Nd3  1  0.25422000  0.94305000  0.52558000  1.0
  H  H4  1  0.40623000  0.62290000  0.09503000  1.0
  H  H5  1  0.40608000  0.37708000  0.40505000  1.0
  H  H6  1  0.59372000  0.37715000  0.90500000  1.0
  H  H7  1  0.59380000  0.62290000  0.59496000  1.0
  H  H8  1  0.29176000  0.42174000  0.07640000  1.0
  H  H9  1  0.29179000  0.57830000  0.42370000  1.0
  H  H10  1  0.70810000  0.57833000  0.92365000  1.0
  H  H11  1  0.70812000  0.42166000  0.57631000  1.0
  H  H12  1  0.14183000  0.35159000  0.96341000  1.0
  H  H13  1  0.14175000  0.64847000  0.53668000  1.0
  H  H14  1  0.85805000  0.64845000  0.03663000  1.0
  H  H15  1  0.85816000  0.35152000  0.46332000  1.0
  H  H16  1  0.08665000  0.90280000  0.79936000  1.0
  H  H17  1  0.08632000  0.09719000  0.70068000  1.0
  H  H18  1  0.91346000  0.09717000  0.20060000  1.0
  H  H19  1  0.91355000  0.90282000  0.29934000  1.0
  H  H20  1  0.25083000  0.79459000  0.69718000  1.0
  H  H21  1  0.25052000  0.20535000  0.80282000  1.0
  H  H22  1  0.74930000  0.20535000  0.30280000  1.0
  H  H23  1  0.74938000  0.79465000  0.19718000  1.0
  H  H24  1  0.35190000  0.59617000  0.70882000  1.0
  H  H25  1  0.35165000  0.40369000  0.79120000  1.0
  H  H26  1  0.64821000  0.40378000  0.29120000  1.0
  H  H27  1  0.64828000  0.59626000  0.20880000  1.0
  H  H28  1  0.58713000  0.74915000  0.86083000  1.0
  H  H29  1  0.58669000  0.25084000  0.63924000  1.0
  H  H30  1  0.41307000  0.25087000  0.13918000  1.0
  H  H31  1  0.41327000  0.74920000  0.36078000  1.0
  H  H32  1  0.74578000  0.62196000  0.76524000  1.0
  H  H33  1  0.74522000  0.37799000  0.73484000  1.0
  H  H34  1  0.25445000  0.37806000  0.23478000  1.0
  H  H35  1  0.25468000  0.62202000  0.26520000  1.0
  H  H36  1  0.87265000  0.70789000  0.66470000  1.0
  H  H37  1  0.87229000  0.29200000  0.83530000  1.0
  H  H38  1  0.12744000  0.29210000  0.33527000  1.0
  H  H39  1  0.12762000  0.70798000  0.16472000  1.0
  H  H40  1  0.03469000  0.87466000  0.13138000  1.0
  H  H41  1  0.03464000  0.12538000  0.36861000  1.0
  H  H42  1  0.96539000  0.12532000  0.86860000  1.0
  H  H43  1  0.96536000  0.87462000  0.63137000  1.0
  H  H44  1  0.06766000  0.82812000  0.05407000  1.0
  H  H45  1  0.06753000  0.17190000  0.44592000  1.0
  H  H46  1  0.93246000  0.17192000  0.94591000  1.0
  H  H47  1  0.93249000  0.82808000  0.55406000  1.0
  C  C48  1  0.21779000  0.61046000  0.93338000  1.0
  C  C49  1  0.21743000  0.38953000  0.56668000  1.0
  C  C50  1  0.78226000  0.38958000  0.06664000  1.0
  C  C51  1  0.78247000  0.61043000  0.43332000  1.0
  C  C52  1  0.30102000  0.65856000  0.99642000  1.0
  C  C53  1  0.30069000  0.34142000  0.50364000  1.0
  C  C54  1  0.69902000  0.34148000  0.00361000  1.0
  C  C55  1  0.69917000  0.65854000  0.49635000  1.0
  C  C56  1  0.33283000  0.58887000  0.04784000  1.0
  C  C57  1  0.33263000  0.41113000  0.45224000  1.0
  C  C58  1  0.66711000  0.41118000  0.95219000  1.0
  C  C59  1  0.66722000  0.58884000  0.54776000  1.0
  C  C60  1  0.27337000  0.47807000  0.03738000  1.0
  C  C61  1  0.27329000  0.52197000  0.46271000  1.0
  C  C62  1  0.72652000  0.52199000  0.96266000  1.0
  C  C63  1  0.72658000  0.47800000  0.53730000  1.0
  C  C64  1  0.18994000  0.43832000  0.97385000  1.0
  C  C65  1  0.18981000  0.56172000  0.52624000  1.0
  C  C66  1  0.80996000  0.56172000  0.02619000  1.0
  C  C67  1  0.81009000  0.43825000  0.47377000  1.0
  C  C68  1  0.36966000  0.77740000  0.01016000  1.0
  C  C69  1  0.36939000  0.22259000  0.48990000  1.0
  C  C70  1  0.63045000  0.22264000  0.98985000  1.0
  C  C71  1  0.63055000  0.77738000  0.51010000  1.0
  C  C72  1  0.20498000  0.66755000  0.86903000  1.0
  C  C73  1  0.20458000  0.33242000  0.63100000  1.0
  C  C74  1  0.79512000  0.33247000  0.13098000  1.0
  C  C75  1  0.79533000  0.66757000  0.36900000  1.0
  C  C76  1  0.11964000  0.77175000  0.86406000  1.0
  C  C77  1  0.11931000  0.22820000  0.63596000  1.0
  C  C78  1  0.88047000  0.22826000  0.13593000  1.0
  C  C79  1  0.88064000  0.77177000  0.36404000  1.0
  C  C80  1  0.14400000  0.81989000  0.80256000  1.0
  C  C81  1  0.14369000  0.18007000  0.69746000  1.0
  C  C82  1  0.85610000  0.18009000  0.19741000  1.0
  C  C83  1  0.85622000  0.81992000  0.30255000  1.0
  C  C84  1  0.23278000  0.75982000  0.74588000  1.0
  C  C85  1  0.23246000  0.24012000  0.75414000  1.0
  C  C86  1  0.76733000  0.24014000  0.25411000  1.0
  C  C87  1  0.76745000  0.75987000  0.24586000  1.0
  C  C88  1  0.29501000  0.65202000  0.75297000  1.0
  C  C89  1  0.29469000  0.34790000  0.74706000  1.0
  C  C90  1  0.70511000  0.34795000  0.24705000  1.0
  C  C91  1  0.70520000  0.65209000  0.25294000  1.0
  C  C92  1  0.99280000  0.82960000  0.91703000  1.0
  C  C93  1  0.99256000  0.17035000  0.58298000  1.0
  C  C94  1  0.00729000  0.17041000  0.08295000  1.0
  C  C95  1  0.00737000  0.82963000  0.41702000  1.0
  C  C96  1  0.70307000  0.93845000  0.75290000  1.0
  C  C97  1  0.70298000  0.06144000  0.74708000  1.0
  C  C98  1  0.29696000  0.06155000  0.24708000  1.0
  C  C99  1  0.29702000  0.93855000  0.25289000  1.0
  C  C100  1  0.62513000  0.89694000  0.81046000  1.0
  C  C101  1  0.62492000  0.10297000  0.68954000  1.0
  C  C102  1  0.37498000  0.10306000  0.18953000  1.0
  C  C103  1  0.37508000  0.89703000  0.31044000  1.0
  C  C104  1  0.64376000  0.78214000  0.81582000  1.0
  C  C105  1  0.64344000  0.21778000  0.68420000  1.0
  C  C106  1  0.35637000  0.21787000  0.18417000  1.0
  C  C107  1  0.35653000  0.78223000  0.31580000  1.0
  C  C108  1  0.73063000  0.71184000  0.76289000  1.0
  C  C109  1  0.73029000  0.28808000  0.73714000  1.0
  C  C110  1  0.26950000  0.28817000  0.23711000  1.0
  C  C111  1  0.26967000  0.71192000  0.26288000  1.0
  C  C112  1  0.80026000  0.75943000  0.70688000  1.0
  C  C113  1  0.79998000  0.24045000  0.79312000  1.0
  C  C114  1  0.19982000  0.24057000  0.29310000  1.0
  C  C115  1  0.19997000  0.75953000  0.20689000  1.0
  C  C116  1  0.51276000  0.96593000  0.86465000  1.0
  C  C117  1  0.51262000  0.03400000  0.63534000  1.0
  C  C118  1  0.48733000  0.03406000  0.13534000  1.0
  C  C119  1  0.48736000  0.96602000  0.36464000  1.0
  N  N120  1  0.79011000  0.87037000  0.70219000  1.0
  N  N121  1  0.78995000  0.12952000  0.79779000  1.0
  N  N122  1  0.20993000  0.12963000  0.29778000  1.0
  N  N123  1  0.21001000  0.87046000  0.20220000  1.0
  N  N124  1  0.28887000  0.60951000  0.81353000  1.0
  N  N125  1  0.28849000  0.39041000  0.68650000  1.0
  N  N126  1  0.71125000  0.39048000  0.18649000  1.0
  N  N127  1  0.71141000  0.60957000  0.31350000  1.0
  N  N128  1  0.16675000  0.50135000  0.92265000  1.0
  N  N129  1  0.16650000  0.49867000  0.57742000  1.0
  N  N130  1  0.83323000  0.49869000  0.07738000  1.0
  N  N131  1  0.83339000  0.50130000  0.42259000  1.0
  O  O132  1  0.53342000  0.79146000  0.02762000  1.0
  O  O133  1  0.53318000  0.20853000  0.47243000  1.0
  O  O134  1  0.46667000  0.20857000  0.97238000  1.0
  O  O135  1  0.46677000  0.79147000  0.52756000  1.0
  O  O136  1  0.25687000  0.85717000  0.00507000  1.0
  O  O137  1  0.25667000  0.14281000  0.49496000  1.0
  O  O138  1  0.74325000  0.14288000  0.99493000  1.0
  O  O139  1  0.74330000  0.85714000  0.50504000  1.0
  O  O140  1  0.99245000  0.93918000  0.92823000  1.0
  O  O141  1  0.99228000  0.06079000  0.57176000  1.0
  O  O142  1  0.00765000  0.06084000  0.07175000  1.0
  O  O143  1  0.00765000  0.93920000  0.42824000  1.0
  O  O144  1  0.87907000  0.77444000  0.94729000  1.0
  O  O145  1  0.87878000  0.22551000  0.55270000  1.0
  O  O146  1  0.12102000  0.22556000  0.05268000  1.0
  O  O147  1  0.12113000  0.77448000  0.44730000  1.0
  O  O148  1  0.53842000  0.94950000  0.92863000  1.0
  O  O149  1  0.53826000  0.05046000  0.57137000  1.0
  O  O150  1  0.46167000  0.05051000  0.07136000  1.0
  O  O151  1  0.46168000  0.94957000  0.42861000  1.0
  O  O152  1  0.38787000  0.02942000  0.84901000  1.0
  O  O153  1  0.38777000  0.97052000  0.65098000  1.0
  O  O154  1  0.61221000  0.97058000  0.15098000  1.0
  O  O155  1  0.61221000  0.02950000  0.34901000  1.0
  O  O156  1  0.96854000  0.83833000  0.08918000  1.0
  O  O157  1  0.96843000  0.16170000  0.41080000  1.0
  O  O158  1  0.03156000  0.16170000  0.91078000  1.0
  O  O159  1  0.03157000  0.83828000  0.58919000  1.0
