# generated using pymatgen
data_Zn2H35C43(N3O2)4
_symmetry_space_group_name_H-M   'P 1'
_cell_length_a   16.47790000
_cell_length_b   17.83820000
_cell_length_c   28.87930000
_cell_angle_alpha   90.38010000
_cell_angle_beta   89.63560000
_cell_angle_gamma   89.93430000
_symmetry_Int_Tables_number   1
_chemical_formula_structural   Zn2H35C43(N3O2)4
_chemical_formula_sum   'Zn4 H70 C86 N24 O16'
_cell_volume   8488.30364576
_cell_formula_units_Z   2
loop_
 _symmetry_equiv_pos_site_id
 _symmetry_equiv_pos_as_xyz
  1  'x, y, z'
loop_
 _atom_site_type_symbol
 _atom_site_label
 _atom_site_symmetry_multiplicity
 _atom_site_fract_x
 _atom_site_fract_y
 _atom_site_fract_z
 _atom_site_occupancy
  Zn  Zn0  1  0.58040000  0.50025000  0.49826000  1.0
  Zn  Zn1  1  0.41136000  0.50037000  0.49963000  1.0
  Zn  Zn2  1  0.41422000  0.50331000  0.88129000  1.0
  Zn  Zn3  1  0.58366000  0.50385000  0.88094000  1.0
  H  H4  1  0.28349000  0.59397000  0.54202000  1.0
  H  H5  1  0.28500000  0.40509000  0.45803000  1.0
  H  H6  1  0.70550000  0.55797000  0.56126000  1.0
  H  H7  1  0.70903000  0.43894000  0.43779000  1.0
  H  H8  1  0.62398000  0.73142000  0.47477000  1.0
  H  H9  1  0.37138000  0.74301000  0.51126000  1.0
  H  H10  1  0.62450000  0.26918000  0.52725000  1.0
  H  H11  1  0.37342000  0.25759000  0.48931000  1.0
  H  H12  1  0.60587000  0.40584000  0.77468000  1.0
  H  H13  1  0.60551000  0.40690000  0.60264000  1.0
  H  H14  1  0.40629000  0.58987000  0.64706000  1.0
  H  H15  1  0.40703000  0.59021000  0.73384000  1.0
  H  H16  1  0.37375000  0.47454000  0.03012000  1.0
  H  H17  1  0.62951000  0.51976000  0.02548000  1.0
  H  H18  1  0.37467000  0.52292000  0.35341000  1.0
  H  H19  1  0.62646000  0.46109000  0.35240000  1.0
  H  H20  1  0.71146000  0.59136000  0.83430000  1.0
  H  H21  1  0.70960000  0.41267000  0.92498000  1.0
  H  H22  1  0.28816000  0.56468000  0.82064000  1.0
  H  H23  1  0.28613000  0.43768000  0.94004000  1.0
  H  H24  1  0.37031000  0.74318000  0.89848000  1.0
  H  H25  1  0.62667000  0.73802000  0.87126000  1.0
  H  H26  1  0.37266000  0.26581000  0.85815000  1.0
  H  H27  1  0.62910000  0.26711000  0.88352000  1.0
  H  H28  1  0.06441000  0.37764000  0.46004000  1.0
  H  H29  1  0.15493000  0.34452000  0.43934000  1.0
  H  H30  1  0.06222000  0.61831000  0.54177000  1.0
  H  H31  1  0.15220000  0.65360000  0.56100000  1.0
  H  H32  1  0.93047000  0.44025000  0.42368000  1.0
  H  H33  1  0.84061000  0.41084000  0.40076000  1.0
  H  H34  1  0.92578000  0.55332000  0.57863000  1.0
  H  H35  1  0.83459000  0.58269000  0.60062000  1.0
  H  H36  1  0.37537000  0.94567000  0.52984000  1.0
  H  H37  1  0.31827000  0.86671000  0.53308000  1.0
  H  H38  1  0.64587000  0.93533000  0.46940000  1.0
  H  H39  1  0.69191000  0.85138000  0.45912000  1.0
  H  H40  1  0.37742000  0.05421000  0.47406000  1.0
  H  H41  1  0.32094000  0.13338000  0.46888000  1.0
  H  H42  1  0.64496000  0.06573000  0.53699000  1.0
  H  H43  1  0.69062000  0.14991000  0.54630000  1.0
  H  H44  1  0.64182000  0.55212000  0.15031000  1.0
  H  H45  1  0.69269000  0.55578000  0.09909000  1.0
  H  H46  1  0.36858000  0.46372000  0.15663000  1.0
  H  H47  1  0.31490000  0.45052000  0.10718000  1.0
  H  H48  1  0.63867000  0.45543000  0.22581000  1.0
  H  H49  1  0.68823000  0.43647000  0.27579000  1.0
  H  H50  1  0.37023000  0.55661000  0.22895000  1.0
  H  H51  1  0.31671000  0.56059000  0.27934000  1.0
  H  H52  1  0.92966000  0.38166000  0.92165000  1.0
  H  H53  1  0.83933000  0.35166000  0.94389000  1.0
  H  H54  1  0.93221000  0.61730000  0.83547000  1.0
  H  H55  1  0.84238000  0.64937000  0.81421000  1.0
  H  H56  1  0.06502000  0.43936000  0.95513000  1.0
  H  H57  1  0.15494000  0.40824000  0.97683000  1.0
  H  H58  1  0.06820000  0.55849000  0.80293000  1.0
  H  H59  1  0.15861000  0.59053000  0.78200000  1.0
  H  H60  1  0.63735000  0.93917000  0.84897000  1.0
  H  H61  1  0.68914000  0.85695000  0.84808000  1.0
  H  H62  1  0.36325000  0.94804000  0.90431000  1.0
  H  H63  1  0.31004000  0.86757000  0.91223000  1.0
  H  H64  1  0.63876000  0.06407000  0.89875000  1.0
  H  H65  1  0.69098000  0.14576000  0.90222000  1.0
  H  H66  1  0.36473000  0.06172000  0.84544000  1.0
  H  H67  1  0.31175000  0.14305000  0.84073000  1.0
  H  H68  1  0.76961000  0.30589000  0.73080000  1.0
  H  H69  1  0.69611000  0.30701000  0.77638000  1.0
  H  H70  1  0.68780000  0.24208000  0.72972000  1.0
  H  H71  1  0.68663000  0.24305000  0.64366000  1.0
  H  H72  1  0.69907000  0.31065000  0.59906000  1.0
  H  H73  1  0.76983000  0.30533000  0.64539000  1.0
  C  C74  1  0.49318000  0.64625000  0.49244000  1.0
  C  C75  1  0.49919000  0.51154000  0.58905000  1.0
  C  C76  1  0.49505000  0.35429000  0.50714000  1.0
  C  C77  1  0.49881000  0.48807000  0.40897000  1.0
  C  C78  1  0.49801000  0.65002000  0.88687000  1.0
  C  C79  1  0.50023000  0.51271000  0.79039000  1.0
  C  C80  1  0.50012000  0.35700000  0.87273000  1.0
  C  C81  1  0.50001000  0.49299000  0.97173000  1.0
  C  C82  1  0.24657000  0.55244000  0.52400000  1.0
  C  C83  1  0.16159000  0.55448000  0.52548000  1.0
  C  C84  1  0.11828000  0.49848000  0.50073000  1.0
  C  C85  1  0.16247000  0.44307000  0.47556000  1.0
  C  C86  1  0.24743000  0.44616000  0.47636000  1.0
  C  C87  1  0.03303000  0.49802000  0.50097000  1.0
  C  C88  1  0.95862000  0.49772000  0.50103000  1.0
  C  C89  1  0.87337000  0.49774000  0.50063000  1.0
  C  C90  1  0.82857000  0.53351000  0.53670000  1.0
  C  C91  1  0.74361000  0.53247000  0.53443000  1.0
  C  C92  1  0.74567000  0.46445000  0.46498000  1.0
  C  C93  1  0.83064000  0.46199000  0.46408000  1.0
  C  C94  1  0.49740000  0.73041000  0.49307000  1.0
  C  C95  1  0.57128000  0.76577000  0.48354000  1.0
  C  C96  1  0.57705000  0.84393000  0.48567000  1.0
  C  C97  1  0.50738000  0.88715000  0.49782000  1.0
  C  C98  1  0.43230000  0.85048000  0.50691000  1.0
  C  C99  1  0.42814000  0.77231000  0.50435000  1.0
  C  C100  1  0.51157000  0.96584000  0.50082000  1.0
  C  C101  1  0.51197000  0.03455000  0.50419000  1.0
  C  C102  1  0.50805000  0.11331000  0.50635000  1.0
  C  C103  1  0.57731000  0.15660000  0.51841000  1.0
  C  C104  1  0.57189000  0.23483000  0.51892000  1.0
  C  C105  1  0.49868000  0.27022000  0.50817000  1.0
  C  C106  1  0.42969000  0.22829000  0.49719000  1.0
  C  C107  1  0.43360000  0.15003000  0.49596000  1.0
  C  C108  1  0.50176000  0.50884000  0.73856000  1.0
  C  C109  1  0.55549000  0.45930000  0.71414000  1.0
  C  C110  1  0.44861000  0.55405000  0.71442000  1.0
  C  C111  1  0.60595000  0.40672000  0.73695000  1.0
  C  C112  1  0.65404000  0.35605000  0.71293000  1.0
  C  C113  1  0.50138000  0.50876000  0.64088000  1.0
  C  C114  1  0.44831000  0.55399000  0.66577000  1.0
  C  C115  1  0.55538000  0.45946000  0.66439000  1.0
  C  C116  1  0.60605000  0.40747000  0.64041000  1.0
  C  C117  1  0.65424000  0.35656000  0.66340000  1.0
  C  C118  1  0.50163000  0.49600000  0.02368000  1.0
  C  C119  1  0.42988000  0.48510000  0.04881000  1.0
  C  C120  1  0.43060000  0.48811000  0.09717000  1.0
  C  C121  1  0.50456000  0.50386000  0.12050000  1.0
  C  C122  1  0.57682000  0.51631000  0.09447000  1.0
  C  C123  1  0.57479000  0.51122000  0.04617000  1.0
  C  C124  1  0.50579000  0.50578000  0.16917000  1.0
  C  C125  1  0.50459000  0.50466000  0.21167000  1.0
  C  C126  1  0.50340000  0.50113000  0.26030000  1.0
  C  C127  1  0.43046000  0.51660000  0.28523000  1.0
  C  C128  1  0.42965000  0.51109000  0.33348000  1.0
  C  C129  1  0.50025000  0.49111000  0.35704000  1.0
  C  C130  1  0.57240000  0.47598000  0.33295000  1.0
  C  C131  1  0.57481000  0.48068000  0.28467000  1.0
  C  C132  1  0.74833000  0.55231000  0.85411000  1.0
  C  C133  1  0.83331000  0.55409000  0.85273000  1.0
  C  C134  1  0.87643000  0.50025000  0.87898000  1.0
  C  C135  1  0.83218000  0.44717000  0.90547000  1.0
  C  C136  1  0.74730000  0.45101000  0.90495000  1.0
  C  C137  1  0.96166000  0.49973000  0.87891000  1.0
  C  C138  1  0.03605000  0.49965000  0.87912000  1.0
  C  C139  1  0.12125000  0.49999000  0.87948000  1.0
  C  C140  1  0.16554000  0.53793000  0.84442000  1.0
  C  C141  1  0.25046000  0.53714000  0.84661000  1.0
  C  C142  1  0.24930000  0.46503000  0.91381000  1.0
  C  C143  1  0.16434000  0.46249000  0.91493000  1.0
  C  C144  1  0.49846000  0.73404000  0.88499000  1.0
  C  C145  1  0.42614000  0.77393000  0.89151000  1.0
  C  C146  1  0.42621000  0.85218000  0.88918000  1.0
  C  C147  1  0.49988000  0.89045000  0.87895000  1.0
  C  C148  1  0.57284000  0.84909000  0.87202000  1.0
  C  C149  1  0.57149000  0.77109000  0.87574000  1.0
  C  C150  1  0.50071000  0.96898000  0.87586000  1.0
  C  C151  1  0.50140000  0.03764000  0.87343000  1.0
  C  C152  1  0.50159000  0.11631000  0.87169000  1.0
  C  C153  1  0.42814000  0.15582000  0.86317000  1.0
  C  C154  1  0.42838000  0.23416000  0.86354000  1.0
  C  C155  1  0.50078000  0.27300000  0.87107000  1.0
  C  C156  1  0.57379000  0.23483000  0.87821000  1.0
  C  C157  1  0.57483000  0.15657000  0.87925000  1.0
  C  C158  1  0.70448000  0.30007000  0.73887000  1.0
  C  C159  1  0.70511000  0.30118000  0.63639000  1.0
  N  N160  1  0.28669000  0.49956000  0.50001000  1.0
  N  N161  1  0.70500000  0.49900000  0.49930000  1.0
  N  N162  1  0.70823000  0.50228000  0.87983000  1.0
  N  N163  1  0.28954000  0.50162000  0.88052000  1.0
  N  N164  1  0.12207000  0.38962000  0.44989000  1.0
  N  N165  1  0.12031000  0.60761000  0.55135000  1.0
  N  N166  1  0.87228000  0.42405000  0.42965000  1.0
  N  N167  1  0.86814000  0.57024000  0.57204000  1.0
  N  N168  1  0.36396000  0.89379000  0.51653000  1.0
  N  N169  1  0.65029000  0.88033000  0.47808000  1.0
  N  N170  1  0.36562000  0.10677000  0.48630000  1.0
  N  N171  1  0.65005000  0.12025000  0.52734000  1.0
  N  N172  1  0.64873000  0.53016000  0.11792000  1.0
  N  N173  1  0.36011000  0.47899000  0.12312000  1.0
  N  N174  1  0.64616000  0.46857000  0.25985000  1.0
  N  N175  1  0.36064000  0.53397000  0.26076000  1.0
  N  N176  1  0.87257000  0.39546000  0.93215000  1.0
  N  N177  1  0.87468000  0.60483000  0.82560000  1.0
  N  N178  1  0.12297000  0.42287000  0.94841000  1.0
  N  N179  1  0.12526000  0.57639000  0.81024000  1.0
  N  N180  1  0.64458000  0.88772000  0.86340000  1.0
  N  N181  1  0.35530000  0.89358000  0.89467000  1.0
  N  N182  1  0.64632000  0.11676000  0.88611000  1.0
  N  N183  1  0.35705000  0.11531000  0.85694000  1.0
  O  O184  1  0.55862000  0.61094000  0.48300000  1.0
  O  O185  1  0.42494000  0.61611000  0.50182000  1.0
  O  O186  1  0.43071000  0.50001000  0.57021000  1.0
  O  O187  1  0.56557000  0.52552000  0.56796000  1.0
  O  O188  1  0.42719000  0.38470000  0.49758000  1.0
  O  O189  1  0.56078000  0.38948000  0.51553000  1.0
  O  O190  1  0.56536000  0.47288000  0.42930000  1.0
  O  O191  1  0.43131000  0.50180000  0.42906000  1.0
  O  O192  1  0.42914000  0.61765000  0.88530000  1.0
  O  O193  1  0.56667000  0.61737000  0.88943000  1.0
  O  O194  1  0.56820000  0.51863000  0.81083000  1.0
  O  O195  1  0.43081000  0.51032000  0.81001000  1.0
  O  O196  1  0.56869000  0.39000000  0.87063000  1.0
  O  O197  1  0.43128000  0.38907000  0.87650000  1.0
  O  O198  1  0.43078000  0.49575000  0.95234000  1.0
  O  O199  1  0.56833000  0.48856000  0.95091000  1.0
