# generated using pymatgen
data_ZnH9C11N3O4
_symmetry_space_group_name_H-M   'P 1'
_cell_length_a   7.54086000
_cell_length_b   12.22270000
_cell_length_c   12.43930000
_cell_angle_alpha   92.89040000
_cell_angle_beta   90.00000000
_cell_angle_gamma   90.00000000
_symmetry_Int_Tables_number   1
_chemical_formula_structural   ZnH9C11N3O4
_chemical_formula_sum   'Zn4 H36 C44 N12 O16'
_cell_volume   1145.06758253
_cell_formula_units_Z   4
loop_
 _symmetry_equiv_pos_site_id
 _symmetry_equiv_pos_as_xyz
  1  'x, y, z'
loop_
 _atom_site_type_symbol
 _atom_site_label
 _atom_site_symmetry_multiplicity
 _atom_site_fract_x
 _atom_site_fract_y
 _atom_site_fract_z
 _atom_site_occupancy
  Zn  Zn0  1  0.83026000  0.71649000  0.92712000  1.0
  Zn  Zn1  1  0.33026000  0.78351000  0.57288000  1.0
  Zn  Zn2  1  0.16974000  0.28351000  0.07288000  1.0
  Zn  Zn3  1  0.66974000  0.21649000  0.42712000  1.0
  H  H4  1  0.83084000  0.97031000  0.91686000  1.0
  H  H5  1  0.33084000  0.52969000  0.58314000  1.0
  H  H6  1  0.16916000  0.02969000  0.08314000  1.0
  H  H7  1  0.66916000  0.47031000  0.41686000  1.0
  H  H8  1  0.72953000  0.13125000  0.03383000  1.0
  H  H9  1  0.22953000  0.36875000  0.46617000  1.0
  H  H10  1  0.27047000  0.86875000  0.96617000  1.0
  H  H11  1  0.77047000  0.63125000  0.53383000  1.0
  H  H12  1  0.58813000  0.09259000  0.21374000  1.0
  H  H13  1  0.08813000  0.40741000  0.28626000  1.0
  H  H14  1  0.41187000  0.90741000  0.78626000  1.0
  H  H15  1  0.91187000  0.59259000  0.71374000  1.0
  H  H16  1  0.56362000  0.90196000  0.26814000  1.0
  H  H17  1  0.06362000  0.59804000  0.23186000  1.0
  H  H18  1  0.43638000  0.09804000  0.73186000  1.0
  H  H19  1  0.93638000  0.40196000  0.76814000  1.0
  H  H20  1  0.59974000  0.47961000  0.24653000  1.0
  H  H21  1  0.09974000  0.02039000  0.25347000  1.0
  H  H22  1  0.40026000  0.52039000  0.75347000  1.0
  H  H23  1  0.90026000  0.97961000  0.74653000  1.0
  H  H24  1  0.58328000  0.70018000  0.31468000  1.0
  H  H25  1  0.08328000  0.79982000  0.18532000  1.0
  H  H26  1  0.41672000  0.29982000  0.68532000  1.0
  H  H27  1  0.91672000  0.20018000  0.81468000  1.0
  H  H28  1  0.69105000  0.47319000  0.94717000  1.0
  H  H29  1  0.19105000  0.02681000  0.55283000  1.0
  H  H30  1  0.30895000  0.52681000  0.05283000  1.0
  H  H31  1  0.80895000  0.97319000  0.44717000  1.0
  H  H32  1  0.59080000  0.39385000  0.04758000  1.0
  H  H33  1  0.09080000  0.10615000  0.45242000  1.0
  H  H34  1  0.40920000  0.60615000  0.95242000  1.0
  H  H35  1  0.90920000  0.89385000  0.54758000  1.0
  H  H36  1  0.15085000  0.71607000  0.77669000  1.0
  H  H37  1  0.65085000  0.78393000  0.72331000  1.0
  H  H38  1  0.84915000  0.28393000  0.22331000  1.0
  H  H39  1  0.34915000  0.21607000  0.27669000  1.0
  C  C40  1  0.68336000  0.83461000  0.12077000  1.0
  C  C41  1  0.18336000  0.66539000  0.37923000  1.0
  C  C42  1  0.31664000  0.16539000  0.87923000  1.0
  C  C43  1  0.81664000  0.33461000  0.62077000  1.0
  C  C44  1  0.77038000  0.95946000  0.99506000  1.0
  C  C45  1  0.27038000  0.54054000  0.50494000  1.0
  C  C46  1  0.22962000  0.04054000  0.00494000  1.0
  C  C47  1  0.72962000  0.45946000  0.49506000  1.0
  C  C48  1  0.71267000  0.04819000  0.06043000  1.0
  C  C49  1  0.21267000  0.45181000  0.43957000  1.0
  C  C50  1  0.28732000  0.95181000  0.93957000  1.0
  C  C51  1  0.78732000  0.54819000  0.56043000  1.0
  C  C52  1  0.63627000  0.02678000  0.15941000  1.0
  C  C53  1  0.13626000  0.47321000  0.34059000  1.0
  C  C54  1  0.36373000  0.97322000  0.84059000  1.0
  C  C55  1  0.86373000  0.52678000  0.65941000  1.0
  C  C56  1  0.62206000  0.91940000  0.19076000  1.0
  C  C57  1  0.12206000  0.58060000  0.30925000  1.0
  C  C58  1  0.37794000  0.08060000  0.80925000  1.0
  C  C59  1  0.87794000  0.41940000  0.69076000  1.0
  C  C60  1  0.67138000  0.71893000  0.14394000  1.0
  C  C61  1  0.17139000  0.78107000  0.35606000  1.0
  C  C62  1  0.32862000  0.28107000  0.85606000  1.0
  C  C63  1  0.82862000  0.21893000  0.64394000  1.0
  C  C64  1  0.63003000  0.55358000  0.20527000  1.0
  C  C65  1  0.13003000  0.94642000  0.29473000  1.0
  C  C66  1  0.36997000  0.44642000  0.79473000  1.0
  C  C67  1  0.86997000  0.05358000  0.70527000  1.0
  C  C68  1  0.61944000  0.66414000  0.23619000  1.0
  C  C69  1  0.11944000  0.83586000  0.26381000  1.0
  C  C70  1  0.38056000  0.33586000  0.76381000  1.0
  C  C71  1  0.88056000  0.16414000  0.73619000  1.0
  C  C72  1  0.70203000  0.44833000  0.03038000  1.0
  C  C73  1  0.20202000  0.05167000  0.46962000  1.0
  C  C74  1  0.29797000  0.55167000  0.96962000  1.0
  C  C75  1  0.79797000  0.94833000  0.53038000  1.0
  C  C76  1  0.87216000  0.38244000  0.03990000  1.0
  C  C77  1  0.37216000  0.11757000  0.46010000  1.0
  C  C78  1  0.12784000  0.61757000  0.96010000  1.0
  C  C79  1  0.62784000  0.88244000  0.53990000  1.0
  C  C80  1  0.06818000  0.78447000  0.75014000  1.0
  C  C81  1  0.56818000  0.71553000  0.74986000  1.0
  C  C82  1  0.93182000  0.21553000  0.24986000  1.0
  C  C83  1  0.43182000  0.28447000  0.25014000  1.0
  N  N84  1  0.75569000  0.85555000  0.02387000  1.0
  N  N85  1  0.25569000  0.64445000  0.47612000  1.0
  N  N86  1  0.24431000  0.14445000  0.97612000  1.0
  N  N87  1  0.74431000  0.35555000  0.52388000  1.0
  N  N88  1  0.71190000  0.64558000  0.06314000  1.0
  N  N89  1  0.21190000  0.85442000  0.43686000  1.0
  N  N90  1  0.28810000  0.35442000  0.93686000  1.0
  N  N91  1  0.78810000  0.14558000  0.56314000  1.0
  N  N92  1  0.68618000  0.54602000  0.10110000  1.0
  N  N93  1  0.18618000  0.95398000  0.39890000  1.0
  N  N94  1  0.31382000  0.45398000  0.89890000  1.0
  N  N95  1  0.81382000  0.04602000  0.60110000  1.0
  O  O96  1  0.99495000  0.41687000  0.10418000  1.0
  O  O97  1  0.49495000  0.08313000  0.39582000  1.0
  O  O98  1  0.00505000  0.58313000  0.89582000  1.0
  O  O99  1  0.50505000  0.91687000  0.60418000  1.0
  O  O100  1  0.88068000  0.29363000  0.98396000  1.0
  O  O101  1  0.38068000  0.20637000  0.51604000  1.0
  O  O102  1  0.11932000  0.70637000  0.01604000  1.0
  O  O103  1  0.61932000  0.79363000  0.48396000  1.0
  O  O104  1  0.93196000  0.81218000  0.80491000  1.0
  O  O105  1  0.43196000  0.68782000  0.69509000  1.0
  O  O106  1  0.06804000  0.18782000  0.19509000  1.0
  O  O107  1  0.56804000  0.31218000  0.30491000  1.0
  O  O108  1  0.11503000  0.83122000  0.66582000  1.0
  O  O109  1  0.61503000  0.66878000  0.83418000  1.0
  O  O110  1  0.88497000  0.16878000  0.33418000  1.0
  O  O111  1  0.38497000  0.33122000  0.16582000  1.0
