# generated using pymatgen
data_CdH24C24(N6Cl)2
_symmetry_space_group_name_H-M   'P 1'
_cell_length_a   7.56180000
_cell_length_b   8.82939000
_cell_length_c   11.33440000
_cell_angle_alpha   105.64200000
_cell_angle_beta   90.41260000
_cell_angle_gamma   111.59200000
_symmetry_Int_Tables_number   1
_chemical_formula_structural   CdH24C24(N6Cl)2
_chemical_formula_sum   'Cd1 H24 C24 N12 Cl2'
_cell_volume   672.78786342
_cell_formula_units_Z   1
loop_
 _symmetry_equiv_pos_site_id
 _symmetry_equiv_pos_as_xyz
  1  'x, y, z'
loop_
 _atom_site_type_symbol
 _atom_site_label
 _atom_site_symmetry_multiplicity
 _atom_site_fract_x
 _atom_site_fract_y
 _atom_site_fract_z
 _atom_site_occupancy
  Cd  Cd0  1  0.00000000  0.50000000  0.50000000  1.0
  H  H1  1  0.23191000  0.00654000  0.86828000  1.0
  H  H2  1  0.76809000  0.99346000  0.13172000  1.0
  H  H3  1  0.69931000  0.40456000  0.78393000  1.0
  H  H4  1  0.30069000  0.59544000  0.21607000  1.0
  H  H5  1  0.81517000  0.53817000  0.00782000  1.0
  H  H6  1  0.18483000  0.46183000  0.99218000  1.0
  H  H7  1  0.63455000  0.40536000  0.16220000  1.0
  H  H8  1  0.36545000  0.59465000  0.83780000  1.0
  H  H9  1  0.21782000  0.98196000  0.07203000  1.0
  H  H10  1  0.78218000  0.01804000  0.92797000  1.0
  H  H11  1  0.41308000  0.11634000  0.19069000  1.0
  H  H12  1  0.58692000  0.88366000  0.80931000  1.0
  H  H13  1  0.48521000  0.16778000  0.61702000  1.0
  H  H14  1  0.51479000  0.83222000  0.38298000  1.0
  H  H15  1  0.32054000  0.98250000  0.64917000  1.0
  H  H16  1  0.67946000  0.01750000  0.35082000  1.0
  H  H17  1  0.87055000  0.34373000  0.18128000  1.0
  H  H18  1  0.12945000  0.65627000  0.81872000  1.0
  H  H19  1  0.32519000  0.29829000  0.36640000  1.0
  H  H20  1  0.67481000  0.70171000  0.63359000  1.0
  H  H21  1  0.79050000  0.13973000  0.63174000  1.0
  H  H22  1  0.20950000  0.86027000  0.36826000  1.0
  H  H23  1  0.36752000  0.39417000  0.59088000  1.0
  H  H24  1  0.63248000  0.60584000  0.40911000  1.0
  C  C25  1  0.42586000  0.19427000  0.02420000  1.0
  C  C26  1  0.57414000  0.80573000  0.97580000  1.0
  C  C27  1  0.36109000  0.12188000  0.89857000  1.0
  C  C28  1  0.63892000  0.87812000  0.10143000  1.0
  C  C29  1  0.45724000  0.19770000  0.81162000  1.0
  C  C30  1  0.54277000  0.80230000  0.18838000  1.0
  C  C31  1  0.62301000  0.34609000  0.85169000  1.0
  C  C32  1  0.37699000  0.65391000  0.14831000  1.0
  C  C33  1  0.68876000  0.42009000  0.97748000  1.0
  C  C34  1  0.31124000  0.57992000  0.02252000  1.0
  C  C35  1  0.58886000  0.34549000  0.06341000  1.0
  C  C36  1  0.41114000  0.65451000  0.93659000  1.0
  C  C37  1  0.31620000  0.11388000  0.11682000  1.0
  C  C38  1  0.68380000  0.88612000  0.88318000  1.0
  C  C39  1  0.37667000  0.12237000  0.67707000  1.0
  C  C40  1  0.62333000  0.87763000  0.32293000  1.0
  C  C41  1  0.99009000  0.31107000  0.20069000  1.0
  C  C42  1  0.00991000  0.68893000  0.79931000  1.0
  C  C43  1  0.21682000  0.28960000  0.29838000  1.0
  C  C44  1  0.78318000  0.71040000  0.70162000  1.0
  C  C45  1  0.94411000  0.17545000  0.63287000  1.0
  C  C46  1  0.05589000  0.82454000  0.36713000  1.0
  C  C47  1  0.23470000  0.30749000  0.61119000  1.0
  C  C48  1  0.76530000  0.69251000  0.38881000  1.0
  N  N49  1  0.20203000  0.20800000  0.17792000  1.0
  N  N50  1  0.79797000  0.79200000  0.82208000  1.0
  N  N51  1  0.05804000  0.22049000  0.11338000  1.0
  N  N52  1  0.94196000  0.77951000  0.88662000  1.0
  N  N53  1  0.08327000  0.35653000  0.31585000  1.0
  N  N54  1  0.91673000  0.64347000  0.68415000  1.0
  N  N55  1  0.22023000  0.17259000  0.64959000  1.0
  N  N56  1  0.77977000  0.82741000  0.35041000  1.0
  N  N57  1  0.03522000  0.08652000  0.66492000  1.0
  N  N58  1  0.96479000  0.91348000  0.33509000  1.0
  N  N59  1  0.06134000  0.31322000  0.59951000  1.0
  N  N60  1  0.93866000  0.68677000  0.40049000  1.0
  Cl  Cl61  1  0.36858000  0.70187000  0.56282000  1.0
  Cl  Cl62  1  0.63142000  0.29813000  0.43718000  1.0
