# generated using pymatgen
data_AgH6C4N3
_symmetry_space_group_name_H-M   'P 1'
_cell_length_a   4.78178000
_cell_length_b   11.01948095
_cell_length_c   11.01950540
_cell_angle_alpha   87.30296112
_cell_angle_beta   77.49955745
_cell_angle_gamma   77.49982927
_symmetry_Int_Tables_number   1
_chemical_formula_structural   AgH6C4N3
_chemical_formula_sum   'Ag4 H24 C16 N12'
_cell_volume   553.44544466
_cell_formula_units_Z   4
loop_
 _symmetry_equiv_pos_site_id
 _symmetry_equiv_pos_as_xyz
  1  'x, y, z'
loop_
 _atom_site_type_symbol
 _atom_site_label
 _atom_site_symmetry_multiplicity
 _atom_site_fract_x
 _atom_site_fract_y
 _atom_site_fract_z
 _atom_site_occupancy
  Ag  Ag0  1  0.37500000  0.08013000  0.41987000  1.0
  Ag  Ag1  1  0.87499000  0.91982000  0.58019000  1.0
  Ag  Ag2  1  0.54443000  0.58025000  0.08016000  1.0
  Ag  Ag3  1  0.20557000  0.41984000  0.91975000  1.0
  H  H4  1  0.81618000  0.80896000  0.07154000  1.0
  H  H5  1  0.69556000  0.19017000  0.92919000  1.0
  H  H6  1  0.37584000  0.92879000  0.80901000  1.0
  H  H7  1  0.11368000  0.07092000  0.19044000  1.0
  H  H8  1  0.93382000  0.42846000  0.69104000  1.0
  H  H9  1  0.05444000  0.57081000  0.30983000  1.0
  H  H10  1  0.37417000  0.69099000  0.57120000  1.0
  H  H11  1  0.63632000  0.30956000  0.42908000  1.0
  H  H12  1  0.91181000  0.88779000  0.18865000  1.0
  H  H13  1  0.98788000  0.11226000  0.81209000  1.0
  H  H14  1  0.20032000  0.81192000  0.88750000  1.0
  H  H15  1  0.89996000  0.18807000  0.11217000  1.0
  H  H16  1  0.83819000  0.31135000  0.61221000  1.0
  H  H17  1  0.76212000  0.68791000  0.38774000  1.0
  H  H18  1  0.54968000  0.61250000  0.68808000  1.0
  H  H19  1  0.85004000  0.38783000  0.31193000  1.0
  H  H20  1  0.65441000  0.96931000  0.10446000  1.0
  H  H21  1  0.72804000  0.03000000  0.89511000  1.0
  H  H22  1  0.37712000  0.89545000  0.96933000  1.0
  H  H23  1  0.24167000  0.10464000  0.03023000  1.0
  H  H24  1  0.09558000  0.39554000  0.53070000  1.0
  H  H25  1  0.02195000  0.60489000  0.47001000  1.0
  H  H26  1  0.37289000  0.53067000  0.60454000  1.0
  H  H27  1  0.50831000  0.46978000  0.39536000  1.0
  C  C28  1  0.73111000  0.87867000  0.14547000  1.0
  C  C29  1  0.75490000  0.12092000  0.85480000  1.0
  C  C30  1  0.39061000  0.85472000  0.87862000  1.0
  C  C31  1  0.12408000  0.14517000  0.12104000  1.0
  C  C32  1  0.01889000  0.35453000  0.62133000  1.0
  C  C33  1  0.99510000  0.64520000  0.37908000  1.0
  C  C34  1  0.35940000  0.62138000  0.64528000  1.0
  C  C35  1  0.62591000  0.37897000  0.35483000  1.0
  C  C36  1  0.49098000  0.84069000  0.23901000  1.0
  C  C37  1  0.57137000  0.15937000  0.76092000  1.0
  C  C38  1  0.66804000  0.76094000  0.84055000  1.0
  C  C39  1  0.26981000  0.23893000  0.15933000  1.0
  C  C40  1  0.25901000  0.26099000  0.65932000  1.0
  C  C41  1  0.17863000  0.73908000  0.34063000  1.0
  C  C42  1  0.08198000  0.65944000  0.73906000  1.0
  C  C43  1  0.48018000  0.34067000  0.26108000  1.0
  N  N44  1  0.39077000  0.73460000  0.23526000  1.0
  N  N45  1  0.35923000  0.26474000  0.76540000  1.0
  N  N46  1  0.87500000  0.76513000  0.73487000  1.0
  N  N47  1  0.37500000  0.23486000  0.26514000  1.0
  N  N48  1  0.34874000  0.90735000  0.34093000  1.0
  N  N49  1  0.60098000  0.09388000  0.65786000  1.0
  N  N50  1  0.74253000  0.65845000  0.90668000  1.0
  N  N51  1  0.30789000  0.34145000  0.09325000  1.0
  N  N52  1  0.40126000  0.15907000  0.59265000  1.0
  N  N53  1  0.14901000  0.84214000  0.40612000  1.0
  N  N54  1  0.00748000  0.59332000  0.84155000  1.0
  N  N55  1  0.44211000  0.40675000  0.15855000  1.0
