# generated using pymatgen
data_MnFeH18C30S2N2(OF3)4
_symmetry_space_group_name_H-M   'P 1'
_cell_length_a   8.49082000
_cell_length_b   10.16800000
_cell_length_c   10.68280000
_cell_angle_alpha   95.42930000
_cell_angle_beta   112.47700000
_cell_angle_gamma   98.52860000
_symmetry_Int_Tables_number   1
_chemical_formula_structural   MnFeH18C30S2N2(OF3)4
_chemical_formula_sum   'Mn1 Fe1 H18 C30 S2 N2 O4 F12'
_cell_volume   831.17313644
_cell_formula_units_Z   1
loop_
 _symmetry_equiv_pos_site_id
 _symmetry_equiv_pos_as_xyz
  1  'x, y, z'
loop_
 _atom_site_type_symbol
 _atom_site_label
 _atom_site_symmetry_multiplicity
 _atom_site_fract_x
 _atom_site_fract_y
 _atom_site_fract_z
 _atom_site_occupancy
  Mn  Mn0  1  0.50000000  0.50000000  0.00000000  1.0
  Fe  Fe1  1  0.00000000  0.00000000  0.50000000  1.0
  H  H2  1  0.66246000  0.51213000  0.32046000  1.0
  H  H3  1  0.33753000  0.48787000  0.67954000  1.0
  H  H4  1  0.60464000  0.40328000  0.50093000  1.0
  H  H5  1  0.39535000  0.59671000  0.49907000  1.0
  H  H6  1  0.17283000  0.12668000  0.17746000  1.0
  H  H7  1  0.82716000  0.87331000  0.82254000  1.0
  H  H8  1  0.24994000  0.24543000  0.00986000  1.0
  H  H9  1  0.75006000  0.75457000  0.99014000  1.0
  H  H10  1  0.16441000  0.88395000  0.34782000  1.0
  H  H11  1  0.83559000  0.11604000  0.65217000  1.0
  H  H12  1  0.81180000  0.81567000  0.25260000  1.0
  H  H13  1  0.18819000  0.18433000  0.74739000  1.0
  H  H14  1  0.69229000  0.04139000  0.29233000  1.0
  H  H15  1  0.30771000  0.95861000  0.70767000  1.0
  H  H16  1  0.97006000  0.24959000  0.41348000  1.0
  H  H17  1  0.02994000  0.75040000  0.58652000  1.0
  H  H18  1  0.02826000  0.69358000  0.87038000  1.0
  H  H19  1  0.97174000  0.30642000  0.12963000  1.0
  C  C20  1  0.55698000  0.42472000  0.29247000  1.0
  C  C21  1  0.44302000  0.57528000  0.70753000  1.0
  C  C22  1  0.52482000  0.36370000  0.39319000  1.0
  C  C23  1  0.47518000  0.63630000  0.60681000  1.0
  C  C24  1  0.38319000  0.25515000  0.35450000  1.0
  C  C25  1  0.61681000  0.74485000  0.64550000  1.0
  C  C26  1  0.28320000  0.21098000  0.21364000  1.0
  C  C27  1  0.71680000  0.78902000  0.78636000  1.0
  C  C28  1  0.32631000  0.27733000  0.11993000  1.0
  C  C29  1  0.67368000  0.72267000  0.88007000  1.0
  C  C30  1  0.12780000  0.09400000  0.39831000  1.0
  C  C31  1  0.87220000  0.90600000  0.60169000  1.0
  C  C32  1  0.07626000  0.95139000  0.34593000  1.0
  C  C33  1  0.92374000  0.04860000  0.65407000  1.0
  C  C34  1  0.89081000  0.91641000  0.29565000  1.0
  C  C35  1  0.10918000  0.08358000  0.70435000  1.0
  C  C36  1  0.82747000  0.03626000  0.31683000  1.0
  C  C37  1  0.17253000  0.96374000  0.68317000  1.0
  C  C38  1  0.97287000  0.14621000  0.38026000  1.0
  C  C39  1  0.02713000  0.85378000  0.61974000  1.0
  C  C40  1  0.28497000  0.85705000  0.08018000  1.0
  C  C41  1  0.71504000  0.14296000  0.91982000  1.0
  C  C42  1  0.28694000  0.71158000  0.02373000  1.0
  C  C43  1  0.71306000  0.28843000  0.97628000  1.0
  C  C44  1  0.13683000  0.64284000  0.90976000  1.0
  C  C45  1  0.86316000  0.35716000  0.09025000  1.0
  C  C46  1  0.12219000  0.51399000  0.84262000  1.0
  C  C47  1  0.87782000  0.48601000  0.15739000  1.0
  C  C48  1  0.95272000  0.45377000  0.71601000  1.0
  C  C49  1  0.04728000  0.54624000  0.28399000  1.0
  S  S50  1  0.34124000  0.18669000  0.48551000  1.0
  S  S51  1  0.65876000  0.81330000  0.51449000  1.0
  N  N52  1  0.45985000  0.38354000  0.15683000  1.0
  N  N53  1  0.54014000  0.61645000  0.84317000  1.0
  O  O54  1  0.42734000  0.67257000  0.08343000  1.0
  O  O55  1  0.57266000  0.32743000  0.91658000  1.0
  O  O56  1  0.23041000  0.43596000  0.87127000  1.0
  O  O57  1  0.76959000  0.56404000  0.12875000  1.0
  F  F58  1  0.12044000  0.87842000  0.05260000  1.0
  F  F59  1  0.87957000  0.12159000  0.94741000  1.0
  F  F60  1  0.35915000  0.94771000  0.02238000  1.0
  F  F61  1  0.64085000  0.05229000  0.97761000  1.0
  F  F62  1  0.37620000  0.88760000  0.21828000  1.0
  F  F63  1  0.62381000  0.11241000  0.78172000  1.0
  F  F64  1  0.85044000  0.54490000  0.66932000  1.0
  F  F65  1  0.14958000  0.45510000  0.33068000  1.0
  F  F66  1  0.85421000  0.35166000  0.74485000  1.0
  F  F67  1  0.14579000  0.64835000  0.25514000  1.0
  F  F68  1  0.98704000  0.40051000  0.60939000  1.0
  F  F69  1  0.01298000  0.59951000  0.39062000  1.0
