# generated using pymatgen
data_CdH20C28(NO2)4
_symmetry_space_group_name_H-M   'P 1'
_cell_length_a   7.69889000
_cell_length_b   18.10650000
_cell_length_c   21.59370000
_cell_angle_alpha   87.39940000
_cell_angle_beta   89.99850000
_cell_angle_gamma   89.99900000
_symmetry_Int_Tables_number   1
_chemical_formula_structural   CdH20C28(NO2)4
_chemical_formula_sum   'Cd4 H80 C112 N16 O32'
_cell_volume   3007.06055692
_cell_formula_units_Z   4
loop_
 _symmetry_equiv_pos_site_id
 _symmetry_equiv_pos_as_xyz
  1  'x, y, z'
loop_
 _atom_site_type_symbol
 _atom_site_label
 _atom_site_symmetry_multiplicity
 _atom_site_fract_x
 _atom_site_fract_y
 _atom_site_fract_z
 _atom_site_occupancy
  Cd  Cd0  1  0.27680000  0.41605000  0.85524000  1.0
  Cd  Cd1  1  0.27684000  0.08394000  0.64476000  1.0
  Cd  Cd2  1  0.72318000  0.58394000  0.14476000  1.0
  Cd  Cd3  1  0.72319000  0.91605000  0.35524000  1.0
  H  H4  1  0.75312000  0.30858000  0.57712000  1.0
  H  H5  1  0.75308000  0.19140000  0.92287000  1.0
  H  H6  1  0.24689000  0.69140000  0.42288000  1.0
  H  H7  1  0.24695000  0.80861000  0.07712000  1.0
  H  H8  1  0.02634000  0.31833000  0.63789000  1.0
  H  H9  1  0.02632000  0.18164000  0.86210000  1.0
  H  H10  1  0.97367000  0.68164000  0.36210000  1.0
  H  H11  1  0.97372000  0.81835000  0.13789000  1.0
  H  H12  1  0.70796000  0.35211000  0.79960000  1.0
  H  H13  1  0.70798000  0.14791000  0.70038000  1.0
  H  H14  1  0.29205000  0.64791000  0.20039000  1.0
  H  H15  1  0.29206000  0.85210000  0.29960000  1.0
  H  H16  1  0.44712000  0.33343000  0.73391000  1.0
  H  H17  1  0.44713000  0.16660000  0.76607000  1.0
  H  H18  1  0.55289000  0.66659000  0.26608000  1.0
  H  H19  1  0.55292000  0.83343000  0.23391000  1.0
  H  H20  1  0.45619000  0.33635000  0.56980000  1.0
  H  H21  1  0.45615000  0.16365000  0.93018000  1.0
  H  H22  1  0.54383000  0.66363000  0.43019000  1.0
  H  H23  1  0.54388000  0.83636000  0.06981000  1.0
  H  H24  1  0.33487000  0.35120000  0.63731000  1.0
  H  H25  1  0.33484000  0.14881000  0.86267000  1.0
  H  H26  1  0.66515000  0.64881000  0.36267000  1.0
  H  H27  1  0.66519000  0.85120000  0.13732000  1.0
  H  H28  1  0.04589000  0.53118000  0.70661000  1.0
  H  H29  1  0.04597000  0.96881000  0.79339000  1.0
  H  H30  1  0.95401000  0.46880000  0.29339000  1.0
  H  H31  1  0.95411000  0.03118000  0.20661000  1.0
  H  H32  1  0.78545000  0.51486000  0.77601000  1.0
  H  H33  1  0.78552000  0.98515000  0.72399000  1.0
  H  H34  1  0.21446000  0.48514000  0.22399000  1.0
  H  H35  1  0.21454000  0.01486000  0.27601000  1.0
  H  H36  1  0.46526000  0.51337000  0.61127000  1.0
  H  H37  1  0.46535000  0.98666000  0.88874000  1.0
  H  H38  1  0.53464000  0.48664000  0.38873000  1.0
  H  H39  1  0.53476000  0.01337000  0.11128000  1.0
  H  H40  1  0.73666000  0.52989000  0.54799000  1.0
  H  H41  1  0.73676000  0.97011000  0.95202000  1.0
  H  H42  1  0.26324000  0.47009000  0.45201000  1.0
  H  H43  1  0.26337000  0.02989000  0.04799000  1.0
  H  H44  1  0.16072000  0.55750000  0.61847000  1.0
  H  H45  1  0.16082000  0.94252000  0.88152000  1.0
  H  H46  1  0.83917000  0.44250000  0.38152000  1.0
  H  H47  1  0.83931000  0.05751000  0.11848000  1.0
  H  H48  1  0.03470000  0.57719000  0.54870000  1.0
  H  H49  1  0.03482000  0.92279000  0.95129000  1.0
  H  H50  1  0.96517000  0.42278000  0.45129000  1.0
  H  H51  1  0.96532000  0.07720000  0.04871000  1.0
  H  H52  1  0.06561000  0.66166000  0.06592000  1.0
  H  H53  1  0.06562000  0.83834000  0.43408000  1.0
  H  H54  1  0.93437000  0.33833000  0.93408000  1.0
  H  H55  1  0.93438000  0.16167000  0.56591000  1.0
  H  H56  1  0.22055000  0.56793000  0.13130000  1.0
  H  H57  1  0.22055000  0.93207000  0.36870000  1.0
  H  H58  1  0.77942000  0.43206000  0.86871000  1.0
  H  H59  1  0.77945000  0.06794000  0.63129000  1.0
  H  H60  1  0.09735000  0.57463000  0.80442000  1.0
  H  H61  1  0.09743000  0.92535000  0.69559000  1.0
  H  H62  1  0.90261000  0.42536000  0.19559000  1.0
  H  H63  1  0.90263000  0.07463000  0.30441000  1.0
  H  H64  1  0.96316000  0.69001000  0.84498000  1.0
  H  H65  1  0.96320000  0.80999000  0.65503000  1.0
  H  H66  1  0.03683000  0.30999000  0.15503000  1.0
  H  H67  1  0.03682000  0.19000000  0.34497000  1.0
  H  H68  1  0.97330000  0.70884000  0.95988000  1.0
  H  H69  1  0.97330000  0.79117000  0.54012000  1.0
  H  H70  1  0.02669000  0.29116000  0.04012000  1.0
  H  H71  1  0.02669000  0.20883000  0.45987000  1.0
  H  H72  1  0.46133000  0.32743000  0.97576000  1.0
  H  H73  1  0.46135000  0.17256000  0.52424000  1.0
  H  H74  1  0.53865000  0.67256000  0.02425000  1.0
  H  H75  1  0.53862000  0.82744000  0.47577000  1.0
  H  H76  1  0.50856000  0.33847000  0.09000000  1.0
  H  H77  1  0.50854000  0.16153000  0.40999000  1.0
  H  H78  1  0.49143000  0.66152000  0.91000000  1.0
  H  H79  1  0.49142000  0.83849000  0.59001000  1.0
  H  H80  1  0.39347000  0.45122000  0.14073000  1.0
  H  H81  1  0.39347000  0.04878000  0.35926000  1.0
  H  H82  1  0.60651000  0.54878000  0.85927000  1.0
  H  H83  1  0.60652000  0.95123000  0.64074000  1.0
  C  C84  1  0.75111000  0.31604000  0.62676000  1.0
  C  C85  1  0.75109000  0.18395000  0.87323000  1.0
  C  C86  1  0.24889000  0.68394000  0.37323000  1.0
  C  C87  1  0.24895000  0.81606000  0.12676000  1.0
  C  C88  1  0.90164000  0.32348000  0.66095000  1.0
  C  C89  1  0.90162000  0.17651000  0.83904000  1.0
  C  C90  1  0.09837000  0.67651000  0.33904000  1.0
  C  C91  1  0.09841000  0.82349000  0.16095000  1.0
  C  C92  1  0.88928000  0.34014000  0.72342000  1.0
  C  C93  1  0.88927000  0.15986000  0.77657000  1.0
  C  C94  1  0.11073000  0.65986000  0.27657000  1.0
  C  C95  1  0.11075000  0.84014000  0.22342000  1.0
  C  C96  1  0.72517000  0.34200000  0.75081000  1.0
  C  C97  1  0.72517000  0.15801000  0.74917000  1.0
  C  C98  1  0.27484000  0.65801000  0.24918000  1.0
  C  C99  1  0.27485000  0.84200000  0.25082000  1.0
  C  C100  1  0.57873000  0.33156000  0.71546000  1.0
  C  C101  1  0.57872000  0.16846000  0.78453000  1.0
  C  C102  1  0.42128000  0.66845000  0.28453000  1.0
  C  C103  1  0.42130000  0.83156000  0.21547000  1.0
  C  C104  1  0.43285000  0.31538000  0.61750000  1.0
  C  C105  1  0.43282000  0.18462000  0.88248000  1.0
  C  C106  1  0.56716000  0.68462000  0.38249000  1.0
  C  C107  1  0.56720000  0.81539000  0.11751000  1.0
  C  C108  1  0.36106000  0.23619000  0.61835000  1.0
  C  C109  1  0.36102000  0.26382000  0.88162000  1.0
  C  C110  1  0.63894000  0.76381000  0.38165000  1.0
  C  C111  1  0.63901000  0.73620000  0.11836000  1.0
  C  C112  1  0.05021000  0.35986000  0.75910000  1.0
  C  C113  1  0.05021000  0.14013000  0.74090000  1.0
  C  C114  1  0.94980000  0.64013000  0.24090000  1.0
  C  C115  1  0.94983000  0.85986000  0.25910000  1.0
  C  C116  1  0.91330000  0.52941000  0.68884000  1.0
  C  C117  1  0.91337000  0.97059000  0.81116000  1.0
  C  C118  1  0.08661000  0.47057000  0.31117000  1.0
  C  C119  1  0.08671000  0.02941000  0.18884000  1.0
  C  C120  1  0.76868000  0.52085000  0.72604000  1.0
  C  C121  1  0.76875000  0.97916000  0.77397000  1.0
  C  C122  1  0.23122000  0.47915000  0.27396000  1.0
  C  C123  1  0.23133000  0.02085000  0.22604000  1.0
  C  C124  1  0.60296000  0.51668000  0.69954000  1.0
  C  C125  1  0.60301000  0.98334000  0.80047000  1.0
  C  C126  1  0.39696000  0.48333000  0.30046000  1.0
  C  C127  1  0.39705000  0.01668000  0.19954000  1.0
  C  C128  1  0.59010000  0.51931000  0.63477000  1.0
  C  C129  1  0.59020000  0.98072000  0.86524000  1.0
  C  C130  1  0.40980000  0.48070000  0.36523000  1.0
  C  C131  1  0.40990000  0.01931000  0.13477000  1.0
  C  C132  1  0.73931000  0.52701000  0.59875000  1.0
  C  C133  1  0.73940000  0.97300000  0.90126000  1.0
  C  C134  1  0.26060000  0.47298000  0.40126000  1.0
  C  C135  1  0.26070000  0.02701000  0.09875000  1.0
  C  C136  1  0.05570000  0.53869000  0.58892000  1.0
  C  C137  1  0.05580000  0.96131000  0.91108000  1.0
  C  C138  1  0.94419000  0.46129000  0.41108000  1.0
  C  C139  1  0.94432000  0.03869000  0.08892000  1.0
  C  C140  1  0.10785000  0.46350000  0.56067000  1.0
  C  C141  1  0.10790000  0.03651000  0.93933000  1.0
  C  C142  1  0.89209000  0.53649000  0.43933000  1.0
  C  C143  1  0.89217000  0.96350000  0.06067000  1.0
  C  C144  1  0.44480000  0.50776000  0.74119000  1.0
  C  C145  1  0.44484000  0.99225000  0.75883000  1.0
  C  C146  1  0.55513000  0.49224000  0.25882000  1.0
  C  C147  1  0.55520000  0.00776000  0.24119000  1.0
  C  C148  1  0.17727000  0.54192000  0.95233000  1.0
  C  C149  1  0.17730000  0.95807000  0.54767000  1.0
  C  C150  1  0.82269000  0.45807000  0.04767000  1.0
  C  C151  1  0.82271000  0.04192000  0.45233000  1.0
  C  C152  1  0.10920000  0.60585000  0.97984000  1.0
  C  C153  1  0.10921000  0.89414000  0.52016000  1.0
  C  C154  1  0.89078000  0.39414000  0.02016000  1.0
  C  C155  1  0.89078000  0.10586000  0.47984000  1.0
  C  C156  1  0.12484000  0.61378000  0.04532000  1.0
  C  C157  1  0.12485000  0.88622000  0.45468000  1.0
  C  C158  1  0.87512000  0.38621000  0.95469000  1.0
  C  C159  1  0.87514000  0.11379000  0.54531000  1.0
  C  C160  1  0.20951000  0.56152000  0.08158000  1.0
  C  C161  1  0.20950000  0.93848000  0.41842000  1.0
  C  C162  1  0.79046000  0.43847000  0.91842000  1.0
  C  C163  1  0.79049000  0.06153000  0.58158000  1.0
  C  C164  1  0.28105000  0.49686000  0.05563000  1.0
  C  C165  1  0.28106000  0.00313000  0.44437000  1.0
  C  C166  1  0.71892000  0.50313000  0.94438000  1.0
  C  C167  1  0.71893000  0.99688000  0.55563000  1.0
  C  C168  1  0.26323000  0.48588000  0.99116000  1.0
  C  C169  1  0.26324000  0.01412000  0.50884000  1.0
  C  C170  1  0.73674000  0.51411000  0.00885000  1.0
  C  C171  1  0.73676000  0.98589000  0.49116000  1.0
  C  C172  1  0.09512000  0.58458000  0.85392000  1.0
  C  C173  1  0.09517000  0.91541000  0.64608000  1.0
  C  C174  1  0.90484000  0.41541000  0.14609000  1.0
  C  C175  1  0.90486000  0.08458000  0.35391000  1.0
  C  C176  1  0.02307000  0.64929000  0.87697000  1.0
  C  C177  1  0.02311000  0.85071000  0.62304000  1.0
  C  C178  1  0.97691000  0.35071000  0.12304000  1.0
  C  C179  1  0.97691000  0.14929000  0.37696000  1.0
  C  C180  1  0.02911000  0.65977000  0.94001000  1.0
  C  C181  1  0.02912000  0.84023000  0.56000000  1.0
  C  C182  1  0.97087000  0.34022000  0.06000000  1.0
  C  C183  1  0.97087000  0.15977000  0.44000000  1.0
  C  C184  1  0.41072000  0.37446000  0.99973000  1.0
  C  C185  1  0.41073000  0.12554000  0.50026000  1.0
  C  C186  1  0.58925000  0.62553000  0.00027000  1.0
  C  C187  1  0.58925000  0.87447000  0.49974000  1.0
  C  C188  1  0.43636000  0.38106000  0.06365000  1.0
  C  C189  1  0.43635000  0.11893000  0.43634000  1.0
  C  C190  1  0.56363000  0.61893000  0.93635000  1.0
  C  C191  1  0.56362000  0.88108000  0.56366000  1.0
  C  C192  1  0.37132000  0.44235000  0.09171000  1.0
  C  C193  1  0.37131000  0.05765000  0.40828000  1.0
  C  C194  1  0.62865000  0.55764000  0.90829000  1.0
  C  C195  1  0.62867000  0.94236000  0.59172000  1.0
  N  N196  1  0.59337000  0.32163000  0.65380000  1.0
  N  N197  1  0.59335000  0.17837000  0.84618000  1.0
  N  N198  1  0.40664000  0.67837000  0.34619000  1.0
  N  N199  1  0.40668000  0.82164000  0.15381000  1.0
  N  N200  1  0.89714000  0.53365000  0.62614000  1.0
  N  N201  1  0.89723000  0.96635000  0.87386000  1.0
  N  N202  1  0.10276000  0.46633000  0.37386000  1.0
  N  N203  1  0.10287000  0.03365000  0.12615000  1.0
  N  N204  1  0.16798000  0.53240000  0.89061000  1.0
  N  N205  1  0.16804000  0.96759000  0.60939000  1.0
  N  N206  1  0.83199000  0.46759000  0.10939000  1.0
  N  N207  1  0.83200000  0.03240000  0.39061000  1.0
  N  N208  1  0.32751000  0.42532000  0.96462000  1.0
  N  N209  1  0.32754000  0.07467000  0.53538000  1.0
  N  N210  1  0.67246000  0.57467000  0.03539000  1.0
  N  N211  1  0.67245000  0.92533000  0.46462000  1.0
  O  O212  1  0.21142000  0.22790000  0.59700000  1.0
  O  O213  1  0.21135000  0.27211000  0.90295000  1.0
  O  O214  1  0.78855000  0.77211000  0.40302000  1.0
  O  O215  1  0.78865000  0.72790000  0.09701000  1.0
  O  O216  1  0.46081000  0.18455000  0.64013000  1.0
  O  O217  1  0.46082000  0.31545000  0.85987000  1.0
  O  O218  1  0.53918000  0.81544000  0.35986000  1.0
  O  O219  1  0.53924000  0.68456000  0.14013000  1.0
  O  O220  1  0.02176000  0.39388000  0.80927000  1.0
  O  O221  1  0.02181000  0.10614000  0.69071000  1.0
  O  O222  1  0.97822000  0.60613000  0.19072000  1.0
  O  O223  1  0.97824000  0.89385000  0.30928000  1.0
  O  O224  1  0.19561000  0.34470000  0.73739000  1.0
  O  O225  1  0.19562000  0.15527000  0.76263000  1.0
  O  O226  1  0.80439000  0.65529000  0.26262000  1.0
  O  O227  1  0.80442000  0.84472000  0.23738000  1.0
  O  O228  1  0.98748000  0.41847000  0.55109000  1.0
  O  O229  1  0.98749000  0.08151000  0.94892000  1.0
  O  O230  1  0.01250000  0.58150000  0.44892000  1.0
  O  O231  1  0.01254000  0.91848000  0.05109000  1.0
  O  O232  1  0.26754000  0.45956000  0.54790000  1.0
  O  O233  1  0.26757000  0.04045000  0.95213000  1.0
  O  O234  1  0.73242000  0.54044000  0.45211000  1.0
  O  O235  1  0.73249000  0.95956000  0.04790000  1.0
  O  O236  1  0.47788000  0.47573000  0.79432000  1.0
  O  O237  1  0.47790000  0.02431000  0.70570000  1.0
  O  O238  1  0.52208000  0.52430000  0.20570000  1.0
  O  O239  1  0.52213000  0.97571000  0.29432000  1.0
  O  O240  1  0.30169000  0.53198000  0.72183000  1.0
  O  O241  1  0.30178000  0.96800000  0.77820000  1.0
  O  O242  1  0.69820000  0.46798000  0.27818000  1.0
  O  O243  1  0.69829000  0.03200000  0.22184000  1.0
