# generated using pymatgen
data_AlH18C27N13O6
_symmetry_space_group_name_H-M   'P 1'
_cell_length_a   3.87291000
_cell_length_b   18.12820000
_cell_length_c   18.22453242
_cell_angle_alpha   60.18004817
_cell_angle_beta   87.67721726
_cell_angle_gamma   89.59400000
_symmetry_Int_Tables_number   1
_chemical_formula_structural   AlH18C27N13O6
_chemical_formula_sum   'Al1 H18 C27 N13 O6'
_cell_volume   1109.06719347
_cell_formula_units_Z   1
loop_
 _symmetry_equiv_pos_site_id
 _symmetry_equiv_pos_as_xyz
  1  'x, y, z'
loop_
 _atom_site_type_symbol
 _atom_site_label
 _atom_site_symmetry_multiplicity
 _atom_site_fract_x
 _atom_site_fract_y
 _atom_site_fract_z
 _atom_site_occupancy
  Al  Al0  1  0.00779000  0.49991000  0.49967000  1.0
  H  H1  1  0.77791000  0.10117000  0.59510000  1.0
  H  H2  1  0.77952000  0.80492000  0.10052000  1.0
  H  H3  1  0.72000000  0.58910000  0.80564000  1.0
  H  H4  1  0.28458000  0.59076000  0.10593000  1.0
  H  H5  1  0.25963000  0.80357000  0.59757000  1.0
  H  H6  1  0.24621000  0.10157000  0.80651000  1.0
  H  H7  1  0.10876000  0.32708000  0.69631000  1.0
  H  H8  1  0.01452000  0.23036000  0.78461000  1.0
  H  H9  1  0.89965000  0.32793000  0.47564000  1.0
  H  H10  1  0.00147000  0.23084000  0.48595000  1.0
  H  H11  1  0.13168000  0.69703000  0.47868000  1.0
  H  H12  1  0.04803000  0.78450000  0.48956000  1.0
  H  H13  1  0.84087000  0.47143000  0.69617000  1.0
  H  H14  1  0.92294000  0.47951000  0.78389000  1.0
  H  H15  1  0.16064000  0.47263000  0.33200000  1.0
  H  H16  1  0.07139000  0.48146000  0.23634000  1.0
  H  H17  1  0.90740000  0.69747000  0.32449000  1.0
  H  H18  1  0.99968000  0.78502000  0.22691000  1.0
  C  C19  1  0.50246000  0.36554000  0.56671000  1.0
  C  C20  1  0.52833000  0.56685000  0.36613000  1.0
  C  C21  1  0.49332000  0.56625000  0.56747000  1.0
  C  C22  1  0.66057000  0.13704000  0.62278000  1.0
  C  C23  1  0.51251000  0.09370000  0.70469000  1.0
  C  C24  1  0.67188000  0.74068000  0.13727000  1.0
  C  C25  1  0.53117000  0.70180000  0.09550000  1.0
  C  C26  1  0.49108000  0.70032000  0.70537000  1.0
  C  C27  1  0.61846000  0.61784000  0.74253000  1.0
  C  C28  1  0.39383000  0.61932000  0.14031000  1.0
  C  C29  1  0.37905000  0.57534000  0.22900000  1.0
  C  C30  1  0.53389000  0.61257000  0.27361000  1.0
  C  C31  1  0.68946000  0.69583000  0.22571000  1.0
  C  C32  1  0.63247000  0.57405000  0.69720000  1.0
  C  C33  1  0.48784000  0.61159000  0.61509000  1.0
  C  C34  1  0.34171000  0.69478000  0.58023000  1.0
  C  C35  1  0.35939000  0.73932000  0.62463000  1.0
  C  C36  1  0.36178000  0.13723000  0.74263000  1.0
  C  C37  1  0.34148000  0.22614000  0.69691000  1.0
  C  C38  1  0.50555000  0.27258000  0.61392000  1.0
  C  C39  1  0.67422000  0.22613000  0.57815000  1.0
  C  C40  1  0.50583000  0.87644000  0.74629000  1.0
  C  C41  1  0.52040000  0.87711000  0.87984000  1.0
  C  C42  1  0.51347000  0.99993000  0.75171000  1.0
  C  C43  1  0.49780000  0.74732000  0.75206000  1.0
  C  C44  1  0.51160000  0.74231000  0.87998000  1.0
  C  C45  1  0.52579000  0.74852000  0.00230000  1.0
  N  N46  1  0.51267000  0.83197000  0.83538000  1.0
  N  N47  1  0.51283000  0.96188000  0.83675000  1.0
  N  N48  1  0.51440000  0.96122000  0.70495000  1.0
  N  N49  1  0.49050000  0.83277000  0.70538000  1.0
  N  N50  1  0.51181000  0.70064000  0.83687000  1.0
  N  N51  1  0.53531000  0.83405000  0.96395000  1.0
  N  N52  1  0.51059000  0.70121000  0.96430000  1.0
  N  N53  1  0.18339000  0.26659000  0.73587000  1.0
  N  N54  1  0.82987000  0.26621000  0.49825000  1.0
  N  N55  1  0.20600000  0.73535000  0.50126000  1.0
  N  N56  1  0.76526000  0.49337000  0.73578000  1.0
  N  N57  1  0.23493000  0.49479000  0.27039000  1.0
  N  N58  1  0.83533000  0.73608000  0.26422000  1.0
  O  O59  1  0.26990000  0.58357000  0.51053000  1.0
  O  O60  1  0.26204000  0.40564000  0.58307000  1.0
  O  O61  1  0.29255000  0.50918000  0.40775000  1.0
  O  O62  1  0.72381000  0.50899000  0.58287000  1.0
  O  O63  1  0.75577000  0.58413000  0.40553000  1.0
  O  O64  1  0.74169000  0.40672000  0.50903000  1.0
