# generated using pymatgen
data_Zn2H20C21(NO5)2
_symmetry_space_group_name_H-M   'P 1'
_cell_length_a   9.72743000
_cell_length_b   11.16150000
_cell_length_c   14.08580000
_cell_angle_alpha   87.04950000
_cell_angle_beta   84.11820000
_cell_angle_gamma   88.74510000
_symmetry_Int_Tables_number   1
_chemical_formula_structural   Zn2H20C21(NO5)2
_chemical_formula_sum   'Zn2 H20 C21 N2 O10'
_cell_volume   1519.05275392
_cell_formula_units_Z   1
loop_
 _symmetry_equiv_pos_site_id
 _symmetry_equiv_pos_as_xyz
  1  'x, y, z'
loop_
 _atom_site_type_symbol
 _atom_site_label
 _atom_site_symmetry_multiplicity
 _atom_site_fract_x
 _atom_site_fract_y
 _atom_site_fract_z
 _atom_site_occupancy
  Zn  Zn0  1  0.36346000  0.49491000  0.50690000  1.0
  Zn  Zn1  1  0.64318000  0.49545000  0.51268000  1.0
  H  H2  1  0.34195000  0.52163000  0.02783000  1.0
  H  H3  1  0.86320000  0.97685000  0.59136000  1.0
  H  H4  1  0.97692000  0.17925000  0.56448000  1.0
  H  H5  1  0.07795000  0.06408000  0.50711000  1.0
  H  H6  1  0.97882000  0.16562000  0.43847000  1.0
  H  H7  1  0.23911000  0.98265000  0.40450000  1.0
  H  H8  1  0.24999000  0.84176000  0.47058000  1.0
  H  H9  1  0.31672000  0.88344000  0.25381000  1.0
  H  H10  1  0.32516000  0.74279000  0.31771000  1.0
  H  H11  1  0.06884000  0.75747000  0.37016000  1.0
  H  H12  1  0.09938000  0.76799000  0.24364000  1.0
  H  H13  1  0.89725000  0.49024000  0.57642000  1.0
  H  H14  1  0.05957000  0.89906000  0.30773000  1.0
  H  H15  1  0.65871000  0.49301000  0.98745000  1.0
  H  H16  1  0.39790000  0.09108000  0.51823000  1.0
  H  H17  1  0.67288000  0.87392000  0.56141000  1.0
  H  H18  1  0.14795000  0.37811000  0.40122000  1.0
  H  H19  1  0.09587000  0.57212000  0.53296000  1.0
  H  H20  1  0.89324000  0.43655000  0.37543000  1.0
  H  H21  1  0.85685000  0.97046000  0.46540000  1.0
  C  C22  1  0.51165000  0.72978000  0.49074000  1.0
  C  C23  1  0.49423000  0.26370000  0.51739000  1.0
  C  C24  1  0.54320000  0.49534000  0.32046000  1.0
  C  C25  1  0.55673000  0.49674000  0.21721000  1.0
  C  C26  1  0.55920000  0.50130000  0.03061000  1.0
  C  C27  1  0.44185000  0.51317000  0.98521000  1.0
  C  C28  1  0.44426000  0.51432000  0.88543000  1.0
  C  C29  1  0.55826000  0.49936000  0.13033000  1.0
  C  C30  1  0.85867000  0.03158000  0.52422000  1.0
  C  C31  1  0.98029000  0.11532000  0.50754000  1.0
  C  C32  1  0.29140000  0.89398000  0.40624000  1.0
  C  C33  1  0.44940000  0.51348000  0.79849000  1.0
  C  C34  1  0.27042000  0.82991000  0.31634000  1.0
  C  C35  1  0.11639000  0.81270000  0.30896000  1.0
  C  C36  1  0.61043000  0.05842000  0.52213000  1.0
  C  C37  1  0.49729000  0.13314000  0.51915000  1.0
  C  C38  1  0.60133000  0.92828000  0.52207000  1.0
  C  C39  1  0.51283000  0.86492000  0.47622000  1.0
  C  C40  1  0.08874000  0.44349000  0.44517000  1.0
  C  C41  1  0.93700000  0.45296000  0.44226000  1.0
  C  C42  1  0.46694000  0.50858000  0.69565000  1.0
  N  N43  1  0.15525000  0.50962000  0.49546000  1.0
  N  N44  1  0.85305000  0.47997000  0.51414000  1.0
  O  O45  1  0.40054000  0.67719000  0.47876000  1.0
  O  O46  1  0.43498000  0.92129000  0.41240000  1.0
  O  O47  1  0.62246000  0.67900000  0.51410000  1.0
  O  O48  1  0.35948000  0.52376000  0.65120000  1.0
  O  O49  1  0.59022000  0.48915000  0.65904000  1.0
  O  O50  1  0.37353000  0.31490000  0.52648000  1.0
  O  O51  1  0.60798000  0.32082000  0.50523000  1.0
  O  O52  1  0.42118000  0.47823000  0.36071000  1.0
  O  O53  1  0.65156000  0.51235000  0.36144000  1.0
  O  O54  1  0.73580000  0.10613000  0.53101000  1.0
