# generated using pymatgen
data_MnH12C6NClO4
_symmetry_space_group_name_H-M   'P 1'
_cell_length_a   9.49231000
_cell_length_b   10.11830000
_cell_length_c   10.48560000
_cell_angle_alpha   87.23280000
_cell_angle_beta   89.99990000
_cell_angle_gamma   89.99980000
_symmetry_Int_Tables_number   1
_chemical_formula_structural   MnH12C6NClO4
_chemical_formula_sum   'Mn4 H48 C24 N4 Cl4 O16'
_cell_volume   1005.92601903
_cell_formula_units_Z   4
loop_
 _symmetry_equiv_pos_site_id
 _symmetry_equiv_pos_as_xyz
  1  'x, y, z'
loop_
 _atom_site_type_symbol
 _atom_site_label
 _atom_site_symmetry_multiplicity
 _atom_site_fract_x
 _atom_site_fract_y
 _atom_site_fract_z
 _atom_site_occupancy
  Mn  Mn0  1  0.27257000  0.31106000  0.21464000  1.0
  Mn  Mn1  1  0.77256000  0.18894000  0.28536000  1.0
  Mn  Mn2  1  0.72744000  0.68894000  0.78537000  1.0
  Mn  Mn3  1  0.22743000  0.81106000  0.71464000  1.0
  H  H4  1  0.03767000  0.47515000  0.13402000  1.0
  H  H5  1  0.53767000  0.02484000  0.36599000  1.0
  H  H6  1  0.96233000  0.52484000  0.86599000  1.0
  H  H7  1  0.46233000  0.97515000  0.63402000  1.0
  H  H8  1  0.57370000  0.20587000  0.07451000  1.0
  H  H9  1  0.07370000  0.29414000  0.42549000  1.0
  H  H10  1  0.42630000  0.79413000  0.92549000  1.0
  H  H11  1  0.92630000  0.70587000  0.57451000  1.0
  H  H12  1  0.32980000  0.71906000  0.19065000  1.0
  H  H13  1  0.82980000  0.78094000  0.30935000  1.0
  H  H14  1  0.67021000  0.28093000  0.80935000  1.0
  H  H15  1  0.17020000  0.21906000  0.69065000  1.0
  H  H16  1  0.17503000  0.66073000  0.26841000  1.0
  H  H17  1  0.67502000  0.83927000  0.23159000  1.0
  H  H18  1  0.82498000  0.33926000  0.73159000  1.0
  H  H19  1  0.32497000  0.16073000  0.76841000  1.0
  H  H20  1  0.13976000  0.66071000  0.03400000  1.0
  H  H21  1  0.63976000  0.83929000  0.46600000  1.0
  H  H22  1  0.86025000  0.33928000  0.96601000  1.0
  H  H23  1  0.36025000  0.16071000  0.53400000  1.0
  H  H24  1  0.29330000  0.56334000  0.01591000  1.0
  H  H25  1  0.79330000  0.93666000  0.48409000  1.0
  H  H26  1  0.70670000  0.43666000  0.98409000  1.0
  H  H27  1  0.20670000  0.06334000  0.51591000  1.0
  H  H28  1  0.82530000  0.87722000  0.04615000  1.0
  H  H29  1  0.32531000  0.62278000  0.45385000  1.0
  H  H30  1  0.17469000  0.12278000  0.95385000  1.0
  H  H31  1  0.67470000  0.37722000  0.54615000  1.0
  H  H32  1  0.89634000  0.04120000  0.03679000  1.0
  H  H33  1  0.39634000  0.45879000  0.46322000  1.0
  H  H34  1  0.10366000  0.95880000  0.96321000  1.0
  H  H35  1  0.60366000  0.54120000  0.53679000  1.0
  H  H36  1  0.66092000  0.03763000  0.94369000  1.0
  H  H37  1  0.16091000  0.46237000  0.55631000  1.0
  H  H38  1  0.33908000  0.96236000  0.05631000  1.0
  H  H39  1  0.83908000  0.53763000  0.44369000  1.0
  H  H40  1  0.58775000  0.97212000  0.08961000  1.0
  H  H41  1  0.08776000  0.52789000  0.41038000  1.0
  H  H42  1  0.41224000  0.02789000  0.91038000  1.0
  H  H43  1  0.91225000  0.47211000  0.58961000  1.0
  H  H44  1  0.04931000  0.90011000  0.19586000  1.0
  H  H45  1  0.54931000  0.59991000  0.30414000  1.0
  H  H46  1  0.95069000  0.09991000  0.80414000  1.0
  H  H47  1  0.45069000  0.40010000  0.69586000  1.0
  H  H48  1  0.01041000  0.94943000  0.35076000  1.0
  H  H49  1  0.51041000  0.55058000  0.14924000  1.0
  H  H50  1  0.98959000  0.05058000  0.64924000  1.0
  H  H51  1  0.48960000  0.44943000  0.85076000  1.0
  C  C52  1  0.76296000  0.86935000  0.29202000  1.0
  C  C53  1  0.26297000  0.63064000  0.20798000  1.0
  C  C54  1  0.23703000  0.13064000  0.70798000  1.0
  C  C55  1  0.73704000  0.36935000  0.79202000  1.0
  C  C56  1  0.70703000  0.91526000  0.41868000  1.0
  C  C57  1  0.20703000  0.58474000  0.08132000  1.0
  C  C58  1  0.29297000  0.08474000  0.58132000  1.0
  C  C59  1  0.79297000  0.41526000  0.91868000  1.0
  C  C60  1  0.81585000  0.97722000  0.08261000  1.0
  C  C61  1  0.31585000  0.52278000  0.41740000  1.0
  C  C62  1  0.18415000  0.02278000  0.91739000  1.0
  C  C63  1  0.68416000  0.47722000  0.58261000  1.0
  C  C64  1  0.67296000  0.03426000  0.04825000  1.0
  C  C65  1  0.17296000  0.46574000  0.45175000  1.0
  C  C66  1  0.32703000  0.96573000  0.95175000  1.0
  C  C67  1  0.82704000  0.53426000  0.54825000  1.0
  C  C68  1  0.99233000  0.97542000  0.24894000  1.0
  C  C69  1  0.49234000  0.52459000  0.25106000  1.0
  C  C70  1  0.00766000  0.02459000  0.75106000  1.0
  C  C71  1  0.50767000  0.47541000  0.74895000  1.0
  C  C72  1  0.05924000  0.11032000  0.22060000  1.0
  C  C73  1  0.55926000  0.38970000  0.27940000  1.0
  C  C74  1  0.94073000  0.88970000  0.77939000  1.0
  C  C75  1  0.44076000  0.61031000  0.72061000  1.0
  N  N76  1  0.84107000  0.97649000  0.22180000  1.0
  N  N77  1  0.34108000  0.52351000  0.27820000  1.0
  N  N78  1  0.15892000  0.02351000  0.77820000  1.0
  N  N79  1  0.65893000  0.47648000  0.72180000  1.0
  Cl  Cl80  1  0.89428000  0.20854000  0.49052000  1.0
  Cl  Cl81  1  0.39428000  0.29145000  0.00948000  1.0
  Cl  Cl82  1  0.10572000  0.79146000  0.50948000  1.0
  Cl  Cl83  1  0.60572000  0.70854000  0.99052000  1.0
  O  O84  1  0.63138000  0.03924000  0.40087000  1.0
  O  O85  1  0.13139000  0.46076000  0.09914000  1.0
  O  O86  1  0.36861000  0.96076000  0.59914000  1.0
  O  O87  1  0.86862000  0.53924000  0.90087000  1.0
  O  O88  1  0.66717000  0.16465000  0.09623000  1.0
  O  O89  1  0.16717000  0.33535000  0.40376000  1.0
  O  O90  1  0.33283000  0.83535000  0.90376000  1.0
  O  O91  1  0.83283000  0.66465000  0.59624000  1.0
  O  O92  1  0.98009000  0.21025000  0.19688000  1.0
  O  O93  1  0.48012000  0.28975000  0.30311000  1.0
  O  O94  1  0.01989000  0.78975000  0.80312000  1.0
  O  O95  1  0.51991000  0.71024000  0.69688000  1.0
  O  O96  1  0.19312000  0.11634000  0.22579000  1.0
  O  O97  1  0.69313000  0.38368000  0.27420000  1.0
  O  O98  1  0.80687000  0.88368000  0.77420000  1.0
  O  O99  1  0.30688000  0.61633000  0.72580000  1.0
