# generated using pymatgen
data_ZnH13C24O5
_symmetry_space_group_name_H-M   'P 1'
_cell_length_a   12.73580000
_cell_length_b   26.69820000
_cell_length_c   26.69810000
_cell_angle_alpha   111.10100000
_cell_angle_beta   103.80300000
_cell_angle_gamma   103.80300000
_symmetry_Int_Tables_number   1
_chemical_formula_structural   ZnH13C24O5
_chemical_formula_sum   'Zn8 H104 C192 O40'
_cell_volume   7679.12229967
_cell_formula_units_Z   8
loop_
 _symmetry_equiv_pos_site_id
 _symmetry_equiv_pos_as_xyz
  1  'x, y, z'
loop_
 _atom_site_type_symbol
 _atom_site_label
 _atom_site_symmetry_multiplicity
 _atom_site_fract_x
 _atom_site_fract_y
 _atom_site_fract_z
 _atom_site_occupancy
  Zn  Zn0  1  0.12432000  0.46459000  0.61350000  1.0
  Zn  Zn1  1  0.05692000  0.55066000  0.69346000  1.0
  Zn  Zn2  1  0.37568000  0.88649000  0.03541000  1.0
  Zn  Zn3  1  0.44308000  0.80654000  0.94934000  1.0
  Zn  Zn4  1  0.45384000  0.61361000  0.46459000  1.0
  Zn  Zn5  1  0.68734000  0.69355000  0.55068000  1.0
  Zn  Zn6  1  0.04617000  0.03542000  0.88639000  1.0
  Zn  Zn7  1  0.81265000  0.94932000  0.80645000  1.0
  H  H8  1  0.17969000  0.02897000  0.63837000  1.0
  H  H9  1  0.37983000  0.00249000  0.51427000  1.0
  H  H10  1  0.77926000  0.44495000  0.72272000  1.0
  H  H11  1  0.64237000  0.36097000  0.72157000  1.0
  H  H12  1  0.77040000  0.24806000  0.61227000  1.0
  H  H13  1  0.90572000  0.33233000  0.61217000  1.0
  H  H14  1  0.47320000  0.28233000  0.65108000  1.0
  H  H15  1  0.11726000  0.14509000  0.62436000  1.0
  H  H16  1  0.57717000  0.11957000  0.66771000  1.0
  H  H17  1  0.72617000  0.20363000  0.67652000  1.0
  H  H18  1  0.15106000  0.18766000  0.54015000  1.0
  H  H19  1  0.09999000  0.26617000  0.52222000  1.0
  H  H20  1  0.29917000  0.38518000  0.69879000  1.0
  H  H21  1  0.34878000  0.30687000  0.71752000  1.0
  H  H22  1  0.43204000  0.94258000  0.54705000  1.0
  H  H23  1  0.42310000  0.92163000  0.71707000  1.0
  H  H24  1  0.35300000  0.06835000  0.81701000  1.0
  H  H25  1  0.34277000  0.10025000  0.74072000  1.0
  H  H26  1  0.60851000  0.93849000  0.69702000  1.0
  H  H27  1  0.67170000  0.85426000  0.67580000  1.0
  H  H28  1  0.37870000  0.75712000  0.51741000  1.0
  H  H29  1  0.31276000  0.84041000  0.53942000  1.0
  H  H30  1  0.54056000  0.94425000  0.80406000  1.0
  H  H31  1  0.55606000  0.90768000  0.87765000  1.0
  H  H32  1  0.29513000  0.97044000  0.92404000  1.0
  H  H33  1  0.27456000  0.00485000  0.84858000  1.0
  H  H34  1  0.32031000  0.86163000  0.47103000  1.0
  H  H35  1  0.12017000  0.98573000  0.49751000  1.0
  H  H36  1  0.72073000  0.77728000  0.05505000  1.0
  H  H37  1  0.85763000  0.77842000  0.13902000  1.0
  H  H38  1  0.72961000  0.88773000  0.25194000  1.0
  H  H39  1  0.59428000  0.88783000  0.16767000  1.0
  H  H40  1  0.02680000  0.84892000  0.21767000  1.0
  H  H41  1  0.38274000  0.87564000  0.35491000  1.0
  H  H42  1  0.92283000  0.83228000  0.38043000  1.0
  H  H43  1  0.77383000  0.82347000  0.29637000  1.0
  H  H44  1  0.34892000  0.95985000  0.31233000  1.0
  H  H45  1  0.40000000  0.97778000  0.23383000  1.0
  H  H46  1  0.20083000  0.80121000  0.11481000  1.0
  H  H47  1  0.15122000  0.78248000  0.19313000  1.0
  H  H48  1  0.06797000  0.95295000  0.55742000  1.0
  H  H49  1  0.07690000  0.78293000  0.57838000  1.0
  H  H50  1  0.14699000  0.68299000  0.43165000  1.0
  H  H51  1  0.15722000  0.75928000  0.39975000  1.0
  H  H52  1  0.89149000  0.80298000  0.56151000  1.0
  H  H53  1  0.82829000  0.82420000  0.64573000  1.0
  H  H54  1  0.12129000  0.98259000  0.74288000  1.0
  H  H55  1  0.18724000  0.96058000  0.65960000  1.0
  H  H56  1  0.95946000  0.69594000  0.55576000  1.0
  H  H57  1  0.94396000  0.62235000  0.59233000  1.0
  H  H58  1  0.20486000  0.57595000  0.52955000  1.0
  H  H59  1  0.22543000  0.65141000  0.49515000  1.0
  H  H60  1  0.98787000  0.63841000  0.02909000  1.0
  H  H61  1  0.63745000  0.51432000  0.00258000  1.0
  H  H62  1  0.88841000  0.72282000  0.44501000  1.0
  H  H63  1  0.94030000  0.72163000  0.36103000  1.0
  H  H64  1  0.59012000  0.61217000  0.24802000  1.0
  H  H65  1  0.53888000  0.61216000  0.33228000  1.0
  H  H66  1  0.96064000  0.65126000  0.28247000  1.0
  H  H67  1  0.15269000  0.62456000  0.14530000  1.0
  H  H68  1  0.71053000  0.66780000  0.11966000  1.0
  H  H69  1  0.65415000  0.67640000  0.20360000  1.0
  H  H70  1  0.07637000  0.54027000  0.18797000  1.0
  H  H71  1  0.18747000  0.52224000  0.26652000  1.0
  H  H72  1  0.28522000  0.69899000  0.38539000  1.0
  H  H73  1  0.17639000  0.71781000  0.30702000  1.0
  H  H74  1  0.55801000  0.54704000  0.94260000  1.0
  H  H75  1  0.71548000  0.71714000  0.92173000  1.0
  H  H76  1  0.03236000  0.81719000  0.06836000  1.0
  H  H77  1  0.99842000  0.74097000  0.10036000  1.0
  H  H78  1  0.52707000  0.69698000  0.93843000  1.0
  H  H79  1  0.35840000  0.67567000  0.85426000  1.0
  H  H80  1  0.39597000  0.51725000  0.75722000  1.0
  H  H81  1  0.56726000  0.53939000  0.84051000  1.0
  H  H82  1  0.70759000  0.80418000  0.94431000  1.0
  H  H83  1  0.72895000  0.87767000  0.90759000  1.0
  H  H84  1  0.09905000  0.92409000  0.97027000  1.0
  H  H85  1  0.07871000  0.84871000  0.00478000  1.0
  H  H86  1  0.51212000  0.47091000  0.86159000  1.0
  H  H87  1  0.86256000  0.49742000  0.98568000  1.0
  H  H88  1  0.61160000  0.05499000  0.77718000  1.0
  H  H89  1  0.55970000  0.13897000  0.77837000  1.0
  H  H90  1  0.90987000  0.25198000  0.88783000  1.0
  H  H91  1  0.96113000  0.16772000  0.88784000  1.0
  H  H92  1  0.53936000  0.21753000  0.84875000  1.0
  H  H93  1  0.34731000  0.35470000  0.87544000  1.0
  H  H94  1  0.78947000  0.38034000  0.83220000  1.0
  H  H95  1  0.84586000  0.29640000  0.82360000  1.0
  H  H96  1  0.42362000  0.31203000  0.95973000  1.0
  H  H97  1  0.31253000  0.23348000  0.97777000  1.0
  H  H98  1  0.21478000  0.11461000  0.80102000  1.0
  H  H99  1  0.32362000  0.19298000  0.78219000  1.0
  H  H100  1  0.94200000  0.55740000  0.95295000  1.0
  H  H101  1  0.78453000  0.57827000  0.78286000  1.0
  H  H102  1  0.46764000  0.43164000  0.68281000  1.0
  H  H103  1  0.50158000  0.39964000  0.75903000  1.0
  H  H104  1  0.97293000  0.56157000  0.80303000  1.0
  H  H105  1  0.14160000  0.64574000  0.82433000  1.0
  H  H106  1  0.10403000  0.74278000  0.98275000  1.0
  H  H107  1  0.93274000  0.65948000  0.96061000  1.0
  H  H108  1  0.79241000  0.55569000  0.69581000  1.0
  H  H109  1  0.77105000  0.59241000  0.62233000  1.0
  H  H110  1  0.40095000  0.52974000  0.57591000  1.0
  H  H111  1  0.42130000  0.49522000  0.65130000  1.0
  C  C112  1  0.93141000  0.44374000  0.66666667  1.0
  C  C113  1  0.85134000  0.39399000  0.66752000  1.0
  C  C114  1  0.77697000  0.40179000  0.69851000  1.0
  C  C115  1  0.70005000  0.35457000  0.69763000  1.0
  C  C116  1  0.69590000  0.29851000  0.66666667  1.0
  C  C117  1  0.77310000  0.29126000  0.63706000  1.0
  C  C118  1  0.84873000  0.33821000  0.63672000  1.0
  C  C119  1  0.60893000  0.24889000  0.66400000  1.0
  C  C120  1  0.49600000  0.24702000  0.65576000  1.0
  C  C121  1  0.40810000  0.19945000  0.65045000  1.0
  C  C122  1  0.28995000  0.19609000  0.63863000  1.0
  C  C123  1  0.20721000  0.14815000  0.63274000  1.0
  C  C124  1  0.23665000  0.10162000  0.63673000  1.0
  C  C125  1  0.34880000  0.10176000  0.64542000  1.0
  C  C126  1  0.43689000  0.15159000  0.65360000  1.0
  C  C127  1  0.55366000  0.15496000  0.66359000  1.0
  C  C128  1  0.63692000  0.20186000  0.66833000  1.0
  C  C129  1  0.25521000  0.24236000  0.62967000  1.0
  C  C130  1  0.18310000  0.23101000  0.57501000  1.0
  C  C131  1  0.15513000  0.27464000  0.56468000  1.0
  C  C132  1  0.19982000  0.33066000  0.60902000  1.0
  C  C133  1  0.26858000  0.34183000  0.66423000  1.0
  C  C134  1  0.29582000  0.29815000  0.67448000  1.0
  C  C135  1  0.37336000  0.04895000  0.64075000  1.0
  C  C136  1  0.38821000  0.01537000  0.59106000  1.0
  C  C137  1  0.41458000  0.96560000  0.58531000  1.0
  C  C138  1  0.42432000  0.94714000  0.62785000  1.0
  C  C139  1  0.40570000  0.97920000  0.67888000  1.0
  C  C140  1  0.40863000  0.96162000  0.72302000  1.0
  C  C141  1  0.39161000  0.99294000  0.77278000  1.0
  C  C142  1  0.36630000  0.04323000  0.77821000  1.0
  C  C143  1  0.17307000  0.37837000  0.59926000  1.0
  C  C144  1  0.36082000  0.06113000  0.73563000  1.0
  C  C145  1  0.38053000  0.03041000  0.68494000  1.0
  C  C146  1  0.45697000  0.89568000  0.61904000  1.0
  C  C147  1  0.55654000  0.89842000  0.65826000  1.0
  C  C148  1  0.59224000  0.85141000  0.64647000  1.0
  C  C149  1  0.52916000  0.80061000  0.59547000  1.0
  C  C150  1  0.42782000  0.79677000  0.55688000  1.0
  C  C151  1  0.39272000  0.84391000  0.56889000  1.0
  C  C152  1  0.57482000  0.75345000  0.57959000  1.0
  C  C153  1  0.48407000  0.94840000  0.82905000  1.0
  C  C154  1  0.40326000  0.97496000  0.81932000  1.0
  C  C155  1  0.49430000  0.92872000  0.87071000  1.0
  C  C156  1  0.42513000  0.93585000  0.90477000  1.0
  C  C157  1  0.34802000  0.96459000  0.89726000  1.0
  C  C158  1  0.33684000  0.98375000  0.85480000  1.0
  C  C159  1  0.43040000  0.90890000  0.94459000  1.0
  C  C160  1  0.56859000  0.83338000  0.05626000  1.0
  C  C161  1  0.64865000  0.83248000  0.10601000  1.0
  C  C162  1  0.72302000  0.80149000  0.09821000  1.0
  C  C163  1  0.79994000  0.80237000  0.14543000  1.0
  C  C164  1  0.80409000  0.83328000  0.20148000  1.0
  C  C165  1  0.72690000  0.86294000  0.20874000  1.0
  C  C166  1  0.65126000  0.86328000  0.16179000  1.0
  C  C167  1  0.89106000  0.83600000  0.25111000  1.0
  C  C168  1  0.00400000  0.84424000  0.25297000  1.0
  C  C169  1  0.09190000  0.84955000  0.30055000  1.0
  C  C170  1  0.21005000  0.86137000  0.30391000  1.0
  C  C171  1  0.29279000  0.86726000  0.35185000  1.0
  C  C172  1  0.26335000  0.86327000  0.39837000  1.0
  C  C173  1  0.15120000  0.85458000  0.39823000  1.0
  C  C174  1  0.06311000  0.84640000  0.34841000  1.0
  C  C175  1  0.94634000  0.83641000  0.34504000  1.0
  C  C176  1  0.86308000  0.83167000  0.29814000  1.0
  C  C177  1  0.24478000  0.87032000  0.25764000  1.0
  C  C178  1  0.31689000  0.92499000  0.26898000  1.0
  C  C179  1  0.34486000  0.93532000  0.22535000  1.0
  C  C180  1  0.30018000  0.89098000  0.16934000  1.0
  C  C181  1  0.23142000  0.83577000  0.15817000  1.0
  C  C182  1  0.20418000  0.82552000  0.20185000  1.0
  C  C183  1  0.12664000  0.85924000  0.45105000  1.0
  C  C184  1  0.11179000  0.90894000  0.48463000  1.0
  C  C185  1  0.08542000  0.91469000  0.53440000  1.0
  C  C186  1  0.07568000  0.87215000  0.55286000  1.0
  C  C187  1  0.09430000  0.82112000  0.52081000  1.0
  C  C188  1  0.09137000  0.77698000  0.53838000  1.0
  C  C189  1  0.10840000  0.72722000  0.50706000  1.0
  C  C190  1  0.13371000  0.72179000  0.45678000  1.0
  C  C191  1  0.32692000  0.90074000  0.12163000  1.0
  C  C192  1  0.13919000  0.76437000  0.43887000  1.0
  C  C193  1  0.11947000  0.81506000  0.46959000  1.0
  C  C194  1  0.04304000  0.88096000  0.60432000  1.0
  C  C195  1  0.94347000  0.84174000  0.60158000  1.0
  C  C196  1  0.90776000  0.85352000  0.64859000  1.0
  C  C197  1  0.97084000  0.90453000  0.69938000  1.0
  C  C198  1  0.07217000  0.94313000  0.70323000  1.0
  C  C199  1  0.10727000  0.93111000  0.65609000  1.0
  C  C200  1  0.92518000  0.92041000  0.74655000  1.0
  C  C201  1  0.01594000  0.67096000  0.55160000  1.0
  C  C202  1  0.09674000  0.68068000  0.52504000  1.0
  C  C203  1  0.00571000  0.62929000  0.57128000  1.0
  C  C204  1  0.07486000  0.59523000  0.56415000  1.0
  C  C205  1  0.15198000  0.60274000  0.53541000  1.0
  C  C206  1  0.16315000  0.64520000  0.51624000  1.0
  C  C207  1  0.06959000  0.55541000  0.59110000  1.0
  C  C208  1  0.67902000  0.66666667  0.44374000  1.0
  C  C209  1  0.71021000  0.66760000  0.39398000  1.0
  C  C210  1  0.82338000  0.69861000  0.40183000  1.0
  C  C211  1  0.85226000  0.69765000  0.35461000  1.0
  C  C212  1  0.76952000  0.66666667  0.29854000  1.0
  C  C213  1  0.65536000  0.63702000  0.29123000  1.0
  C  C214  1  0.62628000  0.63677000  0.33819000  1.0
  C  C215  1  0.80425000  0.66400000  0.24895000  1.0
  C  C216  1  0.90719000  0.65589000  0.24714000  1.0
  C  C217  1  0.94225000  0.65061000  0.19960000  1.0
  C  C218  1  0.04526000  0.63883000  0.19627000  1.0
  C  C219  1  0.07417000  0.63294000  0.14834000  1.0
  C  C220  1  0.00216000  0.63690000  0.10179000  1.0
  C  C221  1  0.89882000  0.64556000  0.10190000  1.0
  C  C222  1  0.86873000  0.65373000  0.15172000  1.0
  C  C223  1  0.76527000  0.66367000  0.15505000  1.0
  C  C224  1  0.73351000  0.66828000  0.20189000  1.0
  C  C225  1  0.11715000  0.62989000  0.24259000  1.0
  C  C226  1  0.12275000  0.57515000  0.23130000  1.0
  C  C227  1  0.18366000  0.56476000  0.27497000  1.0
  C  C228  1  0.23954000  0.60915000  0.33094000  1.0
  C  C229  1  0.23770000  0.66443000  0.34206000  1.0
  C  C230  1  0.17730000  0.67474000  0.29835000  1.0
  C  C231  1  0.81678000  0.64085000  0.04904000  1.0
  C  C232  1  0.71867000  0.59112000  0.01544000  1.0
  C  C233  1  0.63670000  0.58533000  0.96565000  1.0
  C  C234  1  0.65095000  0.62788000  0.94721000  1.0
  C  C235  1  0.75257000  0.67896000  0.97929000  1.0
  C  C236  1  0.77598000  0.72314000  0.96173000  1.0
  C  C237  1  0.87398000  0.77294000  0.99302000  1.0
  C  C238  1  0.95512000  0.77837000  0.04326000  1.0
  C  C239  1  0.30423000  0.59948000  0.37870000  1.0
  C  C240  1  0.93608000  0.73582000  0.06122000  1.0
  C  C241  1  0.83507000  0.68506000  0.03051000  1.0
  C  C242  1  0.55796000  0.61902000  0.89572000  1.0
  C  C243  1  0.50022000  0.65818000  0.89840000  1.0
  C  C244  1  0.40562000  0.64632000  0.85139000  1.0
  C  C245  1  0.36692000  0.59530000  0.80060000  1.0
  C  C246  1  0.42589000  0.55675000  0.79682000  1.0
  C  C247  1  0.52023000  0.56884000  0.84399000  1.0
  C  C248  1  0.25825000  0.57946000  0.75340000  1.0
  C  C249  1  0.79315000  0.82913000  0.94836000  1.0
  C  C250  1  0.89082000  0.81943000  0.97494000  1.0
  C  C251  1  0.80483000  0.87075000  0.92862000  1.0
  C  C252  1  0.91517000  0.90481000  0.93574000  1.0
  C  C253  1  0.01357000  0.89731000  0.96445000  1.0
  C  C254  1  0.00154000  0.85489000  0.98367000  1.0
  C  C255  1  0.92281000  0.94468000  0.90885000  1.0
  C  C256  1  0.82099000  0.05627000  0.83331000  1.0
  C  C257  1  0.78979000  0.10602000  0.83240000  1.0
  C  C258  1  0.67662000  0.09817000  0.80139000  1.0
  C  C259  1  0.64773000  0.14539000  0.80235000  1.0
  C  C260  1  0.73048000  0.20146000  0.83333000  1.0
  C  C261  1  0.84464000  0.20877000  0.86298000  1.0
  C  C262  1  0.87372000  0.16181000  0.86323000  1.0
  C  C263  1  0.69576000  0.25105000  0.83600000  1.0
  C  C264  1  0.59282000  0.25286000  0.84411000  1.0
  C  C265  1  0.55775000  0.30040000  0.84939000  1.0
  C  C266  1  0.45474000  0.30373000  0.86117000  1.0
  C  C267  1  0.42582000  0.35166000  0.86706000  1.0
  C  C268  1  0.49783000  0.39821000  0.86309000  1.0
  C  C269  1  0.60118000  0.39810000  0.85444000  1.0
  C  C270  1  0.63127000  0.34828000  0.84627000  1.0
  C  C271  1  0.73473000  0.34495000  0.83633000  1.0
  C  C272  1  0.76649000  0.29811000  0.83172000  1.0
  C  C273  1  0.38285000  0.25741000  0.87011000  1.0
  C  C274  1  0.37725000  0.26870000  0.92485000  1.0
  C  C275  1  0.31634000  0.22503000  0.93524000  1.0
  C  C276  1  0.26046000  0.16906000  0.89085000  1.0
  C  C277  1  0.26230000  0.15794000  0.83557000  1.0
  C  C278  1  0.32270000  0.20165000  0.82526000  1.0
  C  C279  1  0.68322000  0.45096000  0.85915000  1.0
  C  C280  1  0.78133000  0.48456000  0.90888000  1.0
  C  C281  1  0.86331000  0.53435000  0.91467000  1.0
  C  C282  1  0.84906000  0.55279000  0.87212000  1.0
  C  C283  1  0.74743000  0.52071000  0.82103000  1.0
  C  C284  1  0.72403000  0.53827000  0.77686000  1.0
  C  C285  1  0.62603000  0.50698000  0.72706000  1.0
  C  C286  1  0.54488000  0.45673000  0.72163000  1.0
  C  C287  1  0.19577000  0.12130000  0.90052000  1.0
  C  C288  1  0.56392000  0.43878000  0.76418000  1.0
  C  C289  1  0.66493000  0.46949000  0.81494000  1.0
  C  C290  1  0.94204000  0.60428000  0.88098000  1.0
  C  C291  1  0.99978000  0.60160000  0.84182000  1.0
  C  C292  1  0.09437000  0.64861000  0.85368000  1.0
  C  C293  1  0.13309000  0.69940000  0.90470000  1.0
  C  C294  1  0.07411000  0.70318000  0.94325000  1.0
  C  C295  1  0.97977000  0.65601000  0.93116000  1.0
  C  C296  1  0.24176000  0.74660000  0.92054000  1.0
  C  C297  1  0.70685000  0.55164000  0.67087000  1.0
  C  C298  1  0.60919000  0.52506000  0.68058000  1.0
  C  C299  1  0.69517000  0.57138000  0.62925000  1.0
  C  C300  1  0.58483000  0.56426000  0.59519000  1.0
  C  C301  1  0.48643000  0.53555000  0.60269000  1.0
  C  C302  1  0.49847000  0.51634000  0.64511000  1.0
  C  C303  1  0.57719000  0.59115000  0.55532000  1.0
  O  O304  1  0.14723000  0.05578000  0.62936000  1.0
  O  O305  1  0.37791000  0.03230000  0.54807000  1.0
  O  O306  1  0.94460000  0.49499000  0.70255000  1.0
  O  O307  1  0.98307000  0.43437000  0.63086000  1.0
  O  O308  1  0.08911000  0.36990000  0.55689000  1.0
  O  O309  1  0.23695000  0.43042000  0.63842000  1.0
  O  O310  1  0.52147000  0.70891000  0.53113000  1.0
  O  O311  1  0.67363000  0.75881000  0.61251000  1.0
  O  O312  1  0.48831000  0.87506000  0.93963000  1.0
  O  O313  1  0.37659000  0.91871000  0.97995000  1.0
  O  O314  1  0.35277000  0.87064000  0.44422000  1.0
  O  O315  1  0.12210000  0.95193000  0.46770000  1.0
  O  O316  1  0.55540000  0.79745000  0.00501000  1.0
  O  O317  1  0.51693000  0.86915000  0.06563000  1.0
  O  O318  1  0.41089000  0.94311000  0.13010000  1.0
  O  O319  1  0.26304000  0.86157000  0.06958000  1.0
  O  O320  1  0.97853000  0.96887000  0.79108000  1.0
  O  O321  1  0.82637000  0.88750000  0.74119000  1.0
  O  O322  1  0.01168000  0.56037000  0.62494000  1.0
  O  O323  1  0.12341000  0.52005000  0.58130000  1.0
  O  O324  1  0.03827000  0.62948000  0.05592000  1.0
  O  O325  1  0.70305000  0.54813000  0.03235000  1.0
  O  O326  1  0.75307000  0.70258000  0.49498000  1.0
  O  O327  1  0.58220000  0.63091000  0.43436000  1.0
  O  O328  1  0.33742000  0.55711000  0.37028000  1.0
  O  O329  1  0.33174000  0.63871000  0.43070000  1.0
  O  O330  1  0.21875000  0.53110000  0.70877000  1.0
  O  O331  1  0.19765000  0.61235000  0.75886000  1.0
  O  O332  1  0.82610000  0.93979000  0.87507000  1.0
  O  O333  1  0.02182000  0.98002000  0.91866000  1.0
  O  O334  1  0.46173000  0.44407000  0.87052000  1.0
  O  O335  1  0.79696000  0.46765000  0.95187000  1.0
  O  O336  1  0.74694000  0.00502000  0.79742000  1.0
  O  O337  1  0.91781000  0.06565000  0.86909000  1.0
  O  O338  1  0.16257000  0.12971000  0.94289000  1.0
  O  O339  1  0.16826000  0.06930000  0.86129000  1.0
  O  O340  1  0.28125000  0.79123000  0.96890000  1.0
  O  O341  1  0.30236000  0.74115000  0.88765000  1.0
  O  O342  1  0.67390000  0.62493000  0.56021000  1.0
  O  O343  1  0.47818000  0.58134000  0.51998000  1.0
