# generated using pymatgen
data_PrH24C17NO7
_symmetry_space_group_name_H-M   'P 1'
_cell_length_a   7.67962000
_cell_length_b   10.06780000
_cell_length_c   12.14380000
_cell_angle_alpha   80.26510000
_cell_angle_beta   79.89980000
_cell_angle_gamma   83.68610000
_symmetry_Int_Tables_number   1
_chemical_formula_structural   PrH24C17NO7
_chemical_formula_sum   'Pr2 H48 C34 N2 O14'
_cell_volume   907.93274478
_cell_formula_units_Z   2
loop_
 _symmetry_equiv_pos_site_id
 _symmetry_equiv_pos_as_xyz
  1  'x, y, z'
loop_
 _atom_site_type_symbol
 _atom_site_label
 _atom_site_symmetry_multiplicity
 _atom_site_fract_x
 _atom_site_fract_y
 _atom_site_fract_z
 _atom_site_occupancy
  Pr  Pr0  1  0.26374000  0.99099000  0.43670000  1.0
  Pr  Pr1  1  0.73626000  0.00901000  0.56330000  1.0
  H  H2  1  0.85774000  0.39989000  0.54952000  1.0
  H  H3  1  0.14226000  0.60011000  0.45048000  1.0
  H  H4  1  0.92175000  0.51985000  0.62207000  1.0
  H  H5  1  0.07826000  0.48015000  0.37793000  1.0
  H  H6  1  0.21475000  0.23430000  0.75937000  1.0
  H  H7  1  0.78525000  0.76570000  0.24063000  1.0
  H  H8  1  0.99642000  0.30402000  0.74399000  1.0
  H  H9  1  0.00357000  0.69598000  0.25601000  1.0
  H  H10  1  0.04393000  0.14883000  0.12474000  1.0
  H  H11  1  0.95607000  0.85117000  0.87526000  1.0
  H  H12  1  0.81826000  0.18255000  0.10924000  1.0
  H  H13  1  0.18174000  0.81745000  0.89076000  1.0
  H  H14  1  0.13014000  0.31735000  0.95313000  1.0
  H  H15  1  0.86986000  0.68265000  0.04687000  1.0
  H  H16  1  0.90586000  0.35839000  0.93833000  1.0
  H  H17  1  0.09414000  0.64161000  0.06167000  1.0
  H  H18  1  0.09788000  0.07559000  0.92817000  1.0
  H  H19  1  0.90212000  0.92440000  0.07183000  1.0
  H  H20  1  0.87732000  0.12531000  0.90539000  1.0
  H  H21  1  0.12267000  0.87469000  0.09461000  1.0
  H  H22  1  0.52829000  0.53339000  0.57941000  1.0
  H  H23  1  0.47171000  0.46661000  0.42059000  1.0
  H  H24  1  0.62734000  0.64395000  0.64792000  1.0
  H  H25  1  0.37266000  0.35605000  0.35208000  1.0
  H  H26  1  0.75172000  0.58377000  0.40659000  1.0
  H  H27  1  0.24829000  0.41623000  0.59341000  1.0
  H  H28  1  0.83658000  0.70461000  0.46763000  1.0
  H  H29  1  0.16342000  0.29539000  0.53237000  1.0
  H  H30  1  0.82815000  0.42306000  0.13453000  1.0
  H  H31  1  0.17185000  0.57694000  0.86547000  1.0
  H  H32  1  0.05431000  0.39140000  0.14922000  1.0
  H  H33  1  0.94569000  0.60860000  0.85078000  1.0
  H  H34  1  0.83051000  0.38164000  0.33684000  1.0
  H  H35  1  0.16949000  0.61837000  0.66316000  1.0
  H  H36  1  0.75953000  0.23481000  0.30430000  1.0
  H  H37  1  0.24048000  0.76519000  0.69570000  1.0
  H  H38  1  0.49933000  0.92007000  0.21142000  1.0
  H  H39  1  0.50067000  0.07993000  0.78858000  1.0
  H  H40  1  0.61904000  0.96277000  0.29567000  1.0
  H  H41  1  0.38096000  0.03724000  0.70433000  1.0
  H  H42  1  0.40294000  0.47435000  0.19839000  1.0
  H  H43  1  0.59706000  0.52565000  0.80162000  1.0
  H  H44  1  0.40303000  0.68580000  0.27648000  1.0
  H  H45  1  0.59697000  0.31420000  0.72352000  1.0
  H  H46  1  0.57882000  0.89553000  0.95895000  1.0
  H  H47  1  0.42118000  0.10447000  0.04105000  1.0
  H  H48  1  0.58958000  0.69680000  0.86744000  1.0
  H  H49  1  0.41041000  0.30320000  0.13257000  1.0
  C  C50  1  0.48877000  0.74551000  0.51797000  1.0
  C  C51  1  0.51123000  0.25449000  0.48203000  1.0
  C  C52  1  0.05589000  0.11055000  0.69505000  1.0
  C  C53  1  0.94411000  0.88945000  0.30496000  1.0
  C  C54  1  0.90890000  0.50015000  0.53729000  1.0
  C  C55  1  0.09110000  0.49986000  0.46271000  1.0
  C  C56  1  0.07598000  0.21036000  0.77170000  1.0
  C  C57  1  0.92402000  0.78964000  0.22830000  1.0
  C  C58  1  0.94594000  0.22872000  0.09424000  1.0
  C  C59  1  0.05406000  0.77128000  0.90576000  1.0
  C  C60  1  0.00025000  0.27483000  0.96786000  1.0
  C  C61  1  0.99975000  0.72517000  0.03213000  1.0
  C  C62  1  0.00951000  0.16217000  0.89683000  1.0
  C  C63  1  0.99048000  0.83783000  0.10317000  1.0
  C  C64  1  0.59975000  0.62474000  0.56666000  1.0
  C  C65  1  0.40025000  0.37526000  0.43334000  1.0
  C  C66  1  0.77679000  0.60750000  0.48745000  1.0
  C  C67  1  0.22321000  0.39250000  0.51255000  1.0
  C  C68  1  0.92801000  0.34400000  0.16374000  1.0
  C  C69  1  0.07199000  0.65600000  0.83626000  1.0
  C  C70  1  0.87389000  0.29615000  0.28979000  1.0
  C  C71  1  0.12612000  0.70385000  0.71021000  1.0
  C  C72  1  0.01810000  0.21268000  0.34721000  1.0
  C  C73  1  0.98191000  0.78732000  0.65279000  1.0
  C  C74  1  0.44373000  0.56484000  0.14121000  1.0
  C  C75  1  0.55626000  0.43516000  0.85879000  1.0
  C  C76  1  0.44291000  0.68332000  0.18596000  1.0
  C  C77  1  0.55708000  0.31667000  0.81405000  1.0
  C  C78  1  0.49728000  0.56300000  0.02469000  1.0
  C  C79  1  0.50271000  0.43700000  0.97531000  1.0
  C  C80  1  0.54028000  0.80030000  0.01034000  1.0
  C  C81  1  0.45971000  0.19970000  0.98966000  1.0
  C  C82  1  0.54497000  0.68625000  0.95850000  1.0
  C  C83  1  0.45503000  0.31375000  0.04150000  1.0
  N  N84  1  0.49130000  0.80038000  0.12217000  1.0
  N  N85  1  0.50869000  0.19962000  0.87783000  1.0
  O  O86  1  0.50139000  0.98060000  0.26923000  1.0
  O  O87  1  0.49861000  0.01940000  0.73077000  1.0
  O  O88  1  0.19623000  0.05866000  0.63800000  1.0
  O  O89  1  0.80377000  0.94134000  0.36200000  1.0
  O  O90  1  0.38360000  0.73626000  0.45108000  1.0
  O  O91  1  0.61640000  0.26374000  0.54892000  1.0
  O  O92  1  0.50531000  0.86230000  0.54514000  1.0
  O  O93  1  0.49469000  0.13770000  0.45486000  1.0
  O  O94  1  0.17945000  0.20941000  0.30182000  1.0
  O  O95  1  0.82055000  0.79059000  0.69818000  1.0
  O  O96  1  0.89914000  0.08548000  0.69103000  1.0
  O  O97  1  0.10086000  0.91452000  0.30897000  1.0
  O  O98  1  0.97282000  0.14318000  0.44631000  1.0
  O  O99  1  0.02718000  0.85682000  0.55369000  1.0
