# generated using pymatgen
data_CdH5C9(NO3)2
_symmetry_space_group_name_H-M   'P 1'
_cell_length_a   6.88783000
_cell_length_b   6.88782000
_cell_length_c   11.83500000
_cell_angle_alpha   76.42400000
_cell_angle_beta   76.42410000
_cell_angle_gamma   68.48300000
_symmetry_Int_Tables_number   1
_chemical_formula_structural   CdH5C9(NO3)2
_chemical_formula_sum   'Cd2 H10 C18 N4 O12'
_cell_volume   500.84723804
_cell_formula_units_Z   2
loop_
 _symmetry_equiv_pos_site_id
 _symmetry_equiv_pos_as_xyz
  1  'x, y, z'
loop_
 _atom_site_type_symbol
 _atom_site_label
 _atom_site_symmetry_multiplicity
 _atom_site_fract_x
 _atom_site_fract_y
 _atom_site_fract_z
 _atom_site_occupancy
  Cd  Cd0  1  0.43674000  0.43674000  0.78444000  1.0
  Cd  Cd1  1  0.56326000  0.56327000  0.21556000  1.0
  H  H2  1  0.52001000  0.71643000  0.90126000  1.0
  H  H3  1  0.28357000  0.47999000  0.09873000  1.0
  H  H4  1  0.47999000  0.28357000  0.09874000  1.0
  H  H5  1  0.71643000  0.52001000  0.90127000  1.0
  H  H6  1  0.74403000  0.74402000  0.66830000  1.0
  H  H7  1  0.25598000  0.25598000  0.33170000  1.0
  H  H8  1  0.90611000  0.90610000  0.46676000  1.0
  H  H9  1  0.09390000  0.09390000  0.53324000  1.0
  H  H10  1  0.82684000  0.82684000  0.28742000  1.0
  H  H11  1  0.17317000  0.17317000  0.71258000  1.0
  C  C12  1  0.03515000  0.73273000  0.93241000  1.0
  C  C13  1  0.26726000  0.96485000  0.06759000  1.0
  C  C14  1  0.96485000  0.26726000  0.06759000  1.0
  C  C15  1  0.73274000  0.03514000  0.93241000  1.0
  C  C16  1  0.85226000  0.85225000  0.01047000  1.0
  C  C17  1  0.14774000  0.14775000  0.98953000  1.0
  C  C18  1  0.01435000  0.82567000  0.80901000  1.0
  C  C19  1  0.17432000  0.98564000  0.19099000  1.0
  C  C20  1  0.98563000  0.17432000  0.19099000  1.0
  C  C21  1  0.82568000  0.01434000  0.80901000  1.0
  C  C22  1  0.72079000  0.72079000  0.58517000  1.0
  C  C23  1  0.27921000  0.27922000  0.41483000  1.0
  C  C24  1  0.80834000  0.80833000  0.47592000  1.0
  C  C25  1  0.19166000  0.19167000  0.52408000  1.0
  C  C26  1  0.76576000  0.76576000  0.37669000  1.0
  C  C27  1  0.23423000  0.23423000  0.62331000  1.0
  C  C28  1  0.56706000  0.56706000  0.49444000  1.0
  C  C29  1  0.43295000  0.43295000  0.50556000  1.0
  N  N30  1  0.60054000  0.60054000  0.59414000  1.0
  N  N31  1  0.39946000  0.39946000  0.40587000  1.0
  N  N32  1  0.64563000  0.64563000  0.38564000  1.0
  N  N33  1  0.35438000  0.35437000  0.61436000  1.0
  O  O34  1  0.19030000  0.57514000  0.96123000  1.0
  O  O35  1  0.42486000  0.80972000  0.03877000  1.0
  O  O36  1  0.80971000  0.42487000  0.03877000  1.0
  O  O37  1  0.57514000  0.19030000  0.96123000  1.0
  O  O38  1  0.80800000  0.80799000  0.12015000  1.0
  O  O39  1  0.19201000  0.19201000  0.87985000  1.0
  O  O40  1  0.14291000  0.75256000  0.72225000  1.0
  O  O41  1  0.24742000  0.85709000  0.27775000  1.0
  O  O42  1  0.85708000  0.24743000  0.27775000  1.0
  O  O43  1  0.75256000  0.14291000  0.72226000  1.0
  O  O44  1  0.61905000  0.61905000  0.84726000  1.0
  O  O45  1  0.38095000  0.38095000  0.15274000  1.0
