# generated using pymatgen
data_InH5C4O7
_symmetry_space_group_name_H-M   'P 1'
_cell_length_a   7.11285000
_cell_length_b   9.24918000
_cell_length_c   10.54640000
_cell_angle_alpha   89.99940000
_cell_angle_beta   89.99990000
_cell_angle_gamma   93.65700000
_symmetry_Int_Tables_number   1
_chemical_formula_structural   InH5C4O7
_chemical_formula_sum   'In4 H20 C16 O28'
_cell_volume   692.41408680
_cell_formula_units_Z   4
loop_
 _symmetry_equiv_pos_site_id
 _symmetry_equiv_pos_as_xyz
  1  'x, y, z'
loop_
 _atom_site_type_symbol
 _atom_site_label
 _atom_site_symmetry_multiplicity
 _atom_site_fract_x
 _atom_site_fract_y
 _atom_site_fract_z
 _atom_site_occupancy
  In  In0  1  0.32071000  0.24994000  0.20412000  1.0
  In  In1  1  0.67929000  0.75006000  0.70411000  1.0
  In  In2  1  0.51795000  0.73266000  0.01516000  1.0
  In  In3  1  0.48204000  0.26733000  0.51515000  1.0
  H  H4  1  0.16430000  0.32245000  0.93440000  1.0
  H  H5  1  0.83570000  0.67755000  0.43440000  1.0
  H  H6  1  0.22952000  0.16692000  0.96001000  1.0
  H  H7  1  0.77049000  0.83309000  0.46001000  1.0
  H  H8  1  0.11588000  0.64703000  0.97949000  1.0
  H  H9  1  0.88412000  0.35297000  0.47950000  1.0
  H  H10  1  0.23395000  0.58407000  0.86671000  1.0
  H  H11  1  0.76604000  0.41593000  0.36671000  1.0
  H  H12  1  0.99505000  0.08257000  0.18406000  1.0
  H  H13  1  0.00495000  0.91743000  0.68406000  1.0
  H  H14  1  0.08880000  0.38986000  0.64100000  1.0
  H  H15  1  0.91119000  0.61015000  0.14100000  1.0
  H  H16  1  0.06806000  0.87325000  0.31299000  1.0
  H  H17  1  0.93194000  0.12674000  0.81299000  1.0
  H  H18  1  0.39173000  0.89617000  0.41051000  1.0
  H  H19  1  0.60828000  0.10383000  0.91052000  1.0
  H  H20  1  0.34184000  0.62150000  0.35027000  1.0
  H  H21  1  0.65816000  0.37850000  0.85027000  1.0
  H  H22  1  0.10312000  0.61670000  0.52209000  1.0
  H  H23  1  0.89688000  0.38331000  0.02209000  1.0
  C  C24  1  0.28668000  0.92629000  0.17466000  1.0
  C  C25  1  0.71333000  0.07371000  0.67466000  1.0
  C  C26  1  0.16910000  0.96382000  0.28961000  1.0
  C  C27  1  0.83090000  0.03617000  0.78962000  1.0
  C  C28  1  0.31141000  0.99380000  0.39836000  1.0
  C  C29  1  0.68859000  0.00619000  0.89836000  1.0
  C  C30  1  0.21029000  0.01196000  0.52629000  1.0
  C  C31  1  0.78972000  0.98804000  0.02630000  1.0
  C  C32  1  0.09793000  0.50060000  0.28616000  1.0
  C  C33  1  0.90206000  0.49940000  0.78616000  1.0
  C  C34  1  0.26766000  0.51677000  0.37612000  1.0
  C  C35  1  0.73233000  0.48323000  0.87612000  1.0
  C  C36  1  0.19764000  0.52816000  0.51359000  1.0
  C  C37  1  0.80236000  0.47184000  0.01359000  1.0
  C  C38  1  0.36851000  0.56479000  0.59648000  1.0
  C  C39  1  0.63150000  0.43520000  0.09649000  1.0
  O  O40  1  0.25988000  0.26903000  0.97944000  1.0
  O  O41  1  0.74013000  0.73098000  0.47944000  1.0
  O  O42  1  0.23631000  0.66030000  0.93086000  1.0
  O  O43  1  0.76368000  0.33970000  0.43087000  1.0
  O  O44  1  0.34950000  0.02882000  0.10361000  1.0
  O  O45  1  0.65050000  0.97117000  0.60362000  1.0
  O  O46  1  0.32264000  0.79378000  0.16223000  1.0
  O  O47  1  0.67735000  0.20622000  0.66223000  1.0
  O  O48  1  0.07744000  0.09456000  0.26721000  1.0
  O  O49  1  0.92257000  0.90544000  0.76721000  1.0
  O  O50  1  0.43362000  0.11355000  0.36419000  1.0
  O  O51  1  0.56637000  0.88645000  0.86419000  1.0
  O  O52  1  0.26339000  0.11818000  0.59822000  1.0
  O  O53  1  0.73661000  0.88182000  0.09823000  1.0
  O  O54  1  0.08320000  0.91633000  0.55491000  1.0
  O  O55  1  0.91681000  0.08366000  0.05491000  1.0
  O  O56  1  0.09814000  0.40333000  0.20059000  1.0
  O  O57  1  0.90185000  0.59667000  0.70059000  1.0
  O  O58  1  0.96516000  0.58570000  0.29714000  1.0
  O  O59  1  0.03484000  0.41430000  0.79713000  1.0
  O  O60  1  0.38705000  0.40294000  0.36139000  1.0
  O  O61  1  0.61294000  0.59707000  0.86140000  1.0
  O  O62  1  0.10852000  0.39057000  0.54666000  1.0
  O  O63  1  0.89148000  0.60943000  0.04666000  1.0
  O  O64  1  0.47674000  0.46567000  0.62715000  1.0
  O  O65  1  0.52326000  0.53433000  0.12715000  1.0
  O  O66  1  0.40008000  0.69694000  0.62758000  1.0
  O  O67  1  0.59993000  0.30307000  0.12759000  1.0
