# generated using pymatgen
data_CdH6C10I2(NCl2)2
_symmetry_space_group_name_H-M   'P 1'
_cell_length_a   4.11131000
_cell_length_b   14.77050000
_cell_length_c   14.77091177
_cell_angle_alpha   88.89532349
_cell_angle_beta   81.99443465
_cell_angle_gamma   82.00570000
_symmetry_Int_Tables_number   1
_chemical_formula_structural   CdH6C10I2(NCl2)2
_chemical_formula_sum   'Cd2 H12 C20 I4 N4 Cl8'
_cell_volume   879.60646726
_cell_formula_units_Z   2
loop_
 _symmetry_equiv_pos_site_id
 _symmetry_equiv_pos_as_xyz
  1  'x, y, z'
loop_
 _atom_site_type_symbol
 _atom_site_label
 _atom_site_symmetry_multiplicity
 _atom_site_fract_x
 _atom_site_fract_y
 _atom_site_fract_z
 _atom_site_occupancy
  Cd  Cd0  1  0.35877000  0.00003000  0.99997000  1.0
  Cd  Cd1  1  0.10812000  0.49995000  0.50005000  1.0
  H  H2  1  0.50969000  0.77857000  0.97959000  1.0
  H  H3  1  0.26736000  0.22149000  0.02033000  1.0
  H  H4  1  0.23881000  0.52031000  0.27858000  1.0
  H  H5  1  0.03799000  0.47957000  0.72154000  1.0
  H  H6  1  0.26786000  0.02041000  0.22143000  1.0
  H  H7  1  0.50918000  0.97967000  0.77850000  1.0
  H  H8  1  0.03770000  0.72142000  0.47970000  1.0
  H  H9  1  0.23910000  0.27846000  0.52043000  1.0
  H  H10  1  0.96208000  0.70412000  0.70394000  1.0
  H  H11  1  0.37015000  0.29605000  0.29588000  1.0
  H  H12  1  0.41573000  0.79590000  0.20410000  1.0
  H  H13  1  0.41561000  0.20397000  0.79604000  1.0
  C  C14  1  0.57766000  0.79538000  0.90786000  1.0
  C  C15  1  0.28053000  0.20474000  0.09207000  1.0
  C  C16  1  0.23461000  0.59207000  0.29533000  1.0
  C  C17  1  0.12244000  0.40781000  0.70478000  1.0
  C  C18  1  0.28091000  0.09213000  0.20462000  1.0
  C  C19  1  0.57731000  0.90794000  0.79526000  1.0
  C  C20  1  0.12201000  0.70467000  0.40794000  1.0
  C  C21  1  0.23500000  0.29522000  0.59219000  1.0
  C  C22  1  0.74073000  0.72938000  0.84467000  1.0
  C  C23  1  0.31448000  0.27077000  0.15520000  1.0
  C  C24  1  0.33458000  0.65521000  0.22932000  1.0
  C  C25  1  0.21909000  0.34465000  0.77082000  1.0
  C  C26  1  0.31480000  0.15532000  0.27062000  1.0
  C  C27  1  0.74044000  0.84480000  0.72922000  1.0
  C  C28  1  0.21912000  0.77068000  0.34478000  1.0
  C  C29  1  0.33456000  0.22918000  0.65535000  1.0
  C  C30  1  0.82823000  0.75404000  0.75387000  1.0
  C  C31  1  0.33616000  0.24612000  0.24597000  1.0
  C  C32  1  0.33133000  0.74601000  0.25400000  1.0
  C  C33  1  0.33138000  0.25385000  0.74616000  1.0
  I  I34  1  0.87127000  0.10302000  0.89698000  1.0
  I  I35  1  0.87177000  0.89699000  0.10300000  1.0
  I  I36  1  0.51775000  0.60300000  0.60294000  1.0
  I  I37  1  0.72369000  0.39706000  0.39700000  1.0
  N  N38  1  0.50366000  0.88262000  0.88251000  1.0
  N  N39  1  0.26881000  0.11748000  0.11738000  1.0
  N  N40  1  0.13551000  0.61741000  0.38259000  1.0
  N  N41  1  0.13617000  0.38249000  0.61751000  1.0
  Cl  Cl42  1  0.84024000  0.61789000  0.87906000  1.0
  Cl  Cl43  1  0.33611000  0.38230000  0.12074000  1.0
  Cl  Cl44  1  0.46889000  0.62074000  0.11785000  1.0
  Cl  Cl45  1  0.20659000  0.37908000  0.88235000  1.0
  Cl  Cl46  1  0.33719000  0.12093000  0.38212000  1.0
  Cl  Cl47  1  0.83914000  0.87927000  0.61769000  1.0
  Cl  Cl48  1  0.20749000  0.88216000  0.37926000  1.0
  Cl  Cl49  1  0.46801000  0.11767000  0.62093000  1.0
