# generated using pymatgen
data_ZnH13(C3N2)3
_symmetry_space_group_name_H-M   'P 1'
_cell_length_a   10.97620000
_cell_length_b   12.50040000
_cell_length_c   16.52870000
_cell_angle_alpha   89.99980000
_cell_angle_beta   84.85510000
_cell_angle_gamma   89.99990000
_symmetry_Int_Tables_number   1
_chemical_formula_structural   ZnH13(C3N2)3
_chemical_formula_sum   'Zn8 H104 C72 N48'
_cell_volume   2258.71457753
_cell_formula_units_Z   8
loop_
 _symmetry_equiv_pos_site_id
 _symmetry_equiv_pos_as_xyz
  1  'x, y, z'
loop_
 _atom_site_type_symbol
 _atom_site_label
 _atom_site_symmetry_multiplicity
 _atom_site_fract_x
 _atom_site_fract_y
 _atom_site_fract_z
 _atom_site_occupancy
  Zn  Zn0  1  0.27295000  0.26592000  0.59625000  1.0
  Zn  Zn1  1  0.22705000  0.76592000  0.90375000  1.0
  Zn  Zn2  1  0.72705000  0.73408000  0.40375000  1.0
  Zn  Zn3  1  0.77295000  0.23408000  0.09625000  1.0
  Zn  Zn4  1  0.78882000  0.25812000  0.46559000  1.0
  Zn  Zn5  1  0.71118000  0.75812000  0.03441000  1.0
  Zn  Zn6  1  0.21118000  0.74188000  0.53441000  1.0
  Zn  Zn7  1  0.28882000  0.24188000  0.96559000  1.0
  H  H8  1  0.91863000  0.36964000  0.20401000  1.0
  H  H9  1  0.58137000  0.86964000  0.29599000  1.0
  H  H10  1  0.08137000  0.63036000  0.79599000  1.0
  H  H11  1  0.41863000  0.13036000  0.70401000  1.0
  H  H12  1  0.98480000  0.32860000  0.29298000  1.0
  H  H13  1  0.51520000  0.82860000  0.20702000  1.0
  H  H14  1  0.01520000  0.67140000  0.70702000  1.0
  H  H15  1  0.48480000  0.17140000  0.79298000  1.0
  H  H16  1  0.86322000  0.42266000  0.29990000  1.0
  H  H17  1  0.63678000  0.92266000  0.20011000  1.0
  H  H18  1  0.13678000  0.57734000  0.70010000  1.0
  H  H19  1  0.36322000  0.07734000  0.79990000  1.0
  H  H20  1  0.53224000  0.03908000  0.35928000  1.0
  H  H21  1  0.96776000  0.53908000  0.14072000  1.0
  H  H22  1  0.46776000  0.96092000  0.64072000  1.0
  H  H23  1  0.03224000  0.46092000  0.85928000  1.0
  H  H24  1  0.66185000  0.00617000  0.41045000  1.0
  H  H25  1  0.83814000  0.50618000  0.08955000  1.0
  H  H26  1  0.33815000  0.99383000  0.58955000  1.0
  H  H27  1  0.16185000  0.49383000  0.91045000  1.0
  H  H28  1  0.50476000  0.33109000  0.67443000  1.0
  H  H29  1  0.99524000  0.83109000  0.82557000  1.0
  H  H30  1  0.49524000  0.66891000  0.32557000  1.0
  H  H31  1  0.00476000  0.16891000  0.17443000  1.0
  H  H32  1  0.63619000  0.37436000  0.61146000  1.0
  H  H33  1  0.86382000  0.87436000  0.88854000  1.0
  H  H34  1  0.36381000  0.62564000  0.38854000  1.0
  H  H35  1  0.13619000  0.12564000  0.11146000  1.0
  H  H36  1  0.64532000  0.25922000  0.67247000  1.0
  H  H37  1  0.85468000  0.75922000  0.82753000  1.0
  H  H38  1  0.35468000  0.74078000  0.32752000  1.0
  H  H39  1  0.14532000  0.24078000  0.17248000  1.0
  H  H40  1  0.99430000  0.00614000  0.68488000  1.0
  H  H41  1  0.50571000  0.50614000  0.81512000  1.0
  H  H42  1  0.00570000  0.99386000  0.31512000  1.0
  H  H43  1  0.49429000  0.49386000  0.18488000  1.0
  H  H44  1  0.13355000  0.07576000  0.69734000  1.0
  H  H45  1  0.36645000  0.57576000  0.80266000  1.0
  H  H46  1  0.86645000  0.92424000  0.30265000  1.0
  H  H47  1  0.63355000  0.42424000  0.19734000  1.0
  H  H48  1  0.12829000  0.97524000  0.62140000  1.0
  H  H49  1  0.37171000  0.47524000  0.87861000  1.0
  H  H50  1  0.87171000  0.02476000  0.37860000  1.0
  H  H51  1  0.62829000  0.52476000  0.12139000  1.0
  H  H52  1  0.02100000  0.37683000  0.42451000  1.0
  H  H53  1  0.47900000  0.87683000  0.07549000  1.0
  H  H54  1  0.97900000  0.62317000  0.57549000  1.0
  H  H55  1  0.52100000  0.12317000  0.92451000  1.0
  H  H56  1  0.15886000  0.30356000  0.40266000  1.0
  H  H57  1  0.34114000  0.80356000  0.09735000  1.0
  H  H58  1  0.84114000  0.69644000  0.59735000  1.0
  H  H59  1  0.65886000  0.19644000  0.90265000  1.0
  H  H60  1  0.39307000  0.62097000  0.62568000  1.0
  H  H61  1  0.10693000  0.12097000  0.87432000  1.0
  H  H62  1  0.60693000  0.37903000  0.37432000  1.0
  H  H63  1  0.89307000  0.87903000  0.12568000  1.0
  H  H64  1  0.47855000  0.50927000  0.58628000  1.0
  H  H65  1  0.02145000  0.00927000  0.91372000  1.0
  H  H66  1  0.52145000  0.49073000  0.41372000  1.0
  H  H67  1  0.97855000  0.99073000  0.08628000  1.0
  H  H68  1  0.37253000  0.49337000  0.67309000  1.0
  H  H69  1  0.12747000  0.99337000  0.82691000  1.0
  H  H70  1  0.62746000  0.50663000  0.32691000  1.0
  H  H71  1  0.87253000  0.00663000  0.17309000  1.0
  H  H72  1  0.36579000  0.33479000  0.33583000  1.0
  H  H73  1  0.13421000  0.83479000  0.16416000  1.0
  H  H74  1  0.63421000  0.66521000  0.66417000  1.0
  H  H75  1  0.86579000  0.16521000  0.83583000  1.0
  H  H76  1  0.38054000  0.30868000  0.22963000  1.0
  H  H77  1  0.11946000  0.80868000  0.27037000  1.0
  H  H78  1  0.61946000  0.69132000  0.77037000  1.0
  H  H79  1  0.88054000  0.19132000  0.72963000  1.0
  H  H80  1  0.49074000  0.25817000  0.29138000  1.0
  H  H81  1  0.00926000  0.75817000  0.20862000  1.0
  H  H82  1  0.50925000  0.74183000  0.70862000  1.0
  H  H83  1  0.99075000  0.24183000  0.79138000  1.0
  H  H84  1  0.22098000  0.18680000  0.30140000  1.0
  H  H85  1  0.27902000  0.68680000  0.19860000  1.0
  H  H86  1  0.77902000  0.81320000  0.69860000  1.0
  H  H87  1  0.72098000  0.31320000  0.80140000  1.0
  H  H88  1  0.33022000  0.14039000  0.36482000  1.0
  H  H89  1  0.16978000  0.64039000  0.13518000  1.0
  H  H90  1  0.66978000  0.85961000  0.63518000  1.0
  H  H91  1  0.83022000  0.35961000  0.86482000  1.0
  H  H92  1  0.45930000  0.07803000  0.23480000  1.0
  H  H93  1  0.04069000  0.57803000  0.26520000  1.0
  H  H94  1  0.54070000  0.92197000  0.76520000  1.0
  H  H95  1  0.95931000  0.42197000  0.73480000  1.0
  H  H96  1  0.33513000  0.10879000  0.17992000  1.0
  H  H97  1  0.16487000  0.60879000  0.32008000  1.0
  H  H98  1  0.66488000  0.89121000  0.82008000  1.0
  H  H99  1  0.83513000  0.39121000  0.67992000  1.0
  H  H100  1  0.32370000  0.91592000  0.21648000  1.0
  H  H101  1  0.17630000  0.41592000  0.28352000  1.0
  H  H102  1  0.67630000  0.08408000  0.78352000  1.0
  H  H103  1  0.82370000  0.58408000  0.71649000  1.0
  H  H104  1  0.20087000  0.98238000  0.27198000  1.0
  H  H105  1  0.29913000  0.48238000  0.22802000  1.0
  H  H106  1  0.79913000  0.01762000  0.72802000  1.0
  H  H107  1  0.70088000  0.51763000  0.77198000  1.0
  H  H108  1  0.33030000  0.94687000  0.32131000  1.0
  H  H109  1  0.16970000  0.44687000  0.17869000  1.0
  H  H110  1  0.66970000  0.05313000  0.67869000  1.0
  H  H111  1  0.83030000  0.55313000  0.82131000  1.0
  C  C112  1  0.89844000  0.35009000  0.26835000  1.0
  C  C113  1  0.60156000  0.85010000  0.23165000  1.0
  C  C114  1  0.10156000  0.64991000  0.73165000  1.0
  C  C115  1  0.39844000  0.14991000  0.76835000  1.0
  C  C116  1  0.80977000  0.26034000  0.27775000  1.0
  C  C117  1  0.69023000  0.76034000  0.22225000  1.0
  C  C118  1  0.19023000  0.73966000  0.72225000  1.0
  C  C119  1  0.30977000  0.23966000  0.77775000  1.0
  C  C120  1  0.68487000  0.14006000  0.32873000  1.0
  C  C121  1  0.81512000  0.64006000  0.17128000  1.0
  C  C122  1  0.31512000  0.85994000  0.67128000  1.0
  C  C123  1  0.18488000  0.35994000  0.82872000  1.0
  C  C124  1  0.60821000  0.07359000  0.38920000  1.0
  C  C125  1  0.89178000  0.57359000  0.11080000  1.0
  C  C126  1  0.39178000  0.92641000  0.61080000  1.0
  C  C127  1  0.10822000  0.42641000  0.88920000  1.0
  C  C128  1  0.55715000  0.13530000  0.46199000  1.0
  C  C129  1  0.94284000  0.63530000  0.03801000  1.0
  C  C130  1  0.44284000  0.86470000  0.53801000  1.0
  C  C131  1  0.05715000  0.36470000  0.96199000  1.0
  C  C132  1  0.54802000  0.23572000  0.56808000  1.0
  C  C133  1  0.95198000  0.73572000  0.93192000  1.0
  C  C134  1  0.45198000  0.76428000  0.43192000  1.0
  C  C135  1  0.04802000  0.26428000  0.06808000  1.0
  C  C136  1  0.58463000  0.30414000  0.63534000  1.0
  C  C137  1  0.91537000  0.80414000  0.86466000  1.0
  C  C138  1  0.41536000  0.69586000  0.36466000  1.0
  C  C139  1  0.08464000  0.19586000  0.13534000  1.0
  C  C140  1  0.07677000  0.04072000  0.65279000  1.0
  C  C141  1  0.42323000  0.54071000  0.84721000  1.0
  C  C142  1  0.92323000  0.95928000  0.34721000  1.0
  C  C143  1  0.57677000  0.45929000  0.15279000  1.0
  C  C144  1  0.04191000  0.12209000  0.59362000  1.0
  C  C145  1  0.45809000  0.62208000  0.90639000  1.0
  C  C146  1  0.95809000  0.87791000  0.40638000  1.0
  C  C147  1  0.54191000  0.37791000  0.09361000  1.0
  C  C148  1  0.05156000  0.25215000  0.50810000  1.0
  C  C149  1  0.44844000  0.75215000  0.99190000  1.0
  C  C150  1  0.94844000  0.74785000  0.49190000  1.0
  C  C151  1  0.55156000  0.24785000  0.00810000  1.0
  C  C152  1  0.09774000  0.33975000  0.45198000  1.0
  C  C153  1  0.40226000  0.83974000  0.04802000  1.0
  C  C154  1  0.90226000  0.66026000  0.54802000  1.0
  C  C155  1  0.59774000  0.16026000  0.95198000  1.0
  C  C156  1  0.16490000  0.42699000  0.49080000  1.0
  C  C157  1  0.33510000  0.92699000  0.00919000  1.0
  C  C158  1  0.83510000  0.57301000  0.50920000  1.0
  C  C159  1  0.66490000  0.07301000  0.99080000  1.0
  C  C160  1  0.29041000  0.50959000  0.56144000  1.0
  C  C161  1  0.20959000  0.00959000  0.93856000  1.0
  C  C162  1  0.70959000  0.49041000  0.43856000  1.0
  C  C163  1  0.79041000  0.99041000  0.06144000  1.0
  C  C164  1  0.38875000  0.53479000  0.61455000  1.0
  C  C165  1  0.11125000  0.03479000  0.88545000  1.0
  C  C166  1  0.61125000  0.46521000  0.38545000  1.0
  C  C167  1  0.88875000  0.96521000  0.11455000  1.0
  C  C168  1  0.39267000  0.27417000  0.28948000  1.0
  C  C169  1  0.10733000  0.77416000  0.21051000  1.0
  C  C170  1  0.60733000  0.72583000  0.71052000  1.0
  C  C171  1  0.89267000  0.22584000  0.78948000  1.0
  C  C172  1  0.31983000  0.17089000  0.30327000  1.0
  C  C173  1  0.18017000  0.67088000  0.19673000  1.0
  C  C174  1  0.68017000  0.82911000  0.69673000  1.0
  C  C175  1  0.81984000  0.32912000  0.80327000  1.0
  C  C176  1  0.35878000  0.08450000  0.24066000  1.0
  C  C177  1  0.14122000  0.58450000  0.25934000  1.0
  C  C178  1  0.64122000  0.91550000  0.75934000  1.0
  C  C179  1  0.85878000  0.41550000  0.74066000  1.0
  C  C180  1  0.30105000  0.97661000  0.26343000  1.0
  C  C181  1  0.19895000  0.47661000  0.23657000  1.0
  C  C182  1  0.69895000  0.02339000  0.73657000  1.0
  C  C183  1  0.80105000  0.52340000  0.76343000  1.0
  N  N184  1  0.11916000  0.20037000  0.56054000  1.0
  N  N185  1  0.38084000  0.70036000  0.93946000  1.0
  N  N186  1  0.88084000  0.79964000  0.43946000  1.0
  N  N187  1  0.61916000  0.29964000  0.06054000  1.0
  N  N188  1  0.93322000  0.12512000  0.56445000  1.0
  N  N189  1  0.56679000  0.62511000  0.93555000  1.0
  N  N190  1  0.06678000  0.87488000  0.43555000  1.0
  N  N191  1  0.43322000  0.37488000  0.06445000  1.0
  N  N192  1  0.93999000  0.20860000  0.50972000  1.0
  N  N193  1  0.56002000  0.70859000  0.99028000  1.0
  N  N194  1  0.06001000  0.79140000  0.49028000  1.0
  N  N195  1  0.43999000  0.29140000  0.00972000  1.0
  N  N196  1  0.25384000  0.40985000  0.54245000  1.0
  N  N197  1  0.24616000  0.90985000  0.95755000  1.0
  N  N198  1  0.74616000  0.59015000  0.45755000  1.0
  N  N199  1  0.75384000  0.09015000  0.04245000  1.0
  N  N200  1  0.14611000  0.52996000  0.47763000  1.0
  N  N201  1  0.35389000  0.02996000  0.02237000  1.0
  N  N202  1  0.85389000  0.47004000  0.52237000  1.0
  N  N203  1  0.64611000  0.97004000  0.97763000  1.0
  N  N204  1  0.22634000  0.58260000  0.52331000  1.0
  N  N205  1  0.27366000  0.08260000  0.97668000  1.0
  N  N206  1  0.77366000  0.41740000  0.47669000  1.0
  N  N207  1  0.72634000  0.91740000  0.02331000  1.0
  N  N208  1  0.43423000  0.20220000  0.55724000  1.0
  N  N209  1  0.06577000  0.70220000  0.94276000  1.0
  N  N210  1  0.56576000  0.79780000  0.44276000  1.0
  N  N211  1  0.93424000  0.29780000  0.05724000  1.0
  N  N212  1  0.43982000  0.13766000  0.48917000  1.0
  N  N213  1  0.06018000  0.63766000  0.01083000  1.0
  N  N214  1  0.56018000  0.86234000  0.51083000  1.0
  N  N215  1  0.93982000  0.36234000  0.98917000  1.0
  N  N216  1  0.62809000  0.19504000  0.50906000  1.0
  N  N217  1  0.87190000  0.69504000  0.99094000  1.0
  N  N218  1  0.37190000  0.80496000  0.49094000  1.0
  N  N219  1  0.12810000  0.30496000  0.00906000  1.0
  N  N220  1  0.76463000  0.21768000  0.34961000  1.0
  N  N221  1  0.73537000  0.71768000  0.15039000  1.0
  N  N222  1  0.23537000  0.78232000  0.65039000  1.0
  N  N223  1  0.26463000  0.28232000  0.84961000  1.0
  N  N224  1  0.68148000  0.13240000  0.24885000  1.0
  N  N225  1  0.81852000  0.63240000  0.25115000  1.0
  N  N226  1  0.31852000  0.86760000  0.75115000  1.0
  N  N227  1  0.18148000  0.36760000  0.74885000  1.0
  N  N228  1  0.76124000  0.20982000  0.21657000  1.0
  N  N229  1  0.73876000  0.70982000  0.28343000  1.0
  N  N230  1  0.23876000  0.79018000  0.78343000  1.0
  N  N231  1  0.26124000  0.29018000  0.71657000  1.0
