# generated using pymatgen
data_CuH14C16N6O5F2
_symmetry_space_group_name_H-M   'P 1'
_cell_length_a   8.65047000
_cell_length_b   21.61650000
_cell_length_c   21.61716936
_cell_angle_alpha   87.72244317
_cell_angle_beta   78.45769974
_cell_angle_gamma   78.44940000
_symmetry_Int_Tables_number   1
_chemical_formula_structural   CuH14C16N6O5F2
_chemical_formula_sum   'Cu8 H112 C128 N48 O40 F16'
_cell_volume   3880.30381011
_cell_formula_units_Z   8
loop_
 _symmetry_equiv_pos_site_id
 _symmetry_equiv_pos_as_xyz
  1  'x, y, z'
loop_
 _atom_site_type_symbol
 _atom_site_label
 _atom_site_symmetry_multiplicity
 _atom_site_fract_x
 _atom_site_fract_y
 _atom_site_fract_z
 _atom_site_occupancy
  Cu  Cu0  1  0.83241000  0.13007000  0.33989000  1.0
  Cu  Cu1  1  0.80205000  0.36995000  0.16009000  1.0
  Cu  Cu2  1  0.17222000  0.66015000  0.63007000  1.0
  Cu  Cu3  1  0.96259000  0.83988000  0.86993000  1.0
  Cu  Cu4  1  0.16760000  0.86993000  0.66011000  1.0
  Cu  Cu5  1  0.19796000  0.63005000  0.83991000  1.0
  Cu  Cu6  1  0.82779000  0.33985000  0.36993000  1.0
  Cu  Cu7  1  0.03743000  0.16012000  0.13007000  1.0
  H  H8  1  0.66147000  0.97746000  0.59045000  1.0
  H  H9  1  0.72917000  0.52252000  0.90964000  1.0
  H  H10  1  0.25171000  0.40972000  0.47752000  1.0
  H  H11  1  0.63860000  0.09019000  0.02262000  1.0
  H  H12  1  0.33853000  0.02254000  0.40955000  1.0
  H  H13  1  0.27082000  0.47748000  0.09036000  1.0
  H  H14  1  0.74829000  0.59028000  0.52248000  1.0
  H  H15  1  0.36141000  0.90981000  0.97737000  1.0
  H  H16  1  0.66663000  0.24643000  0.44197000  1.0
  H  H17  1  0.85497000  0.25360000  0.05807000  1.0
  H  H18  1  0.10820000  0.55819000  0.74655000  1.0
  H  H19  1  0.91338000  0.94192000  0.75352000  1.0
  H  H20  1  0.33336000  0.75357000  0.55803000  1.0
  H  H21  1  0.14503000  0.74640000  0.94193000  1.0
  H  H22  1  0.89180000  0.44181000  0.25345000  1.0
  H  H23  1  0.08663000  0.05808000  0.24648000  1.0
  H  H24  1  0.56430000  0.06369000  0.45747000  1.0
  H  H25  1  0.58562000  0.43637000  0.04243000  1.0
  H  H26  1  0.02180000  0.54256000  0.56376000  1.0
  H  H27  1  0.62825000  0.95749000  0.93625000  1.0
  H  H28  1  0.43570000  0.93631000  0.54253000  1.0
  H  H29  1  0.41437000  0.56363000  0.95757000  1.0
  H  H30  1  0.97820000  0.45744000  0.43624000  1.0
  H  H31  1  0.37176000  0.04251000  0.06375000  1.0
  H  H32  1  0.34151000  0.09189000  0.57376000  1.0
  H  H33  1  0.50697000  0.40805000  0.92622000  1.0
  H  H34  1  0.91510000  0.42631000  0.59194000  1.0
  H  H35  1  0.43322000  0.07366000  0.90804000  1.0
  H  H36  1  0.65849000  0.90811000  0.42624000  1.0
  H  H37  1  0.49303000  0.59195000  0.07378000  1.0
  H  H38  1  0.08490000  0.57369000  0.40806000  1.0
  H  H39  1  0.56678000  0.92633000  0.09196000  1.0
  H  H40  1  0.38133000  0.15642000  0.61258000  1.0
  H  H41  1  0.65038000  0.34357000  0.88739000  1.0
  H  H42  1  0.99390000  0.38750000  0.65642000  1.0
  H  H43  1  0.53778000  0.11258000  0.84366000  1.0
  H  H44  1  0.61867000  0.84358000  0.38742000  1.0
  H  H45  1  0.34962000  0.65643000  0.11261000  1.0
  H  H46  1  0.00610000  0.61251000  0.34358000  1.0
  H  H47  1  0.46222000  0.88741000  0.15634000  1.0
  H  H48  1  0.58593000  0.02156000  0.69778000  1.0
  H  H49  1  0.80559000  0.47848000  0.80236000  1.0
  H  H50  1  0.28399000  0.30246000  0.52144000  1.0
  H  H51  1  0.60770000  0.19755000  0.97866000  1.0
  H  H52  1  0.41407000  0.97844000  0.30222000  1.0
  H  H53  1  0.19441000  0.52152000  0.19764000  1.0
  H  H54  1  0.71601000  0.69753000  0.47856000  1.0
  H  H55  1  0.39231000  0.80245000  0.02133000  1.0
  H  H56  1  0.45415000  0.09630000  0.70651000  1.0
  H  H57  1  0.75753000  0.40373000  0.79349000  1.0
  H  H58  1  0.16121000  0.29360000  0.59619000  1.0
  H  H59  1  0.55088000  0.20638000  0.90390000  1.0
  H  H60  1  0.54585000  0.90370000  0.29349000  1.0
  H  H61  1  0.24247000  0.59627000  0.20651000  1.0
  H  H62  1  0.83879000  0.70640000  0.40381000  1.0
  H  H63  1  0.44912000  0.79362000  0.09609000  1.0
  H  H64  1  0.46696000  0.92468000  0.67585000  1.0
  H  H65  1  0.56763000  0.57529000  0.82431000  1.0
  H  H66  1  0.14293000  0.32413000  0.42465000  1.0
  H  H67  1  0.39141000  0.17585000  0.07542000  1.0
  H  H68  1  0.53304000  0.07532000  0.32415000  1.0
  H  H69  1  0.43237000  0.42471000  0.17569000  1.0
  H  H70  1  0.85708000  0.67587000  0.57535000  1.0
  H  H71  1  0.60859000  0.82415000  0.92458000  1.0
  H  H72  1  0.99616000  0.02388000  0.67280000  1.0
  H  H73  1  0.19326000  0.47604000  0.82715000  1.0
  H  H74  1  0.66921000  0.32716000  0.52394000  1.0
  H  H75  1  0.02013000  0.17295000  0.97603000  1.0
  H  H76  1  0.00384000  0.97613000  0.32720000  1.0
  H  H77  1  0.80674000  0.52396000  0.17285000  1.0
  H  H78  1  0.33079000  0.67284000  0.47605000  1.0
  H  H79  1  0.97987000  0.82705000  0.02397000  1.0
  H  H80  1  0.84005000  0.22307000  0.66051000  1.0
  H  H81  1  0.22339000  0.27704000  0.83968000  1.0
  H  H82  1  0.50102000  0.33957000  0.72281000  1.0
  H  H83  1  0.06262000  0.16043000  0.77726000  1.0
  H  H84  1  0.15995000  0.77693000  0.33949000  1.0
  H  H85  1  0.77660000  0.72296000  0.16032000  1.0
  H  H86  1  0.49898000  0.66043000  0.27719000  1.0
  H  H87  1  0.93738000  0.83957000  0.22274000  1.0
  H  H88  1  0.08838000  0.09160000  0.51095000  1.0
  H  H89  1  0.19037000  0.40846000  0.98930000  1.0
  H  H90  1  0.59920000  0.48928000  0.59157000  1.0
  H  H91  1  0.17992000  0.01079000  0.90852000  1.0
  H  H92  1  0.91162000  0.90840000  0.48905000  1.0
  H  H93  1  0.80962000  0.59154000  0.01070000  1.0
  H  H94  1  0.40080000  0.51072000  0.40843000  1.0
  H  H95  1  0.82007000  0.98921000  0.09149000  1.0
  H  H96  1  0.85233000  0.03776000  0.52957000  1.0
  H  H97  1  0.91896000  0.46229000  0.97066000  1.0
  H  H98  1  0.38159000  0.47070000  0.53778000  1.0
  H  H99  1  0.88995000  0.02928000  0.96236000  1.0
  H  H100  1  0.14767000  0.96224000  0.47043000  1.0
  H  H101  1  0.08103000  0.53771000  0.02934000  1.0
  H  H102  1  0.61841000  0.52930000  0.46222000  1.0
  H  H103  1  0.11005000  0.97072000  0.03764000  1.0
  H  H104  1  0.28000000  0.18929000  0.31347000  1.0
  H  H105  1  0.28252000  0.31063000  0.18638000  1.0
  H  H106  1  0.59352000  0.68643000  0.68929000  1.0
  H  H107  1  0.46928000  0.81357000  0.81072000  1.0
  H  H108  1  0.72000000  0.81071000  0.68653000  1.0
  H  H109  1  0.71749000  0.68937000  0.81362000  1.0
  H  H110  1  0.40649000  0.31357000  0.31071000  1.0
  H  H111  1  0.53073000  0.18642000  0.18928000  1.0
  H  H112  1  0.17011000  0.15922000  0.26442000  1.0
  H  H113  1  0.09362000  0.34066000  0.23553000  1.0
  H  H114  1  0.43449000  0.73556000  0.65935000  1.0
  H  H115  1  0.32952000  0.76446000  0.84079000  1.0
  H  H116  1  0.82990000  0.84078000  0.73558000  1.0
  H  H117  1  0.90638000  0.65934000  0.76447000  1.0
  H  H118  1  0.56552000  0.26443000  0.34064000  1.0
  H  H119  1  0.67048000  0.23554000  0.15921000  1.0
  C  C120  1  0.62093000  0.20486000  0.46050000  1.0
  C  C121  1  0.78621000  0.29515000  0.03950000  1.0
  C  C122  1  0.08103000  0.53963000  0.70498000  1.0
  C  C123  1  0.82603000  0.96047000  0.79508000  1.0
  C  C124  1  0.37908000  0.79514000  0.53949000  1.0
  C  C125  1  0.21380000  0.70485000  0.96050000  1.0
  C  C126  1  0.91896000  0.46037000  0.29502000  1.0
  C  C127  1  0.17398000  0.03953000  0.20492000  1.0
  C  C128  1  0.57258000  0.11193000  0.46616000  1.0
  C  C129  1  0.65067000  0.38810000  0.03380000  1.0
  C  C130  1  0.03857000  0.53393000  0.61202000  1.0
  C  C131  1  0.68472000  0.96614000  0.88800000  1.0
  C  C132  1  0.42742000  0.88807000  0.53384000  1.0
  C  C133  1  0.34933000  0.61190000  0.96620000  1.0
  C  C134  1  0.96143000  0.46608000  0.38798000  1.0
  C  C135  1  0.31529000  0.03386000  0.11200000  1.0
  C  C136  1  0.43557000  0.11652000  0.58072000  1.0
  C  C137  1  0.63265000  0.38347000  0.91928000  1.0
  C  C138  1  0.01614000  0.41939000  0.61655000  1.0
  C  C139  1  0.55197000  0.08064000  0.88350000  1.0
  C  C140  1  0.56443000  0.88348000  0.41928000  1.0
  C  C141  1  0.36734000  0.61654000  0.08072000  1.0
  C  C142  1  0.98386000  0.58061000  0.38345000  1.0
  C  C143  1  0.44803000  0.91936000  0.11650000  1.0
  C  C144  1  0.56490000  0.06929000  0.60814000  1.0
  C  C145  1  0.74209000  0.43074000  0.89192000  1.0
  C  C146  1  0.17292000  0.39203000  0.56928000  1.0
  C  C147  1  0.63390000  0.10797000  0.93086000  1.0
  C  C148  1  0.43510000  0.93071000  0.39186000  1.0
  C  C149  1  0.25791000  0.56926000  0.10808000  1.0
  C  C150  1  0.82707000  0.60797000  0.43072000  1.0
  C  C151  1  0.36610000  0.89203000  0.06914000  1.0
  C  C152  1  0.49395000  0.05370000  0.67749000  1.0
  C  C153  1  0.72544000  0.44631000  0.82254000  1.0
  C  C154  1  0.17170000  0.32266000  0.55363000  1.0
  C  C155  1  0.54778000  0.17736000  0.94648000  1.0
  C  C156  1  0.50604000  0.94630000  0.32251000  1.0
  C  C157  1  0.27456000  0.55369000  0.17746000  1.0
  C  C158  1  0.82829000  0.67734000  0.44637000  1.0
  C  C159  1  0.45222000  0.82264000  0.05352000  1.0
  C  C160  1  0.36001000  0.96137000  0.67777000  1.0
  C  C161  1  0.49939000  0.53860000  0.82231000  1.0
  C  C162  1  0.03795000  0.32224000  0.46135000  1.0
  C  C163  1  0.32127000  0.17779000  0.03870000  1.0
  C  C164  1  0.63998000  0.03863000  0.32223000  1.0
  C  C165  1  0.50061000  0.46141000  0.17769000  1.0
  C  C166  1  0.96205000  0.67776000  0.53865000  1.0
  C  C167  1  0.67874000  0.82221000  0.96129000  1.0
  C  C168  1  0.12257000  0.01343000  0.67541000  1.0
  C  C169  1  0.31180000  0.48651000  0.82455000  1.0
  C  C170  1  0.79823000  0.32458000  0.51346000  1.0
  C  C171  1  0.13606000  0.17552000  0.98655000  1.0
  C  C172  1  0.87742000  0.98657000  0.32459000  1.0
  C  C173  1  0.68820000  0.51349000  0.17545000  1.0
  C  C174  1  0.20177000  0.67542000  0.48654000  1.0
  C  C175  1  0.86394000  0.82448000  0.01345000  1.0
  C  C176  1  0.71376000  0.09870000  0.60480000  1.0
  C  C177  1  0.91692000  0.40135000  0.89538000  1.0
  C  C178  1  0.31845000  0.39544000  0.59867000  1.0
  C  C179  1  0.81222000  0.10457000  0.90153000  1.0
  C  C180  1  0.28624000  0.90130000  0.39520000  1.0
  C  C181  1  0.08308000  0.59865000  0.10462000  1.0
  C  C182  1  0.68154000  0.60456000  0.40134000  1.0
  C  C183  1  0.18777000  0.89543000  0.09847000  1.0
  C  C184  1  0.71529000  0.15131000  0.64025000  1.0
  C  C185  1  0.00657000  0.34874000  0.85994000  1.0
  C  C186  1  0.35561000  0.35996000  0.65122000  1.0
  C  C187  1  0.86628000  0.14006000  0.84896000  1.0
  C  C188  1  0.28472000  0.84869000  0.35974000  1.0
  C  C189  1  0.99342000  0.65126000  0.14006000  1.0
  C  C190  1  0.64438000  0.64004000  0.34878000  1.0
  C  C191  1  0.13372000  0.85994000  0.15104000  1.0
  C  C192  1  0.84478000  0.18169000  0.63262000  1.0
  C  C193  1  0.15883000  0.31839000  0.86757000  1.0
  C  C194  1  0.47767000  0.36752000  0.68152000  1.0
  C  C195  1  0.02612000  0.13249000  0.81859000  1.0
  C  C196  1  0.15522000  0.81831000  0.36738000  1.0
  C  C197  1  0.84117000  0.68161000  0.13243000  1.0
  C  C198  1  0.52231000  0.63248000  0.31849000  1.0
  C  C199  1  0.97388000  0.86751000  0.18141000  1.0
  C  C200  1  0.97702000  0.15868000  0.58586000  1.0
  C  C201  1  0.22119000  0.34142000  0.91434000  1.0
  C  C202  1  0.56307000  0.41429000  0.65853000  1.0
  C  C203  1  0.13543000  0.08575000  0.84153000  1.0
  C  C204  1  0.02299000  0.84132000  0.41413000  1.0
  C  C205  1  0.77881000  0.65858000  0.08566000  1.0
  C  C206  1  0.43693000  0.58571000  0.34147000  1.0
  C  C207  1  0.86457000  0.91425000  0.15847000  1.0
  C  C208  1  0.98396000  0.10731000  0.54820000  1.0
  C  C209  1  0.13897000  0.39276000  0.95203000  1.0
  C  C210  1  0.53212000  0.45200000  0.60724000  1.0
  C  C211  1  0.09111000  0.04804000  0.89286000  1.0
  C  C212  1  0.01604000  0.89269000  0.45180000  1.0
  C  C213  1  0.86103000  0.60724000  0.04797000  1.0
  C  C214  1  0.46787000  0.54799000  0.39276000  1.0
  C  C215  1  0.90889000  0.95196000  0.10714000  1.0
  C  C216  1  0.85174000  0.07774000  0.55873000  1.0
  C  C217  1  0.98770000  0.42232000  0.94150000  1.0
  C  C218  1  0.41031000  0.44151000  0.57771000  1.0
  C  C219  1  0.92929000  0.05850000  0.92244000  1.0
  C  C220  1  0.14825000  0.92226000  0.44127000  1.0
  C  C221  1  0.01230000  0.57768000  0.05850000  1.0
  C  C222  1  0.58969000  0.55849000  0.42229000  1.0
  C  C223  1  0.07070000  0.94150000  0.07756000  1.0
  C  C224  1  0.16494000  0.11331000  0.35448000  1.0
  C  C225  1  0.13231000  0.38667000  0.14549000  1.0
  C  C226  1  0.51925000  0.64554000  0.61327000  1.0
  C  C227  1  0.27808000  0.85460000  0.88667000  1.0
  C  C228  1  0.83505000  0.88669000  0.64552000  1.0
  C  C229  1  0.86769000  0.61333000  0.85451000  1.0
  C  C230  1  0.48076000  0.35446000  0.38673000  1.0
  C  C231  1  0.72192000  0.14540000  0.11333000  1.0
  C  C232  1  0.16921000  0.17219000  0.31336000  1.0
  C  C233  1  0.15448000  0.32775000  0.18656000  1.0
  C  C234  1  0.48254000  0.68660000  0.67222000  1.0
  C  C235  1  0.34142000  0.81340000  0.82780000  1.0
  C  C236  1  0.83079000  0.82781000  0.68665000  1.0
  C  C237  1  0.84552000  0.67225000  0.81344000  1.0
  C  C238  1  0.51746000  0.31340000  0.32778000  1.0
  C  C239  1  0.65859000  0.18660000  0.17220000  1.0
  C  C240  1  0.02511000  0.22503000  0.33178000  1.0
  C  C241  1  0.08159000  0.27492000  0.16818000  1.0
  C  C242  1  0.35693000  0.66817000  0.72506000  1.0
  C  C243  1  0.25021000  0.83172000  0.77493000  1.0
  C  C244  1  0.97489000  0.77497000  0.66823000  1.0
  C  C245  1  0.91842000  0.72508000  0.83182000  1.0
  C  C246  1  0.64308000  0.33183000  0.27494000  1.0
  C  C247  1  0.74981000  0.16828000  0.22506000  1.0
  N  N248  1  0.64755000  0.15045000  0.42660000  1.0
  N  N249  1  0.72461000  0.34959000  0.07336000  1.0
  N  N250  1  0.07393000  0.57349000  0.65056000  1.0
  N  N251  1  0.79832000  0.92660000  0.84948000  1.0
  N  N252  1  0.35246000  0.84955000  0.57339000  1.0
  N  N253  1  0.27539000  0.65041000  0.92664000  1.0
  N  N254  1  0.92607000  0.42651000  0.34944000  1.0
  N  N255  1  0.20169000  0.07340000  0.15052000  1.0
  N  N256  1  0.53474000  0.20218000  0.51840000  1.0
  N  N257  1  0.75515000  0.29780000  0.98163000  1.0
  N  N258  1  0.05269000  0.48175000  0.70228000  1.0
  N  N259  1  0.73700000  0.01835000  0.79777000  1.0
  N  N260  1  0.46525000  0.79782000  0.48160000  1.0
  N  N261  1  0.24485000  0.70220000  0.01837000  1.0
  N  N262  1  0.94730000  0.51825000  0.29772000  1.0
  N  N263  1  0.26300000  0.98165000  0.20223000  1.0
  N  N264  1  0.50438000  0.14242000  0.52107000  1.0
  N  N265  1  0.66773000  0.35757000  0.97892000  1.0
  N  N266  1  0.02513000  0.47904000  0.64251000  1.0
  N  N267  1  0.64683000  0.02102000  0.85752000  1.0
  N  N268  1  0.49562000  0.85758000  0.47893000  1.0
  N  N269  1  0.33226000  0.64244000  0.02108000  1.0
  N  N270  1  0.97486000  0.52096000  0.35749000  1.0
  N  N271  1  0.35318000  0.97897000  0.14248000  1.0
  N  N272  1  0.35740000  0.02331000  0.68103000  1.0
  N  N273  1  0.56211000  0.47667000  0.81890000  1.0
  N  N274  1  0.03870000  0.31902000  0.52328000  1.0
  N  N275  1  0.38075000  0.18107000  0.97679000  1.0
  N  N276  1  0.64259000  0.97669000  0.31897000  1.0
  N  N277  1  0.43788000  0.52333000  0.18110000  1.0
  N  N278  1  0.96130000  0.68098000  0.47672000  1.0
  N  N279  1  0.61924000  0.81893000  0.02321000  1.0
  N  N280  1  0.20689000  0.05748000  0.67965000  1.0
  N  N281  1  0.44449000  0.44248000  0.82023000  1.0
  N  N282  1  0.88684000  0.32039000  0.55748000  1.0
  N  N283  1  0.26453000  0.17975000  0.94256000  1.0
  N  N284  1  0.79311000  0.94252000  0.32035000  1.0
  N  N285  1  0.55550000  0.55752000  0.17977000  1.0
  N  N286  1  0.11315000  0.67961000  0.44252000  1.0
  N  N287  1  0.73547000  0.82026000  0.05744000  1.0
  N  N288  1  0.21241000  0.95356000  0.67430000  1.0
  N  N289  1  0.34050000  0.54638000  0.82579000  1.0
  N  N290  1  0.88686000  0.32567000  0.45358000  1.0
  N  N291  1  0.16583000  0.17436000  0.04644000  1.0
  N  N292  1  0.78759000  0.04644000  0.32570000  1.0
  N  N293  1  0.65950000  0.45362000  0.17421000  1.0
  N  N294  1  0.11314000  0.67433000  0.54642000  1.0
  N  N295  1  0.83418000  0.82564000  0.95356000  1.0
  O  O296  1  0.03874000  0.08876000  0.36510000  1.0
  O  O297  1  0.99214000  0.41123000  0.13492000  1.0
  O  O298  1  0.40358000  0.63499000  0.58873000  1.0
  O  O299  1  0.12731000  0.86526000  0.91118000  1.0
  O  O300  1  0.96126000  0.91124000  0.63490000  1.0
  O  O301  1  0.00787000  0.58878000  0.86508000  1.0
  O  O302  1  0.59642000  0.36501000  0.41127000  1.0
  O  O303  1  0.87270000  0.13474000  0.08882000  1.0
  O  O304  1  0.28999000  0.08994000  0.37547000  1.0
  O  O305  1  0.25492000  0.41006000  0.12448000  1.0
  O  O306  1  0.66524000  0.62453000  0.58984000  1.0
  O  O307  1  0.37971000  0.87561000  0.91005000  1.0
  O  O308  1  0.71003000  0.91006000  0.62453000  1.0
  O  O309  1  0.74509000  0.58994000  0.87552000  1.0
  O  O310  1  0.33477000  0.37547000  0.41016000  1.0
  O  O311  1  0.62030000  0.12439000  0.08995000  1.0
  O  O312  1  0.04919000  0.28090000  0.33297000  1.0
  O  O313  1  0.16279000  0.21904000  0.16700000  1.0
  O  O314  1  0.38231000  0.66694000  0.78092000  1.0
  O  O315  1  0.33021000  0.83291000  0.71906000  1.0
  O  O316  1  0.95081000  0.71910000  0.66703000  1.0
  O  O317  1  0.83723000  0.78096000  0.83300000  1.0
  O  O318  1  0.61770000  0.33306000  0.21908000  1.0
  O  O319  1  0.66980000  0.16709000  0.28094000  1.0
  O  O320  1  0.88254000  0.21349000  0.34612000  1.0
  O  O321  1  0.94181000  0.28648000  0.15386000  1.0
  O  O322  1  0.22864000  0.65388000  0.71351000  1.0
  O  O323  1  0.09609000  0.84599000  0.78647000  1.0
  O  O324  1  0.11746000  0.78651000  0.65388000  1.0
  O  O325  1  0.05819000  0.71352000  0.84614000  1.0
  O  O326  1  0.77136000  0.34612000  0.28649000  1.0
  O  O327  1  0.90393000  0.15401000  0.21352000  1.0
  O  O328  1  0.60029000  0.01475000  0.56984000  1.0
  O  O329  1  0.68433000  0.48530000  0.93019000  1.0
  O  O330  1  0.16980000  0.43033000  0.51477000  1.0
  O  O331  1  0.61442000  0.06965000  0.98535000  1.0
  O  O332  1  0.39971000  0.98525000  0.43016000  1.0
  O  O333  1  0.31566000  0.51470000  0.06982000  1.0
  O  O334  1  0.83020000  0.56967000  0.48523000  1.0
  O  O335  1  0.38558000  0.93035000  0.01465000  1.0
  F  F336  1  0.58144000  0.17670000  0.68393000  1.0
  F  F337  1  0.94183000  0.32330000  0.81628000  1.0
  F  F338  1  0.26539000  0.31633000  0.67665000  1.0
  F  F339  1  0.75773000  0.18371000  0.82361000  1.0
  F  F340  1  0.41856000  0.82329000  0.31607000  1.0
  F  F341  1  0.05816000  0.67670000  0.18372000  1.0
  F  F342  1  0.73459000  0.68367000  0.32336000  1.0
  F  F343  1  0.24228000  0.81629000  0.17639000  1.0
  F  F344  1  0.10465000  0.18866000  0.57633000  1.0
  F  F345  1  0.36931000  0.31147000  0.92385000  1.0
  F  F346  1  0.68124000  0.42378000  0.68849000  1.0
  F  F347  1  0.29303000  0.07627000  0.81151000  1.0
  F  F348  1  0.89536000  0.81134000  0.42366000  1.0
  F  F349  1  0.63069000  0.68853000  0.07615000  1.0
  F  F350  1  0.31876000  0.57622000  0.31151000  1.0
  F  F351  1  0.70697000  0.92373000  0.18849000  1.0
