# generated using pymatgen
data_SmAgH8C18(NO2)4
_symmetry_space_group_name_H-M   'P 1'
_cell_length_a   8.62440000
_cell_length_b   17.66250000
_cell_length_c   24.95820000
_cell_angle_alpha   90.00020000
_cell_angle_beta   90.00000000
_cell_angle_gamma   90.00000000
_symmetry_Int_Tables_number   1
_chemical_formula_structural   SmAgH8C18(NO2)4
_chemical_formula_sum   'Sm8 Ag8 H64 C144 N32 O64'
_cell_volume   3801.84429514
_cell_formula_units_Z   8
loop_
 _symmetry_equiv_pos_site_id
 _symmetry_equiv_pos_as_xyz
  1  'x, y, z'
loop_
 _atom_site_type_symbol
 _atom_site_label
 _atom_site_symmetry_multiplicity
 _atom_site_fract_x
 _atom_site_fract_y
 _atom_site_fract_z
 _atom_site_occupancy
  Sm  Sm0  1  0.33797000  0.28443000  0.02560000  1.0
  Sm  Sm1  1  0.83796000  0.21558000  0.97440000  1.0
  Sm  Sm2  1  0.83797000  0.71558000  0.52560000  1.0
  Sm  Sm3  1  0.33797000  0.78442000  0.47440000  1.0
  Sm  Sm4  1  0.16203000  0.28442000  0.47440000  1.0
  Sm  Sm5  1  0.66203000  0.21558000  0.52560000  1.0
  Sm  Sm6  1  0.66203000  0.71557000  0.97440000  1.0
  Sm  Sm7  1  0.16203000  0.78442000  0.02560000  1.0
  Ag  Ag8  1  0.03877000  0.45337000  0.72644000  1.0
  Ag  Ag9  1  0.53878000  0.04663000  0.27356000  1.0
  Ag  Ag10  1  0.53878000  0.54662000  0.22644000  1.0
  Ag  Ag11  1  0.03877000  0.95337000  0.77356000  1.0
  Ag  Ag12  1  0.46123000  0.45337000  0.77357000  1.0
  Ag  Ag13  1  0.96122000  0.04662000  0.22644000  1.0
  Ag  Ag14  1  0.96123000  0.54663000  0.27356000  1.0
  Ag  Ag15  1  0.46122000  0.95338000  0.72644000  1.0
  H  H16  1  0.54701000  0.98612000  0.95626000  1.0
  H  H17  1  0.23879000  0.81148000  0.83600000  1.0
  H  H18  1  0.08904000  0.08479000  0.85388000  1.0
  H  H19  1  0.61344000  0.50301000  0.93686000  1.0
  H  H20  1  0.95486000  0.61355000  0.79163000  1.0
  H  H21  1  0.83054000  0.33556000  0.79122000  1.0
  H  H22  1  0.43390000  0.84473000  0.91033000  1.0
  H  H23  1  0.78207000  0.62214000  0.86936000  1.0
  H  H24  1  0.04701000  0.51388000  0.04374000  1.0
  H  H25  1  0.73879000  0.68852000  0.16400000  1.0
  H  H26  1  0.58905000  0.41520000  0.14612000  1.0
  H  H27  1  0.11344000  0.99699000  0.06314000  1.0
  H  H28  1  0.45487000  0.88646000  0.20836000  1.0
  H  H29  1  0.33054000  0.16444000  0.20877000  1.0
  H  H30  1  0.93390000  0.65527000  0.08967000  1.0
  H  H31  1  0.28207000  0.87786000  0.13064000  1.0
  H  H32  1  0.04701000  0.01388000  0.45626000  1.0
  H  H33  1  0.73879000  0.18852000  0.33600000  1.0
  H  H34  1  0.58904000  0.91521000  0.35388000  1.0
  H  H35  1  0.11344000  0.49699000  0.43686000  1.0
  H  H36  1  0.45487000  0.38646000  0.29163000  1.0
  H  H37  1  0.33054000  0.66444000  0.29122000  1.0
  H  H38  1  0.93390000  0.15527000  0.41033000  1.0
  H  H39  1  0.28207000  0.37786000  0.36936000  1.0
  H  H40  1  0.54702000  0.48612000  0.54374000  1.0
  H  H41  1  0.23878000  0.31148000  0.66400000  1.0
  H  H42  1  0.08904000  0.58479000  0.64612000  1.0
  H  H43  1  0.61344000  0.00301000  0.56314000  1.0
  H  H44  1  0.95486000  0.11354000  0.70837000  1.0
  H  H45  1  0.83054000  0.83556000  0.70878000  1.0
  H  H46  1  0.43390000  0.34473000  0.58967000  1.0
  H  H47  1  0.78207000  0.12214000  0.63064000  1.0
  H  H48  1  0.95298000  0.98612000  0.54374000  1.0
  H  H49  1  0.26121000  0.81148000  0.66400000  1.0
  H  H50  1  0.41095000  0.08480000  0.64612000  1.0
  H  H51  1  0.88656000  0.50301000  0.56314000  1.0
  H  H52  1  0.54514000  0.61354000  0.70837000  1.0
  H  H53  1  0.66946000  0.33556000  0.70878000  1.0
  H  H54  1  0.06610000  0.84473000  0.58967000  1.0
  H  H55  1  0.71793000  0.62214000  0.63064000  1.0
  H  H56  1  0.45298000  0.51388000  0.45626000  1.0
  H  H57  1  0.76121000  0.68852000  0.33600000  1.0
  H  H58  1  0.91096000  0.41521000  0.35388000  1.0
  H  H59  1  0.38656000  0.99699000  0.43686000  1.0
  H  H60  1  0.04514000  0.88646000  0.29163000  1.0
  H  H61  1  0.16946000  0.16444000  0.29122000  1.0
  H  H62  1  0.56609000  0.65527000  0.41033000  1.0
  H  H63  1  0.21793000  0.87786000  0.36936000  1.0
  H  H64  1  0.45299000  0.01388000  0.04374000  1.0
  H  H65  1  0.76121000  0.18852000  0.16400000  1.0
  H  H66  1  0.91096000  0.91521000  0.14612000  1.0
  H  H67  1  0.38656000  0.49699000  0.06314000  1.0
  H  H68  1  0.04514000  0.38646000  0.20837000  1.0
  H  H69  1  0.16946000  0.66445000  0.20878000  1.0
  H  H70  1  0.56609000  0.15527000  0.08967000  1.0
  H  H71  1  0.21793000  0.37786000  0.13064000  1.0
  H  H72  1  0.95298000  0.48612000  0.95626000  1.0
  H  H73  1  0.26121000  0.31148000  0.83600000  1.0
  H  H74  1  0.41096000  0.58479000  0.85388000  1.0
  H  H75  1  0.88656000  0.00301000  0.93686000  1.0
  H  H76  1  0.54514000  0.11354000  0.79163000  1.0
  H  H77  1  0.66946000  0.83556000  0.79122000  1.0
  H  H78  1  0.06609000  0.34473000  0.91033000  1.0
  H  H79  1  0.71793000  0.12214000  0.86936000  1.0
  C  C80  1  0.49024000  0.12596000  0.98120000  1.0
  C  C81  1  0.39489000  0.08081000  0.94195000  1.0
  C  C82  1  0.44428000  0.00608000  0.93551000  1.0
  C  C83  1  0.35984000  0.95938000  0.90155000  1.0
  C  C84  1  0.26143000  0.86784000  0.85144000  1.0
  C  C85  1  0.23815000  0.98822000  0.86980000  1.0
  C  C86  1  0.18742000  0.06249000  0.87629000  1.0
  C  C87  1  0.26232000  0.10838000  0.91393000  1.0
  C  C88  1  0.19549000  0.18573000  0.92320000  1.0
  C  C89  1  0.55194000  0.35618000  0.95206000  1.0
  C  C90  1  0.63634000  0.38950000  0.90552000  1.0
  C  C91  1  0.66046000  0.46794000  0.90480000  1.0
  C  C92  1  0.75002000  0.49729000  0.86310000  1.0
  C  C93  1  0.89659000  0.56399000  0.80779000  1.0
  C  C94  1  0.81575000  0.44927000  0.82355000  1.0
  C  C95  1  0.78432000  0.37183000  0.82281000  1.0
  C  C96  1  0.69355000  0.34198000  0.86390000  1.0
  C  C97  1  0.65485000  0.25853000  0.85880000  1.0
  C  C98  1  0.99024000  0.37404000  0.01880000  1.0
  C  C99  1  0.89490000  0.41919000  0.05805000  1.0
  C  C100  1  0.94428000  0.49392000  0.06449000  1.0
  C  C101  1  0.85985000  0.54062000  0.09845000  1.0
  C  C102  1  0.76143000  0.63216000  0.14856000  1.0
  C  C103  1  0.73815000  0.51178000  0.13020000  1.0
  C  C104  1  0.68742000  0.43751000  0.12371000  1.0
  C  C105  1  0.76232000  0.39162000  0.08607000  1.0
  C  C106  1  0.69550000  0.31427000  0.07680000  1.0
  C  C107  1  0.05194000  0.14382000  0.04794000  1.0
  C  C108  1  0.13634000  0.11050000  0.09448000  1.0
  C  C109  1  0.16046000  0.03206000  0.09520000  1.0
  C  C110  1  0.25002000  0.00271000  0.13690000  1.0
  C  C111  1  0.39660000  0.93602000  0.19220000  1.0
  C  C112  1  0.31576000  0.05073000  0.17645000  1.0
  C  C113  1  0.28432000  0.12817000  0.17719000  1.0
  C  C114  1  0.19356000  0.15802000  0.13610000  1.0
  C  C115  1  0.15485000  0.24148000  0.14119000  1.0
  C  C116  1  0.99024000  0.87404000  0.48120000  1.0
  C  C117  1  0.89490000  0.91919000  0.44195000  1.0
  C  C118  1  0.94428000  0.99392000  0.43551000  1.0
  C  C119  1  0.85984000  0.04062000  0.40155000  1.0
  C  C120  1  0.76143000  0.13216000  0.35143000  1.0
  C  C121  1  0.73815000  0.01178000  0.36980000  1.0
  C  C122  1  0.68742000  0.93751000  0.37629000  1.0
  C  C123  1  0.76232000  0.89162000  0.41393000  1.0
  C  C124  1  0.69549000  0.81427000  0.42320000  1.0
  C  C125  1  0.05194000  0.64382000  0.45205000  1.0
  C  C126  1  0.13634000  0.61050000  0.40552000  1.0
  C  C127  1  0.16047000  0.53206000  0.40480000  1.0
  C  C128  1  0.25002000  0.50271000  0.36310000  1.0
  C  C129  1  0.39660000  0.43602000  0.30779000  1.0
  C  C130  1  0.31575000  0.55073000  0.32355000  1.0
  C  C131  1  0.28432000  0.62817000  0.32281000  1.0
  C  C132  1  0.19355000  0.65802000  0.36390000  1.0
  C  C133  1  0.15485000  0.74148000  0.35881000  1.0
  C  C134  1  0.49024000  0.62596000  0.51880000  1.0
  C  C135  1  0.39490000  0.58081000  0.55805000  1.0
  C  C136  1  0.44429000  0.50608000  0.56449000  1.0
  C  C137  1  0.35984000  0.45938000  0.59845000  1.0
  C  C138  1  0.26142000  0.36784000  0.64856000  1.0
  C  C139  1  0.23815000  0.48822000  0.63020000  1.0
  C  C140  1  0.18742000  0.56249000  0.62371000  1.0
  C  C141  1  0.26232000  0.60838000  0.58607000  1.0
  C  C142  1  0.19550000  0.68573000  0.57680000  1.0
  C  C143  1  0.55193000  0.85618000  0.54795000  1.0
  C  C144  1  0.63633000  0.88950000  0.59448000  1.0
  C  C145  1  0.66046000  0.96794000  0.59520000  1.0
  C  C146  1  0.75001000  0.99729000  0.63690000  1.0
  C  C147  1  0.89659000  0.06398000  0.69221000  1.0
  C  C148  1  0.81576000  0.94927000  0.67645000  1.0
  C  C149  1  0.78432000  0.87183000  0.67719000  1.0
  C  C150  1  0.69355000  0.84198000  0.63610000  1.0
  C  C151  1  0.65485000  0.75852000  0.64119000  1.0
  C  C152  1  0.00976000  0.12596000  0.51880000  1.0
  C  C153  1  0.10510000  0.08081000  0.55805000  1.0
  C  C154  1  0.05572000  0.00608000  0.56449000  1.0
  C  C155  1  0.14015000  0.95938000  0.59845000  1.0
  C  C156  1  0.23857000  0.86784000  0.64856000  1.0
  C  C157  1  0.26185000  0.98822000  0.63020000  1.0
  C  C158  1  0.31258000  0.06249000  0.62371000  1.0
  C  C159  1  0.23768000  0.10838000  0.58607000  1.0
  C  C160  1  0.30450000  0.18573000  0.57680000  1.0
  C  C161  1  0.94806000  0.35618000  0.54795000  1.0
  C  C162  1  0.86366000  0.38950000  0.59448000  1.0
  C  C163  1  0.83954000  0.46794000  0.59520000  1.0
  C  C164  1  0.74999000  0.49729000  0.63690000  1.0
  C  C165  1  0.60341000  0.56398000  0.69221000  1.0
  C  C166  1  0.68425000  0.44927000  0.67646000  1.0
  C  C167  1  0.71568000  0.37183000  0.67719000  1.0
  C  C168  1  0.80645000  0.34198000  0.63610000  1.0
  C  C169  1  0.84515000  0.25852000  0.64119000  1.0
  C  C170  1  0.50976000  0.37404000  0.48120000  1.0
  C  C171  1  0.60510000  0.41919000  0.44195000  1.0
  C  C172  1  0.55572000  0.49392000  0.43551000  1.0
  C  C173  1  0.64015000  0.54062000  0.40155000  1.0
  C  C174  1  0.73857000  0.63216000  0.35144000  1.0
  C  C175  1  0.76185000  0.51178000  0.36980000  1.0
  C  C176  1  0.81258000  0.43751000  0.37629000  1.0
  C  C177  1  0.73768000  0.39162000  0.41393000  1.0
  C  C178  1  0.80451000  0.31427000  0.42320000  1.0
  C  C179  1  0.44807000  0.14382000  0.45205000  1.0
  C  C180  1  0.36366000  0.11050000  0.40552000  1.0
  C  C181  1  0.33953000  0.03206000  0.40480000  1.0
  C  C182  1  0.24999000  0.00271000  0.36310000  1.0
  C  C183  1  0.10340000  0.93602000  0.30779000  1.0
  C  C184  1  0.18424000  0.05073000  0.32355000  1.0
  C  C185  1  0.21568000  0.12817000  0.32281000  1.0
  C  C186  1  0.30645000  0.15802000  0.36390000  1.0
  C  C187  1  0.34515000  0.24147000  0.35881000  1.0
  C  C188  1  0.50976000  0.87403000  0.01880000  1.0
  C  C189  1  0.60510000  0.91919000  0.05805000  1.0
  C  C190  1  0.55572000  0.99392000  0.06449000  1.0
  C  C191  1  0.64016000  0.04062000  0.09845000  1.0
  C  C192  1  0.73857000  0.13216000  0.14856000  1.0
  C  C193  1  0.76185000  0.01178000  0.13020000  1.0
  C  C194  1  0.81258000  0.93751000  0.12371000  1.0
  C  C195  1  0.73768000  0.89162000  0.08607000  1.0
  C  C196  1  0.80451000  0.81427000  0.07680000  1.0
  C  C197  1  0.44806000  0.64382000  0.04794000  1.0
  C  C198  1  0.36367000  0.61050000  0.09448000  1.0
  C  C199  1  0.33954000  0.53206000  0.09520000  1.0
  C  C200  1  0.24999000  0.50271000  0.13690000  1.0
  C  C201  1  0.10341000  0.43602000  0.19221000  1.0
  C  C202  1  0.18424000  0.55073000  0.17645000  1.0
  C  C203  1  0.21568000  0.62817000  0.17719000  1.0
  C  C204  1  0.30645000  0.65802000  0.13610000  1.0
  C  C205  1  0.34516000  0.74148000  0.14119000  1.0
  C  C206  1  0.00976000  0.62596000  0.98120000  1.0
  C  C207  1  0.10510000  0.58081000  0.94195000  1.0
  C  C208  1  0.05571000  0.50608000  0.93551000  1.0
  C  C209  1  0.14016000  0.45938000  0.90155000  1.0
  C  C210  1  0.23857000  0.36784000  0.85144000  1.0
  C  C211  1  0.26185000  0.48822000  0.86980000  1.0
  C  C212  1  0.31258000  0.56249000  0.87630000  1.0
  C  C213  1  0.23768000  0.60838000  0.91393000  1.0
  C  C214  1  0.30450000  0.68573000  0.92320000  1.0
  C  C215  1  0.94806000  0.85618000  0.95206000  1.0
  C  C216  1  0.86366000  0.88950000  0.90552000  1.0
  C  C217  1  0.83954000  0.96794000  0.90480000  1.0
  C  C218  1  0.74998000  0.99729000  0.86310000  1.0
  C  C219  1  0.60341000  0.06398000  0.80780000  1.0
  C  C220  1  0.68424000  0.94927000  0.82355000  1.0
  C  C221  1  0.71568000  0.87183000  0.82281000  1.0
  C  C222  1  0.80644000  0.84198000  0.86390000  1.0
  C  C223  1  0.84515000  0.75852000  0.85881000  1.0
  N  N224  1  0.36977000  0.88334000  0.88916000  1.0
  N  N225  1  0.18223000  0.92977000  0.83770000  1.0
  N  N226  1  0.90782000  0.49267000  0.78990000  1.0
  N  N227  1  0.80316000  0.56933000  0.85086000  1.0
  N  N228  1  0.86977000  0.61666000  0.11084000  1.0
  N  N229  1  0.68224000  0.57022000  0.16230000  1.0
  N  N230  1  0.40783000  0.00733000  0.21010000  1.0
  N  N231  1  0.30317000  0.93067000  0.14914000  1.0
  N  N232  1  0.86977000  0.11666000  0.38916000  1.0
  N  N233  1  0.68224000  0.07023000  0.33770000  1.0
  N  N234  1  0.40783000  0.50733000  0.28990000  1.0
  N  N235  1  0.30317000  0.43067000  0.35086000  1.0
  N  N236  1  0.36976000  0.38334000  0.61084000  1.0
  N  N237  1  0.18223000  0.42977000  0.66230000  1.0
  N  N238  1  0.90783000  0.99267000  0.71010000  1.0
  N  N239  1  0.80316000  0.06933000  0.64914000  1.0
  N  N240  1  0.13023000  0.88334000  0.61084000  1.0
  N  N241  1  0.31776000  0.92978000  0.66230000  1.0
  N  N242  1  0.59217000  0.49267000  0.71010000  1.0
  N  N243  1  0.69684000  0.56933000  0.64914000  1.0
  N  N244  1  0.63023000  0.61666000  0.38916000  1.0
  N  N245  1  0.81776000  0.57023000  0.33770000  1.0
  N  N246  1  0.09217000  0.00733000  0.28990000  1.0
  N  N247  1  0.19683000  0.93067000  0.35086000  1.0
  N  N248  1  0.63023000  0.11666000  0.11084000  1.0
  N  N249  1  0.81776000  0.07022000  0.16230000  1.0
  N  N250  1  0.09218000  0.50733000  0.21010000  1.0
  N  N251  1  0.19684000  0.43067000  0.14914000  1.0
  N  N252  1  0.13023000  0.38334000  0.88916000  1.0
  N  N253  1  0.31777000  0.42977000  0.83770000  1.0
  N  N254  1  0.59217000  0.99267000  0.78990000  1.0
  N  N255  1  0.69684000  0.06933000  0.85086000  1.0
  O  O256  1  0.42423000  0.15789000  0.02122000  1.0
  O  O257  1  0.63570000  0.12444000  0.97460000  1.0
  O  O258  1  0.28320000  0.23953000  0.93809000  1.0
  O  O259  1  0.04990000  0.19340000  0.91547000  1.0
  O  O260  1  0.44256000  0.39235000  0.97468000  1.0
  O  O261  1  0.59066000  0.28978000  0.96888000  1.0
  O  O262  1  0.74544000  0.21247000  0.88465000  1.0
  O  O263  1  0.54911000  0.23932000  0.82776000  1.0
  O  O264  1  0.92422000  0.34211000  0.97878000  1.0
  O  O265  1  0.13571000  0.37556000  0.02540000  1.0
  O  O266  1  0.78321000  0.26047000  0.06191000  1.0
  O  O267  1  0.54991000  0.30659000  0.08452000  1.0
  O  O268  1  0.94256000  0.10764000  0.02532000  1.0
  O  O269  1  0.09066000  0.21022000  0.03112000  1.0
  O  O270  1  0.24545000  0.28753000  0.11535000  1.0
  O  O271  1  0.04910000  0.26068000  0.17224000  1.0
  O  O272  1  0.92423000  0.84211000  0.52122000  1.0
  O  O273  1  0.13571000  0.87557000  0.47459000  1.0
  O  O274  1  0.78320000  0.76048000  0.43809000  1.0
  O  O275  1  0.54990000  0.80660000  0.41548000  1.0
  O  O276  1  0.94256000  0.60765000  0.47468000  1.0
  O  O277  1  0.09066000  0.71022000  0.46888000  1.0
  O  O278  1  0.24545000  0.78753000  0.38465000  1.0
  O  O279  1  0.04909000  0.76068000  0.32777000  1.0
  O  O280  1  0.42423000  0.65788000  0.47879000  1.0
  O  O281  1  0.63571000  0.62443000  0.52541000  1.0
  O  O282  1  0.28320000  0.73953000  0.56191000  1.0
  O  O283  1  0.04990000  0.69340000  0.58452000  1.0
  O  O284  1  0.44255000  0.89235000  0.52532000  1.0
  O  O285  1  0.59066000  0.78978000  0.53112000  1.0
  O  O286  1  0.74545000  0.71247000  0.61535000  1.0
  O  O287  1  0.54909000  0.73932000  0.67223000  1.0
  O  O288  1  0.07577000  0.15788000  0.47878000  1.0
  O  O289  1  0.86429000  0.12444000  0.52540000  1.0
  O  O290  1  0.21679000  0.23952000  0.56191000  1.0
  O  O291  1  0.45010000  0.19341000  0.58452000  1.0
  O  O292  1  0.05745000  0.39235000  0.52532000  1.0
  O  O293  1  0.90933000  0.28978000  0.53112000  1.0
  O  O294  1  0.75455000  0.21247000  0.61535000  1.0
  O  O295  1  0.95091000  0.23932000  0.67223000  1.0
  O  O296  1  0.57577000  0.34212000  0.52122000  1.0
  O  O297  1  0.36430000  0.37556000  0.47459000  1.0
  O  O298  1  0.71680000  0.26048000  0.43809000  1.0
  O  O299  1  0.95010000  0.30660000  0.41548000  1.0
  O  O300  1  0.55745000  0.10765000  0.47468000  1.0
  O  O301  1  0.40934000  0.21022000  0.46888000  1.0
  O  O302  1  0.25455000  0.28753000  0.38465000  1.0
  O  O303  1  0.45092000  0.26068000  0.32777000  1.0
  O  O304  1  0.57577000  0.84211000  0.97878000  1.0
  O  O305  1  0.36429000  0.87556000  0.02540000  1.0
  O  O306  1  0.71680000  0.76047000  0.06191000  1.0
  O  O307  1  0.95010000  0.80660000  0.08452000  1.0
  O  O308  1  0.55744000  0.60765000  0.02532000  1.0
  O  O309  1  0.40934000  0.71022000  0.03112000  1.0
  O  O310  1  0.25456000  0.78753000  0.11535000  1.0
  O  O311  1  0.45091000  0.76068000  0.17223000  1.0
  O  O312  1  0.07577000  0.65788000  0.02122000  1.0
  O  O313  1  0.86429000  0.62443000  0.97460000  1.0
  O  O314  1  0.21679000  0.73952000  0.93809000  1.0
  O  O315  1  0.45009000  0.69341000  0.91547000  1.0
  O  O316  1  0.05744000  0.89235000  0.97468000  1.0
  O  O317  1  0.90933000  0.78978000  0.96888000  1.0
  O  O318  1  0.75455000  0.71247000  0.88465000  1.0
  O  O319  1  0.95091000  0.73932000  0.82777000  1.0
