# generated using pymatgen
data_CuH9C10BrN
_symmetry_space_group_name_H-M   'P 1'
_cell_length_a   3.84198000
_cell_length_b   9.59163000
_cell_length_c   24.70340000
_cell_angle_alpha   90.00030000
_cell_angle_beta   89.99980000
_cell_angle_gamma   89.99990000
_symmetry_Int_Tables_number   1
_chemical_formula_structural   CuH9C10BrN
_chemical_formula_sum   'Cu4 H36 C40 Br4 N4'
_cell_volume   910.34130337
_cell_formula_units_Z   4
loop_
 _symmetry_equiv_pos_site_id
 _symmetry_equiv_pos_as_xyz
  1  'x, y, z'
loop_
 _atom_site_type_symbol
 _atom_site_label
 _atom_site_symmetry_multiplicity
 _atom_site_fract_x
 _atom_site_fract_y
 _atom_site_fract_z
 _atom_site_occupancy
  Cu  Cu0  1  0.07933000  0.99499000  0.13883000  1.0
  Cu  Cu1  1  0.57935000  0.49499000  0.36118000  1.0
  Cu  Cu2  1  0.42068000  0.99499000  0.63883000  1.0
  Cu  Cu3  1  0.92066000  0.49499000  0.86118000  1.0
  H  H4  1  0.32904000  0.06027000  0.22421000  1.0
  H  H5  1  0.82905000  0.56027000  0.27579000  1.0
  H  H6  1  0.17096000  0.06027000  0.72421000  1.0
  H  H7  1  0.67094000  0.56027000  0.77579000  1.0
  H  H8  1  0.63289000  0.19331000  0.24139000  1.0
  H  H9  1  0.13291000  0.69331000  0.25862000  1.0
  H  H10  1  0.86710000  0.19331000  0.74139000  1.0
  H  H11  1  0.36709000  0.69331000  0.75862000  1.0
  H  H12  1  0.21908000  0.19531000  0.27178000  1.0
  H  H13  1  0.71910000  0.69530000  0.22822000  1.0
  H  H14  1  0.28092000  0.19531000  0.77178000  1.0
  H  H15  1  0.78090000  0.69530000  0.72822000  1.0
  H  H16  1  0.35663000  0.45201000  0.22898000  1.0
  H  H17  1  0.85663000  0.95201000  0.27101000  1.0
  H  H18  1  0.14338000  0.45202000  0.72898000  1.0
  H  H19  1  0.64337000  0.95201000  0.77102000  1.0
  H  H20  1  0.14508000  0.60360000  0.15291000  1.0
  H  H21  1  0.64508000  0.10360000  0.34709000  1.0
  H  H22  1  0.35492000  0.60360000  0.65291000  1.0
  H  H23  1  0.85491000  0.10360000  0.84709000  1.0
  H  H24  1  0.87485000  0.61771000  0.06107000  1.0
  H  H25  1  0.37484000  0.11771000  0.43893000  1.0
  H  H26  1  0.62516000  0.61771000  0.56107000  1.0
  H  H27  1  0.12516000  0.11771000  0.93893000  1.0
  H  H28  1  0.63514000  0.49618000  0.97975000  1.0
  H  H29  1  0.13514000  0.99619000  0.52025000  1.0
  H  H30  1  0.86486000  0.49618000  0.47975000  1.0
  H  H31  1  0.36486000  0.99619000  0.02025000  1.0
  H  H32  1  0.60359000  0.23894000  0.97737000  1.0
  H  H33  1  0.10359000  0.73895000  0.52263000  1.0
  H  H34  1  0.89640000  0.23894000  0.47737000  1.0
  H  H35  1  0.39641000  0.73895000  0.02263000  1.0
  H  H36  1  0.81750000  0.09823000  0.05583000  1.0
  H  H37  1  0.31751000  0.59824000  0.44417000  1.0
  H  H38  1  0.68249000  0.09824000  0.55583000  1.0
  H  H39  1  0.18250000  0.59824000  0.94417000  1.0
  C  C40  1  0.22507000  0.26012000  0.18843000  1.0
  C  C41  1  0.72508000  0.76012000  0.31157000  1.0
  C  C42  1  0.27493000  0.26013000  0.68843000  1.0
  C  C43  1  0.77493000  0.76012000  0.81157000  1.0
  C  C44  1  0.35655000  0.17158000  0.23378000  1.0
  C  C45  1  0.85656000  0.67158000  0.26622000  1.0
  C  C46  1  0.14345000  0.17158000  0.73378000  1.0
  C  C47  1  0.64344000  0.67158000  0.76622000  1.0
  C  C48  1  0.24460000  0.40710000  0.19245000  1.0
  C  C49  1  0.74460000  0.90710000  0.30755000  1.0
  C  C50  1  0.25539000  0.40711000  0.69245000  1.0
  C  C51  1  0.75540000  0.90710000  0.80755000  1.0
  C  C52  1  0.12813000  0.49013000  0.15086000  1.0
  C  C53  1  0.62813000  0.99013000  0.34913000  1.0
  C  C54  1  0.37187000  0.49014000  0.65086000  1.0
  C  C55  1  0.87187000  0.99013000  0.84913000  1.0
  C  C56  1  0.98538000  0.42672000  0.10414000  1.0
  C  C57  1  0.48538000  0.92672000  0.39586000  1.0
  C  C58  1  0.51462000  0.42672000  0.60414000  1.0
  C  C59  1  0.01462000  0.92672000  0.89586000  1.0
  C  C60  1  0.86197000  0.50424000  0.05925000  1.0
  C  C61  1  0.36197000  0.00424000  0.44075000  1.0
  C  C62  1  0.63803000  0.50424000  0.55925000  1.0
  C  C63  1  0.13803000  0.00424000  0.94075000  1.0
  C  C64  1  0.72863000  0.43705000  0.01447000  1.0
  C  C65  1  0.22863000  0.93706000  0.48553000  1.0
  C  C66  1  0.77137000  0.43706000  0.51446000  1.0
  C  C67  1  0.27137000  0.93706000  0.98553000  1.0
  C  C68  1  0.71102000  0.29007000  0.01305000  1.0
  C  C69  1  0.21101000  0.79008000  0.48695000  1.0
  C  C70  1  0.78898000  0.29008000  0.51305000  1.0
  C  C71  1  0.28899000  0.79008000  0.98695000  1.0
  C  C72  1  0.82838000  0.21205000  0.05629000  1.0
  C  C73  1  0.32839000  0.71206000  0.44371000  1.0
  C  C74  1  0.67162000  0.21206000  0.55629000  1.0
  C  C75  1  0.17163000  0.71206000  0.94371000  1.0
  C  C76  1  0.96924000  0.27800000  0.10244000  1.0
  C  C77  1  0.46924000  0.77800000  0.39756000  1.0
  C  C78  1  0.53076000  0.27801000  0.60244000  1.0
  C  C79  1  0.03075000  0.77801000  0.89756000  1.0
  Br  Br80  1  0.58119000  0.84691000  0.13431000  1.0
  Br  Br81  1  0.08120000  0.34691000  0.36569000  1.0
  Br  Br82  1  0.91882000  0.84692000  0.63431000  1.0
  Br  Br83  1  0.41882000  0.34691000  0.86569000  1.0
  N  N84  1  0.09070000  0.19713000  0.14472000  1.0
  N  N85  1  0.59070000  0.69713000  0.35529000  1.0
  N  N86  1  0.40930000  0.19713000  0.64471000  1.0
  N  N87  1  0.90930000  0.69713000  0.85529000  1.0
