# generated using pymatgen
data_AgH8C6(NO)3
_symmetry_space_group_name_H-M   'P 1'
_cell_length_a   6.21716000
_cell_length_b   11.05230000
_cell_length_c   11.78220000
_cell_angle_alpha   90.00080000
_cell_angle_beta   90.00110000
_cell_angle_gamma   89.99890000
_symmetry_Int_Tables_number   1
_chemical_formula_structural   AgH8C6(NO)3
_chemical_formula_sum   'Ag4 H32 C24 N12 O12'
_cell_volume   809.60111801
_cell_formula_units_Z   4
loop_
 _symmetry_equiv_pos_site_id
 _symmetry_equiv_pos_as_xyz
  1  'x, y, z'
loop_
 _atom_site_type_symbol
 _atom_site_label
 _atom_site_symmetry_multiplicity
 _atom_site_fract_x
 _atom_site_fract_y
 _atom_site_fract_z
 _atom_site_occupancy
  Ag  Ag0  1  0.24999000  0.27494000  0.44311000  1.0
  Ag  Ag1  1  0.75000000  0.77494000  0.05689000  1.0
  Ag  Ag2  1  0.25000000  0.22506000  0.94309000  1.0
  Ag  Ag3  1  0.74999000  0.72504000  0.55690000  1.0
  H  H4  1  0.10928000  0.30424000  0.68779000  1.0
  H  H5  1  0.89074000  0.80424000  0.81220000  1.0
  H  H6  1  0.39074000  0.19578000  0.18781000  1.0
  H  H7  1  0.60925000  0.69576000  0.31220000  1.0
  H  H8  1  0.89074000  0.69575000  0.31221000  1.0
  H  H9  1  0.10926000  0.19577000  0.18780000  1.0
  H  H10  1  0.60926000  0.80424000  0.81220000  1.0
  H  H11  1  0.39076000  0.30426000  0.68780000  1.0
  H  H12  1  0.11708000  0.43325000  0.85453000  1.0
  H  H13  1  0.88293000  0.93323000  0.64547000  1.0
  H  H14  1  0.38295000  0.06677000  0.35452000  1.0
  H  H15  1  0.61710000  0.56676000  0.14546000  1.0
  H  H16  1  0.88294000  0.56677000  0.14548000  1.0
  H  H17  1  0.11709000  0.06675000  0.35453000  1.0
  H  H18  1  0.61707000  0.93323000  0.64546000  1.0
  H  H19  1  0.38293000  0.43325000  0.85453000  1.0
  H  H20  1  0.25000000  0.60087000  0.77123000  1.0
  H  H21  1  0.74996000  0.10085000  0.72877000  1.0
  H  H22  1  0.25003000  0.89917000  0.27123000  1.0
  H  H23  1  0.75000000  0.39916000  0.22877000  1.0
  H  H24  1  0.24999000  0.77942000  0.63971000  1.0
  H  H25  1  0.74994000  0.27941000  0.86029000  1.0
  H  H26  1  0.25001000  0.72060000  0.13974000  1.0
  H  H27  1  0.74998000  0.22058000  0.36028000  1.0
  H  H28  1  0.24999000  0.74187000  0.43007000  1.0
  H  H29  1  0.74997000  0.24187000  0.06993000  1.0
  H  H30  1  0.25001000  0.75812000  0.93009000  1.0
  H  H31  1  0.74996000  0.25812000  0.56992000  1.0
  H  H32  1  0.24999000  0.52847000  0.36008000  1.0
  H  H33  1  0.75001000  0.02847000  0.13992000  1.0
  H  H34  1  0.25001000  0.97152000  0.86008000  1.0
  H  H35  1  0.74997000  0.47151000  0.63992000  1.0
  C  C36  1  0.25000000  0.47106000  0.63512000  1.0
  C  C37  1  0.75000000  0.97105000  0.86487000  1.0
  C  C38  1  0.25002000  0.02895000  0.13512000  1.0
  C  C39  1  0.74999000  0.52894000  0.36489000  1.0
  C  C40  1  0.25001000  0.35992000  0.70961000  1.0
  C  C41  1  0.75000000  0.85989000  0.79039000  1.0
  C  C42  1  0.25001000  0.14011000  0.20961000  1.0
  C  C43  1  0.74999000  0.64009000  0.29039000  1.0
  C  C44  1  0.24999000  0.58795000  0.67973000  1.0
  C  C45  1  0.74997000  0.08793000  0.82028000  1.0
  C  C46  1  0.25002000  0.91207000  0.17973000  1.0
  C  C47  1  0.75000000  0.41206000  0.32027000  1.0
  C  C48  1  0.24999000  0.68724000  0.60662000  1.0
  C  C49  1  0.74997000  0.18723000  0.89339000  1.0
  C  C50  1  0.25002000  0.81277000  0.10662000  1.0
  C  C51  1  0.74999000  0.31276000  0.39338000  1.0
  C  C52  1  0.24999000  0.66674000  0.48974000  1.0
  C  C53  1  0.74999000  0.16674000  0.01026000  1.0
  C  C54  1  0.25001000  0.83325000  0.98975000  1.0
  C  C55  1  0.74998000  0.33326000  0.51026000  1.0
  C  C56  1  0.24999000  0.54804000  0.45075000  1.0
  C  C57  1  0.75001000  0.04803000  0.04924000  1.0
  C  C58  1  0.25001000  0.95195000  0.95076000  1.0
  C  C59  1  0.74998000  0.45195000  0.54925000  1.0
  N  N60  1  0.24999000  0.45183000  0.52141000  1.0
  N  N61  1  0.75001000  0.95182000  0.97859000  1.0
  N  N62  1  0.25001000  0.04817000  0.02140000  1.0
  N  N63  1  0.74999000  0.54816000  0.47861000  1.0
  N  N64  1  0.25001000  0.38296000  0.83247000  1.0
  N  N65  1  0.75000000  0.88295000  0.66753000  1.0
  N  N66  1  0.25001000  0.11705000  0.33247000  1.0
  N  N67  1  0.75001000  0.61704000  0.16754000  1.0
  N  N68  1  0.24996000  0.05447000  0.62170000  1.0
  N  N69  1  0.75002000  0.55448000  0.87829000  1.0
  N  N70  1  0.25001000  0.44553000  0.12171000  1.0
  N  N71  1  0.75004000  0.94552000  0.37830000  1.0
  O  O72  1  0.42720000  0.10096000  0.59118000  1.0
  O  O73  1  0.57277000  0.60099000  0.90879000  1.0
  O  O74  1  0.07277000  0.39901000  0.09120000  1.0
  O  O75  1  0.92729000  0.89903000  0.40881000  1.0
  O  O76  1  0.57280000  0.89902000  0.40881000  1.0
  O  O77  1  0.42727000  0.39905000  0.09119000  1.0
  O  O78  1  0.92726000  0.60097000  0.90881000  1.0
  O  O79  1  0.07272000  0.10098000  0.59121000  1.0
  O  O80  1  0.24998000  0.95990000  0.68351000  1.0
  O  O81  1  0.75002000  0.45990000  0.81648000  1.0
  O  O82  1  0.24998000  0.54010000  0.18352000  1.0
  O  O83  1  0.75003000  0.04009000  0.31648000  1.0
