# generated using pymatgen
data_ZnH12C16(NO4)2
_symmetry_space_group_name_H-M   'P 1'
_cell_length_a   7.21484000
_cell_length_b   7.28921733
_cell_length_c   17.74130061
_cell_angle_alpha   84.24585409
_cell_angle_beta   78.26391511
_cell_angle_gamma   60.36395353
_symmetry_Int_Tables_number   1
_chemical_formula_structural   ZnH12C16(NO4)2
_chemical_formula_sum   'Zn2 H24 C32 N4 O16'
_cell_volume   794.01652477
_cell_formula_units_Z   2
loop_
 _symmetry_equiv_pos_site_id
 _symmetry_equiv_pos_as_xyz
  1  'x, y, z'
loop_
 _atom_site_type_symbol
 _atom_site_label
 _atom_site_symmetry_multiplicity
 _atom_site_fract_x
 _atom_site_fract_y
 _atom_site_fract_z
 _atom_site_occupancy
  Zn  Zn0  1  0.76585000  0.99983000  0.00001000  1.0
  Zn  Zn1  1  0.51558000  0.49982000  0.49998000  1.0
  H  H2  1  0.53066000  0.09536000  0.30557000  1.0
  H  H3  1  0.93160000  0.90471000  0.69446000  1.0
  H  H4  1  0.58657000  0.59517000  0.19453000  1.0
  H  H5  1  0.37611000  0.40487000  0.80545000  1.0
  H  H6  1  0.85443000  0.17198000  0.25035000  1.0
  H  H7  1  0.27657000  0.82823000  0.74954000  1.0
  H  H8  1  0.85470000  0.67272000  0.24953000  1.0
  H  H9  1  0.77651000  0.32749000  0.75060000  1.0
  H  H10  1  0.14075000  0.15480000  0.13985000  1.0
  H  H11  1  0.43489000  0.84570000  0.86009000  1.0
  H  H12  1  0.03049000  0.65494000  0.36010000  1.0
  H  H13  1  0.04500000  0.34526000  0.63997000  1.0
  H  H14  1  0.43370000  0.08364000  0.42453000  1.0
  H  H15  1  0.94197000  0.91651000  0.57544000  1.0
  H  H16  1  0.60905000  0.58281000  0.07550000  1.0
  H  H17  1  0.26758000  0.41675000  0.92450000  1.0
  H  H18  1  0.24445000  0.98877000  0.45954000  1.0
  H  H19  1  0.69295000  0.01119000  0.54045000  1.0
  H  H20  1  0.45470000  0.48792000  0.04058000  1.0
  H  H21  1  0.98352000  0.51158000  0.95951000  1.0
  H  H22  1  0.15190000  0.26495000  0.45848000  1.0
  H  H23  1  0.87541000  0.73506000  0.54152000  1.0
  H  H24  1  0.36142000  0.76407000  0.04142000  1.0
  H  H25  1  0.16699000  0.23545000  0.95852000  1.0
  C  C26  1  0.53611000  0.11301000  0.15052000  1.0
  C  C27  1  0.79946000  0.88702000  0.84949000  1.0
  C  C28  1  0.43646000  0.61326000  0.34954000  1.0
  C  C29  1  0.39888000  0.38695000  0.65045000  1.0
  C  C30  1  0.35677000  0.12512000  0.21421000  1.0
  C  C31  1  0.69594000  0.87506000  0.78578000  1.0
  C  C32  1  0.32103000  0.62533000  0.28580000  1.0
  C  C33  1  0.23178000  0.37487000  0.71421000  1.0
  C  C34  1  0.38297000  0.11540000  0.29018000  1.0
  C  C35  1  0.78855000  0.88469000  0.70982000  1.0
  C  C36  1  0.42344000  0.61543000  0.20985000  1.0
  C  C37  1  0.24849000  0.38466000  0.79015000  1.0
  C  C38  1  0.03528000  0.15151000  0.33574000  1.0
  C  C39  1  0.52269000  0.84842000  0.66419000  1.0
  C  C40  1  0.12135000  0.65185000  0.16421000  1.0
  C  C41  1  0.93715000  0.34822000  0.83586000  1.0
  C  C42  1  0.00448000  0.15893000  0.26028000  1.0
  C  C43  1  0.42359000  0.84124000  0.73963000  1.0
  C  C44  1  0.01482000  0.65944000  0.23964000  1.0
  C  C45  1  0.91351000  0.34075000  0.76044000  1.0
  C  C46  1  0.16411000  0.14683000  0.19905000  1.0
  C  C47  1  0.50973000  0.85348000  0.80090000  1.0
  C  C48  1  0.11315000  0.64712000  0.30092000  1.0
  C  C49  1  0.06077000  0.35308000  0.69914000  1.0
  C  C50  1  0.26710000  0.11591000  0.42861000  1.0
  C  C51  1  0.81179000  0.88413000  0.57137000  1.0
  C  C52  1  0.44651000  0.61522000  0.07141000  1.0
  C  C53  1  0.13330000  0.38438000  0.92861000  1.0
  C  C54  1  0.85043000  0.17692000  0.40013000  1.0
  C  C55  1  0.42807000  0.82259000  0.59975000  1.0
  C  C56  1  0.00101000  0.67735000  0.09978000  1.0
  C  C57  1  0.77788000  0.32283000  0.90033000  1.0
  N  N58  1  0.22471000  0.13005000  0.34943000  1.0
  N  N59  1  0.70431000  0.86996000  0.65054000  1.0
  N  N60  1  0.32462000  0.63001000  0.15057000  1.0
  N  N61  1  0.10505000  0.36994000  0.84947000  1.0
  O  O62  1  0.50966000  0.09034000  0.08264000  1.0
  O  O63  1  0.68239000  0.90977000  0.91736000  1.0
  O  O64  1  0.34197000  0.59059000  0.41739000  1.0
  O  O65  1  0.34972000  0.40940000  0.58259000  1.0
  O  O66  1  0.68959000  0.12623000  0.16652000  1.0
  O  O67  1  0.98222000  0.87366000  0.83349000  1.0
  O  O68  1  0.60594000  0.62652000  0.33360000  1.0
  O  O69  1  0.56561000  0.37379000  0.66639000  1.0
  O  O70  1  0.74282000  0.09306000  0.39033000  1.0
  O  O71  1  0.22686000  0.90633000  0.60946000  1.0
  O  O72  1  0.88366000  0.59346000  0.10952000  1.0
  O  O73  1  0.58636000  0.40687000  0.89064000  1.0
  O  O74  1  0.81691000  0.29391000  0.45635000  1.0
  O  O75  1  0.56795000  0.70542000  0.54362000  1.0
  O  O76  1  0.02371000  0.79443000  0.04362000  1.0
  O  O77  1  0.86150000  0.20570000  0.95646000  1.0
