# generated using pymatgen
data_ZnH20C22(NO)4
_symmetry_space_group_name_H-M   'P 1'
_cell_length_a   9.97387000
_cell_length_b   15.20260000
_cell_length_c   22.55150000
_cell_angle_alpha   89.99990000
_cell_angle_beta   89.99990000
_cell_angle_gamma   87.32680000
_symmetry_Int_Tables_number   1
_chemical_formula_structural   ZnH20C22(NO)4
_chemical_formula_sum   'Zn4 H80 C88 N16 O16'
_cell_volume   3415.73483922
_cell_formula_units_Z   4
loop_
 _symmetry_equiv_pos_site_id
 _symmetry_equiv_pos_as_xyz
  1  'x, y, z'
loop_
 _atom_site_type_symbol
 _atom_site_label
 _atom_site_symmetry_multiplicity
 _atom_site_fract_x
 _atom_site_fract_y
 _atom_site_fract_z
 _atom_site_occupancy
  Zn  Zn0  1  0.15283000  0.55120000  0.21196000  1.0
  Zn  Zn1  1  0.34717000  0.94880000  0.71196000  1.0
  Zn  Zn2  1  0.84717000  0.44880000  0.78804000  1.0
  Zn  Zn3  1  0.65283000  0.05120000  0.28804000  1.0
  H  H4  1  0.94442000  0.47207000  0.12858000  1.0
  H  H5  1  0.55558000  0.02794000  0.62858000  1.0
  H  H6  1  0.05558000  0.52794000  0.87142000  1.0
  H  H7  1  0.44442000  0.97207000  0.37142000  1.0
  H  H8  1  0.83054000  0.51838000  0.03622000  1.0
  H  H9  1  0.66947000  0.98162000  0.53622000  1.0
  H  H10  1  0.16947000  0.48162000  0.96378000  1.0
  H  H11  1  0.33053000  0.01838000  0.46378000  1.0
  H  H12  1  0.10256000  0.73407000  0.02863000  1.0
  H  H13  1  0.39745000  0.76593000  0.52863000  1.0
  H  H14  1  0.89745000  0.26593000  0.97137000  1.0
  H  H15  1  0.60255000  0.23407000  0.47137000  1.0
  H  H16  1  0.20468000  0.67548000  0.11943000  1.0
  H  H17  1  0.29532000  0.82452000  0.61943000  1.0
  H  H18  1  0.79532000  0.32452000  0.88057000  1.0
  H  H19  1  0.70468000  0.17548000  0.38057000  1.0
  H  H20  1  0.85557000  0.80014000  0.97130000  1.0
  H  H21  1  0.64443000  0.69986000  0.47130000  1.0
  H  H22  1  0.14443000  0.19986000  0.02869000  1.0
  H  H23  1  0.35557000  0.30014000  0.52870000  1.0
  H  H24  1  0.02432000  0.76414000  0.95548000  1.0
  H  H25  1  0.47568000  0.73586000  0.45548000  1.0
  H  H26  1  0.97568000  0.23586000  0.04452000  1.0
  H  H27  1  0.52432000  0.26414000  0.54452000  1.0
  H  H28  1  0.68161000  0.66520000  0.97643000  1.0
  H  H29  1  0.81840000  0.83480000  0.47643000  1.0
  H  H30  1  0.31839000  0.33480000  0.02357000  1.0
  H  H31  1  0.18160000  0.16520000  0.52357000  1.0
  H  H32  1  0.75980000  0.55949000  0.96227000  1.0
  H  H33  1  0.74020000  0.94051000  0.46227000  1.0
  H  H34  1  0.24020000  0.44051000  0.03773000  1.0
  H  H35  1  0.25980000  0.05949000  0.53773000  1.0
  H  H36  1  0.81542000  0.59480000  0.86208000  1.0
  H  H37  1  0.68459000  0.90520000  0.36208000  1.0
  H  H38  1  0.18458000  0.40520000  0.13792000  1.0
  H  H39  1  0.31541000  0.09480000  0.63792000  1.0
  H  H40  1  0.64313000  0.61677000  0.87433000  1.0
  H  H41  1  0.85687000  0.88323000  0.37433000  1.0
  H  H42  1  0.35687000  0.38323000  0.12567000  1.0
  H  H43  1  0.14313000  0.11677000  0.62567000  1.0
  H  H44  1  0.90922000  0.82389000  0.86701000  1.0
  H  H45  1  0.59078000  0.67611000  0.36701000  1.0
  H  H46  1  0.09078000  0.17610000  0.13299000  1.0
  H  H47  1  0.40922000  0.32389000  0.63299000  1.0
  H  H48  1  0.96930000  0.71308000  0.85726000  1.0
  H  H49  1  0.53070000  0.78692000  0.35726000  1.0
  H  H50  1  0.03070000  0.28692000  0.14274000  1.0
  H  H51  1  0.46930000  0.21308000  0.64274000  1.0
  H  H52  1  0.52865000  0.67332000  0.81859000  1.0
  H  H53  1  0.97135000  0.82668000  0.31859000  1.0
  H  H54  1  0.47135000  0.32668000  0.18141000  1.0
  H  H55  1  0.02865000  0.17332000  0.68141000  1.0
  H  H56  1  0.37016000  0.76689000  0.76070000  1.0
  H  H57  1  0.12984000  0.73311000  0.26070000  1.0
  H  H58  1  0.62984000  0.23311000  0.23930000  1.0
  H  H59  1  0.87016000  0.26689000  0.73930000  1.0
  H  H60  1  0.61844000  0.97764000  0.76471000  1.0
  H  H61  1  0.88156000  0.52236000  0.26471000  1.0
  H  H62  1  0.38156000  0.02236000  0.23529000  1.0
  H  H63  1  0.11844000  0.47764000  0.73529000  1.0
  H  H64  1  0.78730000  0.89631000  0.82422000  1.0
  H  H65  1  0.71270000  0.60369000  0.32422000  1.0
  H  H66  1  0.21270000  0.10369000  0.17578000  1.0
  H  H67  1  0.28730000  0.39631000  0.67579000  1.0
  H  H68  1  0.30806000  0.33093000  0.31570000  1.0
  H  H69  1  0.19194000  0.16908000  0.81569000  1.0
  H  H70  1  0.69194000  0.66907000  0.68431000  1.0
  H  H71  1  0.80806000  0.83093000  0.18431000  1.0
  H  H72  1  0.33419000  0.19093000  0.37354000  1.0
  H  H73  1  0.16581000  0.30907000  0.87354000  1.0
  H  H74  1  0.66580000  0.80906000  0.62646000  1.0
  H  H75  1  0.83420000  0.69094000  0.12646000  1.0
  H  H76  1  0.14813000  0.08521000  0.37364000  1.0
  H  H77  1  0.35187000  0.41479000  0.87364000  1.0
  H  H78  1  0.85187000  0.91479000  0.62636000  1.0
  H  H79  1  0.64813000  0.58521000  0.12636000  1.0
  H  H80  1  0.92007000  0.25721000  0.25646000  1.0
  H  H81  1  0.57992000  0.24279000  0.75646000  1.0
  H  H82  1  0.07993000  0.74279000  0.74354000  1.0
  H  H83  1  0.42007000  0.75721000  0.24354000  1.0
  C  C84  1  0.60200000  0.91031000  0.77883000  1.0
  C  C85  1  0.89800000  0.58969000  0.27883000  1.0
  C  C86  1  0.39800000  0.08969000  0.22117000  1.0
  C  C87  1  0.10200000  0.41031000  0.72117000  1.0
  C  C88  1  0.97673000  0.52889000  0.10369000  1.0
  C  C89  1  0.52327000  0.97111000  0.60369000  1.0
  C  C90  1  0.02327000  0.47111000  0.89631000  1.0
  C  C91  1  0.47672000  0.02889000  0.39631000  1.0
  C  C92  1  0.91345000  0.55598000  0.05186000  1.0
  C  C93  1  0.58656000  0.94402000  0.55186000  1.0
  C  C94  1  0.08656000  0.44402000  0.94814000  1.0
  C  C95  1  0.41344000  0.05598000  0.44814000  1.0
  C  C96  1  0.95419000  0.63204000  0.02143000  1.0
  C  C97  1  0.54581000  0.86796000  0.52143000  1.0
  C  C98  1  0.04581000  0.36796000  0.97857000  1.0
  C  C99  1  0.45419000  0.13204000  0.47857000  1.0
  C  C100  1  0.06343000  0.67469000  0.04741000  1.0
  C  C101  1  0.43657000  0.82531000  0.54741000  1.0
  C  C102  1  0.93657000  0.32531000  0.95259000  1.0
  C  C103  1  0.56343000  0.17469000  0.45259000  1.0
  C  C104  1  0.12178000  0.64236000  0.09896000  1.0
  C  C105  1  0.37822000  0.85765000  0.59896000  1.0
  C  C106  1  0.87822000  0.35765000  0.90104000  1.0
  C  C107  1  0.62178000  0.14235000  0.40104000  1.0
  C  C108  1  0.91923000  0.74988000  0.94768000  1.0
  C  C109  1  0.58077000  0.75012000  0.44768000  1.0
  C  C110  1  0.08077000  0.25012000  0.05232000  1.0
  C  C111  1  0.41923000  0.24988000  0.55232000  1.0
  C  C112  1  0.76363000  0.62966000  0.95198000  1.0
  C  C113  1  0.73637000  0.87034000  0.45198000  1.0
  C  C114  1  0.23637000  0.37034000  0.04802000  1.0
  C  C115  1  0.26363000  0.12966000  0.54802000  1.0
  C  C116  1  0.74256000  0.63899000  0.88533000  1.0
  C  C117  1  0.75744000  0.86101000  0.38533000  1.0
  C  C118  1  0.25744000  0.36101000  0.11467000  1.0
  C  C119  1  0.24256000  0.13899000  0.61467000  1.0
  C  C120  1  0.89501000  0.75617000  0.88103000  1.0
  C  C121  1  0.60499000  0.74383000  0.38103000  1.0
  C  C122  1  0.10499000  0.24383000  0.11897000  1.0
  C  C123  1  0.39501000  0.25617000  0.61897000  1.0
  C  C124  1  0.67346000  0.77626000  0.83075000  1.0
  C  C125  1  0.82654000  0.72374000  0.33075000  1.0
  C  C126  1  0.32653000  0.22374000  0.16925000  1.0
  C  C127  1  0.17346000  0.27626000  0.66925000  1.0
  C  C128  1  0.55263000  0.74117000  0.80994000  1.0
  C  C129  1  0.94737000  0.75883000  0.30994000  1.0
  C  C130  1  0.44737000  0.25883000  0.19006000  1.0
  C  C131  1  0.05263000  0.24117000  0.69006000  1.0
  C  C132  1  0.46389000  0.79283000  0.77651000  1.0
  C  C133  1  0.03611000  0.70717000  0.27651000  1.0
  C  C134  1  0.53611000  0.20717000  0.22349000  1.0
  C  C135  1  0.96389000  0.29284000  0.72349000  1.0
  C  C136  1  0.69621000  0.86378000  0.81264000  1.0
  C  C137  1  0.80379000  0.63622000  0.31264000  1.0
  C  C138  1  0.30379000  0.13622000  0.18736000  1.0
  C  C139  1  0.19621000  0.36378000  0.68736000  1.0
  C  C140  1  0.09625000  0.38579000  0.24751000  1.0
  C  C141  1  0.40375000  0.11421000  0.74751000  1.0
  C  C142  1  0.90376000  0.61421000  0.75249000  1.0
  C  C143  1  0.59625000  0.88579000  0.25249000  1.0
  C  C144  1  0.11268000  0.30241000  0.28264000  1.0
  C  C145  1  0.38732000  0.19759000  0.78264000  1.0
  C  C146  1  0.88732000  0.69759000  0.71736000  1.0
  C  C147  1  0.61268000  0.80241000  0.21736000  1.0
  C  C148  1  0.22921000  0.28371000  0.31598000  1.0
  C  C149  1  0.27078000  0.21629000  0.81598000  1.0
  C  C150  1  0.77079000  0.71628000  0.68402000  1.0
  C  C151  1  0.72922000  0.78372000  0.18402000  1.0
  C  C152  1  0.24281000  0.20565000  0.34832000  1.0
  C  C153  1  0.25718000  0.29435000  0.84832000  1.0
  C  C154  1  0.75718000  0.79435000  0.65168000  1.0
  C  C155  1  0.74282000  0.70565000  0.15168000  1.0
  C  C156  1  0.14002000  0.14638000  0.34830000  1.0
  C  C157  1  0.35997000  0.35362000  0.84830000  1.0
  C  C158  1  0.85998000  0.85362000  0.65170000  1.0
  C  C159  1  0.64003000  0.64638000  0.15170000  1.0
  C  C160  1  0.02298000  0.16461000  0.31527000  1.0
  C  C161  1  0.47702000  0.33539000  0.81527000  1.0
  C  C162  1  0.97702000  0.83539000  0.68473000  1.0
  C  C163  1  0.52298000  0.66461000  0.18473000  1.0
  C  C164  1  0.01055000  0.24253000  0.28228000  1.0
  C  C165  1  0.48945000  0.25747000  0.78228000  1.0
  C  C166  1  0.98945000  0.75747000  0.71772000  1.0
  C  C167  1  0.51055000  0.74253000  0.21772000  1.0
  C  C168  1  0.91028000  0.10217000  0.31650000  1.0
  C  C169  1  0.58972000  0.39783000  0.81649000  1.0
  C  C170  1  0.08972000  0.89783000  0.68350000  1.0
  C  C171  1  0.41028000  0.60217000  0.18350000  1.0
  N  N172  1  0.48534000  0.87697000  0.76106000  1.0
  N  N173  1  0.01466000  0.62303000  0.26106000  1.0
  N  N174  1  0.51466000  0.12303000  0.23894000  1.0
  N  N175  1  0.98535000  0.37697000  0.73894000  1.0
  N  N176  1  0.08001000  0.57084000  0.12784000  1.0
  N  N177  1  0.41999000  0.92916000  0.62784000  1.0
  N  N178  1  0.91999000  0.42916000  0.87216000  1.0
  N  N179  1  0.58001000  0.07084000  0.37216000  1.0
  N  N180  1  0.89309000  0.66224000  0.97052000  1.0
  N  N181  1  0.60691000  0.83776000  0.47052000  1.0
  N  N182  1  0.10691000  0.33776000  0.02948000  1.0
  N  N183  1  0.39309000  0.16224000  0.52948000  1.0
  N  N184  1  0.76137000  0.72893000  0.86599000  1.0
  N  N185  1  0.73863000  0.77107000  0.36599000  1.0
  N  N186  1  0.23863000  0.27107000  0.13401000  1.0
  N  N187  1  0.26137000  0.22893000  0.63401000  1.0
  O  O188  1  0.19266000  0.43965000  0.25281000  1.0
  O  O189  1  0.30734000  0.06034000  0.75281000  1.0
  O  O190  1  0.80734000  0.56035000  0.74719000  1.0
  O  O191  1  0.69266000  0.93966000  0.24719000  1.0
  O  O192  1  0.99487000  0.40029000  0.21503000  1.0
  O  O193  1  0.50513000  0.09972000  0.71503000  1.0
  O  O194  1  0.00513000  0.59971000  0.78497000  1.0
  O  O195  1  0.49487000  0.90028000  0.28497000  1.0
  O  O196  1  0.80663000  0.12743000  0.28441000  1.0
  O  O197  1  0.69337000  0.37257000  0.78441000  1.0
  O  O198  1  0.19337000  0.87257000  0.71559000  1.0
  O  O199  1  0.30663000  0.62744000  0.21559000  1.0
  O  O200  1  0.91817000  0.03382000  0.34733000  1.0
  O  O201  1  0.58184000  0.46618000  0.84733000  1.0
  O  O202  1  0.08183000  0.96619000  0.65267000  1.0
  O  O203  1  0.41817000  0.53382000  0.15267000  1.0
