# generated using pymatgen
data_HgH11C13(BrN)2
_symmetry_space_group_name_H-M   'P 1'
_cell_length_a   9.89849000
_cell_length_b   10.84720000
_cell_length_c   14.26440000
_cell_angle_alpha   110.24000000
_cell_angle_beta   89.99980000
_cell_angle_gamma   90.00000000
_symmetry_Int_Tables_number   1
_chemical_formula_structural   HgH11C13(BrN)2
_chemical_formula_sum   'Hg4 H44 C52 Br8 N8'
_cell_volume   1437.00897050
_cell_formula_units_Z   4
loop_
 _symmetry_equiv_pos_site_id
 _symmetry_equiv_pos_as_xyz
  1  'x, y, z'
loop_
 _atom_site_type_symbol
 _atom_site_label
 _atom_site_symmetry_multiplicity
 _atom_site_fract_x
 _atom_site_fract_y
 _atom_site_fract_z
 _atom_site_occupancy
  Hg  Hg0  1  0.42087000  0.68816000  0.04414000  1.0
  Hg  Hg1  1  0.92088000  0.31184000  0.45586000  1.0
  Hg  Hg2  1  0.57913000  0.31184000  0.95586000  1.0
  Hg  Hg3  1  0.07912000  0.68816000  0.54414000  1.0
  H  H4  1  0.62414000  0.66707000  0.39306000  1.0
  H  H5  1  0.12414000  0.33293000  0.10694000  1.0
  H  H6  1  0.37586000  0.33293000  0.60694000  1.0
  H  H7  1  0.87586000  0.66707000  0.89306000  1.0
  H  H8  1  0.59432000  0.05973000  0.38507000  1.0
  H  H9  1  0.09432000  0.94027000  0.11492000  1.0
  H  H10  1  0.40569000  0.94027000  0.61492000  1.0
  H  H11  1  0.90567000  0.05973000  0.88508000  1.0
  H  H12  1  0.65308000  0.90976000  0.47814000  1.0
  H  H13  1  0.15307000  0.09024000  0.02186000  1.0
  H  H14  1  0.34693000  0.09024000  0.52186000  1.0
  H  H15  1  0.84692000  0.90976000  0.97814000  1.0
  H  H16  1  0.52210000  0.58454000  0.22063000  1.0
  H  H17  1  0.02210000  0.41546000  0.27937000  1.0
  H  H18  1  0.47790000  0.41546000  0.77937000  1.0
  H  H19  1  0.97790000  0.58454000  0.72063000  1.0
  H  H20  1  0.68138000  0.16391000  0.18110000  1.0
  H  H21  1  0.18137000  0.83608000  0.31890000  1.0
  H  H22  1  0.31863000  0.83608000  0.81890000  1.0
  H  H23  1  0.81863000  0.16391000  0.68110000  1.0
  H  H24  1  0.68177000  0.40306000  0.27027000  1.0
  H  H25  1  0.18176000  0.59694000  0.22972000  1.0
  H  H26  1  0.31824000  0.59693000  0.72972000  1.0
  H  H27  1  0.81823000  0.40306000  0.77028000  1.0
  H  H28  1  0.30746000  0.37212000  0.41555000  1.0
  H  H29  1  0.80746000  0.62789000  0.08444000  1.0
  H  H30  1  0.69254000  0.62789000  0.58444000  1.0
  H  H31  1  0.19254000  0.37212000  0.91556000  1.0
  H  H32  1  0.30853000  0.12979000  0.32778000  1.0
  H  H33  1  0.80853000  0.87022000  0.17221000  1.0
  H  H34  1  0.69147000  0.87022000  0.67221000  1.0
  H  H35  1  0.19147000  0.12979000  0.82779000  1.0
  H  H36  1  0.49312000  0.50778000  0.38978000  1.0
  H  H37  1  0.99311000  0.49222000  0.11022000  1.0
  H  H38  1  0.50689000  0.49222000  0.61022000  1.0
  H  H39  1  0.00688000  0.50778000  0.88978000  1.0
  H  H40  1  0.41896000  0.10929000  0.07832000  1.0
  H  H41  1  0.91897000  0.89071000  0.42168000  1.0
  H  H42  1  0.58104000  0.89071000  0.92168000  1.0
  H  H43  1  0.08104000  0.10929000  0.57832000  1.0
  H  H44  1  0.35195000  0.95773000  0.99357000  1.0
  H  H45  1  0.85195000  0.04226000  0.50643000  1.0
  H  H46  1  0.64805000  0.04226000  0.00643000  1.0
  H  H47  1  0.14805000  0.95773000  0.49357000  1.0
  C  C48  1  0.59579000  0.73546000  0.35592000  1.0
  C  C49  1  0.09579000  0.26454000  0.14408000  1.0
  C  C50  1  0.40421000  0.26453000  0.64408000  1.0
  C  C51  1  0.90420000  0.73546000  0.85592000  1.0
  C  C52  1  0.57877000  0.95398000  0.35108000  1.0
  C  C53  1  0.07876000  0.04602000  0.14891000  1.0
  C  C54  1  0.42124000  0.04602000  0.64892000  1.0
  C  C55  1  0.92123000  0.95398000  0.85109000  1.0
  C  C56  1  0.52631000  0.90032000  0.25423000  1.0
  C  C57  1  0.02631000  0.09968000  0.24577000  1.0
  C  C58  1  0.47369000  0.09968000  0.74577000  1.0
  C  C59  1  0.97368000  0.90032000  0.75423000  1.0
  C  C60  1  0.61314000  0.87005000  0.40242000  1.0
  C  C61  1  0.11314000  0.12995000  0.09758000  1.0
  C  C62  1  0.38686000  0.12995000  0.59758000  1.0
  C  C63  1  0.88685000  0.87005000  0.90242000  1.0
  C  C64  1  0.54134000  0.68886000  0.25974000  1.0
  C  C65  1  0.04134000  0.31114000  0.24026000  1.0
  C  C66  1  0.45866000  0.31114000  0.74026000  1.0
  C  C67  1  0.95866000  0.68886000  0.75974000  1.0
  C  C68  1  0.49567000  0.98640000  0.19507000  1.0
  C  C69  1  0.99567000  0.01360000  0.30493000  1.0
  C  C70  1  0.50433000  0.01360000  0.80493000  1.0
  C  C71  1  0.00433000  0.98641000  0.69507000  1.0
  C  C72  1  0.49511000  0.13094000  0.24886000  1.0
  C  C73  1  0.99511000  0.86906000  0.25114000  1.0
  C  C74  1  0.50489000  0.86906000  0.75114000  1.0
  C  C75  1  0.00489000  0.13094000  0.74886000  1.0
  C  C76  1  0.59948000  0.20871000  0.23287000  1.0
  C  C77  1  0.09948000  0.79129000  0.26713000  1.0
  C  C78  1  0.40052000  0.79129000  0.76713000  1.0
  C  C79  1  0.90053000  0.20871000  0.73287000  1.0
  C  C80  1  0.59944000  0.34412000  0.28332000  1.0
  C  C81  1  0.09943000  0.65588000  0.21668000  1.0
  C  C82  1  0.40057000  0.65588000  0.71668000  1.0
  C  C83  1  0.90057000  0.34412000  0.78332000  1.0
  C  C84  1  0.38954000  0.32576000  0.36446000  1.0
  C  C85  1  0.88953000  0.67424000  0.13553000  1.0
  C  C86  1  0.61047000  0.67424000  0.63553000  1.0
  C  C87  1  0.11047000  0.32576000  0.86447000  1.0
  C  C88  1  0.39021000  0.19005000  0.31536000  1.0
  C  C89  1  0.89020000  0.80995000  0.18464000  1.0
  C  C90  1  0.60980000  0.80995000  0.68464000  1.0
  C  C91  1  0.10980000  0.19006000  0.81537000  1.0
  C  C92  1  0.49484000  0.40234000  0.34927000  1.0
  C  C93  1  0.99483000  0.59766000  0.15073000  1.0
  C  C94  1  0.50517000  0.59766000  0.65073000  1.0
  C  C95  1  0.00516000  0.40234000  0.84927000  1.0
  C  C96  1  0.44170000  0.00523000  0.03676000  1.0
  C  C97  1  0.94170000  0.99477000  0.46324000  1.0
  C  C98  1  0.55830000  0.99477000  0.96324000  1.0
  C  C99  1  0.05830000  0.00523000  0.53677000  1.0
  Br  Br100  1  0.62785000  0.57014000  0.92729000  1.0
  Br  Br101  1  0.12785000  0.42986000  0.57271000  1.0
  Br  Br102  1  0.37215000  0.42986000  0.07271000  1.0
  Br  Br103  1  0.87215000  0.57014000  0.42729000  1.0
  Br  Br104  1  0.19693000  0.71993000  0.96462000  1.0
  Br  Br105  1  0.69693000  0.28006000  0.53538000  1.0
  Br  Br106  1  0.80307000  0.28007000  0.03538000  1.0
  Br  Br107  1  0.30307000  0.71993000  0.46462000  1.0
  N  N108  1  0.47463000  0.93112000  0.10072000  1.0
  N  N109  1  0.97464000  0.06888000  0.39928000  1.0
  N  N110  1  0.52536000  0.06888000  0.89928000  1.0
  N  N111  1  0.02536000  0.93112000  0.60072000  1.0
  N  N112  1  0.50683000  0.76942000  0.21089000  1.0
  N  N113  1  0.00683000  0.23058000  0.28911000  1.0
  N  N114  1  0.49317000  0.23058000  0.78911000  1.0
  N  N115  1  0.99317000  0.76942000  0.71089000  1.0
