# generated using pymatgen
data_LiH15(C4O3)2
_symmetry_space_group_name_H-M   'P 1'
_cell_length_a   5.28007000
_cell_length_b   12.13210000
_cell_length_c   16.22160000
_cell_angle_alpha   98.15960000
_cell_angle_beta   90.00000000
_cell_angle_gamma   89.99980000
_symmetry_Int_Tables_number   1
_chemical_formula_structural   LiH15(C4O3)2
_chemical_formula_sum   'Li4 H60 C32 O24'
_cell_volume   1028.60916034
_cell_formula_units_Z   4
loop_
 _symmetry_equiv_pos_site_id
 _symmetry_equiv_pos_as_xyz
  1  'x, y, z'
loop_
 _atom_site_type_symbol
 _atom_site_label
 _atom_site_symmetry_multiplicity
 _atom_site_fract_x
 _atom_site_fract_y
 _atom_site_fract_z
 _atom_site_occupancy
  Li  Li0  1  0.54021000  0.63457000  0.10378000  1.0
  Li  Li1  1  0.04021000  0.86544000  0.89623000  1.0
  Li  Li2  1  0.45979000  0.36544000  0.89622000  1.0
  Li  Li3  1  0.95978000  0.13457000  0.10378000  1.0
  H  H4  1  0.30240000  0.55114000  0.29706000  1.0
  H  H5  1  0.80241000  0.94885000  0.70294000  1.0
  H  H6  1  0.69760000  0.44886000  0.70293000  1.0
  H  H7  1  0.19759000  0.05115000  0.29706000  1.0
  H  H8  1  0.31752000  0.72208000  0.23818000  1.0
  H  H9  1  0.81753000  0.77791000  0.76183000  1.0
  H  H10  1  0.68249000  0.27792000  0.76182000  1.0
  H  H11  1  0.18246000  0.22209000  0.23817000  1.0
  H  H12  1  0.45196000  0.82738000  0.08398000  1.0
  H  H13  1  0.95194000  0.67263000  0.91602000  1.0
  H  H14  1  0.54805000  0.17263000  0.91602000  1.0
  H  H15  1  0.04804000  0.32738000  0.08398000  1.0
  H  H16  1  0.27698000  0.75767000  0.01597000  1.0
  H  H17  1  0.77696000  0.74233000  0.98403000  1.0
  H  H18  1  0.72303000  0.24234000  0.98403000  1.0
  H  H19  1  0.22303000  0.25767000  0.01597000  1.0
  H  H20  1  0.74167000  0.51019000  0.97197000  1.0
  H  H21  1  0.24167000  0.98980000  0.02803000  1.0
  H  H22  1  0.25835000  0.48980000  0.02802000  1.0
  H  H23  1  0.75834000  0.01021000  0.97197000  1.0
  H  H24  1  0.77735000  0.89323000  0.20563000  1.0
  H  H25  1  0.27735000  0.60676000  0.79437000  1.0
  H  H26  1  0.22264000  0.10676000  0.79437000  1.0
  H  H27  1  0.72266000  0.39324000  0.20563000  1.0
  H  H28  1  0.83981000  0.48635000  0.06021000  1.0
  H  H29  1  0.33982000  0.01365000  0.93980000  1.0
  H  H30  1  0.16017000  0.51365000  0.93979000  1.0
  H  H31  1  0.66018000  0.98636000  0.06021000  1.0
  H  H32  1  0.35639000  0.73793000  0.38771000  1.0
  H  H33  1  0.85640000  0.76208000  0.61229000  1.0
  H  H34  1  0.64361000  0.26208000  0.61229000  1.0
  H  H35  1  0.14359000  0.23793000  0.38771000  1.0
  H  H36  1  0.19264000  0.85563000  0.36191000  1.0
  H  H37  1  0.69266000  0.64437000  0.63810000  1.0
  H  H38  1  0.80737000  0.14437000  0.63808000  1.0
  H  H39  1  0.30735000  0.35564000  0.36191000  1.0
  H  H40  1  0.98622000  0.78170000  0.48230000  1.0
  H  H41  1  0.48623000  0.71829000  0.51771000  1.0
  H  H42  1  0.01378000  0.21831000  0.51770000  1.0
  H  H43  1  0.51375000  0.28170000  0.48229000  1.0
  H  H44  1  0.77969000  0.77096000  0.39611000  1.0
  H  H45  1  0.27970000  0.72903000  0.60389000  1.0
  H  H46  1  0.22032000  0.22904000  0.60389000  1.0
  H  H47  1  0.72029000  0.27097000  0.39611000  1.0
  H  H48  1  0.77710000  0.59314000  0.45754000  1.0
  H  H49  1  0.27709000  0.90685000  0.54247000  1.0
  H  H50  1  0.22289000  0.40687000  0.54246000  1.0
  H  H51  1  0.72289000  0.09315000  0.45753000  1.0
  H  H52  1  0.10940000  0.58372000  0.44809000  1.0
  H  H53  1  0.60940000  0.91627000  0.55192000  1.0
  H  H54  1  0.89060000  0.41629000  0.55191000  1.0
  H  H55  1  0.39060000  0.08372000  0.44809000  1.0
  H  H56  1  0.90856000  0.45953000  0.33284000  1.0
  H  H57  1  0.40855000  0.04047000  0.66716000  1.0
  H  H58  1  0.09145000  0.54048000  0.66715000  1.0
  H  H59  1  0.59143000  0.95954000  0.33284000  1.0
  H  H60  1  0.72519000  0.56971000  0.30460000  1.0
  H  H61  1  0.22520000  0.93028000  0.69541000  1.0
  H  H62  1  0.27482000  0.43030000  0.69539000  1.0
  H  H63  1  0.77481000  0.06971000  0.30460000  1.0
  C  C64  1  0.12065000  0.57855000  0.27283000  1.0
  C  C65  1  0.62065000  0.92145000  0.72717000  1.0
  C  C66  1  0.87936000  0.42145000  0.72716000  1.0
  C  C67  1  0.37935000  0.07856000  0.27282000  1.0
  C  C68  1  0.14655000  0.70539000  0.27321000  1.0
  C  C69  1  0.64655000  0.79460000  0.72680000  1.0
  C  C70  1  0.85347000  0.29461000  0.72679000  1.0
  C  C71  1  0.35345000  0.20540000  0.27320000  1.0
  C  C72  1  0.17667000  0.76561000  0.36286000  1.0
  C  C73  1  0.67669000  0.73438000  0.63714000  1.0
  C  C74  1  0.82333000  0.23439000  0.63713000  1.0
  C  C75  1  0.32331000  0.26561000  0.36286000  1.0
  C  C76  1  0.95861000  0.73857000  0.41861000  1.0
  C  C77  1  0.45862000  0.76142000  0.58140000  1.0
  C  C78  1  0.04140000  0.26143000  0.58139000  1.0
  C  C79  1  0.54138000  0.23858000  0.41861000  1.0
  C  C80  1  0.93764000  0.61281000  0.41882000  1.0
  C  C81  1  0.43764000  0.88718000  0.58119000  1.0
  C  C82  1  0.06237000  0.38720000  0.58118000  1.0
  C  C83  1  0.56235000  0.11281000  0.41881000  1.0
  C  C84  1  0.90905000  0.54960000  0.33064000  1.0
  C  C85  1  0.40905000  0.95039000  0.66937000  1.0
  C  C86  1  0.09095000  0.45040000  0.66936000  1.0
  C  C87  1  0.59094000  0.04961000  0.33063000  1.0
  C  C88  1  0.11207000  0.51611000  0.18400000  1.0
  C  C89  1  0.61211000  0.98388000  0.81601000  1.0
  C  C90  1  0.88789000  0.48388000  0.81600000  1.0
  C  C91  1  0.38792000  0.01611000  0.18400000  1.0
  C  C92  1  0.92705000  0.75340000  0.22919000  1.0
  C  C93  1  0.42710000  0.74658000  0.77081000  1.0
  C  C94  1  0.07295000  0.24660000  0.77080000  1.0
  C  C95  1  0.57291000  0.25342000  0.22919000  1.0
  O  O96  1  0.43910000  0.75590000  0.04574000  1.0
  O  O97  1  0.93909000  0.74410000  0.95426000  1.0
  O  O98  1  0.56091000  0.24410000  0.95426000  1.0
  O  O99  1  0.06091000  0.25590000  0.04574000  1.0
  O  O100  1  0.75082000  0.54086000  0.03194000  1.0
  O  O101  1  0.25083000  0.95914000  0.96806000  1.0
  O  O102  1  0.24917000  0.45914000  0.96806000  1.0
  O  O103  1  0.74916000  0.04088000  0.03194000  1.0
  O  O104  1  0.95646000  0.43517000  0.16403000  1.0
  O  O105  1  0.45646000  0.06483000  0.83598000  1.0
  O  O106  1  0.04355000  0.56483000  0.83597000  1.0
  O  O107  1  0.54354000  0.93517000  0.16403000  1.0
  O  O108  1  0.26842000  0.54537000  0.13242000  1.0
  O  O109  1  0.76841000  0.95463000  0.86757000  1.0
  O  O110  1  0.73161000  0.45463000  0.86757000  1.0
  O  O111  1  0.23158000  0.04537000  0.13242000  1.0
  O  O112  1  0.75377000  0.69546000  0.19476000  1.0
  O  O113  1  0.25379000  0.80454000  0.80526000  1.0
  O  O114  1  0.24622000  0.30453000  0.80523000  1.0
  O  O115  1  0.74621000  0.19546000  0.19475000  1.0
  O  O116  1  0.93820000  0.86270000  0.23168000  1.0
  O  O117  1  0.43820000  0.63729000  0.76832000  1.0
  O  O118  1  0.06179000  0.13729000  0.76832000  1.0
  O  O119  1  0.56179000  0.36271000  0.23168000  1.0
