# generated using pymatgen
data_ZnH14C20N2O5
_symmetry_space_group_name_H-M   'P 1'
_cell_length_a   9.20517000
_cell_length_b   10.49560000
_cell_length_c   11.46340000
_cell_angle_alpha   114.53000000
_cell_angle_beta   90.89320000
_cell_angle_gamma   115.71600000
_symmetry_Int_Tables_number   1
_chemical_formula_structural   ZnH14C20N2O5
_chemical_formula_sum   'Zn2 H28 C40 N4 O10'
_cell_volume   881.50450138
_cell_formula_units_Z   2
loop_
 _symmetry_equiv_pos_site_id
 _symmetry_equiv_pos_as_xyz
  1  'x, y, z'
loop_
 _atom_site_type_symbol
 _atom_site_label
 _atom_site_symmetry_multiplicity
 _atom_site_fract_x
 _atom_site_fract_y
 _atom_site_fract_z
 _atom_site_occupancy
  Zn  Zn0  1  0.03100000  0.11798000  0.79766000  1.0
  Zn  Zn1  1  0.96900000  0.88202000  0.20234000  1.0
  H  H2  1  0.73757000  0.86515000  0.29906000  1.0
  H  H3  1  0.26243000  0.13485000  0.70094000  1.0
  H  H4  1  0.82690000  0.81579000  0.38440000  1.0
  H  H5  1  0.17310000  0.18421000  0.61560000  1.0
  H  H6  1  0.41606000  0.31405000  0.25938000  1.0
  H  H7  1  0.58393000  0.68594000  0.74062000  1.0
  H  H8  1  0.29841000  0.08964000  0.08922000  1.0
  H  H9  1  0.70159000  0.91036000  0.91077000  1.0
  H  H10  1  0.47508000  0.05627000  0.22990000  1.0
  H  H11  1  0.52492000  0.94372000  0.77009000  1.0
  H  H12  1  0.13464000  0.89599000  0.46621000  1.0
  H  H13  1  0.86536000  0.10401000  0.53380000  1.0
  H  H14  1  0.34062000  0.82166000  0.51743000  1.0
  H  H15  1  0.65938000  0.17834000  0.48257000  1.0
  H  H16  1  0.44289000  0.67532000  0.33099000  1.0
  H  H17  1  0.55712000  0.32468000  0.66901000  1.0
  H  H18  1  0.43338000  0.55738000  0.08717000  1.0
  H  H19  1  0.56662000  0.44262000  0.91283000  1.0
  H  H20  1  0.32840000  0.50751000  0.86418000  1.0
  H  H21  1  0.67160000  0.49249000  0.13582000  1.0
  H  H22  1  0.15968000  0.54875000  0.71815000  1.0
  H  H23  1  0.84033000  0.45125000  0.28185000  1.0
  H  H24  1  0.96901000  0.65684000  0.70085000  1.0
  H  H25  1  0.03099000  0.34316000  0.29915000  1.0
  H  H26  1  0.88451000  0.79156000  0.90319000  1.0
  H  H27  1  0.11549000  0.20844000  0.09681000  1.0
  H  H28  1  0.32427000  0.42279000  0.64614000  1.0
  H  H29  1  0.67573000  0.57721000  0.35386000  1.0
  C  C30  1  0.40121000  0.45776000  0.58237000  1.0
  C  C31  1  0.59878000  0.54224000  0.41763000  1.0
  C  C32  1  0.45323000  0.39610000  0.36468000  1.0
  C  C33  1  0.54677000  0.60390000  0.63532000  1.0
  C  C34  1  0.35290000  0.35220000  0.44667000  1.0
  C  C35  1  0.64710000  0.64780000  0.55333000  1.0
  C  C36  1  0.19759000  0.19289000  0.39024000  1.0
  C  C37  1  0.80241000  0.80711000  0.60976000  1.0
  C  C38  1  0.38847000  0.05217000  0.05138000  1.0
  C  C39  1  0.61153000  0.94783000  0.94862000  1.0
  C  C40  1  0.48568000  0.03236000  0.12929000  1.0
  C  C41  1  0.51431000  0.96763000  0.87071000  1.0
  C  C42  1  0.40228000  0.02049000  0.92195000  1.0
  C  C43  1  0.59771000  0.97950000  0.07804000  1.0
  C  C44  1  0.30081000  0.04769000  0.84088000  1.0
  C  C45  1  0.69919000  0.95231000  0.15912000  1.0
  C  C46  1  0.18288000  0.83549000  0.38802000  1.0
  C  C47  1  0.81712000  0.16451000  0.61198000  1.0
  C  C48  1  0.29771000  0.79063000  0.41545000  1.0
  C  C49  1  0.70229000  0.20937000  0.58455000  1.0
  C  C50  1  0.35356000  0.71140000  0.31316000  1.0
  C  C51  1  0.64645000  0.28860000  0.68685000  1.0
  C  C52  1  0.29547000  0.67786000  0.18345000  1.0
  C  C53  1  0.70453000  0.32214000  0.81655000  1.0
  C  C54  1  0.34682000  0.59727000  0.07156000  1.0
  C  C55  1  0.65318000  0.40273000  0.92845000  1.0
  C  C56  1  0.29050000  0.57178000  0.94869000  1.0
  C  C57  1  0.70950000  0.42822000  0.05130000  1.0
  C  C58  1  0.17840000  0.62554000  0.92762000  1.0
  C  C59  1  0.82160000  0.37446000  0.07238000  1.0
  C  C60  1  0.11989000  0.60766000  0.80410000  1.0
  C  C61  1  0.88011000  0.39234000  0.19590000  1.0
  C  C62  1  0.01428000  0.66627000  0.79392000  1.0
  C  C63  1  0.98572000  0.33373000  0.20608000  1.0
  C  C64  1  0.96561000  0.74176000  0.90664000  1.0
  C  C65  1  0.03439000  0.25824000  0.09336000  1.0
  C  C66  1  0.12282000  0.70327000  0.03604000  1.0
  C  C67  1  0.87718000  0.29673000  0.96396000  1.0
  C  C68  1  0.18182000  0.72953000  0.16556000  1.0
  C  C69  1  0.81818000  0.27047000  0.83445000  1.0
  N  N70  1  0.01733000  0.75791000  0.02359000  1.0
  N  N71  1  0.98267000  0.24209000  0.97641000  1.0
  N  N72  1  0.12694000  0.80595000  0.26666000  1.0
  N  N73  1  0.87306000  0.19405000  0.73334000  1.0
  O  O74  1  0.15589000  0.10871000  0.26392000  1.0
  O  O75  1  0.84410000  0.89129000  0.73608000  1.0
  O  O76  1  0.11565000  0.14695000  0.46550000  1.0
  O  O77  1  0.88435000  0.85305000  0.53450000  1.0
  O  O78  1  0.20093000  0.09531000  0.89581000  1.0
  O  O79  1  0.79907000  0.90468000  0.10419000  1.0
  O  O80  1  0.32183000  0.02623000  0.72631000  1.0
  O  O81  1  0.67817000  0.97377000  0.27369000  1.0
  O  O82  1  0.78679000  0.79244000  0.29202000  1.0
  O  O83  1  0.21321000  0.20756000  0.70797000  1.0
