# generated using pymatgen
data_CdH28C26(NO)6
_symmetry_space_group_name_H-M   'P 1'
_cell_length_a   8.89379000
_cell_length_b   9.99553000
_cell_length_c   11.34161880
_cell_angle_alpha   66.98093968
_cell_angle_beta   78.03271726
_cell_angle_gamma   73.21670000
_symmetry_Int_Tables_number   1
_chemical_formula_structural   CdH28C26(NO)6
_chemical_formula_sum   'Cd1 H28 C26 N6 O6'
_cell_volume   883.32159842
_cell_formula_units_Z   1
loop_
 _symmetry_equiv_pos_site_id
 _symmetry_equiv_pos_as_xyz
  1  'x, y, z'
loop_
 _atom_site_type_symbol
 _atom_site_label
 _atom_site_symmetry_multiplicity
 _atom_site_fract_x
 _atom_site_fract_y
 _atom_site_fract_z
 _atom_site_occupancy
  Cd  Cd0  1  0.50000000  0.00000000  0.50000000  1.0
  H  H1  1  0.77341000  0.23222000  0.82340000  1.0
  H  H2  1  0.22658000  0.76778000  0.17660000  1.0
  H  H3  1  0.96058000  0.12523000  0.87142000  1.0
  H  H4  1  0.03942000  0.87477000  0.12858000  1.0
  H  H5  1  0.99229000  0.32424000  0.94075000  1.0
  H  H6  1  0.00772000  0.67575000  0.05925000  1.0
  H  H7  1  0.80851000  0.43701000  0.88633000  1.0
  H  H8  1  0.19150000  0.56299000  0.11367000  1.0
  H  H9  1  0.42531000  0.19855000  0.20878000  1.0
  H  H10  1  0.57469000  0.80145000  0.79122000  1.0
  H  H11  1  0.55577000  0.32983000  0.99272000  1.0
  H  H12  1  0.44423000  0.67018000  0.00727000  1.0
  H  H13  1  0.99990000  0.13992000  0.15923000  1.0
  H  H14  1  0.00009000  0.86008000  0.84077000  1.0
  H  H15  1  0.85298000  0.01972000  0.36514000  1.0
  H  H16  1  0.14701000  0.98027000  0.63486000  1.0
  H  H17  1  0.09091000  0.32005000  0.70584000  1.0
  H  H18  1  0.90909000  0.67994000  0.29416000  1.0
  H  H19  1  0.97512000  0.25630000  0.63742000  1.0
  H  H20  1  0.02488000  0.74371000  0.36257000  1.0
  H  H21  1  0.86129000  0.83930000  0.59480000  1.0
  H  H22  1  0.13871000  0.16071000  0.40520000  1.0
  H  H23  1  0.03628000  0.58704000  0.67154000  1.0
  H  H24  1  0.96372000  0.41295000  0.32847000  1.0
  H  H25  1  0.69512000  0.41671000  0.58367000  1.0
  H  H26  1  0.30488000  0.58330000  0.41633000  1.0
  H  H27  1  0.53199000  0.67816000  0.50893000  1.0
  H  H28  1  0.46801000  0.32184000  0.49107000  1.0
  C  C29  1  0.89079000  0.24057000  0.83299000  1.0
  C  C30  1  0.10921000  0.75944000  0.16701000  1.0
  C  C31  1  0.87429000  0.32049000  0.92809000  1.0
  C  C32  1  0.12571000  0.67950000  0.07192000  1.0
  C  C33  1  0.55244000  0.18998000  0.19289000  1.0
  C  C34  1  0.44756000  0.81002000  0.80711000  1.0
  C  C35  1  0.62622000  0.26172000  0.07306000  1.0
  C  C36  1  0.37378000  0.73827000  0.92694000  1.0
  C  C37  1  0.79044000  0.24652000  0.05662000  1.0
  C  C38  1  0.20956000  0.75347000  0.94339000  1.0
  C  C39  1  0.87232000  0.15712000  0.16416000  1.0
  C  C40  1  0.12768000  0.84286000  0.83585000  1.0
  C  C41  1  0.78991000  0.08925000  0.28109000  1.0
  C  C42  1  0.21009000  0.91075000  0.71891000  1.0
  C  C43  1  0.96936000  0.32019000  0.69872000  1.0
  C  C44  1  0.03063000  0.67981000  0.30128000  1.0
  C  C45  1  0.82772000  0.74323000  0.59344000  1.0
  C  C46  1  0.17228000  0.25677000  0.40656000  1.0
  C  C47  1  0.92407000  0.60050000  0.63886000  1.0
  C  C48  1  0.07593000  0.39950000  0.36114000  1.0
  C  C49  1  0.87729000  0.47765000  0.64007000  1.0
  C  C50  1  0.12271000  0.52235000  0.35993000  1.0
  C  C51  1  0.73487000  0.50692000  0.59002000  1.0
  C  C52  1  0.26513000  0.49308000  0.40998000  1.0
  C  C53  1  0.64514000  0.65242000  0.54562000  1.0
  C  C54  1  0.35486000  0.34759000  0.45438000  1.0
  N  N55  1  0.63268000  0.10523000  0.29587000  1.0
  N  N56  1  0.36732000  0.89477000  0.70413000  1.0
  N  N57  1  0.68933000  0.76939000  0.54832000  1.0
  N  N58  1  0.31068000  0.23061000  0.45168000  1.0
  N  N59  1  0.24305000  0.87534000  0.42357000  1.0
  N  N60  1  0.75696000  0.12466000  0.57642000  1.0
  O  O61  1  0.36151000  0.93803000  0.37655000  1.0
  O  O62  1  0.63850000  0.06197000  0.62345000  1.0
  O  O63  1  0.25891000  0.75142000  0.51516000  1.0
  O  O64  1  0.74110000  0.24858000  0.48482000  1.0
  O  O65  1  0.11464000  0.94048000  0.37505000  1.0
  O  O66  1  0.88536000  0.05952000  0.62496000  1.0
