# generated using pymatgen
data_Ag4Mo3H8C12(NO)10
_symmetry_space_group_name_H-M   'P 1'
_cell_length_a   7.48360000
_cell_length_b   12.00580000
_cell_length_c   13.16020000
_cell_angle_alpha   79.32400000
_cell_angle_beta   77.93740000
_cell_angle_gamma   87.75380000
_symmetry_Int_Tables_number   1
_chemical_formula_structural   Ag4Mo3H8C12(NO)10
_chemical_formula_sum   'Ag8 Mo6 H16 C24 N20 O20'
_cell_volume   1136.27675122
_cell_formula_units_Z   2
loop_
 _symmetry_equiv_pos_site_id
 _symmetry_equiv_pos_as_xyz
  1  'x, y, z'
loop_
 _atom_site_type_symbol
 _atom_site_label
 _atom_site_symmetry_multiplicity
 _atom_site_fract_x
 _atom_site_fract_y
 _atom_site_fract_z
 _atom_site_occupancy
  Ag  Ag0  1  0.54711000  0.15414000  0.34500000  1.0
  Ag  Ag1  1  0.45289000  0.84586000  0.65500000  1.0
  Ag  Ag2  1  0.78203000  0.46542000  0.39777000  1.0
  Ag  Ag3  1  0.21797000  0.53458000  0.60223000  1.0
  Ag  Ag4  1  0.87100000  0.38668000  0.65611000  1.0
  Ag  Ag5  1  0.12900000  0.61332000  0.34389000  1.0
  Ag  Ag6  1  0.80607000  0.67839000  0.80784000  1.0
  Ag  Ag7  1  0.19393000  0.32161000  0.19216000  1.0
  Mo  Mo8  1  0.70991000  0.37761000  0.13722000  1.0
  Mo  Mo9  1  0.29009000  0.62238000  0.86278000  1.0
  Mo  Mo10  1  0.97389000  0.61166000  0.08278000  1.0
  Mo  Mo11  1  0.02611000  0.38834000  0.91722000  1.0
  Mo  Mo12  1  0.52280000  0.38340000  0.92873000  1.0
  Mo  Mo13  1  0.47721000  0.61659000  0.07127000  1.0
  H  H14  1  0.84323000  0.90616000  0.62962000  1.0
  H  H15  1  0.15677000  0.09384000  0.37037000  1.0
  H  H16  1  0.85927000  0.85283000  0.94799000  1.0
  H  H17  1  0.14073000  0.14717000  0.05201000  1.0
  H  H18  1  0.89837000  0.06014000  0.94226000  1.0
  H  H19  1  0.10163000  0.93986000  0.05774000  1.0
  H  H20  1  0.89889000  0.19445000  0.77418000  1.0
  H  H21  1  0.10111000  0.80556000  0.22581000  1.0
  H  H22  1  0.31849000  0.06427000  0.53268000  1.0
  H  H23  1  0.68151000  0.93573000  0.46733000  1.0
  H  H24  1  0.42207000  0.98528000  0.83421000  1.0
  H  H25  1  0.57793000  0.01472000  0.16579000  1.0
  H  H26  1  0.41819000  0.18899000  0.85102000  1.0
  H  H27  1  0.58180000  0.81101000  0.14898000  1.0
  H  H28  1  0.37603000  0.33790000  0.69706000  1.0
  H  H29  1  0.62397000  0.66210000  0.30295000  1.0
  C  C30  1  0.84683000  0.13417000  0.58994000  1.0
  C  C31  1  0.15317000  0.86583000  0.41006000  1.0
  C  C32  1  0.86619000  0.06067000  0.68859000  1.0
  C  C33  1  0.13381000  0.93933000  0.31141000  1.0
  C  C34  1  0.85353000  0.94257000  0.69796000  1.0
  C  C35  1  0.14646000  0.05743000  0.30204000  1.0
  C  C36  1  0.86447000  0.91326000  0.87504000  1.0
  C  C37  1  0.13553000  0.08674000  0.12496000  1.0
  C  C38  1  0.88512000  0.02867000  0.87177000  1.0
  C  C39  1  0.11488000  0.97133000  0.12823000  1.0
  C  C40  1  0.88580000  0.10355000  0.77768000  1.0
  C  C41  1  0.11421000  0.89645000  0.22232000  1.0
  C  C42  1  0.31157000  0.29246000  0.50815000  1.0
  C  C43  1  0.68843000  0.70754000  0.49185000  1.0
  C  C44  1  0.34570000  0.21373000  0.60088000  1.0
  C  C45  1  0.65430000  0.78627000  0.39912000  1.0
  C  C46  1  0.34646000  0.09701000  0.59980000  1.0
  C  C47  1  0.65355000  0.90299000  0.40020000  1.0
  C  C48  1  0.40017000  0.05237000  0.76969000  1.0
  C  C49  1  0.59984000  0.94763000  0.23031000  1.0
  C  C50  1  0.39756000  0.16612000  0.77814000  1.0
  C  C51  1  0.60244000  0.83388000  0.22187000  1.0
  C  C52  1  0.37277000  0.24830000  0.69251000  1.0
  C  C53  1  0.62724000  0.75171000  0.30749000  1.0
  N  N54  1  0.85566000  0.24862000  0.56924000  1.0
  N  N55  1  0.14434000  0.75138000  0.43075000  1.0
  N  N56  1  0.81577000  0.28007000  0.47266000  1.0
  N  N57  1  0.18423000  0.71993000  0.52734000  1.0
  N  N58  1  0.78495000  0.18827000  0.43659000  1.0
  N  N59  1  0.21505000  0.81173000  0.56341000  1.0
  N  N60  1  0.80371000  0.09591000  0.50804000  1.0
  N  N61  1  0.19629000  0.90409000  0.49196000  1.0
  N  N62  1  0.85120000  0.87026000  0.78917000  1.0
  N  N63  1  0.14880000  0.12974000  0.21083000  1.0
  N  N64  1  0.24388000  0.39851000  0.50540000  1.0
  N  N65  1  0.75611000  0.60149000  0.49460000  1.0
  N  N66  1  0.21476000  0.43279000  0.40647000  1.0
  N  N67  1  0.78523000  0.56721000  0.59353000  1.0
  N  N68  1  0.26520000  0.35275000  0.35084000  1.0
  N  N69  1  0.73480000  0.64725000  0.64916000  1.0
  N  N70  1  0.32875000  0.26416000  0.41181000  1.0
  N  N71  1  0.67126000  0.73584000  0.58819000  1.0
  N  N72  1  0.37679000  0.01859000  0.68126000  1.0
  N  N73  1  0.62321000  0.98141000  0.31874000  1.0
  O  O74  1  0.94965000  0.75530000  0.06711000  1.0
  O  O75  1  0.05035000  0.24470000  0.93289000  1.0
  O  O76  1  0.47224000  0.24445000  0.98429000  1.0
  O  O77  1  0.52776000  0.75555000  0.01571000  1.0
  O  O78  1  0.67508000  0.40876000  0.26418000  1.0
  O  O79  1  0.32492000  0.59124000  0.73582000  1.0
  O  O80  1  0.60682000  0.38104000  0.79646000  1.0
  O  O81  1  0.39318000  0.61896000  0.20354000  1.0
  O  O82  1  0.69667000  0.23184000  0.15593000  1.0
  O  O83  1  0.30333000  0.76816000  0.84407000  1.0
  O  O84  1  0.72975000  0.57259000  0.07821000  1.0
  O  O85  1  0.27025000  0.42741000  0.92179000  1.0
  O  O86  1  0.97339000  0.57155000  0.21806000  1.0
  O  O87  1  0.02660000  0.42845000  0.78194000  1.0
  O  O88  1  0.03091000  0.59201000  0.91561000  1.0
  O  O89  1  0.96909000  0.40799000  0.08439000  1.0
  O  O90  1  0.76271000  0.39755000  0.96100000  1.0
  O  O91  1  0.23729000  0.60245000  0.03900000  1.0
  O  O92  1  0.51923000  0.57468000  0.90607000  1.0
  O  O93  1  0.48077000  0.42532000  0.09393000  1.0
