# generated using pymatgen
data_Al2H16C24S2O11
_symmetry_space_group_name_H-M   'P 1'
_cell_length_a   6.65407000
_cell_length_b   12.55590739
_cell_length_c   15.24070000
_cell_angle_alpha   105.71132191
_cell_angle_beta   101.05150000
_cell_angle_gamma   102.37816903
_symmetry_Int_Tables_number   1
_chemical_formula_structural   Al2H16C24S2O11
_chemical_formula_sum   'Al2 H16 C24 S2 O11'
_cell_volume   1154.25708072
_cell_formula_units_Z   1
loop_
 _symmetry_equiv_pos_site_id
 _symmetry_equiv_pos_as_xyz
  1  'x, y, z'
loop_
 _atom_site_type_symbol
 _atom_site_label
 _atom_site_symmetry_multiplicity
 _atom_site_fract_x
 _atom_site_fract_y
 _atom_site_fract_z
 _atom_site_occupancy
  Al  Al0  1  0.00164000  0.50377000  0.50060000  1.0
  Al  Al1  1  0.49865000  0.49882000  0.49928000  1.0
  H  H2  1  0.34571000  0.59679000  0.61680000  1.0
  H  H3  1  0.66987000  0.35737000  0.43270000  1.0
  H  H4  1  0.63662000  0.42461000  0.92100000  1.0
  H  H5  1  0.36889000  0.56344000  0.07666000  1.0
  H  H6  1  0.79165000  0.42406000  0.21343000  1.0
  H  H7  1  0.69823000  0.42862000  0.05118000  1.0
  H  H8  1  0.20810000  0.59137000  0.79291000  1.0
  H  H9  1  0.30083000  0.58763000  0.95520000  1.0
  H  H10  1  0.23270000  0.85628000  0.54091000  1.0
  H  H11  1  0.38145000  0.38140000  0.78863000  1.0
  H  H12  1  0.45781000  0.34988000  0.68059000  1.0
  H  H13  1  0.41011000  0.48287000  0.72685000  1.0
  H  H14  1  0.58187000  0.51162000  0.28052000  1.0
  H  H15  1  0.55107000  0.65056000  0.31488000  1.0
  H  H16  1  0.62636000  0.60090000  0.20855000  1.0
  H  H17  1  0.58228000  0.09822000  0.44967000  1.0
  C  C18  1  0.83001000  0.70078000  0.51125000  1.0
  C  C19  1  0.83478000  0.51798000  0.66685000  1.0
  C  C20  1  0.16101000  0.29919000  0.48512000  1.0
  C  C21  1  0.16697000  0.48882000  0.33637000  1.0
  C  C22  1  0.87234000  0.51390000  0.76540000  1.0
  C  C23  1  0.12908000  0.49053000  0.23714000  1.0
  C  C24  1  0.70772000  0.46755000  0.80261000  1.0
  C  C25  1  0.76495000  0.46345000  0.89464000  1.0
  C  C26  1  0.29514000  0.52994000  0.19798000  1.0
  C  C27  1  0.23872000  0.53191000  0.10527000  1.0
  C  C28  1  0.91716000  0.45414000  0.18207000  1.0
  C  C29  1  0.86580000  0.45696000  0.09028000  1.0
  C  C30  1  0.08315000  0.55564000  0.82232000  1.0
  C  C31  1  0.13472000  0.55256000  0.91402000  1.0
  C  C32  1  0.97565000  0.50457000  0.95250000  1.0
  C  C33  1  0.02670000  0.49739000  0.04952000  1.0
  C  C34  1  0.88598000  0.11383000  0.47195000  1.0
  C  C35  1  0.09367000  0.88649000  0.52320000  1.0
  C  C36  1  0.09378000  0.18182000  0.48766000  1.0
  C  C37  1  0.88845000  0.81893000  0.50745000  1.0
  C  C38  1  0.09248000  0.99401000  0.51170000  1.0
  C  C39  1  0.88618000  0.00626000  0.48609000  1.0
  C  C40  1  0.47731000  0.41785000  0.74708000  1.0
  C  C41  1  0.52603000  0.57508000  0.25277000  1.0
  S  S42  1  0.28670000  0.11499000  0.52091000  1.0
  S  S43  1  0.69272000  0.88500000  0.47760000  1.0
  O  O44  1  0.98449000  0.65793000  0.52729000  1.0
  O  O45  1  0.65751000  0.53145000  0.62877000  1.0
  O  O46  1  0.36077000  0.34385000  0.49740000  1.0
  O  O47  1  0.02142000  0.50565000  0.37756000  1.0
  O  O48  1  0.01435000  0.34806000  0.47124000  1.0
  O  O49  1  0.33830000  0.46934000  0.37340000  1.0
  O  O50  1  0.63346000  0.65167000  0.49834000  1.0
  O  O51  1  0.98620000  0.50882000  0.62744000  1.0
  O  O52  1  0.29704000  0.55854000  0.54909000  1.0
  O  O53  1  0.70607000  0.44107000  0.45384000  1.0
  O  O54  1  0.71215000  0.14835000  0.44505000  1.0
