# generated using pymatgen
data_PrP2H17C16O11
_symmetry_space_group_name_H-M   'P 1'
_cell_length_a   5.63722000
_cell_length_b   9.53076000
_cell_length_c   18.25800021
_cell_angle_alpha   75.20946841
_cell_angle_beta   85.09425861
_cell_angle_gamma   84.14470000
_symmetry_Int_Tables_number   1
_chemical_formula_structural   PrP2H17C16O11
_chemical_formula_sum   'Pr2 P4 H34 C32 O22'
_cell_volume   941.69054938
_cell_formula_units_Z   2
loop_
 _symmetry_equiv_pos_site_id
 _symmetry_equiv_pos_as_xyz
  1  'x, y, z'
loop_
 _atom_site_type_symbol
 _atom_site_label
 _atom_site_symmetry_multiplicity
 _atom_site_fract_x
 _atom_site_fract_y
 _atom_site_fract_z
 _atom_site_occupancy
  Pr  Pr0  1  0.12539000  0.19989000  0.99674000  1.0
  Pr  Pr1  1  0.87462000  0.80011000  0.00326000  1.0
  P  P2  1  0.38198000  0.00692000  0.89007000  1.0
  P  P3  1  0.61802000  0.99308000  0.10993000  1.0
  P  P4  1  0.25890000  0.57707000  0.88934000  1.0
  P  P5  1  0.74111000  0.42293000  0.11066000  1.0
  H  H6  1  0.59329000  0.17619000  0.67856000  1.0
  H  H7  1  0.40671000  0.82379000  0.32144000  1.0
  H  H8  1  0.47540000  0.40715000  0.58782000  1.0
  H  H9  1  0.52460000  0.59284000  0.41218000  1.0
  H  H10  1  0.77437000  0.41378000  0.70065000  1.0
  H  H11  1  0.22562000  0.58622000  0.29935000  1.0
  H  H12  1  0.88950000  0.17920000  0.79187000  1.0
  H  H13  1  0.11050000  0.82080000  0.20813000  1.0
  H  H14  1  0.49347000  0.97007000  0.76830000  1.0
  H  H15  1  0.50652000  0.02993000  0.23170000  1.0
  H  H16  1  0.19305000  0.93645000  0.79662000  1.0
  H  H17  1  0.80695000  0.06355000  0.20338000  1.0
  H  H18  1  0.52015000  0.66580000  0.68323000  1.0
  H  H19  1  0.47986000  0.33421000  0.31677000  1.0
  H  H20  1  0.46694000  0.89731000  0.58420000  1.0
  H  H21  1  0.53307000  0.10270000  0.41580000  1.0
  H  H22  1  0.74797000  0.96902000  0.67319000  1.0
  H  H23  1  0.25203000  0.03097000  0.32681000  1.0
  H  H24  1  0.80028000  0.73869000  0.77492000  1.0
  H  H25  1  0.19973000  0.26131000  0.22508000  1.0
  H  H26  1  0.33629000  0.47290000  0.78321000  1.0
  H  H27  1  0.66373000  0.52711000  0.21679000  1.0
  H  H28  1  0.02870000  0.49403000  0.80986000  1.0
  H  H29  1  0.97132000  0.50596000  0.19014000  1.0
  H  H30  1  0.16926000  0.69750000  0.48859000  1.0
  H  H31  1  0.83076000  0.30249000  0.51141000  1.0
  H  H32  1  0.53820000  0.72210000  0.89078000  1.0
  H  H33  1  0.46182000  0.27791000  0.10922000  1.0
  H  H34  1  0.19757000  0.22290000  0.47635000  1.0
  H  H35  1  0.80242000  0.77710000  0.52365000  1.0
  H  H36  1  0.70764000  0.41049000  0.91635000  1.0
  H  H37  1  0.29237000  0.58951000  0.08365000  1.0
  H  H38  1  0.66908000  0.25400000  0.90593000  1.0
  H  H39  1  0.33092000  0.74600000  0.09407000  1.0
  C  C40  1  0.25067000  0.16071000  0.74203000  1.0
  C  C41  1  0.74933000  0.83929000  0.25797000  1.0
  C  C42  1  0.41383000  0.22778000  0.68472000  1.0
  C  C43  1  0.58617000  0.77221000  0.31528000  1.0
  C  C44  1  0.34871000  0.35765000  0.63308000  1.0
  C  C45  1  0.65129000  0.64234000  0.36692000  1.0
  C  C46  1  0.11717000  0.42513000  0.63845000  1.0
  C  C47  1  0.88282000  0.57486000  0.36155000  1.0
  C  C48  1  0.95411000  0.36094000  0.69673000  1.0
  C  C49  1  0.04588000  0.63906000  0.30327000  1.0
  C  C50  1  0.01973000  0.22948000  0.74778000  1.0
  C  C51  1  0.98027000  0.77051000  0.25222000  1.0
  C  C52  1  0.32693000  0.01500000  0.79246000  1.0
  C  C53  1  0.67307000  0.98500000  0.20754000  1.0
  C  C54  1  0.04970000  0.56167000  0.58147000  1.0
  C  C55  1  0.95027000  0.43832000  0.41853000  1.0
  C  C56  1  0.16511000  0.68790000  0.73711000  1.0
  C  C57  1  0.83491000  0.31212000  0.26288000  1.0
  C  C58  1  0.35144000  0.73303000  0.68282000  1.0
  C  C59  1  0.64858000  0.26699000  0.31718000  1.0
  C  C60  1  0.32292000  0.86264000  0.62664000  1.0
  C  C61  1  0.67708000  0.13738000  0.37336000  1.0
  C  C62  1  0.10568000  0.94880000  0.62409000  1.0
  C  C63  1  0.89431000  0.05121000  0.37591000  1.0
  C  C64  1  0.91771000  0.90287000  0.67762000  1.0
  C  C65  1  0.08228000  0.09712000  0.32238000  1.0
  C  C66  1  0.94708000  0.77442000  0.73367000  1.0
  C  C67  1  0.05294000  0.22558000  0.26633000  1.0
  C  C68  1  0.19399000  0.54998000  0.79859000  1.0
  C  C69  1  0.80603000  0.45002000  0.20141000  1.0
  C  C70  1  0.06505000  0.08786000  0.56648000  1.0
  C  C71  1  0.93492000  0.91215000  0.43353000  1.0
  O  O72  1  0.46412000  0.14924000  0.90052000  1.0
  O  O73  1  0.53588000  0.85077000  0.09947000  1.0
  O  O74  1  0.13997000  0.98797000  0.93846000  1.0
  O  O75  1  0.86004000  0.01203000  0.06154000  1.0
  O  O76  1  0.56546000  0.87419000  0.91469000  1.0
  O  O77  1  0.43455000  0.12582000  0.08531000  1.0
  O  O78  1  0.21571000  0.59789000  0.52630000  1.0
  O  O79  1  0.78427000  0.40210000  0.47371000  1.0
  O  O80  1  0.85346000  0.63448000  0.58564000  1.0
  O  O81  1  0.14652000  0.36550000  0.41436000  1.0
  O  O82  1  0.26510000  0.42933000  0.94639000  1.0
  O  O83  1  0.73491000  0.57068000  0.05360000  1.0
  O  O84  1  0.52550000  0.62680000  0.87714000  1.0
  O  O85  1  0.47450000  0.37320000  0.12286000  1.0
  O  O86  1  0.08699000  0.69632000  0.91001000  1.0
  O  O87  1  0.91302000  0.30369000  0.08998000  1.0
  O  O88  1  0.24096000  0.12402000  0.51458000  1.0
  O  O89  1  0.75902000  0.87599000  0.48542000  1.0
  O  O90  1  0.87171000  0.16442000  0.56845000  1.0
  O  O91  1  0.12827000  0.83559000  0.43155000  1.0
  O  O92  1  0.79229000  0.31619000  0.91471000  1.0
  O  O93  1  0.20772000  0.68381000  0.08529000  1.0
