# generated using pymatgen
data_CuH8C13(NO2)2
_symmetry_space_group_name_H-M   'P 1'
_cell_length_a   11.62820000
_cell_length_b   12.62240000
_cell_length_c   14.88710000
_cell_angle_alpha   65.08500000
_cell_angle_beta   89.99980000
_cell_angle_gamma   89.99960000
_symmetry_Int_Tables_number   1
_chemical_formula_structural   CuH8C13(NO2)2
_chemical_formula_sum   'Cu4 H32 C52 N8 O16'
_cell_volume   1981.71001379
_cell_formula_units_Z   4
loop_
 _symmetry_equiv_pos_site_id
 _symmetry_equiv_pos_as_xyz
  1  'x, y, z'
loop_
 _atom_site_type_symbol
 _atom_site_label
 _atom_site_symmetry_multiplicity
 _atom_site_fract_x
 _atom_site_fract_y
 _atom_site_fract_z
 _atom_site_occupancy
  Cu  Cu0  1  0.07290000  0.08494000  0.96093000  1.0
  Cu  Cu1  1  0.57291000  0.91506000  0.53907000  1.0
  Cu  Cu2  1  0.92708000  0.91505000  0.03907000  1.0
  Cu  Cu3  1  0.42711000  0.08493000  0.46094000  1.0
  H  H4  1  0.05457000  0.52011000  0.87990000  1.0
  H  H5  1  0.55457000  0.47989000  0.62010000  1.0
  H  H6  1  0.94543000  0.47989000  0.12010000  1.0
  H  H7  1  0.44543000  0.52012000  0.37990000  1.0
  H  H8  1  0.04441000  0.33537000  0.89274000  1.0
  H  H9  1  0.54441000  0.66464000  0.60726000  1.0
  H  H10  1  0.95559000  0.66464000  0.10727000  1.0
  H  H11  1  0.45559000  0.33537000  0.39273000  1.0
  H  H12  1  0.37012000  0.51868000  0.82683000  1.0
  H  H13  1  0.87012000  0.48133000  0.67317000  1.0
  H  H14  1  0.62988000  0.48133000  0.17317000  1.0
  H  H15  1  0.12988000  0.51868000  0.32682000  1.0
  H  H16  1  0.46168000  0.33082000  0.84923000  1.0
  H  H17  1  0.96168000  0.66919000  0.65077000  1.0
  H  H18  1  0.53832000  0.66918000  0.15077000  1.0
  H  H19  1  0.03832000  0.33082000  0.34923000  1.0
  H  H20  1  0.33927000  0.15069000  0.89668000  1.0
  H  H21  1  0.83926000  0.84931000  0.60332000  1.0
  H  H22  1  0.66074000  0.84931000  0.10332000  1.0
  H  H23  1  0.16074000  0.15070000  0.39668000  1.0
  H  H24  1  0.05117000  0.67554000  0.92832000  1.0
  H  H25  1  0.55117000  0.32446000  0.57167000  1.0
  H  H26  1  0.94883000  0.32446000  0.07167000  1.0
  H  H27  1  0.44883000  0.67554000  0.42832000  1.0
  H  H28  1  0.29263000  0.66711000  0.71008000  1.0
  H  H29  1  0.79263000  0.33289000  0.78992000  1.0
  H  H30  1  0.70737000  0.33289000  0.28992000  1.0
  H  H31  1  0.20737000  0.66712000  0.21008000  1.0
  H  H32  1  0.24357000  0.98308000  0.74927000  1.0
  H  H33  1  0.74358000  0.01692000  0.75073000  1.0
  H  H34  1  0.75643000  0.01692000  0.25073000  1.0
  H  H35  1  0.25642000  0.98308000  0.24927000  1.0
  C  C36  1  0.13753000  0.33833000  0.88168000  1.0
  C  C37  1  0.63753000  0.66168000  0.61832000  1.0
  C  C38  1  0.86246000  0.66167000  0.11832000  1.0
  C  C39  1  0.36247000  0.33833000  0.38167000  1.0
  C  C40  1  0.19784000  0.44386000  0.85612000  1.0
  C  C41  1  0.69784000  0.55614000  0.64388000  1.0
  C  C42  1  0.80216000  0.55614000  0.14388000  1.0
  C  C43  1  0.30216000  0.44386000  0.35611000  1.0
  C  C44  1  0.31762000  0.44114000  0.84400000  1.0
  C  C45  1  0.81762000  0.55887000  0.65600000  1.0
  C  C46  1  0.68238000  0.55887000  0.15599000  1.0
  C  C47  1  0.18238000  0.44114000  0.34400000  1.0
  C  C48  1  0.36890000  0.33545000  0.85768000  1.0
  C  C49  1  0.86890000  0.66456000  0.64232000  1.0
  C  C50  1  0.63110000  0.66455000  0.14232000  1.0
  C  C51  1  0.13110000  0.33545000  0.35768000  1.0
  C  C52  1  0.30212000  0.23507000  0.88415000  1.0
  C  C53  1  0.80211000  0.76494000  0.61585000  1.0
  C  C54  1  0.69788000  0.76493000  0.11585000  1.0
  C  C55  1  0.19788000  0.23507000  0.38415000  1.0
  C  C56  1  0.16886000  0.65513000  0.82351000  1.0
  C  C57  1  0.66887000  0.34487000  0.67649000  1.0
  C  C58  1  0.83114000  0.34487000  0.17649000  1.0
  C  C59  1  0.33113000  0.65513000  0.32350000  1.0
  C  C60  1  0.11530000  0.71759000  0.87070000  1.0
  C  C61  1  0.61531000  0.28242000  0.62929000  1.0
  C  C62  1  0.88470000  0.28242000  0.12929000  1.0
  C  C63  1  0.38470000  0.71759000  0.37070000  1.0
  C  C64  1  0.25102000  0.71185000  0.74978000  1.0
  C  C65  1  0.75103000  0.28815000  0.75022000  1.0
  C  C66  1  0.74898000  0.28814000  0.25023000  1.0
  C  C67  1  0.24897000  0.71185000  0.24977000  1.0
  C  C68  1  0.27618000  0.82956000  0.72303000  1.0
  C  C69  1  0.77617000  0.17044000  0.77697000  1.0
  C  C70  1  0.72383000  0.17043000  0.27698000  1.0
  C  C71  1  0.22382000  0.82956000  0.22303000  1.0
  C  C72  1  0.22317000  0.89156000  0.77022000  1.0
  C  C73  1  0.72317000  0.10844000  0.72978000  1.0
  C  C74  1  0.77684000  0.10844000  0.22978000  1.0
  C  C75  1  0.27683000  0.89156000  0.27022000  1.0
  C  C76  1  0.14332000  0.83433000  0.84526000  1.0
  C  C77  1  0.64333000  0.16567000  0.65473000  1.0
  C  C78  1  0.85667000  0.16567000  0.15473000  1.0
  C  C79  1  0.35668000  0.83434000  0.34526000  1.0
  C  C80  1  0.08876000  0.89719000  0.90012000  1.0
  C  C81  1  0.58879000  0.10279000  0.59987000  1.0
  C  C82  1  0.91121000  0.10280000  0.09988000  1.0
  C  C83  1  0.41124000  0.89720000  0.40013000  1.0
  C  C84  1  0.35947000  0.89085000  0.64081000  1.0
  C  C85  1  0.85944000  0.10914000  0.85918000  1.0
  C  C86  1  0.64056000  0.10913000  0.35920000  1.0
  C  C87  1  0.14054000  0.89085000  0.14083000  1.0
  N  N88  1  0.18766000  0.23745000  0.89650000  1.0
  N  N89  1  0.68765000  0.76256000  0.60350000  1.0
  N  N90  1  0.81234000  0.76255000  0.10350000  1.0
  N  N91  1  0.31235000  0.23744000  0.39650000  1.0
  N  N92  1  0.13402000  0.53991000  0.84912000  1.0
  N  N93  1  0.63402000  0.46009000  0.65088000  1.0
  N  N94  1  0.86598000  0.46009000  0.15088000  1.0
  N  N95  1  0.36598000  0.53992000  0.34911000  1.0
  O  O96  1  0.45275000  0.83712000  0.64235000  1.0
  O  O97  1  0.95272000  0.16286000  0.85765000  1.0
  O  O98  1  0.54726000  0.16285000  0.35766000  1.0
  O  O99  1  0.04726000  0.83712000  0.14235000  1.0
  O  O100  1  0.00475000  0.84545000  0.95674000  1.0
  O  O101  1  0.50477000  0.15455000  0.54325000  1.0
  O  O102  1  0.99522000  0.15455000  0.04325000  1.0
  O  O103  1  0.49525000  0.84545000  0.45675000  1.0
  O  O104  1  0.32879000  0.99118000  0.57685000  1.0
  O  O105  1  0.82876000  0.00882000  0.92314000  1.0
  O  O106  1  0.67124000  0.00880000  0.42316000  1.0
  O  O107  1  0.17121000  0.99117000  0.07687000  1.0
  O  O108  1  0.13116000  0.99580000  0.88671000  1.0
  O  O109  1  0.63117000  0.00417000  0.61330000  1.0
  O  O110  1  0.86883000  0.00419000  0.11330000  1.0
  O  O111  1  0.36884000  0.99582000  0.38671000  1.0
