# generated using pymatgen
data_FeH14C20(SN8)2
_symmetry_space_group_name_H-M   'P 1'
_cell_length_a   7.93558000
_cell_length_b   8.71491000
_cell_length_c   9.67699000
_cell_angle_alpha   70.70600000
_cell_angle_beta   85.94990000
_cell_angle_gamma   64.91050000
_symmetry_Int_Tables_number   1
_chemical_formula_structural   FeH14C20(SN8)2
_chemical_formula_sum   'Fe1 H14 C20 S2 N16'
_cell_volume   570.16102070
_cell_formula_units_Z   1
loop_
 _symmetry_equiv_pos_site_id
 _symmetry_equiv_pos_as_xyz
  1  'x, y, z'
loop_
 _atom_site_type_symbol
 _atom_site_label
 _atom_site_symmetry_multiplicity
 _atom_site_fract_x
 _atom_site_fract_y
 _atom_site_fract_z
 _atom_site_occupancy
  Fe  Fe0  1  0.52208000  0.49869000  0.99267000  1.0
  H  H1  1  0.29379000  0.25893000  0.23014000  1.0
  H  H2  1  0.69706000  0.75168000  0.76868000  1.0
  H  H3  1  0.80127000  0.74187000  0.16047000  1.0
  H  H4  1  0.18493000  0.26288000  0.84977000  1.0
  H  H5  1  0.71103000  0.61112000  0.37649000  1.0
  H  H6  1  0.28252000  0.38613000  0.63652000  1.0
  H  H7  1  0.65469000  0.44949000  0.62674000  1.0
  H  H8  1  0.34577000  0.53907000  0.38456000  1.0
  H  H9  1  0.88268000  0.13268000  0.75922000  1.0
  H  H10  1  0.12213000  0.85405000  0.24599000  1.0
  H  H11  1  0.34821000  0.89620000  0.45675000  1.0
  H  H12  1  0.64283000  0.11173000  0.53273000  1.0
  H  H13  1  0.15986000  0.88886000  0.88102000  1.0
  H  H14  1  0.86380000  0.09762000  0.12104000  1.0
  C  C15  1  0.47529000  0.78347000  0.13234000  1.0
  C  C16  1  0.53319000  0.21849000  0.85942000  1.0
  C  C17  1  0.19389000  0.39732000  0.18451000  1.0
  C  C18  1  0.79231000  0.61172000  0.81417000  1.0
  C  C19  1  0.93961000  0.64574000  0.14879000  1.0
  C  C20  1  0.04484000  0.36016000  0.85666000  1.0
  C  C21  1  0.97146000  0.38229000  0.37560000  1.0
  C  C22  1  0.02358000  0.61966000  0.63101000  1.0
  C  C23  1  0.80941000  0.47337000  0.43539000  1.0
  C  C24  1  0.18656000  0.52379000  0.57481000  1.0
  C  C25  1  0.77840000  0.38169000  0.57559000  1.0
  C  C26  1  0.22127000  0.60966000  0.43386000  1.0
  C  C27  1  0.90652000  0.20652000  0.65059000  1.0
  C  C28  1  0.09538000  0.78423000  0.35503000  1.0
  C  C29  1  0.06288000  0.13090000  0.57892000  1.0
  C  C30  1  0.93786000  0.86519000  0.42367000  1.0
  C  C31  1  0.33800000  0.85321000  0.57492000  1.0
  C  C32  1  0.66333000  0.15071000  0.41596000  1.0
  C  C33  1  0.23993000  0.85245000  0.79236000  1.0
  C  C34  1  0.77890000  0.14028000  0.20539000  1.0
  S  S35  1  0.46268000  0.93148000  0.20490000  1.0
  S  S36  1  0.52190000  0.07723000  0.78880000  1.0
  N  N37  1  0.49111000  0.67176000  0.08195000  1.0
  N  N38  1  0.53467000  0.32609000  0.90801000  1.0
  N  N39  1  0.21226000  0.52259000  0.07230000  1.0
  N  N40  1  0.76462000  0.48508000  0.92052000  1.0
  N  N41  1  0.05143000  0.68063000  0.04871000  1.0
  N  N42  1  0.92630000  0.32569000  0.94937000  1.0
  N  N43  1  0.02364000  0.46831000  0.23851000  1.0
  N  N44  1  0.96638000  0.53776000  0.76747000  1.0
  N  N45  1  0.09565000  0.21467000  0.44453000  1.0
  N  N46  1  0.90156000  0.78700000  0.55851000  1.0
  N  N47  1  0.20332000  0.95435000  0.64637000  1.0
  N  N48  1  0.80123000  0.04197000  0.35154000  1.0
  N  N49  1  0.44810000  0.69833000  0.66937000  1.0
  N  N50  1  0.56488000  0.30687000  0.31690000  1.0
  N  N51  1  0.38749000  0.69862000  0.80708000  1.0
  N  N52  1  0.63751000  0.29973000  0.18337000  1.0
