# generated using pymatgen
data_Co2H22C25N18
_symmetry_space_group_name_H-M   'P 1'
_cell_length_a   13.81120000
_cell_length_b   15.15910000
_cell_length_c   16.04530000
_cell_angle_alpha   89.99990000
_cell_angle_beta   90.86190000
_cell_angle_gamma   89.99930000
_symmetry_Int_Tables_number   1
_chemical_formula_structural   Co2H22C25N18
_chemical_formula_sum   'Co8 H88 C100 N72'
_cell_volume   3358.94995439
_cell_formula_units_Z   4
loop_
 _symmetry_equiv_pos_site_id
 _symmetry_equiv_pos_as_xyz
  1  'x, y, z'
loop_
 _atom_site_type_symbol
 _atom_site_label
 _atom_site_symmetry_multiplicity
 _atom_site_fract_x
 _atom_site_fract_y
 _atom_site_fract_z
 _atom_site_occupancy
  Co  Co0  1  0.66260000  0.08367000  0.57938000  1.0
  Co  Co1  1  0.16494000  0.41417000  0.92734000  1.0
  Co  Co2  1  0.83445000  0.91665000  0.57900000  1.0
  Co  Co3  1  0.33341000  0.57984000  0.91994000  1.0
  Co  Co4  1  0.33350000  0.92017000  0.42000000  1.0
  Co  Co5  1  0.83448000  0.58337000  0.07903000  1.0
  Co  Co6  1  0.16500000  0.08584000  0.42735000  1.0
  Co  Co7  1  0.66261000  0.41632000  0.07931000  1.0
  H  H8  1  0.30212000  0.76427000  0.83607000  1.0
  H  H9  1  0.80362000  0.73434000  0.66378000  1.0
  H  H10  1  0.20043000  0.23345000  0.84107000  1.0
  H  H11  1  0.69779000  0.27051000  0.66173000  1.0
  H  H12  1  0.69779000  0.22951000  0.16166000  1.0
  H  H13  1  0.20045000  0.26659000  0.34108000  1.0
  H  H14  1  0.80368000  0.76573000  0.16382000  1.0
  H  H15  1  0.30221000  0.73572000  0.33619000  1.0
  H  H16  1  0.52066000  0.57859000  0.81916000  1.0
  H  H17  1  0.02210000  0.92095000  0.67996000  1.0
  H  H18  1  0.98264000  0.42072000  0.82298000  1.0
  H  H19  1  0.47885000  0.08536000  0.68104000  1.0
  H  H20  1  0.47881000  0.41463000  0.18095000  1.0
  H  H21  1  0.98269000  0.07930000  0.32299000  1.0
  H  H22  1  0.02211000  0.57908000  0.17997000  1.0
  H  H23  1  0.52076000  0.92140000  0.31923000  1.0
  H  H24  1  0.54075000  0.22236000  0.49776000  1.0
  H  H25  1  0.04150000  0.27418000  0.00566000  1.0
  H  H26  1  0.95759000  0.77787000  0.49980000  1.0
  H  H27  1  0.45544000  0.71617000  0.99043000  1.0
  H  H28  1  0.45554000  0.78390000  0.49063000  1.0
  H  H29  1  0.95760000  0.72214000  0.99984000  1.0
  H  H30  1  0.04154000  0.22579000  0.50569000  1.0
  H  H31  1  0.54071000  0.27767000  0.99766000  1.0
  H  H32  1  0.39642000  0.87597000  0.75575000  1.0
  H  H33  1  0.90033000  0.62455000  0.74668000  1.0
  H  H34  1  0.10492000  0.12424000  0.75630000  1.0
  H  H35  1  0.60551000  0.38199000  0.74366000  1.0
  H  H36  1  0.60554000  0.11804000  0.24365000  1.0
  H  H37  1  0.10493000  0.37580000  0.25633000  1.0
  H  H38  1  0.90041000  0.87552000  0.24669000  1.0
  H  H39  1  0.39650000  0.62401000  0.25582000  1.0
  H  H40  1  0.55968000  0.35325000  0.40467000  1.0
  H  H41  1  0.06124000  0.14030000  0.09544000  1.0
  H  H42  1  0.93933000  0.64627000  0.40681000  1.0
  H  H43  1  0.43758000  0.84666000  0.08284000  1.0
  H  H44  1  0.43766000  0.65338000  0.58302000  1.0
  H  H45  1  0.93936000  0.85371000  0.90680000  1.0
  H  H46  1  0.06125000  0.35966000  0.59550000  1.0
  H  H47  1  0.55959000  0.14677000  0.90456000  1.0
  H  H48  1  0.62517000  0.68232000  0.73982000  1.0
  H  H49  1  0.12873000  0.81940000  0.76166000  1.0
  H  H50  1  0.87699000  0.31935000  0.73981000  1.0
  H  H51  1  0.37609000  0.18894000  0.76126000  1.0
  H  H52  1  0.37609000  0.31107000  0.26123000  1.0
  H  H53  1  0.87700000  0.18066000  0.23984000  1.0
  H  H54  1  0.12880000  0.68062000  0.26163000  1.0
  H  H55  1  0.62522000  0.81769000  0.23984000  1.0
  H  H56  1  0.66849000  0.42909000  0.30205000  1.0
  H  H57  1  0.17181000  0.05952000  0.19542000  1.0
  H  H58  1  0.82995000  0.56810000  0.30365000  1.0
  H  H59  1  0.33143000  0.91871000  0.19104000  1.0
  H  H60  1  0.33143000  0.58127000  0.69110000  1.0
  H  H61  1  0.83001000  0.93186000  0.80360000  1.0
  H  H62  1  0.17179000  0.44048000  0.69544000  1.0
  H  H63  1  0.66843000  0.07085000  0.80199000  1.0
  H  H64  1  0.79421000  0.40655000  0.30338000  1.0
  H  H65  1  0.29803000  0.08017000  0.19533000  1.0
  H  H66  1  0.70398000  0.58944000  0.30299000  1.0
  H  H67  1  0.20552000  0.89747000  0.19053000  1.0
  H  H68  1  0.20554000  0.60253000  0.69056000  1.0
  H  H69  1  0.70403000  0.91047000  0.80290000  1.0
  H  H70  1  0.29801000  0.41984000  0.69539000  1.0
  H  H71  1  0.79415000  0.09341000  0.80328000  1.0
  H  H72  1  0.68782000  0.50961000  0.43871000  1.0
  H  H73  1  0.18598000  0.98226000  0.05694000  1.0
  H  H74  1  0.81322000  0.48628000  0.43934000  1.0
  H  H75  1  0.31161000  0.00419000  0.05730000  1.0
  H  H76  1  0.31165000  0.49579000  0.55736000  1.0
  H  H77  1  0.81317000  0.01368000  0.93927000  1.0
  H  H78  1  0.18602000  0.51773000  0.55696000  1.0
  H  H79  1  0.68780000  0.99029000  0.93862000  1.0
  H  H80  1  0.86555000  0.29502000  0.39911000  1.0
  H  H81  1  0.36854000  0.19289000  0.10128000  1.0
  H  H82  1  0.63208000  0.69843000  0.39913000  1.0
  H  H83  1  0.13304000  0.78525000  0.09598000  1.0
  H  H84  1  0.13310000  0.71471000  0.59596000  1.0
  H  H85  1  0.63212000  0.80149000  0.89904000  1.0
  H  H86  1  0.36855000  0.30712000  0.60134000  1.0
  H  H87  1  0.86550000  0.20484000  0.89907000  1.0
  H  H88  1  0.83380000  0.16679000  0.49192000  1.0
  H  H89  1  0.33563000  0.32478000  0.01239000  1.0
  H  H90  1  0.66334000  0.82770000  0.49196000  1.0
  H  H91  1  0.16336000  0.65635000  0.00490000  1.0
  H  H92  1  0.16343000  0.84363000  0.50492000  1.0
  H  H93  1  0.66336000  0.67228000  0.99195000  1.0
  H  H94  1  0.33569000  0.17523000  0.51244000  1.0
  H  H95  1  0.83381000  0.33311000  0.99185000  1.0
  C  C96  1  0.58038000  0.85006000  0.69740000  1.0
  C  C97  1  0.08575000  0.65008000  0.80488000  1.0
  C  C98  1  0.91930000  0.15115000  0.69773000  1.0
  C  C99  1  0.41997000  0.35624000  0.80430000  1.0
  C  C100  1  0.42000000  0.14378000  0.30430000  1.0
  C  C101  1  0.91929000  0.34886000  0.19775000  1.0
  C  C102  1  0.08582000  0.84994000  0.30490000  1.0
  C  C103  1  0.58043000  0.64996000  0.19742000  1.0
  C  C104  1  0.37441000  0.74930000  0.81394000  1.0
  C  C105  1  0.87652000  0.74986000  0.68610000  1.0
  C  C106  1  0.12800000  0.24922000  0.81786000  1.0
  C  C107  1  0.62561000  0.25569000  0.68438000  1.0
  C  C108  1  0.62562000  0.24432000  0.18434000  1.0
  C  C109  1  0.12803000  0.25080000  0.31785000  1.0
  C  C110  1  0.87658000  0.75020000  0.18612000  1.0
  C  C111  1  0.37450000  0.75069000  0.31402000  1.0
  C  C112  1  0.49605000  0.64516000  0.80427000  1.0
  C  C113  1  0.99805000  0.85449000  0.69537000  1.0
  C  C114  1  0.00676000  0.35433000  0.80751000  1.0
  C  C115  1  0.50396000  0.15197000  0.69532000  1.0
  C  C116  1  0.50394000  0.34803000  0.19525000  1.0
  C  C117  1  0.00679000  0.14570000  0.30753000  1.0
  C  C118  1  0.99809000  0.64555000  0.19539000  1.0
  C  C119  1  0.49613000  0.85484000  0.30434000  1.0
  C  C120  1  0.61163000  0.24198000  0.47522000  1.0
  C  C121  1  0.11276000  0.25268000  0.02754000  1.0
  C  C122  1  0.88663000  0.75673000  0.47689000  1.0
  C  C123  1  0.38507000  0.73489000  0.01427000  1.0
  C  C124  1  0.38515000  0.76515000  0.51443000  1.0
  C  C125  1  0.88665000  0.74327000  0.97690000  1.0
  C  C126  1  0.11279000  0.24730000  0.52759000  1.0
  C  C127  1  0.61159000  0.25800000  0.97515000  1.0
  C  C128  1  0.42682000  0.81100000  0.76910000  1.0
  C  C129  1  0.93034000  0.68927000  0.73243000  1.0
  C  C130  1  0.07488000  0.18892000  0.77069000  1.0
  C  C131  1  0.57394000  0.31748000  0.73015000  1.0
  C  C132  1  0.57396000  0.18254000  0.23014000  1.0
  C  C133  1  0.07489000  0.31111000  0.27070000  1.0
  C  C134  1  0.93043000  0.81079000  0.23243000  1.0
  C  C135  1  0.42688000  0.68900000  0.26916000  1.0
  C  C136  1  0.51912000  0.78803000  0.74127000  1.0
  C  C137  1  0.02364000  0.71253000  0.76042000  1.0
  C  C138  1  0.98200000  0.21268000  0.74223000  1.0
  C  C139  1  0.48164000  0.29520000  0.75876000  1.0
  C  C140  1  0.48165000  0.20483000  0.25875000  1.0
  C  C141  1  0.98200000  0.28734000  0.24226000  1.0
  C  C142  1  0.02372000  0.78751000  0.26041000  1.0
  C  C143  1  0.51918000  0.71198000  0.24130000  1.0
  C  C144  1  0.62283000  0.31440000  0.42342000  1.0
  C  C145  1  0.12451000  0.17858000  0.07749000  1.0
  C  C146  1  0.87578000  0.68399000  0.42509000  1.0
  C  C147  1  0.37410000  0.80742000  0.06585000  1.0
  C  C148  1  0.37417000  0.69261000  0.56598000  1.0
  C  C149  1  0.87581000  0.81599000  0.92507000  1.0
  C  C150  1  0.12454000  0.32141000  0.57755000  1.0
  C  C151  1  0.62278000  0.18558000  0.92334000  1.0
  C  C152  1  0.55340000  0.70270000  0.75937000  1.0
  C  C153  1  0.05676000  0.79791000  0.74174000  1.0
  C  C154  1  0.94872000  0.29805000  0.76052000  1.0
  C  C155  1  0.44739000  0.20965000  0.74083000  1.0
  C  C156  1  0.44738000  0.29037000  0.24080000  1.0
  C  C157  1  0.94872000  0.20196000  0.26055000  1.0
  C  C158  1  0.05683000  0.70213000  0.24173000  1.0
  C  C159  1  0.55346000  0.79731000  0.25940000  1.0
  C  C160  1  0.73140000  0.41679000  0.34323000  1.0
  C  C161  1  0.23387000  0.07192000  0.15487000  1.0
  C  C162  1  0.76744000  0.57970000  0.34384000  1.0
  C  C163  1  0.26780000  0.90834000  0.15013000  1.0
  C  C164  1  0.26783000  0.59166000  0.65017000  1.0
  C  C165  1  0.76747000  0.92024000  0.84377000  1.0
  C  C166  1  0.23386000  0.42807000  0.65493000  1.0
  C  C167  1  0.73135000  0.08315000  0.84316000  1.0
  C  C168  1  0.75011000  0.49808000  0.39799000  1.0
  C  C169  1  0.24965000  0.99181000  0.09816000  1.0
  C  C170  1  0.24967000  0.50817000  0.59820000  1.0
  C  C171  1  0.75008000  0.00186000  0.89790000  1.0
  C  C172  1  0.79220000  0.28210000  0.42024000  1.0
  C  C173  1  0.29464000  0.20778000  0.08093000  1.0
  C  C174  1  0.70562000  0.71292000  0.42075000  1.0
  C  C175  1  0.20587000  0.77337000  0.07321000  1.0
  C  C176  1  0.20592000  0.72662000  0.57324000  1.0
  C  C177  1  0.70565000  0.78702000  0.92069000  1.0
  C  C178  1  0.29466000  0.29222000  0.58100000  1.0
  C  C179  1  0.79216000  0.21783000  0.92018000  1.0
  C  C180  1  0.77520000  0.21056000  0.47201000  1.0
  C  C181  1  0.27702000  0.28128000  0.03133000  1.0
  C  C182  1  0.72233000  0.78493000  0.47245000  1.0
  C  C183  1  0.22192000  0.70119000  0.02198000  1.0
  C  C184  1  0.22197000  0.79881000  0.52204000  1.0
  C  C185  1  0.72236000  0.71505000  0.97243000  1.0
  C  C186  1  0.27706000  0.21872000  0.53138000  1.0
  C  C187  1  0.77518000  0.28939000  0.97194000  1.0
  C  C188  1  0.71511000  0.33636000  0.39500000  1.0
  C  C189  1  0.21739000  0.15413000  0.10503000  1.0
  C  C190  1  0.78333000  0.66026000  0.39597000  1.0
  C  C191  1  0.28272000  0.82874000  0.09664000  1.0
  C  C192  1  0.28277000  0.67126000  0.59669000  1.0
  C  C193  1  0.78337000  0.83970000  0.89592000  1.0
  C  C194  1  0.21740000  0.34586000  0.60509000  1.0
  C  C195  1  0.71507000  0.16359000  0.89494000  1.0
  N  N196  1  0.63968000  0.96657000  0.64543000  1.0
  N  N197  1  0.14318000  0.53178000  0.85697000  1.0
  N  N198  1  0.85840000  0.03432000  0.64634000  1.0
  N  N199  1  0.35790000  0.46934000  0.86044000  1.0
  N  N200  1  0.35798000  0.03069000  0.36048000  1.0
  N  N201  1  0.85839000  0.46569000  0.14637000  1.0
  N  N202  1  0.14327000  0.96823000  0.35698000  1.0
  N  N203  1  0.63969000  0.53344000  0.14541000  1.0
  N  N204  1  0.56133000  0.93656000  0.68353000  1.0
  N  N205  1  0.06490000  0.56406000  0.81873000  1.0
  N  N206  1  0.93760000  0.06446000  0.68486000  1.0
  N  N207  1  0.43688000  0.44258000  0.82067000  1.0
  N  N208  1  0.43695000  0.05746000  0.32070000  1.0
  N  N209  1  0.93758000  0.43555000  0.18491000  1.0
  N  N210  1  0.06500000  0.93597000  0.31873000  1.0
  N  N211  1  0.56135000  0.56347000  0.18352000  1.0
  N  N212  1  0.40751000  0.66755000  0.83173000  1.0
  N  N213  1  0.90919000  0.83118000  0.66666667  1.0
  N  N214  1  0.09494000  0.33036000  0.83725000  1.0
  N  N215  1  0.59197000  0.17415000  0.66618000  1.0
  N  N216  1  0.59195000  0.32585000  0.16610000  1.0
  N  N217  1  0.09497000  0.16966000  0.33726000  1.0
  N  N218  1  0.90923000  0.66887000  0.16670000  1.0
  N  N219  1  0.40761000  0.83244000  0.33182000  1.0
  N  N220  1  0.70369000  0.90055000  0.63699000  1.0
  N  N221  1  0.20937000  0.59624000  0.86538000  1.0
  N  N222  1  0.79448000  0.10041000  0.63667000  1.0
  N  N223  1  0.29580000  0.40177000  0.86764000  1.0
  N  N224  1  0.29586000  0.09825000  0.36767000  1.0
  N  N225  1  0.79448000  0.39959000  0.13666000  1.0
  N  N226  1  0.20945000  0.90376000  0.36541000  1.0
  N  N227  1  0.70372000  0.59945000  0.13699000  1.0
  N  N228  1  0.66800000  0.82697000  0.66846000  1.0
  N  N229  1  0.17495000  0.67106000  0.83398000  1.0
  N  N230  1  0.83113000  0.17431000  0.66780000  1.0
  N  N231  1  0.33308000  0.33053000  0.83344000  1.0
  N  N232  1  0.33311000  0.16949000  0.33346000  1.0
  N  N233  1  0.83114000  0.32569000  0.16780000  1.0
  N  N234  1  0.17503000  0.82896000  0.33399000  1.0
  N  N235  1  0.66806000  0.67303000  0.16849000  1.0
  N  N236  1  0.68637000  0.19081000  0.49998000  1.0
  N  N237  1  0.18762000  0.30345000  0.00420000  1.0
  N  N238  1  0.81135000  0.80664000  0.50088000  1.0
  N  N239  1  0.31027000  0.68198000  0.99196000  1.0
  N  N240  1  0.31034000  0.81804000  0.49206000  1.0
  N  N241  1  0.81137000  0.69336000  0.00089000  1.0
  N  N242  1  0.18767000  0.19654000  0.50424000  1.0
  N  N243  1  0.68635000  0.30916000  0.99991000  1.0
  N  N244  1  0.74919000  0.00063000  0.35184000  1.0
  N  N245  1  0.24888000  0.49615000  0.15504000  1.0
  N  N246  1  0.24881000  0.00382000  0.65508000  1.0
  N  N247  1  0.74924000  0.49939000  0.85184000  1.0
  N  N248  1  0.74840000  0.99956000  0.42457000  1.0
  N  N249  1  0.24607000  0.49415000  0.08223000  1.0
  N  N250  1  0.24607000  0.00584000  0.58226000  1.0
  N  N251  1  0.74845000  0.50045000  0.92457000  1.0
  N  N252  1  0.53595000  0.06587000  0.52083000  1.0
  N  N253  1  0.03373000  0.42957000  0.98260000  1.0
  N  N254  1  0.96199000  0.93462000  0.52011000  1.0
  N  N255  1  0.45323000  0.56420000  0.97935000  1.0
  N  N256  1  0.45329000  0.93583000  0.47942000  1.0
  N  N257  1  0.96201000  0.56540000  0.02016000  1.0
  N  N258  1  0.03379000  0.07042000  0.48262000  1.0
  N  N259  1  0.53597000  0.43420000  0.02075000  1.0
  N  N260  1  0.74756000  0.99846000  0.50009000  1.0
  N  N261  1  0.24423000  0.49327000  0.00677000  1.0
  N  N262  1  0.24429000  0.00674000  0.50680000  1.0
  N  N263  1  0.74760000  0.50153000  0.00009000  1.0
  N  N264  1  0.49302000  0.00228000  0.49939000  1.0
  N  N265  1  0.99772000  0.49743000  0.00125000  1.0
  N  N266  1  0.99774000  0.00258000  0.50123000  1.0
  N  N267  1  0.49301000  0.49777000  0.99931000  1.0
