# generated using pymatgen
data_Hf3H24(C7O4)4
_symmetry_space_group_name_H-M   'P 1'
_cell_length_a   17.51490000
_cell_length_b   19.60790000
_cell_length_c   27.58300000
_cell_angle_alpha   90.07000000
_cell_angle_beta   89.96170000
_cell_angle_gamma   89.95200000
_symmetry_Int_Tables_number   1
_chemical_formula_structural   Hf3H24(C7O4)4
_chemical_formula_sum   'Hf12 H96 C112 O64'
_cell_volume   9472.82841905
_cell_formula_units_Z   4
loop_
 _symmetry_equiv_pos_site_id
 _symmetry_equiv_pos_as_xyz
  1  'x, y, z'
loop_
 _atom_site_type_symbol
 _atom_site_label
 _atom_site_symmetry_multiplicity
 _atom_site_fract_x
 _atom_site_fract_y
 _atom_site_fract_z
 _atom_site_occupancy
  Hf  Hf0  1  0.90208000  0.08805000  0.00463000  1.0
  Hf  Hf1  1  0.10389000  0.08352000  0.00446000  1.0
  Hf  Hf2  1  0.89674000  0.90805000  0.00389000  1.0
  Hf  Hf3  1  0.09829000  0.90392000  0.00377000  1.0
  Hf  Hf4  1  0.00012000  0.99600000  0.91502000  1.0
  Hf  Hf5  1  0.00017000  0.99561000  0.09347000  1.0
  Hf  Hf6  1  0.40405000  0.40346000  0.50487000  1.0
  Hf  Hf7  1  0.60559000  0.40927000  0.50417000  1.0
  Hf  Hf8  1  0.39654000  0.58355000  0.50464000  1.0
  Hf  Hf9  1  0.59754000  0.58858000  0.50470000  1.0
  Hf  Hf10  1  0.50042000  0.49599000  0.59391000  1.0
  Hf  Hf11  1  0.50049000  0.49556000  0.41518000  1.0
  H  H12  1  0.99906000  0.13815000  0.07497000  1.0
  H  H13  1  0.15937000  0.99253000  0.93337000  1.0
  H  H14  1  0.00177000  0.85321000  0.07425000  1.0
  H  H15  1  0.84164000  0.99640000  0.93322000  1.0
  H  H16  1  0.25136000  0.07912000  0.97830000  1.0
  H  H17  1  0.22800000  0.98660000  0.00646000  1.0
  H  H18  1  0.09279000  0.77439000  0.97819000  1.0
  H  H19  1  0.98874000  0.79217000  0.00304000  1.0
  H  H20  1  0.75259000  0.91675000  0.03257000  1.0
  H  H21  1  0.77214000  0.00780000  0.00556000  1.0
  H  H22  1  0.91028000  0.21721000  0.97743000  1.0
  H  H23  1  0.01271000  0.19896000  0.00282000  1.0
  H  H24  1  0.90866000  0.77074000  0.03099000  1.0
  H  H25  1  0.74967000  0.07853000  0.97573000  1.0
  H  H26  1  0.09303000  0.21895000  0.03152000  1.0
  H  H27  1  0.24099000  0.91736000  0.03853000  1.0
  H  H28  1  0.50040000  0.35306000  0.43422000  1.0
  H  H29  1  0.66021000  0.50079000  0.57494000  1.0
  H  H30  1  0.50169000  0.63844000  0.43403000  1.0
  H  H31  1  0.34019000  0.49312000  0.57504000  1.0
  H  H32  1  0.75358000  0.41529000  0.52922000  1.0
  H  H33  1  0.72824000  0.50758000  0.50188000  1.0
  H  H34  1  0.59086000  0.71798000  0.52985000  1.0
  H  H35  1  0.48713000  0.70006000  0.50457000  1.0
  H  H36  1  0.25147000  0.57833000  0.47800000  1.0
  H  H37  1  0.27353000  0.48351000  0.50276000  1.0
  H  H38  1  0.41183000  0.27388000  0.53007000  1.0
  H  H39  1  0.51497000  0.29311000  0.50567000  1.0
  H  H40  1  0.40759000  0.71981000  0.47570000  1.0
  H  H41  1  0.26086000  0.41324000  0.47141000  1.0
  H  H42  1  0.59620000  0.27312000  0.47815000  1.0
  H  H43  1  0.74046000  0.57743000  0.47024000  1.0
  H  H44  1  0.31251000  0.73580000  0.18048000  1.0
  H  H45  1  0.25114000  0.80137000  0.11447000  1.0
  H  H46  1  0.08455000  0.87878000  0.21462000  1.0
  H  H47  1  0.14095000  0.80902000  0.28038000  1.0
  H  H48  1  0.22559000  0.79112000  0.33319000  1.0
  H  H49  1  0.28148000  0.72090000  0.39861000  1.0
  H  H50  1  0.37656000  0.58410000  0.29295000  1.0
  H  H51  1  0.31586000  0.65056000  0.22696000  1.0
  H  H52  1  0.81743000  0.83771000  0.28092000  1.0
  H  H53  1  0.87852000  0.90438000  0.21513000  1.0
  H  H54  1  0.77795000  0.77213000  0.10877000  1.0
  H  H55  1  0.72114000  0.70180000  0.17393000  1.0
  H  H56  1  0.63697000  0.68471000  0.22808000  1.0
  H  H57  1  0.58101000  0.61496000  0.29404000  1.0
  H  H58  1  0.75370000  0.68597000  0.39216000  1.0
  H  H59  1  0.81480000  0.75089000  0.32574000  1.0
  H  H60  1  0.18850000  0.23362000  0.33066000  1.0
  H  H61  1  0.25151000  0.29933000  0.39601000  1.0
  H  H62  1  0.41199000  0.38037000  0.29352000  1.0
  H  H63  1  0.35401000  0.31055000  0.22834000  1.0
  H  H64  1  0.26856000  0.29272000  0.17712000  1.0
  H  H65  1  0.21334000  0.22226000  0.11144000  1.0
  H  H66  1  0.12252000  0.08305000  0.21657000  1.0
  H  H67  1  0.18307000  0.14941000  0.28276000  1.0
  H  H68  1  0.14334000  0.80679000  0.72822000  1.0
  H  H69  1  0.08242000  0.87359000  0.79415000  1.0
  H  H70  1  0.24283000  0.79235000  0.89653000  1.0
  H  H71  1  0.30843000  0.72949000  0.83060000  1.0
  H  H72  1  0.23188000  0.79199000  0.67734000  1.0
  H  H73  1  0.29303000  0.72498000  0.61151000  1.0
  H  H74  1  0.38133000  0.58379000  0.71610000  1.0
  H  H75  1  0.31593000  0.64678000  0.78217000  1.0
  H  H76  1  0.83412000  0.16398000  0.72675000  1.0
  H  H77  1  0.89728000  0.10004000  0.79312000  1.0
  H  H78  1  0.77423000  0.21794000  0.89862000  1.0
  H  H79  1  0.71316000  0.28459000  0.83302000  1.0
  H  H80  1  0.62989000  0.29293000  0.77614000  1.0
  H  H81  1  0.57099000  0.36114000  0.71028000  1.0
  H  H82  1  0.76101000  0.31575000  0.61723000  1.0
  H  H83  1  0.82485000  0.25404000  0.68423000  1.0
  H  H84  1  0.85302000  0.81384000  0.72735000  1.0
  H  H85  1  0.91403000  0.88063000  0.79314000  1.0
  H  H86  1  0.75875000  0.79479000  0.89671000  1.0
  H  H87  1  0.69267000  0.73175000  0.83094000  1.0
  H  H88  1  0.68589000  0.64967000  0.78159000  1.0
  H  H89  1  0.62018000  0.58696000  0.71566000  1.0
  H  H90  1  0.70321000  0.73175000  0.61167000  1.0
  H  H91  1  0.76360000  0.79854000  0.67744000  1.0
  H  H92  1  0.68278000  0.24831000  0.18086000  1.0
  H  H93  1  0.74528000  0.18246000  0.11499000  1.0
  H  H94  1  0.92105000  0.11876000  0.21334000  1.0
  H  H95  1  0.86375000  0.18924000  0.27853000  1.0
  H  H96  1  0.78190000  0.20560000  0.33270000  1.0
  H  H97  1  0.72527000  0.27603000  0.39801000  1.0
  H  H98  1  0.61391000  0.40141000  0.29204000  1.0
  H  H99  1  0.67448000  0.33478000  0.22594000  1.0
  H  H100  1  0.14216000  0.18161000  0.72771000  1.0
  H  H101  1  0.08216000  0.11482000  0.79386000  1.0
  H  H102  1  0.24677000  0.19262000  0.89490000  1.0
  H  H103  1  0.31193000  0.25474000  0.82858000  1.0
  H  H104  1  0.31703000  0.33911000  0.78141000  1.0
  H  H105  1  0.38265000  0.40245000  0.71578000  1.0
  H  H106  1  0.29214000  0.26330000  0.61030000  1.0
  H  H107  1  0.23099000  0.19610000  0.67559000  1.0
  C  C108  1  0.87758000  0.11502000  0.88918000  1.0
  C  C109  1  0.12751000  0.10823000  0.12035000  1.0
  C  C110  1  0.12356000  0.10994000  0.88795000  1.0
  C  C111  1  0.87383000  0.10607000  0.12092000  1.0
  C  C112  1  0.87026000  0.88257000  0.11895000  1.0
  C  C113  1  0.12082000  0.87677000  0.88866000  1.0
  C  C114  1  0.12750000  0.88470000  0.12111000  1.0
  C  C115  1  0.87786000  0.88146000  0.88812000  1.0
  C  C116  1  0.38059000  0.37627000  0.61995000  1.0
  C  C117  1  0.62851000  0.38317000  0.38850000  1.0
  C  C118  1  0.62553000  0.38271000  0.62031000  1.0
  C  C119  1  0.37280000  0.38479000  0.38784000  1.0
  C  C120  1  0.37034000  0.60800000  0.38910000  1.0
  C  C121  1  0.61972000  0.61569000  0.62022000  1.0
  C  C122  1  0.62700000  0.60652000  0.38689000  1.0
  C  C123  1  0.37846000  0.61070000  0.62045000  1.0
  C  C124  1  0.16698000  0.80835000  0.24445000  1.0
  C  C125  1  0.23152000  0.76720000  0.23566000  1.0
  C  C126  1  0.26166000  0.76601000  0.18829000  1.0
  C  C127  1  0.22829000  0.80353000  0.15120000  1.0
  C  C128  1  0.16465000  0.84482000  0.16061000  1.0
  C  C129  1  0.13452000  0.84707000  0.20770000  1.0
  C  C130  1  0.26618000  0.72630000  0.27486000  1.0
  C  C131  1  0.25714000  0.74495000  0.32388000  1.0
  C  C132  1  0.28925000  0.70622000  0.36080000  1.0
  C  C133  1  0.33295000  0.64828000  0.34986000  1.0
  C  C134  1  0.34279000  0.62935000  0.30121000  1.0
  C  C135  1  0.30930000  0.66736000  0.26444000  1.0
  C  C136  1  0.75427000  0.74694000  0.18345000  1.0
  C  C137  1  0.76498000  0.76419000  0.23257000  1.0
  C  C138  1  0.80978000  0.82192000  0.24331000  1.0
  C  C139  1  0.84349000  0.86003000  0.20670000  1.0
  C  C140  1  0.83230000  0.84234000  0.15795000  1.0
  C  C141  1  0.78677000  0.78572000  0.14669000  1.0
  C  C142  1  0.73047000  0.72315000  0.27172000  1.0
  C  C143  1  0.66436000  0.68393000  0.26357000  1.0
  C  C144  1  0.63215000  0.64526000  0.30046000  1.0
  C  C145  1  0.66407000  0.64584000  0.34707000  1.0
  C  C146  1  0.72938000  0.68514000  0.35581000  1.0
  C  C147  1  0.76260000  0.72238000  0.31854000  1.0
  C  C148  1  0.32957000  0.30915000  0.26469000  1.0
  C  C149  1  0.26612000  0.26707000  0.27423000  1.0
  C  C150  1  0.23827000  0.26477000  0.32214000  1.0
  C  C151  1  0.27260000  0.30236000  0.35889000  1.0
  C  C152  1  0.33492000  0.34477000  0.34868000  1.0
  C  C153  1  0.36295000  0.34792000  0.30111000  1.0
  C  C154  1  0.23057000  0.22644000  0.23516000  1.0
  C  C155  1  0.23813000  0.24598000  0.18625000  1.0
  C  C156  1  0.20632000  0.20727000  0.14921000  1.0
  C  C157  1  0.16414000  0.14850000  0.15994000  1.0
  C  C158  1  0.15531000  0.12886000  0.20848000  1.0
  C  C159  1  0.18864000  0.16686000  0.24539000  1.0
  C  C160  1  0.25772000  0.75959000  0.82230000  1.0
  C  C161  1  0.23088000  0.76299000  0.77421000  1.0
  C  C162  1  0.16668000  0.80429000  0.76482000  1.0
  C  C163  1  0.13163000  0.84123000  0.80164000  1.0
  C  C164  1  0.15856000  0.83681000  0.84940000  1.0
  C  C165  1  0.22173000  0.79524000  0.85943000  1.0
  C  C166  1  0.26884000  0.72446000  0.73493000  1.0
  C  C167  1  0.26317000  0.74555000  0.68624000  1.0
  C  C168  1  0.29793000  0.70883000  0.64917000  1.0
  C  C169  1  0.34086000  0.65043000  0.65985000  1.0
  C  C170  1  0.34787000  0.62930000  0.70817000  1.0
  C  C171  1  0.31177000  0.66536000  0.74501000  1.0
  C  C172  1  0.75257000  0.24349000  0.82377000  1.0
  C  C173  1  0.76896000  0.22953000  0.77473000  1.0
  C  C174  1  0.82161000  0.17711000  0.76436000  1.0
  C  C175  1  0.85674000  0.14065000  0.80127000  1.0
  C  C176  1  0.83987000  0.15499000  0.84994000  1.0
  C  C177  1  0.78719000  0.20669000  0.86079000  1.0
  C  C178  1  0.73221000  0.26850000  0.73535000  1.0
  C  C179  1  0.66024000  0.29931000  0.74191000  1.0
  C  C180  1  0.62637000  0.33682000  0.70500000  1.0
  C  C181  1  0.66241000  0.34274000  0.65981000  1.0
  C  C182  1  0.73327000  0.31122000  0.65246000  1.0
  C  C183  1  0.76819000  0.27570000  0.68995000  1.0
  C  C184  1  0.74230000  0.76302000  0.82232000  1.0
  C  C185  1  0.76775000  0.76776000  0.77396000  1.0
  C  C186  1  0.83065000  0.81035000  0.76416000  1.0
  C  C187  1  0.86579000  0.84730000  0.80089000  1.0
  C  C188  1  0.84019000  0.84162000  0.84886000  1.0
  C  C189  1  0.77840000  0.79873000  0.85932000  1.0
  C  C190  1  0.72972000  0.72928000  0.73475000  1.0
  C  C191  1  0.68849000  0.66919000  0.74462000  1.0
  C  C192  1  0.65226000  0.63324000  0.70781000  1.0
  C  C193  1  0.65751000  0.65540000  0.65959000  1.0
  C  C194  1  0.69900000  0.71469000  0.64916000  1.0
  C  C195  1  0.73371000  0.75138000  0.68622000  1.0
  C  C196  1  0.83589000  0.18670000  0.24323000  1.0
  C  C197  1  0.76831000  0.22394000  0.23496000  1.0
  C  C198  1  0.73596000  0.22128000  0.18822000  1.0
  C  C199  1  0.76997000  0.18377000  0.15124000  1.0
  C  C200  1  0.83644000  0.14612000  0.16031000  1.0
  C  C201  1  0.86892000  0.14768000  0.20673000  1.0
  C  C202  1  0.73285000  0.26468000  0.27408000  1.0
  C  C203  1  0.74632000  0.24924000  0.32322000  1.0
  C  C204  1  0.71392000  0.28797000  0.36011000  1.0
  C  C205  1  0.66560000  0.34282000  0.34911000  1.0
  C  C206  1  0.65125000  0.35852000  0.30037000  1.0
  C  C207  1  0.68480000  0.32042000  0.26356000  1.0
  C  C208  1  0.26047000  0.22552000  0.82070000  1.0
  C  C209  1  0.23198000  0.22332000  0.77296000  1.0
  C  C210  1  0.16678000  0.18317000  0.76401000  1.0
  C  C211  1  0.13224000  0.14622000  0.80096000  1.0
  C  C212  1  0.16079000  0.14957000  0.84838000  1.0
  C  C213  1  0.22494000  0.19001000  0.85796000  1.0
  C  C214  1  0.26947000  0.26216000  0.73373000  1.0
  C  C215  1  0.31281000  0.32089000  0.74413000  1.0
  C  C216  1  0.34903000  0.35716000  0.70752000  1.0
  C  C217  1  0.34197000  0.33661000  0.65902000  1.0
  C  C218  1  0.29809000  0.27889000  0.64805000  1.0
  C  C219  1  0.26306000  0.24195000  0.68485000  1.0
  O  O220  1  0.85923000  0.12915000  0.93320000  1.0
  O  O221  1  0.92476000  0.06908000  0.87615000  1.0
  O  O222  1  0.14325000  0.12482000  0.07666000  1.0
  O  O223  1  0.08157000  0.06101000  0.13319000  1.0
  O  O224  1  0.14312000  0.12294000  0.93154000  1.0
  O  O225  1  0.07514000  0.06464000  0.87491000  1.0
  O  O226  1  0.85450000  0.11855000  0.07739000  1.0
  O  O227  1  0.92466000  0.06278000  0.13421000  1.0
  O  O228  1  0.93196000  0.19320000  0.00497000  1.0
  O  O229  1  0.77616000  0.06301000  0.00465000  1.0
  O  O230  1  0.07460000  0.19524000  0.00285000  1.0
  O  O231  1  0.22196000  0.06098000  0.00517000  1.0
  O  O232  1  0.00211000  0.07146000  0.96661000  1.0
  O  O233  1  0.00073000  0.09776000  0.05473000  1.0
  O  O234  1  0.85311000  0.86774000  0.07485000  1.0
  O  O235  1  0.91817000  0.92765000  0.13212000  1.0
  O  O236  1  0.13842000  0.86230000  0.93256000  1.0
  O  O237  1  0.07415000  0.92324000  0.87554000  1.0
  O  O238  1  0.14919000  0.87389000  0.07753000  1.0
  O  O239  1  0.07474000  0.92604000  0.13397000  1.0
  O  O240  1  0.86062000  0.86729000  0.93180000  1.0
  O  O241  1  0.92442000  0.92822000  0.87470000  1.0
  O  O242  1  0.92727000  0.79569000  0.00296000  1.0
  O  O243  1  0.77912000  0.93539000  0.00463000  1.0
  O  O244  1  0.07054000  0.79852000  0.00558000  1.0
  O  O245  1  0.22352000  0.93220000  0.00668000  1.0
  O  O246  1  0.99969000  0.89365000  0.05412000  1.0
  O  O247  1  0.99859000  0.92069000  0.96643000  1.0
  O  O248  1  0.91645000  0.99652000  0.04176000  1.0
  O  O249  1  0.11462000  0.99288000  0.95403000  1.0
  O  O250  1  0.88594000  0.99787000  0.95421000  1.0
  O  O251  1  0.08491000  0.99539000  0.04208000  1.0
  O  O252  1  0.36545000  0.36043000  0.57596000  1.0
  O  O253  1  0.42574000  0.42375000  0.63332000  1.0
  O  O254  1  0.64478000  0.36748000  0.43230000  1.0
  O  O255  1  0.58164000  0.42969000  0.37557000  1.0
  O  O256  1  0.64642000  0.37074000  0.57680000  1.0
  O  O257  1  0.57602000  0.42699000  0.63347000  1.0
  O  O258  1  0.35236000  0.37349000  0.43160000  1.0
  O  O259  1  0.42457000  0.42685000  0.37471000  1.0
  O  O260  1  0.43358000  0.29818000  0.50266000  1.0
  O  O261  1  0.27831000  0.42912000  0.50303000  1.0
  O  O262  1  0.57656000  0.29735000  0.50630000  1.0
  O  O263  1  0.72325000  0.43343000  0.50278000  1.0
  O  O264  1  0.50387000  0.42074000  0.54229000  1.0
  O  O265  1  0.50139000  0.39385000  0.45409000  1.0
  O  O266  1  0.35319000  0.62336000  0.43307000  1.0
  O  O267  1  0.41775000  0.56221000  0.37615000  1.0
  O  O268  1  0.63530000  0.63170000  0.57630000  1.0
  O  O269  1  0.57493000  0.56777000  0.63335000  1.0
  O  O270  1  0.64851000  0.61804000  0.43038000  1.0
  O  O271  1  0.57432000  0.56500000  0.37432000  1.0
  O  O272  1  0.36248000  0.62586000  0.57679000  1.0
  O  O273  1  0.42390000  0.56297000  0.63381000  1.0
  O  O274  1  0.42583000  0.69636000  0.50449000  1.0
  O  O275  1  0.27954000  0.55776000  0.50459000  1.0
  O  O276  1  0.56933000  0.69380000  0.50228000  1.0
  O  O277  1  0.72297000  0.56204000  0.50196000  1.0
  O  O278  1  0.49938000  0.59803000  0.45417000  1.0
  O  O279  1  0.49818000  0.57084000  0.54217000  1.0
  O  O280  1  0.41748000  0.49499000  0.46705000  1.0
  O  O281  1  0.61532000  0.50012000  0.55444000  1.0
  O  O282  1  0.38496000  0.49301000  0.55431000  1.0
  O  O283  1  0.58529000  0.49681000  0.46638000  1.0
