# generated using pymatgen
data_FeH8C4O7
_symmetry_space_group_name_H-M   'P 1'
_cell_length_a   6.94315000
_cell_length_b   10.34920000
_cell_length_c   10.67710000
_cell_angle_alpha   89.99800000
_cell_angle_beta   82.49530000
_cell_angle_gamma   89.99810000
_symmetry_Int_Tables_number   1
_chemical_formula_structural   FeH8C4O7
_chemical_formula_sum   'Fe4 H32 C16 O28'
_cell_volume   760.64236797
_cell_formula_units_Z   4
loop_
 _symmetry_equiv_pos_site_id
 _symmetry_equiv_pos_as_xyz
  1  'x, y, z'
loop_
 _atom_site_type_symbol
 _atom_site_label
 _atom_site_symmetry_multiplicity
 _atom_site_fract_x
 _atom_site_fract_y
 _atom_site_fract_z
 _atom_site_occupancy
  Fe  Fe0  1  0.06606000  0.39544000  0.19594000  1.0
  Fe  Fe1  1  0.56517000  0.10450000  0.69596000  1.0
  Fe  Fe2  1  0.93485000  0.60449000  0.80400000  1.0
  Fe  Fe3  1  0.43391000  0.89544000  0.30408000  1.0
  H  H4  1  0.01346000  0.04556000  0.28596000  1.0
  H  H5  1  0.51584000  0.45574000  0.78527000  1.0
  H  H6  1  0.98411000  0.95580000  0.71469000  1.0
  H  H7  1  0.48654000  0.54560000  0.21405000  1.0
  H  H8  1  0.15916000  0.02353000  0.13676000  1.0
  H  H9  1  0.66119000  0.47487000  0.63551000  1.0
  H  H10  1  0.83888000  0.97483000  0.86451000  1.0
  H  H11  1  0.34086000  0.52355000  0.36326000  1.0
  H  H12  1  0.72199000  0.11202000  0.18803000  1.0
  H  H13  1  0.22219000  0.38886000  0.68788000  1.0
  H  H14  1  0.27790000  0.88887000  0.81214000  1.0
  H  H15  1  0.77800000  0.61204000  0.31198000  1.0
  H  H16  1  0.83915000  0.10354000  0.02877000  1.0
  H  H17  1  0.34113000  0.39634000  0.52896000  1.0
  H  H18  1  0.15879000  0.89628000  0.97102000  1.0
  H  H19  1  0.66085000  0.60353000  0.47123000  1.0
  H  H20  1  0.97569000  0.32853000  0.44351000  1.0
  H  H21  1  0.47642000  0.17162000  0.94352000  1.0
  H  H22  1  0.02360000  0.67159000  0.55645000  1.0
  H  H23  1  0.52426000  0.82849000  0.05651000  1.0
  H  H24  1  0.77922000  0.32590000  0.38735000  1.0
  H  H25  1  0.27950000  0.17292000  0.88789000  1.0
  H  H26  1  0.22049000  0.67291000  0.61212000  1.0
  H  H27  1  0.72073000  0.82589000  0.11269000  1.0
  H  H28  1  0.37659000  0.37280000  0.02195000  1.0
  H  H29  1  0.87646000  0.12756000  0.52233000  1.0
  H  H30  1  0.62363000  0.62756000  0.97766000  1.0
  H  H31  1  0.12334000  0.87281000  0.47808000  1.0
  H  H32  1  0.23621000  0.47390000  0.96186000  1.0
  H  H33  1  0.73594000  0.02643000  0.46218000  1.0
  H  H34  1  0.76414000  0.52644000  0.03782000  1.0
  H  H35  1  0.26374000  0.97390000  0.53814000  1.0
  C  C36  1  0.27676000  0.16072000  0.25904000  1.0
  C  C37  1  0.77753000  0.33885000  0.75949000  1.0
  C  C38  1  0.72247000  0.83886000  0.74051000  1.0
  C  C39  1  0.22322000  0.66074000  0.24097000  1.0
  C  C40  1  0.10520000  0.09580000  0.20873000  1.0
  C  C41  1  0.60643000  0.40394000  0.70860000  1.0
  C  C42  1  0.89360000  0.90394000  0.79136000  1.0
  C  C43  1  0.39479000  0.59583000  0.29128000  1.0
  C  C44  1  0.81830000  0.16379000  0.11444000  1.0
  C  C45  1  0.31868000  0.33646000  0.61486000  1.0
  C  C46  1  0.18135000  0.83643000  0.88510000  1.0
  C  C47  1  0.68169000  0.66379000  0.38557000  1.0
  C  C48  1  0.72156000  0.29015000  0.08568000  1.0
  C  C49  1  0.22111000  0.21038000  0.58615000  1.0
  C  C50  1  0.27891000  0.71034000  0.91384000  1.0
  C  C51  1  0.77843000  0.79015000  0.41433000  1.0
  O  O52  1  0.89725000  0.37725000  0.38668000  1.0
  O  O53  1  0.39826000  0.12228000  0.88699000  1.0
  O  O54  1  0.10177000  0.62224000  0.61299000  1.0
  O  O55  1  0.60268000  0.87722000  0.11333000  1.0
  O  O56  1  0.23868000  0.39513000  0.01541000  1.0
  O  O57  1  0.73856000  0.10512000  0.51582000  1.0
  O  O58  1  0.76154000  0.60515000  0.98417000  1.0
  O  O59  1  0.26125000  0.89514000  0.48461000  1.0
  O  O60  1  0.40854000  0.08726000  0.29270000  1.0
  O  O61  1  0.90914000  0.41226000  0.79342000  1.0
  O  O62  1  0.59085000  0.91227000  0.70659000  1.0
  O  O63  1  0.09146000  0.58726000  0.20733000  1.0
  O  O64  1  0.28109000  0.28256000  0.26496000  1.0
  O  O65  1  0.78168000  0.21712000  0.76576000  1.0
  O  O66  1  0.71831000  0.71713000  0.73426000  1.0
  O  O67  1  0.21884000  0.78257000  0.23506000  1.0
  O  O68  1  0.99952000  0.19539000  0.15596000  1.0
  O  O69  1  0.49894000  0.30430000  0.65747000  1.0
  O  O70  1  0.00117000  0.80427000  0.84240000  1.0
  O  O71  1  0.50046000  0.69541000  0.34406000  1.0
  O  O72  1  0.79111000  0.39450000  0.12580000  1.0
  O  O73  1  0.28990000  0.10586000  0.62642000  1.0
  O  O74  1  0.21011000  0.60583000  0.87356000  1.0
  O  O75  1  0.70889000  0.89450000  0.37421000  1.0
  O  O76  1  0.57690000  0.28466000  0.02598000  1.0
  O  O77  1  0.07663000  0.21622000  0.52627000  1.0
  O  O78  1  0.42336000  0.71617000  0.97375000  1.0
  O  O79  1  0.92308000  0.78465000  0.47405000  1.0
