# generated using pymatgen
data_Zn2SiH36C51(NO4)2
_symmetry_space_group_name_H-M   'P 1'
_cell_length_a   11.80220000
_cell_length_b   15.63870000
_cell_length_c   16.19370000
_cell_angle_alpha   89.84270000
_cell_angle_beta   89.98640000
_cell_angle_gamma   89.96850000
_symmetry_Int_Tables_number   1
_chemical_formula_structural   Zn2SiH36C51(NO4)2
_chemical_formula_sum   'Zn2 Si1 H36 C51 N2 O8'
_cell_volume   2988.87665875
_cell_formula_units_Z   1
loop_
 _symmetry_equiv_pos_site_id
 _symmetry_equiv_pos_as_xyz
  1  'x, y, z'
loop_
 _atom_site_type_symbol
 _atom_site_label
 _atom_site_symmetry_multiplicity
 _atom_site_fract_x
 _atom_site_fract_y
 _atom_site_fract_z
 _atom_site_occupancy
  Zn  Zn0  1  0.68991000  0.31720000  0.82774000  1.0
  Zn  Zn1  1  0.68875000  0.31497000  0.99771000  1.0
  Si  Si2  1  0.93708000  0.60001000  0.43930000  1.0
  H  H3  1  0.13163000  0.02683000  0.02340000  1.0
  H  H4  1  0.13207000  0.60628000  0.80473000  1.0
  H  H5  1  0.85149000  0.07014000  0.79796000  1.0
  H  H6  1  0.00358000  0.47965000  0.80245000  1.0
  H  H7  1  0.85401000  0.55955000  0.03092000  1.0
  H  H8  1  0.00270000  0.15350000  0.02455000  1.0
  H  H9  1  0.53338000  0.06901000  0.01721000  1.0
  H  H10  1  0.53431000  0.56419000  0.80697000  1.0
  H  H11  1  0.41093000  0.93874000  0.01964000  1.0
  H  H12  1  0.41183000  0.69456000  0.80598000  1.0
  H  H13  1  0.36825000  0.15478000  0.79619000  1.0
  H  H14  1  0.36915000  0.47608000  0.02721000  1.0
  H  H15  1  0.39829000  0.81627000  0.91174000  1.0
  H  H16  1  0.24072000  0.60275000  0.02374000  1.0
  H  H17  1  0.23988000  0.02823000  0.80103000  1.0
  H  H18  1  0.98037000  0.81563000  0.91624000  1.0
  H  H19  1  0.97394000  0.93953000  0.79926000  1.0
  H  H20  1  0.97626000  0.69008000  0.03096000  1.0
  H  H21  1  0.78455000  0.43633000  0.70390000  1.0
  H  H22  1  0.73071000  0.15897000  0.27287000  1.0
  H  H23  1  0.73794000  0.17960000  0.11868000  1.0
  H  H24  1  0.70311000  0.40991000  0.41580000  1.0
  H  H25  1  0.67416000  0.21424000  0.40828000  1.0
  H  H26  1  0.63554000  0.43146000  0.13747000  1.0
  H  H27  1  0.58981000  0.22008000  0.53559000  1.0
  H  H28  1  0.62720000  0.42372000  0.29183000  1.0
  H  H29  1  0.59626000  0.21401000  0.69062000  1.0
  H  H30  1  0.95632000  0.61242000  0.28638000  1.0
  H  H31  1  0.81620000  0.58228000  0.31419000  1.0
  H  H32  1  0.92698000  0.50512000  0.31607000  1.0
  H  H33  1  0.94147000  0.75787000  0.42541000  1.0
  H  H34  1  0.90670000  0.72792000  0.52844000  1.0
  H  H35  1  0.80221000  0.72212000  0.44956000  1.0
  H  H36  1  0.14393000  0.62504000  0.42608000  1.0
  H  H37  1  0.11558000  0.51632000  0.45190000  1.0
  H  H38  1  0.10822000  0.59650000  0.52939000  1.0
  C  C39  1  0.06935000  0.03559000  0.97436000  1.0
  C  C40  1  0.07019000  0.59677000  0.85396000  1.0
  C  C41  1  0.91214000  0.05924000  0.84760000  1.0
  C  C42  1  0.99906000  0.52578000  0.85268000  1.0
  C  C43  1  0.91418000  0.57123000  0.98112000  1.0
  C  C44  1  0.91899000  0.11911000  0.91158000  1.0
  C  C45  1  0.92039000  0.51235000  0.91623000  1.0
  C  C46  1  0.99808000  0.10657000  0.97502000  1.0
  C  C47  1  0.84127000  0.43750000  0.91435000  1.0
  C  C48  1  0.84023000  0.19428000  0.91268000  1.0
  C  C49  1  0.53751000  0.19457000  0.90461000  1.0
  C  C50  1  0.53822000  0.43743000  0.91895000  1.0
  C  C51  1  0.46977000  0.05861000  0.96958000  1.0
  C  C52  1  0.47065000  0.57407000  0.85474000  1.0
  C  C53  1  0.45981000  0.51275000  0.91748000  1.0
  C  C54  1  0.45909000  0.11928000  0.90627000  1.0
  C  C55  1  0.40123000  0.98634000  0.97074000  1.0
  C  C56  1  0.40210000  0.64643000  0.85441000  1.0
  C  C57  1  0.37629000  0.10741000  0.84536000  1.0
  C  C58  1  0.37703000  0.52399000  0.97856000  1.0
  C  C59  1  0.31852000  0.65802000  0.91517000  1.0
  C  C60  1  0.31760000  0.97415000  0.91019000  1.0
  C  C61  1  0.30581000  0.81612000  0.91270000  1.0
  C  C62  1  0.30591000  0.59507000  0.97661000  1.0
  C  C63  1  0.30504000  0.03642000  0.84810000  1.0
  C  C64  1  0.24953000  0.73725000  0.91452000  1.0
  C  C65  1  0.24890000  0.89481000  0.91196000  1.0
  C  C66  1  0.12923000  0.89458000  0.91268000  1.0
  C  C67  1  0.12990000  0.73713000  0.91638000  1.0
  C  C68  1  0.07288000  0.81575000  0.91527000  1.0
  C  C69  1  0.06028000  0.97391000  0.91179000  1.0
  C  C70  1  0.06151000  0.65759000  0.91735000  1.0
  C  C71  1  0.98065000  0.98678000  0.84852000  1.0
  C  C72  1  0.98261000  0.64367000  0.98093000  1.0
  C  C73  1  0.74392000  0.39976000  0.57745000  1.0
  C  C74  1  0.74233000  0.39041000  0.66370000  1.0
  C  C75  1  0.70940000  0.22064000  0.24542000  1.0
  C  C76  1  0.71329000  0.23113000  0.16028000  1.0
  C  C77  1  0.68867000  0.33669000  0.52862000  1.0
  C  C78  1  0.67994000  0.29020000  0.29587000  1.0
  C  C79  1  0.68834000  0.34529000  0.43924000  1.0
  C  C80  1  0.67834000  0.28001000  0.38533000  1.0
  C  C81  1  0.65756000  0.37308000  0.17090000  1.0
  C  C82  1  0.63550000  0.26879000  0.57014000  1.0
  C  C83  1  0.65337000  0.36798000  0.25635000  1.0
  C  C84  1  0.63802000  0.26472000  0.65565000  1.0
  C  C85  1  0.85427000  0.52478000  0.50279000  1.0
  C  C86  1  0.80263000  0.46843000  0.53964000  1.0
  C  C87  1  0.90622000  0.57233000  0.32871000  1.0
  C  C88  1  0.89251000  0.71244000  0.46311000  1.0
  C  C89  1  0.09068000  0.58277000  0.46412000  1.0
  N  N90  1  0.68741000  0.30592000  0.12376000  1.0
  N  N91  1  0.69081000  0.32479000  0.70122000  1.0
  O  O92  1  0.78986000  0.41971000  0.98153000  1.0
  O  O93  1  0.82744000  0.23358000  0.98086000  1.0
  O  O94  1  0.79013000  0.21229000  0.84502000  1.0
  O  O95  1  0.82948000  0.39808000  0.84611000  1.0
  O  O96  1  0.54957000  0.23518000  0.83686000  1.0
  O  O97  1  0.58951000  0.42064000  0.85154000  1.0
  O  O98  1  0.54968000  0.39673000  0.98670000  1.0
  O  O99  1  0.58842000  0.21141000  0.97212000  1.0
