# generated using pymatgen
data_Sn2PH4C4O7
_symmetry_space_group_name_H-M   'P 1'
_cell_length_a   4.81016000
_cell_length_b   8.18509000
_cell_length_c   23.37470000
_cell_angle_alpha   89.99990000
_cell_angle_beta   89.99980000
_cell_angle_gamma   86.11970000
_symmetry_Int_Tables_number   1
_chemical_formula_structural   Sn2PH4C4O7
_chemical_formula_sum   'Sn8 P4 H16 C16 O28'
_cell_volume   918.18947485
_cell_formula_units_Z   4
loop_
 _symmetry_equiv_pos_site_id
 _symmetry_equiv_pos_as_xyz
  1  'x, y, z'
loop_
 _atom_site_type_symbol
 _atom_site_label
 _atom_site_symmetry_multiplicity
 _atom_site_fract_x
 _atom_site_fract_y
 _atom_site_fract_z
 _atom_site_occupancy
  Sn  Sn0  1  0.98678000  0.35847000  0.59033000  1.0
  Sn  Sn1  1  0.98678000  0.85847000  0.90967000  1.0
  Sn  Sn2  1  0.01322000  0.64153000  0.40967000  1.0
  Sn  Sn3  1  0.01322000  0.14153000  0.09033000  1.0
  Sn  Sn4  1  0.16747000  0.82595000  0.59042000  1.0
  Sn  Sn5  1  0.16747000  0.32595000  0.90958000  1.0
  Sn  Sn6  1  0.83253000  0.17405000  0.40958000  1.0
  Sn  Sn7  1  0.83253000  0.67405000  0.09042000  1.0
  P  P8  1  0.51136000  0.12635000  0.65596000  1.0
  P  P9  1  0.51135000  0.62635000  0.84404000  1.0
  P  P10  1  0.48865000  0.87365000  0.34404000  1.0
  P  P11  1  0.48865000  0.37365000  0.15596000  1.0
  H  H12  1  0.82099000  0.02683000  0.72836000  1.0
  H  H13  1  0.82100000  0.52683000  0.77164000  1.0
  H  H14  1  0.17900000  0.97317000  0.27164000  1.0
  H  H15  1  0.17900000  0.47317000  0.22836000  1.0
  H  H16  1  0.77566000  0.24269000  0.72982000  1.0
  H  H17  1  0.77566000  0.74268000  0.77018000  1.0
  H  H18  1  0.22434000  0.75731000  0.27018000  1.0
  H  H19  1  0.22433000  0.25731000  0.22982000  1.0
  H  H20  1  0.32429000  0.23380000  0.77973000  1.0
  H  H21  1  0.32429000  0.73379000  0.72027000  1.0
  H  H22  1  0.67572000  0.76620000  0.22026000  1.0
  H  H23  1  0.67571000  0.26621000  0.27973000  1.0
  H  H24  1  0.30467000  0.02373000  0.76509000  1.0
  H  H25  1  0.30467000  0.52373000  0.73491000  1.0
  H  H26  1  0.69533000  0.97627000  0.23491000  1.0
  H  H27  1  0.69532000  0.47627000  0.26509000  1.0
  C  C28  1  0.66399000  0.13049000  0.72632000  1.0
  C  C29  1  0.66399000  0.63048000  0.77368000  1.0
  C  C30  1  0.33601000  0.86951000  0.27368000  1.0
  C  C31  1  0.33600000  0.36951000  0.22632000  1.0
  C  C32  1  0.45096000  0.11848000  0.77438000  1.0
  C  C33  1  0.45097000  0.61848000  0.72562000  1.0
  C  C34  1  0.54904000  0.88152000  0.22562000  1.0
  C  C35  1  0.54903000  0.38152000  0.27438000  1.0
  C  C36  1  0.57863000  0.06664000  0.83126000  1.0
  C  C37  1  0.57864000  0.56664000  0.66874000  1.0
  C  C38  1  0.42137000  0.93336000  0.16874000  1.0
  C  C39  1  0.42137000  0.43336000  0.33126000  1.0
  C  C40  1  0.41354000  0.08231000  0.50357000  1.0
  C  C41  1  0.41354000  0.58230000  0.99643000  1.0
  C  C42  1  0.58648000  0.91770000  0.49643000  1.0
  C  C43  1  0.58648000  0.41770000  0.00357000  1.0
  O  O44  1  0.73618000  0.15428000  0.61015000  1.0
  O  O45  1  0.73618000  0.65428000  0.88985000  1.0
  O  O46  1  0.26382000  0.84571000  0.38985000  1.0
  O  O47  1  0.26382000  0.34572000  0.11015000  1.0
  O  O48  1  0.26883000  0.25937000  0.65465000  1.0
  O  O49  1  0.26883000  0.75937000  0.84535000  1.0
  O  O50  1  0.73117000  0.74063000  0.34535000  1.0
  O  O51  1  0.73117000  0.24063000  0.15465000  1.0
  O  O52  1  0.41329000  0.95036000  0.64951000  1.0
  O  O53  1  0.41328000  0.45037000  0.85049000  1.0
  O  O54  1  0.58670000  0.04963000  0.35049000  1.0
  O  O55  1  0.58671000  0.54963000  0.14951000  1.0
  O  O56  1  0.45171000  0.09958000  0.87816000  1.0
  O  O57  1  0.45173000  0.59958000  0.62184000  1.0
  O  O58  1  0.54829000  0.90042000  0.12184000  1.0
  O  O59  1  0.54828000  0.40042000  0.37816000  1.0
  O  O60  1  0.81062000  0.98047000  0.82948000  1.0
  O  O61  1  0.81063000  0.48046000  0.67052000  1.0
  O  O62  1  0.18938000  0.01953000  0.17052000  1.0
  O  O63  1  0.18937000  0.51953000  0.32948000  1.0
  O  O64  1  0.20920000  0.08398000  0.53764000  1.0
  O  O65  1  0.20920000  0.58398000  0.96236000  1.0
  O  O66  1  0.79079000  0.91603000  0.46236000  1.0
  O  O67  1  0.79080000  0.41603000  0.03764000  1.0
  O  O68  1  0.48261000  0.20439000  0.47467000  1.0
  O  O69  1  0.48261000  0.70439000  0.02533000  1.0
  O  O70  1  0.51740000  0.79562000  0.52533000  1.0
  O  O71  1  0.51740000  0.29562000  0.97467000  1.0
