# generated using pymatgen
data_AlH10C19O7
_symmetry_space_group_name_H-M   'P 1'
_cell_length_a   6.65802000
_cell_length_b   21.44480000
_cell_length_c   25.55370000
_cell_angle_alpha   95.80720000
_cell_angle_beta   89.95520000
_cell_angle_gamma   89.98650000
_symmetry_Int_Tables_number   1
_chemical_formula_structural   AlH10C19O7
_chemical_formula_sum   'Al4 H40 C76 O28'
_cell_volume   3629.82924880
_cell_formula_units_Z   4
loop_
 _symmetry_equiv_pos_site_id
 _symmetry_equiv_pos_as_xyz
  1  'x, y, z'
loop_
 _atom_site_type_symbol
 _atom_site_label
 _atom_site_symmetry_multiplicity
 _atom_site_fract_x
 _atom_site_fract_y
 _atom_site_fract_z
 _atom_site_occupancy
  Al  Al0  1  0.21298000  0.74807000  0.74804000  1.0
  Al  Al1  1  0.80167000  0.24867000  0.24844000  1.0
  Al  Al2  1  0.71298000  0.75200000  0.75199000  1.0
  Al  Al3  1  0.30170000  0.25128000  0.25149000  1.0
  H  H4  1  0.94625000  0.62627000  0.41087000  1.0
  H  H5  1  0.76838000  0.38556000  0.57726000  1.0
  H  H6  1  0.44835000  0.87367000  0.08911000  1.0
  H  H7  1  0.26633000  0.11433000  0.92295000  1.0
  H  H8  1  0.07159000  0.62872000  0.58998000  1.0
  H  H9  1  0.06117000  0.36904000  0.41181000  1.0
  H  H10  1  0.57193000  0.87138000  0.90983000  1.0
  H  H11  1  0.56036000  0.13097000  0.08810000  1.0
  H  H12  1  0.79615000  0.54810000  0.71919000  1.0
  H  H13  1  0.00418000  0.46187000  0.27108000  1.0
  H  H14  1  0.29450000  0.95187000  0.78095000  1.0
  H  H15  1  0.50602000  0.03807000  0.22887000  1.0
  H  H16  1  0.98222000  0.56441000  0.32533000  1.0
  H  H17  1  0.75975000  0.44630000  0.66343000  1.0
  H  H18  1  0.48380000  0.93557000  0.17462000  1.0
  H  H19  1  0.25762000  0.05365000  0.83679000  1.0
  H  H20  1  0.70173000  0.97748000  0.58773000  1.0
  H  H21  1  0.30413000  0.09804000  0.46600000  1.0
  H  H22  1  0.20177000  0.52250000  0.91233000  1.0
  H  H23  1  0.80437000  0.40193000  0.03396000  1.0
  H  H24  1  0.68373000  0.90487000  0.65811000  1.0
  H  H25  1  0.32207000  0.16606000  0.39245000  1.0
  H  H26  1  0.18385000  0.59513000  0.84198000  1.0
  H  H27  1  0.82196000  0.33388000  0.10751000  1.0
  H  H28  1  0.26102000  0.89107000  0.53370000  1.0
  H  H29  1  0.75913000  0.01467000  0.39907000  1.0
  H  H30  1  0.76082000  0.60890000  0.96626000  1.0
  H  H31  1  0.25922000  0.48540000  0.10102000  1.0
  H  H32  1  0.87786000  0.64422000  0.54462000  1.0
  H  H33  1  0.82888000  0.36839000  0.44286000  1.0
  H  H34  1  0.37904000  0.85571000  0.95542000  1.0
  H  H35  1  0.32771000  0.13149000  0.05730000  1.0
  H  H36  1  0.21867000  0.75727000  0.60951000  1.0
  H  H37  1  0.79325000  0.08830000  0.27512000  1.0
  H  H38  1  0.71830000  0.74269000  0.89034000  1.0
  H  H39  1  0.29321000  0.41222000  0.22506000  1.0
  H  H40  1  0.47563000  0.73094000  0.68117000  1.0
  H  H41  1  0.56002000  0.28734000  0.31326000  1.0
  H  H42  1  0.97518000  0.76841000  0.81898000  1.0
  H  H43  1  0.06061000  0.21259000  0.18669000  1.0
  C  C44  1  0.45842000  0.68048000  0.81928000  1.0
  C  C45  1  0.55136000  0.32268000  0.18304000  1.0
  C  C46  1  0.95829000  0.81954000  0.68076000  1.0
  C  C47  1  0.05182000  0.17729000  0.31691000  1.0
  C  C48  1  0.45693000  0.84562000  0.80917000  1.0
  C  C49  1  0.54801000  0.15248000  0.19291000  1.0
  C  C50  1  0.95762000  0.65444000  0.69079000  1.0
  C  C51  1  0.04698000  0.34750000  0.30699000  1.0
  C  C52  1  0.02966000  0.40934000  0.33944000  1.0
  C  C53  1  0.93433000  0.59423000  0.65667000  1.0
  C  C54  1  0.53042000  0.09062000  0.16049000  1.0
  C  C55  1  0.43371000  0.90581000  0.84331000  1.0
  C  C56  1  0.99051000  0.52109000  0.34424000  1.0
  C  C57  1  0.81882000  0.48749000  0.64685000  1.0
  C  C58  1  0.49197000  0.97889000  0.15572000  1.0
  C  C59  1  0.31718000  0.01247000  0.85328000  1.0
  C  C60  1  0.00633000  0.46429000  0.31399000  1.0
  C  C61  1  0.84233000  0.54321000  0.67804000  1.0
  C  C62  1  0.50791000  0.03566000  0.18597000  1.0
  C  C63  1  0.34101000  0.95678000  0.82204000  1.0
  C  C64  1  0.02377000  0.41165000  0.39388000  1.0
  C  C65  1  0.98610000  0.59020000  0.60381000  1.0
  C  C66  1  0.52357000  0.08834000  0.10606000  1.0
  C  C67  1  0.48596000  0.90986000  0.89612000  1.0
  C  C68  1  0.98416000  0.46864000  0.42567000  1.0
  C  C69  1  0.93670000  0.53638000  0.56908000  1.0
  C  C70  1  0.48422000  0.03134000  0.07430000  1.0
  C  C71  1  0.43620000  0.96361000  0.93093000  1.0
  C  C72  1  0.98065000  0.52494000  0.39988000  1.0
  C  C73  1  0.86491000  0.48254000  0.59240000  1.0
  C  C74  1  0.48162000  0.97504000  0.10008000  1.0
  C  C75  1  0.36367000  0.01743000  0.90770000  1.0
  C  C76  1  0.94631000  0.47313000  0.48173000  1.0
  C  C77  1  0.95353000  0.53268000  0.51234000  1.0
  C  C78  1  0.44592000  0.02684000  0.01827000  1.0
  C  C79  1  0.45353000  0.96730000  0.98766000  1.0
  C  C80  1  0.95234000  0.58783000  0.48422000  1.0
  C  C81  1  0.87552000  0.42040000  0.50752000  1.0
  C  C82  1  0.45326000  0.91214000  0.01576000  1.0
  C  C83  1  0.37434000  0.07952000  0.99258000  1.0
  C  C84  1  0.96007000  0.58346000  0.43024000  1.0
  C  C85  1  0.83264000  0.42580000  0.56038000  1.0
  C  C86  1  0.46137000  0.91651000  0.06973000  1.0
  C  C87  1  0.33104000  0.07412000  0.93976000  1.0
  C  C88  1  0.82032000  0.94325000  0.59169000  1.0
  C  C89  1  0.18854000  0.09514000  0.43568000  1.0
  C  C90  1  0.32032000  0.55673000  0.90837000  1.0
  C  C91  1  0.68872000  0.40486000  0.06431000  1.0
  C  C92  1  0.80976000  0.90274000  0.63077000  1.0
  C  C93  1  0.19896000  0.13296000  0.39469000  1.0
  C  C94  1  0.30978000  0.59725000  0.86929000  1.0
  C  C95  1  0.69895000  0.36702000  0.10529000  1.0
  C  C96  1  0.96194000  0.85882000  0.63595000  1.0
  C  C97  1  0.04918000  0.13027000  0.35613000  1.0
  C  C98  1  0.46188000  0.64118000  0.86408000  1.0
  C  C99  1  0.54913000  0.36978000  0.14391000  1.0
  C  C100  1  0.12445000  0.85429000  0.60019000  1.0
  C  C101  1  0.89095000  0.08656000  0.35761000  1.0
  C  C102  1  0.62432000  0.64569000  0.89980000  1.0
  C  C103  1  0.39095000  0.41355000  0.14249000  1.0
  C  C104  1  0.13595000  0.89540000  0.56138000  1.0
  C  C105  1  0.88072000  0.04868000  0.39885000  1.0
  C  C106  1  0.63583000  0.60457000  0.93860000  1.0
  C  C107  1  0.38087000  0.45140000  0.10125000  1.0
  C  C108  1  0.98491000  0.94048000  0.55668000  1.0
  C  C109  1  0.02697000  0.05302000  0.43878000  1.0
  C  C110  1  0.48490000  0.55947000  0.94332000  1.0
  C  C111  1  0.52715000  0.44700000  0.06125000  1.0
  C  C112  1  0.99806000  0.98113000  0.51635000  1.0
  C  C113  1  0.01271000  0.01475000  0.48077000  1.0
  C  C114  1  0.49808000  0.51885000  0.98366000  1.0
  C  C115  1  0.51288000  0.48524000  0.01924000  1.0
  C  C116  1  0.27631000  0.80302000  0.59879000  1.0
  C  C117  1  0.74392000  0.07474000  0.31390000  1.0
  C  C118  1  0.77600000  0.69698000  0.90113000  1.0
  C  C119  1  0.24372000  0.42544000  0.18621000  1.0
  O  O120  1  0.63167000  0.82304000  0.79978000  1.0
  O  O121  1  0.38218000  0.17864000  0.20661000  1.0
  O  O122  1  0.13246000  0.67673000  0.70044000  1.0
  O  O123  1  0.88103000  0.32188000  0.29273000  1.0
  O  O124  1  0.28917000  0.69300000  0.79986000  1.0
  O  O125  1  0.72108000  0.30096000  0.19518000  1.0
  O  O126  1  0.78905000  0.80736000  0.70041000  1.0
  O  O127  1  0.22193000  0.19835000  0.30434000  1.0
  O  O128  1  0.29195000  0.82127000  0.79247000  1.0
  O  O129  1  0.72160000  0.17440000  0.20462000  1.0
  O  O130  1  0.79254000  0.67908000  0.70721000  1.0
  O  O131  1  0.22049000  0.32505000  0.29583000  1.0
  O  O132  1  0.12922000  0.80113000  0.69580000  1.0
  O  O133  1  0.88103000  0.19430000  0.30071000  1.0
  O  O134  1  0.62954000  0.69855000  0.80403000  1.0
  O  O135  1  0.38046000  0.30625000  0.19965000  1.0
  O  O136  1  0.46578000  0.74451000  0.71840000  1.0
  O  O137  1  0.55373000  0.25761000  0.28207000  1.0
  O  O138  1  0.96566000  0.75551000  0.78163000  1.0
  O  O139  1  0.05390000  0.24233000  0.21787000  1.0
  O  O140  1  0.92825000  0.64699000  0.50899000  1.0
  O  O141  1  0.83171000  0.36364000  0.48051000  1.0
  O  O142  1  0.42978000  0.85297000  0.99100000  1.0
  O  O143  1  0.33022000  0.13624000  0.01964000  1.0
  O  O144  1  0.44981000  0.80825000  0.58392000  1.0
  O  O145  1  0.58159000  0.04879000  0.31863000  1.0
  O  O146  1  0.94945000  0.69181000  0.91600000  1.0
  O  O147  1  0.08100000  0.45118000  0.18140000  1.0
