# generated using pymatgen
data_CoNiH8(C8N3)2
_symmetry_space_group_name_H-M   'P 1'
_cell_length_a   6.41836000
_cell_length_b   10.17440000
_cell_length_c   11.10440000
_cell_angle_alpha   89.67200000
_cell_angle_beta   88.82410000
_cell_angle_gamma   71.64240000
_symmetry_Int_Tables_number   1
_chemical_formula_structural   CoNiH8(C8N3)2
_chemical_formula_sum   'Co2 Ni2 H16 C32 N12'
_cell_volume   688.10168641
_cell_formula_units_Z   2
loop_
 _symmetry_equiv_pos_site_id
 _symmetry_equiv_pos_as_xyz
  1  'x, y, z'
loop_
 _atom_site_type_symbol
 _atom_site_label
 _atom_site_symmetry_multiplicity
 _atom_site_fract_x
 _atom_site_fract_y
 _atom_site_fract_z
 _atom_site_occupancy
  Co  Co0  1  0.62296000  0.75372000  0.74989000  1.0
  Co  Co1  1  0.37703000  0.24628000  0.25011000  1.0
  Ni  Ni2  1  0.00000000  0.99999000  0.00001000  1.0
  Ni  Ni3  1  0.99999000  0.00001000  0.50000000  1.0
  H  H4  1  0.06781000  0.70772000  0.61100000  1.0
  H  H5  1  0.22387000  0.70794000  0.88875000  1.0
  H  H6  1  0.93219000  0.29229000  0.38900000  1.0
  H  H7  1  0.77613000  0.29204000  0.11125000  1.0
  H  H8  1  0.36177000  0.49903000  0.54487000  1.0
  H  H9  1  0.13845000  0.49938000  0.95508000  1.0
  H  H10  1  0.63823000  0.50098000  0.45513000  1.0
  H  H11  1  0.86157000  0.50060000  0.04492000  1.0
  H  H12  1  0.33297000  0.26348000  0.58814000  1.0
  H  H13  1  0.40283000  0.26373000  0.91200000  1.0
  H  H14  1  0.66704000  0.73653000  0.41186000  1.0
  H  H15  1  0.59720000  0.73625000  0.08800000  1.0
  H  H16  1  0.10656000  0.12391000  0.69476000  1.0
  H  H17  1  0.76832000  0.12404000  0.80529000  1.0
  H  H18  1  0.89347000  0.87609000  0.30523000  1.0
  H  H19  1  0.23171000  0.87597000  0.19471000  1.0
  C  C20  1  0.88513000  0.86504000  0.94794000  1.0
  C  C21  1  0.24957000  0.86497000  0.55175000  1.0
  C  C22  1  0.11486000  0.13494000  0.05207000  1.0
  C  C23  1  0.75040000  0.13503000  0.44826000  1.0
  C  C24  1  0.83011000  0.93518000  0.60611000  1.0
  C  C25  1  0.23445000  0.93533000  0.89368000  1.0
  C  C26  1  0.16987000  0.06483000  0.39390000  1.0
  C  C27  1  0.76554000  0.06466000  0.10633000  1.0
  C  C28  1  0.05374000  0.60653000  0.63038000  1.0
  C  C29  1  0.33915000  0.60673000  0.86947000  1.0
  C  C30  1  0.94624000  0.39348000  0.36963000  1.0
  C  C31  1  0.66084000  0.39325000  0.13053000  1.0
  C  C32  1  0.22092000  0.48653000  0.59396000  1.0
  C  C33  1  0.29189000  0.48679000  0.90605000  1.0
  C  C34  1  0.77908000  0.51348000  0.40604000  1.0
  C  C35  1  0.70812000  0.51320000  0.09395000  1.0
  C  C36  1  0.20533000  0.35668000  0.61880000  1.0
  C  C37  1  0.43724000  0.35690000  0.88130000  1.0
  C  C38  1  0.79468000  0.64333000  0.38120000  1.0
  C  C39  1  0.56277000  0.64309000  0.11869000  1.0
  C  C40  1  0.01890000  0.34809000  0.68404000  1.0
  C  C41  1  0.63225000  0.34821000  0.81602000  1.0
  C  C42  1  0.98110000  0.65193000  0.31596000  1.0
  C  C43  1  0.36776000  0.65177000  0.18398000  1.0
  C  C44  1  0.85789000  0.47418000  0.71708000  1.0
  C  C45  1  0.66728000  0.47422000  0.78287000  1.0
  C  C46  1  0.14211000  0.52582000  0.28291000  1.0
  C  C47  1  0.33273000  0.52578000  0.21712000  1.0
  C  C48  1  0.98182000  0.22147000  0.71864000  1.0
  C  C49  1  0.79577000  0.22153000  0.78141000  1.0
  C  C50  1  0.01818000  0.77854000  0.28136000  1.0
  C  C51  1  0.20424000  0.77846000  0.21859000  1.0
  N  N52  1  0.81483000  0.78003000  0.91021000  1.0
  N  N53  1  0.40478000  0.77992000  0.58934000  1.0
  N  N54  1  0.18517000  0.21997000  0.08979000  1.0
  N  N55  1  0.59519000  0.22009000  0.41065000  1.0
  N  N56  1  0.73304000  0.88214000  0.67022000  1.0
  N  N57  1  0.38449000  0.88226000  0.82952000  1.0
  N  N58  1  0.26693000  0.11787000  0.32979000  1.0
  N  N59  1  0.61550000  0.11774000  0.17049000  1.0
  N  N60  1  0.87239000  0.60214000  0.68942000  1.0
  N  N61  1  0.52489000  0.60224000  0.81043000  1.0
  N  N62  1  0.12760000  0.39787000  0.31058000  1.0
  N  N63  1  0.47510000  0.39776000  0.18957000  1.0
