# generated using pymatgen
data_NiH30C28(NO4)2
_symmetry_space_group_name_H-M   'P 1'
_cell_length_a   10.32050000
_cell_length_b   10.98040000
_cell_length_c   12.82140000
_cell_angle_alpha   111.80900000
_cell_angle_beta   89.99880000
_cell_angle_gamma   89.99960000
_symmetry_Int_Tables_number   1
_chemical_formula_structural   NiH30C28(NO4)2
_chemical_formula_sum   'Ni2 H60 C56 N4 O16'
_cell_volume   1348.97013699
_cell_formula_units_Z   2
loop_
 _symmetry_equiv_pos_site_id
 _symmetry_equiv_pos_as_xyz
  1  'x, y, z'
loop_
 _atom_site_type_symbol
 _atom_site_label
 _atom_site_symmetry_multiplicity
 _atom_site_fract_x
 _atom_site_fract_y
 _atom_site_fract_z
 _atom_site_occupancy
  Ni  Ni0  1  0.00000000  0.50000000  0.00001000  1.0
  Ni  Ni1  1  0.50000000  0.00000000  0.50000000  1.0
  H  H2  1  0.15722000  0.85638000  0.87997000  1.0
  H  H3  1  0.65721000  0.64362000  0.62002000  1.0
  H  H4  1  0.84278000  0.14362000  0.12003000  1.0
  H  H5  1  0.34279000  0.35638000  0.37997000  1.0
  H  H6  1  0.84957000  0.96387000  0.12889000  1.0
  H  H7  1  0.34958000  0.53614000  0.37111000  1.0
  H  H8  1  0.15042000  0.03613000  0.87111000  1.0
  H  H9  1  0.65042000  0.46387000  0.62888000  1.0
  H  H10  1  0.85707000  0.73889000  0.12406000  1.0
  H  H11  1  0.35707000  0.76112000  0.37595000  1.0
  H  H12  1  0.14293000  0.26111000  0.87595000  1.0
  H  H13  1  0.64293000  0.23889000  0.62405000  1.0
  H  H14  1  0.15188000  0.63545000  0.88791000  1.0
  H  H15  1  0.65189000  0.86455000  0.61208000  1.0
  H  H16  1  0.84811000  0.36455000  0.11210000  1.0
  H  H17  1  0.34812000  0.13545000  0.38790000  1.0
  H  H18  1  0.12865000  0.42726000  0.32934000  1.0
  H  H19  1  0.62865000  0.07274000  0.17065000  1.0
  H  H20  1  0.87135000  0.57273000  0.67066000  1.0
  H  H21  1  0.37135000  0.92727000  0.82934000  1.0
  H  H22  1  0.71666000  0.42232000  0.38045000  1.0
  H  H23  1  0.21666000  0.07768000  0.11955000  1.0
  H  H24  1  0.28334000  0.57768000  0.61955000  1.0
  H  H25  1  0.78334000  0.92232000  0.88045000  1.0
  H  H26  1  0.14297000  0.19774000  0.31532000  1.0
  H  H27  1  0.64296000  0.30226000  0.18468000  1.0
  H  H28  1  0.85703000  0.80225000  0.68468000  1.0
  H  H29  1  0.35703000  0.69774000  0.81531000  1.0
  H  H30  1  0.92923000  0.81515000  0.47235000  1.0
  H  H31  1  0.42924000  0.68485000  0.02766000  1.0
  H  H32  1  0.07077000  0.18485000  0.52766000  1.0
  H  H33  1  0.57076000  0.31514000  0.97235000  1.0
  H  H34  1  0.88338000  0.78403000  0.32953000  1.0
  H  H35  1  0.38338000  0.71597000  0.17048000  1.0
  H  H36  1  0.11662000  0.21597000  0.67048000  1.0
  H  H37  1  0.61662000  0.28404000  0.82953000  1.0
  H  H38  1  0.04281000  0.84404000  0.38053000  1.0
  H  H39  1  0.54282000  0.65597000  0.11948000  1.0
  H  H40  1  0.95719000  0.15596000  0.61948000  1.0
  H  H41  1  0.45718000  0.34404000  0.88053000  1.0
  H  H42  1  0.08828000  0.63712000  0.41208000  1.0
  H  H43  1  0.58829000  0.86288000  0.08793000  1.0
  H  H44  1  0.91172000  0.36288000  0.58793000  1.0
  H  H45  1  0.41171000  0.13712000  0.91206000  1.0
  H  H46  1  0.94479000  0.07729000  0.33632000  1.0
  H  H47  1  0.44478000  0.42271000  0.16367000  1.0
  H  H48  1  0.05521000  0.92271000  0.66368000  1.0
  H  H49  1  0.55521000  0.57729000  0.83632000  1.0
  H  H50  1  0.73189000  0.18994000  0.36807000  1.0
  H  H51  1  0.23188000  0.31005000  0.13192000  1.0
  H  H52  1  0.26811000  0.81005000  0.63192000  1.0
  H  H53  1  0.76812000  0.68994000  0.86807000  1.0
  H  H54  1  0.32044000  0.53285000  0.98869000  1.0
  H  H55  1  0.82045000  0.96715000  0.51131000  1.0
  H  H56  1  0.67956000  0.46715000  0.01131000  1.0
  H  H57  1  0.17956000  0.03284000  0.48869000  1.0
  H  H58  1  0.24308000  0.50844000  0.08266000  1.0
  H  H59  1  0.74307000  0.99156000  0.41735000  1.0
  H  H60  1  0.75692000  0.49157000  0.91735000  1.0
  H  H61  1  0.25693000  0.00843000  0.58265000  1.0
  C  C62  1  0.08943000  0.83755000  0.93703000  1.0
  C  C63  1  0.58943000  0.66245000  0.56296000  1.0
  C  C64  1  0.91056000  0.16245000  0.06297000  1.0
  C  C65  1  0.41057000  0.33756000  0.43703000  1.0
  C  C66  1  0.91977000  0.89700000  0.07335000  1.0
  C  C67  1  0.41978000  0.60300000  0.42664000  1.0
  C  C68  1  0.08022000  0.10299000  0.92665000  1.0
  C  C69  1  0.58022000  0.39701000  0.57335000  1.0
  C  C70  1  0.92322000  0.77028000  0.07292000  1.0
  C  C71  1  0.42322000  0.72973000  0.42708000  1.0
  C  C72  1  0.07678000  0.22972000  0.92709000  1.0
  C  C73  1  0.57678000  0.27028000  0.57291000  1.0
  C  C74  1  0.06505000  0.58766000  0.23370000  1.0
  C  C75  1  0.56504000  0.91234000  0.26631000  1.0
  C  C76  1  0.93495000  0.41234000  0.76631000  1.0
  C  C77  1  0.43496000  0.08767000  0.73369000  1.0
  C  C78  1  0.08822000  0.71282000  0.94067000  1.0
  C  C79  1  0.58822000  0.78718000  0.55932000  1.0
  C  C80  1  0.91178000  0.28719000  0.05933000  1.0
  C  C81  1  0.41178000  0.21282000  0.44067000  1.0
  C  C82  1  0.92071000  0.43973000  0.35691000  1.0
  C  C83  1  0.42071000  0.06027000  0.14309000  1.0
  C  C84  1  0.07929000  0.56026000  0.64309000  1.0
  C  C85  1  0.57929000  0.93973000  0.85691000  1.0
  C  C86  1  0.00247000  0.93358000  0.00296000  1.0
  C  C87  1  0.50247000  0.56643000  0.49704000  1.0
  C  C88  1  0.99752000  0.06643000  0.99705000  1.0
  C  C89  1  0.49752000  0.43358000  0.50295000  1.0
  C  C90  1  0.04138000  0.37658000  0.33858000  1.0
  C  C91  1  0.54137000  0.12342000  0.16141000  1.0
  C  C92  1  0.95863000  0.62341000  0.66142000  1.0
  C  C93  1  0.45863000  0.87658000  0.83858000  1.0
  C  C94  1  0.80930000  0.37133000  0.36668000  1.0
  C  C95  1  0.30930000  0.12867000  0.13332000  1.0
  C  C96  1  0.19070000  0.62866000  0.63332000  1.0
  C  C97  1  0.69070000  0.87133000  0.86668000  1.0
  C  C98  1  0.04881000  0.24628000  0.33066000  1.0
  C  C99  1  0.54880000  0.25372000  0.16934000  1.0
  C  C100  1  0.95120000  0.75372000  0.66934000  1.0
  C  C101  1  0.45120000  0.74628000  0.83066000  1.0
  C  C102  1  0.96298000  0.78037000  0.38497000  1.0
  C  C103  1  0.46297000  0.71963000  0.11503000  1.0
  C  C104  1  0.03703000  0.21963000  0.61504000  1.0
  C  C105  1  0.53702000  0.28037000  0.88497000  1.0
  C  C106  1  0.01066000  0.64076000  0.35441000  1.0
  C  C107  1  0.51066000  0.85924000  0.14560000  1.0
  C  C108  1  0.98934000  0.35924000  0.64559000  1.0
  C  C109  1  0.48934000  0.14076000  0.85440000  1.0
  C  C110  1  0.93860000  0.17819000  0.34096000  1.0
  C  C111  1  0.43858000  0.32181000  0.15903000  1.0
  C  C112  1  0.06141000  0.82181000  0.65904000  1.0
  C  C113  1  0.56141000  0.67819000  0.84096000  1.0
  C  C114  1  0.81849000  0.24196000  0.35927000  1.0
  C  C115  1  0.31848000  0.25803000  0.14073000  1.0
  C  C116  1  0.18152000  0.75803000  0.64073000  1.0
  C  C117  1  0.68152000  0.74196000  0.85926000  1.0
  N  N118  1  0.00553000  0.67875000  0.00659000  1.0
  N  N119  1  0.50554000  0.82125000  0.49341000  1.0
  N  N120  1  0.99446000  0.32125000  0.99341000  1.0
  N  N121  1  0.49447000  0.17876000  0.50659000  1.0
  O  O122  1  0.97559000  0.56169000  0.15825000  1.0
  O  O123  1  0.47558000  0.93832000  0.34175000  1.0
  O  O124  1  0.02441000  0.43831000  0.84176000  1.0
  O  O125  1  0.52442000  0.06169000  0.65824000  1.0
  O  O126  1  0.90072000  0.56631000  0.36621000  1.0
  O  O127  1  0.40072000  0.93369000  0.13379000  1.0
  O  O128  1  0.09928000  0.43369000  0.63379000  1.0
  O  O129  1  0.59928000  0.06631000  0.86621000  1.0
  O  O130  1  0.18517000  0.57751000  0.21889000  1.0
  O  O131  1  0.68516000  0.92249000  0.28112000  1.0
  O  O132  1  0.81483000  0.42250000  0.78112000  1.0
  O  O133  1  0.31484000  0.07752000  0.71888000  1.0
  O  O134  1  0.27413000  0.46418000  0.00377000  1.0
  O  O135  1  0.77414000  0.03583000  0.49623000  1.0
  O  O136  1  0.72587000  0.53582000  0.99624000  1.0
  O  O137  1  0.22585000  0.96417000  0.50376000  1.0
