# generated using pymatgen
data_HoH8(C3O5)2
_symmetry_space_group_name_H-M   'P 1'
_cell_length_a   5.98664000
_cell_length_b   7.35283000
_cell_length_c   13.09050000
_cell_angle_alpha   105.17300000
_cell_angle_beta   102.11500000
_cell_angle_gamma   90.03470000
_symmetry_Int_Tables_number   1
_chemical_formula_structural   HoH8(C3O5)2
_chemical_formula_sum   'Ho2 H16 C12 O20'
_cell_volume   542.81137105
_cell_formula_units_Z   2
loop_
 _symmetry_equiv_pos_site_id
 _symmetry_equiv_pos_as_xyz
  1  'x, y, z'
loop_
 _atom_site_type_symbol
 _atom_site_label
 _atom_site_symmetry_multiplicity
 _atom_site_fract_x
 _atom_site_fract_y
 _atom_site_fract_z
 _atom_site_occupancy
  Ho  Ho0  1  0.01473000  0.82458000  0.68046000  1.0
  Ho  Ho1  1  0.98699000  0.15666000  0.31390000  1.0
  H  H2  1  0.37252000  0.96108000  0.05978000  1.0
  H  H3  1  0.62747000  0.90005000  0.93827000  1.0
  H  H4  1  0.50155000  0.32163000  0.56546000  1.0
  H  H5  1  0.47183000  0.30458000  0.73775000  1.0
  H  H6  1  0.50302000  0.76004000  0.43073000  1.0
  H  H7  1  0.53015000  0.58966000  0.25745000  1.0
  H  H8  1  0.18576000  0.24519000  0.07914000  1.0
  H  H9  1  0.79892000  0.15610000  0.90532000  1.0
  H  H10  1  0.19470000  0.99391000  0.48532000  1.0
  H  H11  1  0.15509000  0.20980000  0.77078000  1.0
  H  H12  1  0.81114000  0.50411000  0.50765000  1.0
  H  H13  1  0.84052000  0.45281000  0.22042000  1.0
  H  H14  1  0.77548000  0.65710000  0.81667000  1.0
  H  H15  1  0.59540000  0.71720000  0.72314000  1.0
  H  H16  1  0.22732000  0.86413000  0.17903000  1.0
  H  H17  1  0.40778000  0.01265000  0.27196000  1.0
  C  C18  1  0.20321000  0.96742000  0.90175000  1.0
  C  C19  1  0.37477000  0.05772000  0.00780000  1.0
  C  C20  1  0.61766000  0.04811000  0.98438000  1.0
  C  C21  1  0.79018000  0.07435000  0.09215000  1.0
  C  C22  1  0.15186000  0.38704000  0.56652000  1.0
  C  C23  1  0.34201000  0.24801000  0.56609000  1.0
  C  C24  1  0.37419000  0.18851000  0.67257000  1.0
  C  C25  1  0.50899000  0.01102000  0.67103000  1.0
  C  C26  1  0.85254000  0.82499000  0.42962000  1.0
  C  C27  1  0.66202000  0.68559000  0.42891000  1.0
  C  C28  1  0.62766000  0.53012000  0.32083000  1.0
  C  C29  1  0.49167000  0.35359000  0.32107000  1.0
  O  O30  1  0.22121000  0.79543000  0.85505000  1.0
  O  O31  1  0.04950000  0.06416000  0.85921000  1.0
  O  O32  1  0.33673000  0.24468000  0.05980000  1.0
  O  O33  1  0.64830000  0.17673000  0.92473000  1.0
  O  O34  1  0.78229000  0.95116000  0.14359000  1.0
  O  O35  1  0.93469000  0.21804000  0.13115000  1.0
  O  O36  1  0.97744000  0.34174000  0.48690000  1.0
  O  O37  1  0.17388000  0.53460000  0.64295000  1.0
  O  O38  1  0.28703000  0.09578000  0.46998000  1.0
  O  O39  1  0.15384000  0.15693000  0.69357000  1.0
  O  O40  1  0.40810000  0.87096000  0.68663000  1.0
  O  O41  1  0.71008000  0.01503000  0.65651000  1.0
  O  O42  1  0.02992000  0.84841000  0.50740000  1.0
  O  O43  1  0.82744000  0.90689000  0.35554000  1.0
  O  O44  1  0.71709000  0.61917000  0.52372000  1.0
  O  O45  1  0.84716000  0.47913000  0.29855000  1.0
  O  O46  1  0.59390000  0.19965000  0.30658000  1.0
  O  O47  1  0.28940000  0.36983000  0.33400000  1.0
  O  O48  1  0.74790000  0.66241000  0.74175000  1.0
  O  O49  1  0.25561000  0.93977000  0.25384000  1.0
