# generated using pymatgen
data_CuH12C7N2O3
_symmetry_space_group_name_H-M   'P 1'
_cell_length_a   5.27031000
_cell_length_b   9.30761000
_cell_length_c   10.51890000
_cell_angle_alpha   63.75200000
_cell_angle_beta   88.32740000
_cell_angle_gamma   89.99250000
_symmetry_Int_Tables_number   1
_chemical_formula_structural   CuH12C7N2O3
_chemical_formula_sum   'Cu2 H24 C14 N4 O6'
_cell_volume   462.54476561
_cell_formula_units_Z   2
loop_
 _symmetry_equiv_pos_site_id
 _symmetry_equiv_pos_as_xyz
  1  'x, y, z'
loop_
 _atom_site_type_symbol
 _atom_site_label
 _atom_site_symmetry_multiplicity
 _atom_site_fract_x
 _atom_site_fract_y
 _atom_site_fract_z
 _atom_site_occupancy
  Cu  Cu0  1  0.93017000  0.96512000  0.61168000  1.0
  Cu  Cu1  1  0.06984000  0.57659000  0.38841000  1.0
  H  H2  1  0.87416000  0.66589000  0.69159000  1.0
  H  H3  1  0.12622000  0.35723000  0.30830000  1.0
  H  H4  1  0.95124000  0.71633000  0.82174000  1.0
  H  H5  1  0.04901000  0.53789000  0.17824000  1.0
  H  H6  1  0.52270000  0.64541000  0.89591000  1.0
  H  H7  1  0.47755000  0.54121000  0.10404000  1.0
  H  H8  1  0.44828000  0.68845000  0.72009000  1.0
  H  H9  1  0.55202000  0.40826000  0.27992000  1.0
  H  H10  1  0.39800000  0.21517000  0.58709000  1.0
  H  H11  1  0.60187000  0.80219000  0.41287000  1.0
  H  H12  1  0.39179000  0.12579000  0.84443000  1.0
  H  H13  1  0.60811000  0.96999000  0.15557000  1.0
  H  H14  1  0.85356000  0.06472000  0.89144000  1.0
  H  H15  1  0.14647000  0.95604000  0.10835000  1.0
  H  H16  1  0.74432000  0.19824000  0.95985000  1.0
  H  H17  1  0.25545000  0.15785000  0.04019000  1.0
  H  H18  1  0.92886000  0.27272000  0.79957000  1.0
  H  H19  1  0.07081000  0.07195000  0.20039000  1.0
  H  H20  1  0.37725000  0.39213000  0.83691000  1.0
  H  H21  1  0.62263000  0.22875000  0.16301000  1.0
  H  H22  1  0.26563000  0.40636000  0.67390000  1.0
  H  H23  1  0.73435000  0.07995000  0.32608000  1.0
  H  H24  1  0.57617000  0.47400000  0.67997000  1.0
  H  H25  1  0.42374000  0.15395000  0.32004000  1.0
  C  C26  1  0.56066000  0.72972000  0.78411000  1.0
  C  C27  1  0.43962000  0.51361000  0.21593000  1.0
  C  C28  1  0.46224000  0.89444000  0.75867000  1.0
  C  C29  1  0.53784000  0.65288000  0.24145000  1.0
  C  C30  1  0.57428000  0.17987000  0.64780000  1.0
  C  C31  1  0.42562000  0.82758000  0.35216000  1.0
  C  C32  1  0.79309000  0.27756000  0.54717000  1.0
  C  C33  1  0.20679000  0.82461000  0.45286000  1.0
  C  C34  1  0.53712000  0.21442000  0.77861000  1.0
  C  C35  1  0.46273000  0.99286000  0.22138000  1.0
  C  C36  1  0.77970000  0.18527000  0.86201000  1.0
  C  C37  1  0.22015000  0.04703000  0.13796000  1.0
  C  C38  1  0.43301000  0.38124000  0.73996000  1.0
  C  C39  1  0.56681000  0.12105000  0.26003000  1.0
  N  N40  1  0.82955000  0.73534000  0.74182000  1.0
  N  N41  1  0.17062000  0.47693000  0.25823000  1.0
  N  N42  1  0.62755000  0.01271000  0.68879000  1.0
  N  N43  1  0.37244000  0.70134000  0.31127000  1.0
  O  O44  1  0.96356000  0.20448000  0.50908000  1.0
  O  O45  1  0.03652000  0.71336000  0.49107000  1.0
  O  O46  1  0.79645000  0.42829000  0.50463000  1.0
  O  O47  1  0.20334000  0.93289000  0.49531000  1.0
  O  O48  1  0.23850000  0.90473000  0.80045000  1.0
  O  O49  1  0.76158000  0.70490000  0.19966000  1.0
