# generated using pymatgen
data_AlH15(C11O2)3
_symmetry_space_group_name_H-M   'P 1'
_cell_length_a   3.98542000
_cell_length_b   20.44470000
_cell_length_c   20.46230000
_cell_angle_alpha   60.06070000
_cell_angle_beta   87.22690000
_cell_angle_gamma   87.09570000
_symmetry_Int_Tables_number   1
_chemical_formula_structural   AlH15(C11O2)3
_chemical_formula_sum   'Al1 H15 C33 O6'
_cell_volume   1442.42212231
_cell_formula_units_Z   1
loop_
 _symmetry_equiv_pos_site_id
 _symmetry_equiv_pos_as_xyz
  1  'x, y, z'
loop_
 _atom_site_type_symbol
 _atom_site_label
 _atom_site_symmetry_multiplicity
 _atom_site_fract_x
 _atom_site_fract_y
 _atom_site_fract_z
 _atom_site_occupancy
  Al  Al0  1  0.03955000  0.49967000  0.49966000  1.0
  H  H1  1  0.84066000  0.30946000  0.70679000  1.0
  H  H2  1  0.81848000  0.23667000  0.84780000  1.0
  H  H3  1  0.23844000  0.70922000  0.30694000  1.0
  H  H4  1  0.23783000  0.85037000  0.23545000  1.0
  H  H5  1  0.27027000  0.30947000  0.48520000  1.0
  H  H6  1  0.27313000  0.23774000  0.41580000  1.0
  H  H7  1  0.78624000  0.70694000  0.48389000  1.0
  H  H8  1  0.76431000  0.84811000  0.41575000  1.0
  H  H9  1  0.18925000  0.48246000  0.70892000  1.0
  H  H10  1  0.18564000  0.41306000  0.84999000  1.0
  H  H11  1  0.87263000  0.47936000  0.30728000  1.0
  H  H12  1  0.85546000  0.41121000  0.23453000  1.0
  H  H13  1  0.48676000  0.09586000  0.09671000  1.0
  H  H14  1  0.52131000  0.09697000  0.30661000  1.0
  H  H15  1  0.52070000  0.30717000  0.09524000  1.0
  C  C16  1  0.52583000  0.44238000  0.61585000  1.0
  C  C17  1  0.56605000  0.44063000  0.44227000  1.0
  C  C18  1  0.52422000  0.61600000  0.44081000  1.0
  C  C19  1  0.69318000  0.33080000  0.73881000  1.0
  C  C20  1  0.68172000  0.29056000  0.81709000  1.0
  C  C21  1  0.35738000  0.74032000  0.32953000  1.0
  C  C22  1  0.35617000  0.81866000  0.28999000  1.0
  C  C23  1  0.40295000  0.33034000  0.43098000  1.0
  C  C24  1  0.40401000  0.29065000  0.39234000  1.0
  C  C25  1  0.66198000  0.73904000  0.43008000  1.0
  C  C26  1  0.65084000  0.81737000  0.39211000  1.0
  C  C27  1  0.33064000  0.42926000  0.74000000  1.0
  C  C28  1  0.32798000  0.39061000  0.81831000  1.0
  C  C29  1  0.73777000  0.42704000  0.32989000  1.0
  C  C30  1  0.72931000  0.38903000  0.28961000  1.0
  C  C31  1  0.51585000  0.40012000  0.69965000  1.0
  C  C32  1  0.50152000  0.32028000  0.85808000  1.0
  C  C33  1  0.49745000  0.28030000  0.93793000  1.0
  C  C34  1  0.49841000  0.24590000  0.00674000  1.0
  C  C35  1  0.50210000  0.20614000  0.08671000  1.0
  C  C36  1  0.51350000  0.69990000  0.39942000  1.0
  C  C37  1  0.50120000  0.85846000  0.32093000  1.0
  C  C38  1  0.49864000  0.93833000  0.28107000  1.0
  C  C39  1  0.49928000  0.00717000  0.24658000  1.0
  C  C40  1  0.50312000  0.08711000  0.20634000  1.0
  C  C41  1  0.57126000  0.39856000  0.40037000  1.0
  C  C42  1  0.56332000  0.31998000  0.32042000  1.0
  C  C43  1  0.55274000  0.28083000  0.27984000  1.0
  C  C44  1  0.53816000  0.24686000  0.24517000  1.0
  C  C45  1  0.52262000  0.20674000  0.20553000  1.0
  C  C46  1  0.49623000  0.12682000  0.12706000  1.0
  C  C47  1  0.51604000  0.12740000  0.24525000  1.0
  C  C48  1  0.51513000  0.24579000  0.12628000  1.0
  O  O49  1  0.30184000  0.58243000  0.42641000  1.0
  O  O50  1  0.28733000  0.49037000  0.58242000  1.0
  O  O51  1  0.32707000  0.42693000  0.49097000  1.0
  O  O52  1  0.75632000  0.58263000  0.48854000  1.0
  O  O53  1  0.79708000  0.48755000  0.42726000  1.0
  O  O54  1  0.77371000  0.42786000  0.58262000  1.0
