# generated using pymatgen
data_Zn4H34C36N2O13
_symmetry_space_group_name_H-M   'P 1'
_cell_length_a   17.79570000
_cell_length_b   18.64330000
_cell_length_c   23.33520000
_cell_angle_alpha   66.65280000
_cell_angle_beta   69.75960000
_cell_angle_gamma   89.95220000
_symmetry_Int_Tables_number   1
_chemical_formula_structural   Zn4H34C36N2O13
_chemical_formula_sum   'Zn8 H68 C72 N4 O26'
_cell_volume   6585.12514368
_cell_formula_units_Z   2
loop_
 _symmetry_equiv_pos_site_id
 _symmetry_equiv_pos_as_xyz
  1  'x, y, z'
loop_
 _atom_site_type_symbol
 _atom_site_label
 _atom_site_symmetry_multiplicity
 _atom_site_fract_x
 _atom_site_fract_y
 _atom_site_fract_z
 _atom_site_occupancy
  Zn  Zn0  1  0.11775000  0.53130000  0.94114000  1.0
  Zn  Zn1  1  0.97156000  0.55951000  0.05149000  1.0
  Zn  Zn2  1  0.97526000  0.38935000  0.05158000  1.0
  Zn  Zn3  1  0.93842000  0.53064000  0.93486000  1.0
  Zn  Zn4  1  0.38499000  0.97697000  0.05061000  1.0
  Zn  Zn5  1  0.52896000  0.11604000  0.93615000  1.0
  Zn  Zn6  1  0.52327000  0.94631000  0.93698000  1.0
  Zn  Zn7  1  0.56685000  0.97298000  0.05105000  1.0
  H  H8  1  0.49883000  0.86614000  0.26320000  1.0
  H  H9  1  0.43546000  0.80185000  0.38891000  1.0
  H  H10  1  0.26195000  0.87251000  0.25355000  1.0
  H  H11  1  0.24873000  0.63015000  0.73695000  1.0
  H  H12  1  0.01321000  0.63598000  0.72469000  1.0
  H  H13  1  0.07810000  0.69740000  0.59905000  1.0
  H  H14  1  0.63203000  0.01732000  0.73014000  1.0
  H  H15  1  0.70358000  0.07972000  0.60481000  1.0
  H  H16  1  0.62854000  0.24763000  0.73040000  1.0
  H  H17  1  0.87003000  0.25717000  0.25901000  1.0
  H  H18  1  0.87099000  0.48831000  0.25772000  1.0
  H  H19  1  0.81413000  0.42675000  0.38369000  1.0
  H  H20  1  0.19714000  0.30182000  0.91116000  1.0
  H  H21  1  0.12547000  0.23003000  0.98751000  1.0
  H  H22  1  0.21483000  0.13831000  0.98458000  1.0
  H  H23  1  0.28623000  0.21084000  0.90852000  1.0
  H  H24  1  0.21484000  0.12407000  0.09583000  1.0
  H  H25  1  0.28675000  0.18488000  0.10013000  1.0
  H  H26  1  0.12642000  0.21700000  0.09894000  1.0
  H  H27  1  0.19969000  0.27797000  0.10165000  1.0
  H  H28  1  0.30146000  0.39112000  0.91439000  1.0
  H  H29  1  0.30254000  0.38247000  0.99188000  1.0
  H  H30  1  0.39112000  0.28989000  0.99057000  1.0
  H  H31  1  0.39071000  0.29949000  0.91272000  1.0
  H  H32  1  0.89036000  0.80053000  0.90477000  1.0
  H  H33  1  0.88770000  0.78799000  0.98472000  1.0
  H  H34  1  0.79878000  0.88048000  0.98591000  1.0
  H  H35  1  0.80169000  0.89196000  0.90613000  1.0
  H  H36  1  0.69565000  0.77737000  0.09162000  1.0
  H  H37  1  0.62343000  0.71586000  0.08828000  1.0
  H  H38  1  0.78321000  0.68358000  0.09066000  1.0
  H  H39  1  0.71113000  0.62360000  0.08566000  1.0
  H  H40  1  0.78884000  0.71288000  0.89709000  1.0
  H  H41  1  0.71594000  0.64017000  0.97066000  1.0
  H  H42  1  0.62657000  0.73189000  0.97293000  1.0
  H  H43  1  0.69930000  0.80430000  0.89915000  1.0
  H  H44  1  0.16178000  0.79288000  0.93739000  1.0
  H  H45  1  0.24603000  0.75663000  0.89657000  1.0
  H  H46  1  0.33326000  0.85216000  0.89446000  1.0
  H  H47  1  0.24854000  0.88717000  0.93618000  1.0
  H  H48  1  0.39343000  0.74332000  0.96142000  1.0
  H  H49  1  0.35250000  0.70210000  0.05030000  1.0
  H  H50  1  0.30502000  0.64747000  0.96449000  1.0
  H  H51  1  0.26395000  0.60775000  0.05334000  1.0
  H  H52  1  0.10146000  0.73492000  0.06545000  1.0
  H  H53  1  0.14276000  0.65898000  0.11279000  1.0
  H  H54  1  0.23149000  0.75309000  0.11077000  1.0
  H  H55  1  0.18960000  0.82904000  0.06405000  1.0
  H  H56  1  0.89936000  0.26734000  0.92896000  1.0
  H  H57  1  0.85502000  0.34337000  0.88372000  1.0
  H  H58  1  0.76876000  0.24781000  0.88497000  1.0
  H  H59  1  0.81216000  0.17219000  0.93161000  1.0
  H  H60  1  0.64957000  0.29836000  0.94468000  1.0
  H  H61  1  0.60657000  0.25760000  0.03346000  1.0
  H  H62  1  0.73654000  0.39265000  0.94475000  1.0
  H  H63  1  0.69393000  0.35040000  0.03354000  1.0
  H  H64  1  0.83955000  0.20557000  0.05697000  1.0
  H  H65  1  0.75658000  0.23981000  0.10024000  1.0
  H  H66  1  0.66717000  0.14723000  0.10131000  1.0
  H  H67  1  0.75017000  0.11149000  0.05971000  1.0
  H  H68  1  0.15559000  0.78731000  0.43642000  1.0
  H  H69  1  0.14511000  0.82910000  0.35996000  1.0
  H  H70  1  0.35698000  0.72881000  0.55423000  1.0
  H  H71  1  0.36661000  0.69420000  0.63098000  1.0
  H  H72  1  0.72460000  0.35221000  0.54667000  1.0
  H  H73  1  0.67895000  0.36275000  0.62029000  1.0
  H  H74  1  0.77585000  0.15447000  0.44290000  1.0
  H  H75  1  0.80595000  0.14338000  0.36901000  1.0
  C  C76  1  0.14120000  0.63476000  0.00363000  1.0
  C  C77  1  0.90766000  0.41210000  0.17663000  1.0
  C  C78  1  0.14405000  0.36431000  0.00126000  1.0
  C  C79  1  0.86111000  0.36596000  0.99000000  1.0
  C  C80  1  0.09005000  0.59323000  0.81288000  1.0
  C  C81  1  0.86086000  0.64370000  0.98905000  1.0
  C  C82  1  0.36010000  0.14210000  0.99660000  1.0
  C  C83  1  0.58382000  0.09287000  0.81142000  1.0
  C  C84  1  0.35542000  0.86274000  0.99881000  1.0
  C  C85  1  0.64405000  0.86574000  0.99211000  1.0
  C  C86  1  0.41969000  0.91230000  0.17619000  1.0
  C  C87  1  0.64684000  0.14005000  0.99166000  1.0
  C  C88  1  0.38345000  0.87317000  0.25147000  1.0
  C  C89  1  0.43321000  0.85310000  0.28924000  1.0
  C  C90  1  0.39766000  0.81741000  0.35899000  1.0
  C  C91  1  0.31254000  0.80033000  0.39308000  1.0
  C  C92  1  0.26218000  0.82010000  0.35452000  1.0
  C  C93  1  0.29911000  0.85666000  0.28405000  1.0
  C  C94  1  0.27566000  0.76484000  0.46403000  1.0
  C  C95  1  0.23810000  0.73433000  0.52525000  1.0
  C  C96  1  0.20049000  0.69901000  0.59616000  1.0
  C  C97  1  0.25001000  0.67968000  0.63544000  1.0
  C  C98  1  0.21224000  0.64546000  0.70588000  1.0
  C  C99  1  0.12781000  0.62987000  0.73768000  1.0
  C  C100  1  0.07889000  0.64848000  0.69918000  1.0
  C  C101  1  0.11528000  0.68254000  0.62949000  1.0
  C  C102  1  0.62600000  0.12956000  0.73672000  1.0
  C  C103  1  0.64723000  0.08127000  0.70196000  1.0
  C  C104  1  0.68687000  0.11619000  0.63262000  1.0
  C  C105  1  0.70632000  0.19922000  0.59624000  1.0
  C  C106  1  0.68576000  0.24812000  0.63179000  1.0
  C  C107  1  0.64528000  0.21181000  0.70194000  1.0
  C  C108  1  0.74412000  0.23525000  0.52549000  1.0
  C  C109  1  0.77504000  0.27129000  0.46399000  1.0
  C  C110  1  0.80907000  0.30693000  0.39306000  1.0
  C  C111  1  0.82499000  0.25758000  0.35780000  1.0
  C  C112  1  0.85705000  0.29342000  0.28720000  1.0
  C  C113  1  0.87320000  0.37567000  0.25175000  1.0
  C  C114  1  0.85788000  0.42437000  0.28633000  1.0
  C  C115  1  0.82639000  0.38992000  0.35607000  1.0
  C  C116  1  0.18887000  0.25960000  0.96256000  1.0
  C  C117  1  0.24811000  0.19877000  0.96082000  1.0
  C  C118  1  0.30323000  0.20298000  0.99855000  1.0
  C  C119  1  0.24842000  0.18435000  0.07201000  1.0
  C  C120  1  0.18998000  0.24583000  0.07351000  1.0
  C  C121  1  0.20385000  0.30581000  0.00110000  1.0
  C  C122  1  0.29209000  0.34809000  0.96567000  1.0
  C  C123  1  0.35090000  0.28715000  0.96455000  1.0
  C  C124  1  0.84949000  0.78684000  0.95676000  1.0
  C  C125  1  0.79038000  0.84801000  0.95768000  1.0
  C  C126  1  0.70171000  0.80534000  0.99072000  1.0
  C  C127  1  0.68699000  0.74519000  0.06331000  1.0
  C  C128  1  0.74535000  0.68373000  0.06216000  1.0
  C  C129  1  0.80127000  0.70245000  0.98881000  1.0
  C  C130  1  0.74908000  0.70034000  0.94900000  1.0
  C  C131  1  0.68996000  0.76104000  0.95036000  1.0
  C  C132  1  0.21847000  0.77091000  0.93996000  1.0
  C  C133  1  0.27641000  0.83384000  0.93878000  1.0
  C  C134  1  0.29647000  0.79991000  0.00309000  1.0
  C  C135  1  0.33646000  0.72574000  0.00547000  1.0
  C  C136  1  0.27784000  0.66276000  0.00730000  1.0
  C  C137  1  0.19808000  0.69410000  0.00545000  1.0
  C  C138  1  0.15879000  0.71368000  0.06629000  1.0
  C  C139  1  0.21728000  0.77612000  0.06509000  1.0
  C  C140  1  0.84133000  0.28791000  0.92926000  1.0
  C  C141  1  0.78341000  0.22477000  0.93039000  1.0
  C  C142  1  0.70368000  0.19988000  0.99314000  1.0
  C  C143  1  0.66435000  0.27460000  0.98999000  1.0
  C  C144  1  0.72232000  0.33674000  0.98983000  1.0
  C  C145  1  0.80181000  0.30515000  0.99199000  1.0
  C  C146  1  0.78262000  0.22739000  0.05564000  1.0
  C  C147  1  0.72380000  0.16550000  0.05674000  1.0
  N  N148  1  0.17917000  0.80110000  0.38640000  1.0
  N  N149  1  0.33317000  0.69232000  0.60411000  1.0
  N  N150  1  0.70784000  0.32893000  0.59742000  1.0
  N  N151  1  0.81127000  0.17656000  0.39318000  1.0
  O  O152  1  0.00060000  0.50310000  0.99367000  1.0
  O  O153  1  0.17131000  0.60664000  0.96021000  1.0
  O  O154  1  0.91855000  0.48760000  0.14709000  1.0
  O  O155  1  0.07043000  0.33552000  0.04090000  1.0
  O  O156  1  0.06762000  0.61908000  0.04431000  1.0
  O  O157  1  0.17128000  0.43686000  0.96099000  1.0
  O  O158  1  0.92374000  0.36519000  0.14773000  1.0
  O  O159  1  0.90094000  0.33934000  0.02806000  1.0
  O  O160  1  0.01256000  0.57968000  0.83960000  1.0
  O  O161  1  0.86763000  0.43828000  0.94988000  1.0
  O  O162  1  0.13846000  0.57840000  0.84438000  1.0
  O  O163  1  0.90116000  0.63673000  0.02637000  1.0
  O  O164  1  0.86653000  0.60651000  0.95254000  1.0
  O  O165  1  0.50115000  0.00253000  0.99496000  1.0
  O  O166  1  0.32852000  0.06924000  0.03169000  1.0
  O  O167  1  0.56466000  0.13965000  0.84024000  1.0
  O  O168  1  0.42693000  0.87818000  0.95423000  1.0
  O  O169  1  0.43477000  0.16839000  0.95957000  1.0
  O  O170  1  0.32928000  0.89583000  0.03882000  1.0
  O  O171  1  0.57031000  0.01730000  0.84082000  1.0
  O  O172  1  0.60335000  0.87737000  0.95471000  1.0
  O  O173  1  0.49698000  0.92263000  0.14780000  1.0
  O  O174  1  0.64093000  0.90010000  0.03047000  1.0
  O  O175  1  0.36994000  0.93240000  0.14621000  1.0
  O  O176  1  0.61734000  0.16671000  0.94587000  1.0
  O  O177  1  0.63329000  0.06861000  0.03532000  1.0
