# generated using pymatgen
data_CuHg3H38C34N8(ClO5)2
_symmetry_space_group_name_H-M   'P 1'
_cell_length_a   8.14845000
_cell_length_b   10.33230000
_cell_length_c   12.45050000
_cell_angle_alpha   83.15160000
_cell_angle_beta   81.73870000
_cell_angle_gamma   85.03910000
_symmetry_Int_Tables_number   1
_chemical_formula_structural   CuHg3H38C34N8(ClO5)2
_chemical_formula_sum   'Cu1 Hg3 H38 C34 N8 Cl2 O10'
_cell_volume   1027.38841993
_cell_formula_units_Z   1
loop_
 _symmetry_equiv_pos_site_id
 _symmetry_equiv_pos_as_xyz
  1  'x, y, z'
loop_
 _atom_site_type_symbol
 _atom_site_label
 _atom_site_symmetry_multiplicity
 _atom_site_fract_x
 _atom_site_fract_y
 _atom_site_fract_z
 _atom_site_occupancy
  Cu  Cu0  1  0.00000000  0.50000000  0.00000000  1.0
  Hg  Hg1  1  0.77406000  0.12368000  0.41004000  1.0
  Hg  Hg2  1  0.22594000  0.87632000  0.58996000  1.0
  Hg  Hg3  1  0.50000000  0.49999000  0.50000000  1.0
  H  H4  1  0.91043000  0.36082000  0.50112000  1.0
  H  H5  1  0.08957000  0.63918000  0.49889000  1.0
  H  H6  1  0.55155000  0.08216000  0.64503000  1.0
  H  H7  1  0.44845000  0.91784000  0.35497000  1.0
  H  H8  1  0.53059000  0.18549000  0.81682000  1.0
  H  H9  1  0.46940000  0.81449000  0.18319000  1.0
  H  H10  1  0.86882000  0.45485000  0.67815000  1.0
  H  H11  1  0.13117000  0.54514000  0.32187000  1.0
  H  H12  1  0.57981000  0.08336000  0.20874000  1.0
  H  H13  1  0.42019000  0.91664000  0.79126000  1.0
  H  H14  1  0.64982000  0.96029000  0.04636000  1.0
  H  H15  1  0.35019000  0.03972000  0.95364000  1.0
  H  H16  1  0.12439000  0.85123000  0.11989000  1.0
  H  H17  1  0.87562000  0.14878000  0.88010000  1.0
  H  H18  1  0.07567000  0.96581000  0.28712000  1.0
  H  H19  1  0.92434000  0.03419000  0.71288000  1.0
  H  H20  1  0.74774000  0.33230000  0.12562000  1.0
  H  H21  1  0.25227000  0.66770000  0.87437000  1.0
  H  H22  1  0.55589000  0.33109000  0.30013000  1.0
  H  H23  1  0.44412000  0.66891000  0.69986000  1.0
  H  H24  1  0.95970000  0.66217000  0.18370000  1.0
  H  H25  1  0.04030000  0.33783000  0.81629000  1.0
  H  H26  1  0.78309000  0.67332000  0.36325000  1.0
  H  H27  1  0.21691000  0.32668000  0.63674000  1.0
  H  H28  1  0.31613000  0.41067000  0.18842000  1.0
  H  H29  1  0.68387000  0.58934000  0.81158000  1.0
  H  H30  1  0.48521000  0.43978000  0.08331000  1.0
  H  H31  1  0.51479000  0.56022000  0.91669000  1.0
  H  H32  1  0.34704000  0.34716000  0.95187000  1.0
  H  H33  1  0.65296000  0.65284000  0.04813000  1.0
  H  H34  1  0.36092000  0.23651000  0.07176000  1.0
  H  H35  1  0.63908000  0.76349000  0.92824000  1.0
  H  H36  1  0.27943000  0.61540000  0.12731000  1.0
  H  H37  1  0.72056000  0.38460000  0.87269000  1.0
  H  H38  1  0.07742000  0.30063000  0.13330000  1.0
  H  H39  1  0.92258000  0.69937000  0.86670000  1.0
  H  H40  1  0.09386000  0.24547000  0.01128000  1.0
  H  H41  1  0.90614000  0.75453000  0.98872000  1.0
  C  C42  1  0.82399000  0.31807000  0.56840000  1.0
  C  C43  1  0.17601000  0.68193000  0.43161000  1.0
  C  C44  1  0.62528000  0.16452000  0.64751000  1.0
  C  C45  1  0.37472000  0.83547000  0.35249000  1.0
  C  C46  1  0.61360000  0.22160000  0.74461000  1.0
  C  C47  1  0.38639000  0.77839000  0.25539000  1.0
  C  C48  1  0.80291000  0.37050000  0.66798000  1.0
  C  C49  1  0.19709000  0.62950000  0.33203000  1.0
  C  C50  1  0.82099000  0.03391000  0.26473000  1.0
  C  C51  1  0.17901000  0.96610000  0.73527000  1.0
  C  C52  1  0.73457000  0.21156000  0.55637000  1.0
  C  C53  1  0.26543000  0.78844000  0.44363000  1.0
  C  C54  1  0.70276000  0.03309000  0.19316000  1.0
  C  C55  1  0.29725000  0.96691000  0.80684000  1.0
  C  C56  1  0.74153000  0.96393000  0.10200000  1.0
  C  C57  1  0.25848000  0.03608000  0.89799000  1.0
  C  C58  1  0.00430000  0.90328000  0.14281000  1.0
  C  C59  1  0.99571000  0.09672000  0.85718000  1.0
  C  C60  1  0.97650000  0.96814000  0.23651000  1.0
  C  C61  1  0.02350000  0.03187000  0.76349000  1.0
  C  C62  1  0.75128000  0.40542000  0.18132000  1.0
  C  C63  1  0.24872000  0.59458000  0.81867000  1.0
  C  C64  1  0.64557000  0.40565000  0.27957000  1.0
  C  C65  1  0.35444000  0.59435000  0.72042000  1.0
  C  C66  1  0.86913000  0.59039000  0.21361000  1.0
  C  C67  1  0.13087000  0.40961000  0.78638000  1.0
  C  C68  1  0.76878000  0.59598000  0.31356000  1.0
  C  C69  1  0.23122000  0.40402000  0.68643000  1.0
  C  C70  1  0.34918000  0.43625000  0.10007000  1.0
  C  C71  1  0.65082000  0.56376000  0.89993000  1.0
  C  C72  1  0.30087000  0.32994000  0.03930000  1.0
  C  C73  1  0.69913000  0.67006000  0.96071000  1.0
  C  C74  1  0.65263000  0.50201000  0.34885000  1.0
  C  C75  1  0.34737000  0.49798000  0.65115000  1.0
  N  N76  1  0.70168000  0.32203000  0.75580000  1.0
  N  N77  1  0.29831000  0.67795000  0.24421000  1.0
  N  N78  1  0.88860000  0.89793000  0.07703000  1.0
  N  N79  1  0.11141000  0.10208000  0.92297000  1.0
  N  N80  1  0.86082000  0.49713000  0.14823000  1.0
  N  N81  1  0.13919000  0.50287000  0.85176000  1.0
  N  N82  1  0.11850000  0.32297000  0.05179000  1.0
  N  N83  1  0.88150000  0.67704000  0.94821000  1.0
  Cl  Cl84  1  0.79046000  0.77668000  0.62741000  1.0
  Cl  Cl85  1  0.20954000  0.22333000  0.37259000  1.0
  O  O86  1  0.72828000  0.68467000  0.56506000  1.0
  O  O87  1  0.27172000  0.31534000  0.43494000  1.0
  O  O88  1  0.92185000  0.70906000  0.68732000  1.0
  O  O89  1  0.07816000  0.29095000  0.31268000  1.0
  O  O90  1  0.86020000  0.88484000  0.55324000  1.0
  O  O91  1  0.13980000  0.11517000  0.44676000  1.0
  O  O92  1  0.65462000  0.82685000  0.70502000  1.0
  O  O93  1  0.34539000  0.17316000  0.29499000  1.0
  O  O94  1  0.26772000  0.56020000  0.06701000  1.0
  O  O95  1  0.73228000  0.43980000  0.93299000  1.0
