# generated using pymatgen
data_Zn4H10C22N4O13
_symmetry_space_group_name_H-M   'P 1'
_cell_length_a   15.94850000
_cell_length_b   16.01820000
_cell_length_c   17.04810000
_cell_angle_alpha   117.34630000
_cell_angle_beta   117.57100000
_cell_angle_gamma   90.12100000
_symmetry_Int_Tables_number   1
_chemical_formula_structural   Zn4H10C22N4O13
_chemical_formula_sum   'Zn8 H20 C44 N8 O26'
_cell_volume   3299.20435780
_cell_formula_units_Z   2
loop_
 _symmetry_equiv_pos_site_id
 _symmetry_equiv_pos_as_xyz
  1  'x, y, z'
loop_
 _atom_site_type_symbol
 _atom_site_label
 _atom_site_symmetry_multiplicity
 _atom_site_fract_x
 _atom_site_fract_y
 _atom_site_fract_z
 _atom_site_occupancy
  Zn  Zn0  1  0.29483000  0.89408000  0.59077000  1.0
  Zn  Zn1  1  0.89451000  0.29349000  0.58963000  1.0
  Zn  Zn2  1  0.29368000  0.69251000  0.58713000  1.0
  Zn  Zn3  1  0.70632000  0.30749000  0.41287000  1.0
  Zn  Zn4  1  0.10549000  0.70651000  0.41037000  1.0
  Zn  Zn5  1  0.70517000  0.10592000  0.40922000  1.0
  Zn  Zn6  1  0.30800000  0.70775000  0.41258000  1.0
  Zn  Zn7  1  0.69200000  0.29225000  0.58742000  1.0
  H  H8  1  0.66446000  0.97517000  0.07233000  1.0
  H  H9  1  0.49291000  0.30372000  0.02439000  1.0
  H  H10  1  0.38988000  0.20124000  0.95422000  1.0
  H  H11  1  0.48307000  0.19151000  0.92262000  1.0
  H  H12  1  0.45713000  0.76022000  0.86480000  1.0
  H  H13  1  0.50709000  0.69628000  0.97561000  1.0
  H  H14  1  0.51693000  0.80849000  0.07738000  1.0
  H  H15  1  0.61012000  0.79876000  0.04578000  1.0
  H  H16  1  0.98253000  0.26655000  0.86351000  1.0
  H  H17  1  0.12868000  0.23193000  0.95826000  1.0
  H  H18  1  0.08468000  0.29029000  0.04403000  1.0
  H  H19  1  0.33553000  0.02483000  0.92767000  1.0
  H  H20  1  0.18155000  0.35807000  0.05322000  1.0
  H  H21  1  0.01747000  0.73345000  0.13650000  1.0
  H  H22  1  0.87133000  0.76807000  0.04174000  1.0
  H  H23  1  0.81846000  0.64194000  0.94678000  1.0
  H  H24  1  0.91533000  0.70972000  0.95597000  1.0
  H  H25  1  0.54287000  0.23978000  0.13520000  1.0
  H  H26  1  0.03942000  0.58447000  0.92745000  1.0
  H  H27  1  0.96058000  0.41553000  0.07255000  1.0
  C  C28  1  0.11246000  0.61189000  0.22053000  1.0
  C  C29  1  0.52822000  0.47467000  0.50158000  1.0
  C  C30  1  0.02673000  0.97310000  0.49993000  1.0
  C  C31  1  0.97328000  0.02691000  0.50007000  1.0
  C  C32  1  0.47178000  0.52533000  0.49843000  1.0
  C  C33  1  0.02661000  0.52777000  0.50070000  1.0
  C  C34  1  0.97340000  0.47223000  0.49931000  1.0
  C  C35  1  0.88755000  0.38811000  0.77947000  1.0
  C  C36  1  0.09093000  0.90933000  0.50017000  1.0
  C  C37  1  0.90907000  0.09067000  0.49983000  1.0
  C  C38  1  0.40564000  0.58694000  0.49640000  1.0
  C  C39  1  0.59436000  0.41306000  0.50361000  1.0
  C  C40  1  0.09050000  0.59337000  0.50208000  1.0
  C  C41  1  0.39062000  0.88334000  0.78034000  1.0
  C  C42  1  0.90950000  0.40664000  0.49793000  1.0
  C  C43  1  0.41162000  0.91144000  0.50471000  1.0
  C  C44  1  0.58838000  0.08856000  0.49529000  1.0
  C  C45  1  0.47416000  0.97463000  0.50245000  1.0
  C  C46  1  0.52583000  0.02537000  0.49755000  1.0
  C  C47  1  0.60938000  0.11666000  0.21966000  1.0
  C  C48  1  0.54917000  0.02022000  0.95981000  1.0
  C  C49  1  0.45082000  0.97978000  0.04019000  1.0
  C  C50  1  0.09874000  0.51580000  0.03282000  1.0
  C  C51  1  0.90127000  0.48421000  0.96718000  1.0
  C  C52  1  0.59067000  0.98489000  0.03914000  1.0
  C  C53  1  0.40933000  0.01511000  0.96086000  1.0
  C  C54  1  0.02173000  0.54773000  0.96052000  1.0
  C  C55  1  0.97827000  0.45227000  0.03948000  1.0
  C  C56  1  0.55281000  0.05934000  0.10480000  1.0
  C  C57  1  0.44719000  0.94066000  0.89519000  1.0
  C  C58  1  0.94428000  0.44646000  0.89454000  1.0
  C  C59  1  0.05572000  0.55354000  0.10546000  1.0
  C  C60  1  0.51062000  0.09754000  0.02874000  1.0
  C  C61  1  0.48938000  0.90245000  0.97125000  1.0
  C  C62  1  0.02065000  0.41157000  0.96470000  1.0
  C  C63  1  0.97935000  0.58843000  0.03531000  1.0
  C  C64  1  0.59889000  0.03912000  0.91633000  1.0
  C  C65  1  0.40111000  0.96088000  0.08367000  1.0
  C  C66  1  0.19985000  0.53046000  0.06379000  1.0
  C  C67  1  0.80015000  0.46954000  0.93621000  1.0
  C  C68  1  0.46982000  0.22413000  0.98693000  1.0
  C  C69  1  0.53018000  0.77587000  0.01307000  1.0
  C  C70  1  0.11232000  0.29959000  0.99906000  1.0
  C  C71  1  0.88768000  0.70041000  0.00094000  1.0
  N  N72  1  0.63984000  0.05522000  0.88079000  1.0
  N  N73  1  0.47218000  0.80400000  0.93832000  1.0
  N  N74  1  0.04345000  0.32318000  0.92379000  1.0
  N  N75  1  0.95656000  0.67683000  0.07621000  1.0
  N  N76  1  0.52782000  0.19600000  0.06168000  1.0
  N  N77  1  0.36016000  0.94478000  0.11921000  1.0
  N  N78  1  0.28190000  0.53943000  0.08603000  1.0
  N  N79  1  0.71811000  0.46058000  0.91398000  1.0
  O  O80  1  0.24995000  0.75050000  0.50022000  1.0
  O  O81  1  0.79436000  0.36072000  0.73443000  1.0
  O  O82  1  0.35926000  0.93292000  0.73707000  1.0
  O  O83  1  0.64073000  0.06708000  0.26293000  1.0
  O  O84  1  0.04892000  0.81848000  0.43471000  1.0
  O  O85  1  0.95108000  0.18153000  0.56529000  1.0
  O  O86  1  0.37270000  0.60282000  0.55582000  1.0
  O  O87  1  0.62730000  0.39718000  0.44418000  1.0
  O  O88  1  0.75004000  0.24950000  0.49978000  1.0
  O  O89  1  0.04868000  0.61957000  0.43629000  1.0
  O  O90  1  0.95132000  0.38042000  0.56371000  1.0
  O  O91  1  0.18173000  0.61761000  0.56901000  1.0
  O  O92  1  0.81827000  0.38239000  0.43099000  1.0
  O  O93  1  0.39355000  0.82029000  0.44383000  1.0
  O  O94  1  0.60644000  0.17971000  0.55617000  1.0
  O  O95  1  0.38105000  0.95333000  0.56650000  1.0
  O  O96  1  0.61895000  0.04667000  0.43350000  1.0
  O  O97  1  0.18225000  0.95105000  0.56567000  1.0
  O  O98  1  0.81775000  0.04895000  0.43433000  1.0
  O  O99  1  0.38768000  0.61870000  0.43576000  1.0
  O  O100  1  0.61233000  0.38130000  0.56425000  1.0
  O  O101  1  0.06142000  0.62962000  0.26305000  1.0
  O  O102  1  0.93859000  0.37039000  0.73695000  1.0
  O  O103  1  0.37910000  0.79106000  0.73514000  1.0
  O  O104  1  0.62090000  0.20894000  0.26486000  1.0
  O  O105  1  0.20564000  0.63927000  0.26557000  1.0
