# generated using pymatgen
data_Cu2MoH40C32(N2O)4
_symmetry_space_group_name_H-M   'P 1'
_cell_length_a   9.85526000
_cell_length_b   13.58650000
_cell_length_c   15.06890000
_cell_angle_alpha   101.97000000
_cell_angle_beta   103.54800000
_cell_angle_gamma   104.63200000
_symmetry_Int_Tables_number   1
_chemical_formula_structural   Cu2MoH40C32(N2O)4
_chemical_formula_sum   'Cu4 Mo2 H80 C64 N16 O8'
_cell_volume   1820.13107876
_cell_formula_units_Z   2
loop_
 _symmetry_equiv_pos_site_id
 _symmetry_equiv_pos_as_xyz
  1  'x, y, z'
loop_
 _atom_site_type_symbol
 _atom_site_label
 _atom_site_symmetry_multiplicity
 _atom_site_fract_x
 _atom_site_fract_y
 _atom_site_fract_z
 _atom_site_occupancy
  Cu  Cu0  1  0.07820000  0.82761000  0.02009000  1.0
  Cu  Cu1  1  0.92180000  0.17238000  0.97991000  1.0
  Cu  Cu2  1  0.59678000  0.48059000  0.94047000  1.0
  Cu  Cu3  1  0.40323000  0.51942000  0.05952000  1.0
  Mo  Mo4  1  0.74822000  0.74243000  0.08888000  1.0
  Mo  Mo5  1  0.25178000  0.25758000  0.91112000  1.0
  H  H6  1  0.69275000  0.66276000  0.87164000  1.0
  H  H7  1  0.30725000  0.33725000  0.12836000  1.0
  H  H8  1  0.58202000  0.73335000  0.74256000  1.0
  H  H9  1  0.41798000  0.26666000  0.25744000  1.0
  H  H10  1  0.33089000  0.39020000  0.77985000  1.0
  H  H11  1  0.66912000  0.60979000  0.22015000  1.0
  H  H12  1  0.21500000  0.44437000  0.64039000  1.0
  H  H13  1  0.78499000  0.55564000  0.35961000  1.0
  H  H14  1  0.24379000  0.67633000  0.62560000  1.0
  H  H15  1  0.75620000  0.32368000  0.37439000  1.0
  H  H16  1  0.40185000  0.69490000  0.58682000  1.0
  H  H17  1  0.59814000  0.30510000  0.41318000  1.0
  H  H18  1  0.38103000  0.46960000  0.51838000  1.0
  H  H19  1  0.61897000  0.53040000  0.48161000  1.0
  H  H20  1  0.39040000  0.55638000  0.44418000  1.0
  H  H21  1  0.60959000  0.44363000  0.55582000  1.0
  H  H22  1  0.28654000  0.37200000  0.34586000  1.0
  H  H23  1  0.71346000  0.62802000  0.65412000  1.0
  H  H24  1  0.14933000  0.34507000  0.40488000  1.0
  H  H25  1  0.85067000  0.65493000  0.59511000  1.0
  H  H26  1  0.20403000  0.65126000  0.42465000  1.0
  H  H27  1  0.79595000  0.34875000  0.57535000  1.0
  H  H28  1  0.06405000  0.62262000  0.48125000  1.0
  H  H29  1  0.93592000  0.37736000  0.51874000  1.0
  H  H30  1  0.95862000  0.44102000  0.38213000  1.0
  H  H31  1  0.04138000  0.55896000  0.61787000  1.0
  H  H32  1  0.97315000  0.52745000  0.30829000  1.0
  H  H33  1  0.02682000  0.47254000  0.69171000  1.0
  H  H34  1  0.96339000  0.28926000  0.25642000  1.0
  H  H35  1  0.03660000  0.71074000  0.74357000  1.0
  H  H36  1  0.10165000  0.31641000  0.19964000  1.0
  H  H37  1  0.89834000  0.68359000  0.80035000  1.0
  H  H38  1  0.73243000  0.25205000  0.14439000  1.0
  H  H39  1  0.26754000  0.74796000  0.85560000  1.0
  H  H40  1  0.56767000  0.30127000  0.02094000  1.0
  H  H41  1  0.43232000  0.69875000  0.97906000  1.0
  H  H42  1  0.09067000  0.51544000  0.15071000  1.0
  H  H43  1  0.90933000  0.48456000  0.84929000  1.0
  H  H44  1  0.90990000  0.55855000  0.03050000  1.0
  H  H45  1  0.09011000  0.44146000  0.96951000  1.0
  H  H46  1  0.05791000  0.72209000  0.16316000  1.0
  H  H47  1  0.94208000  0.27790000  0.83684000  1.0
  H  H48  1  0.23260000  0.68327000  0.29100000  1.0
  H  H49  1  0.76738000  0.31672000  0.70900000  1.0
  H  H50  1  0.40142000  0.88343000  0.07982000  1.0
  H  H51  1  0.59858000  0.11656000  0.92018000  1.0
  H  H52  1  0.58728000  0.85161000  0.20252000  1.0
  H  H53  1  0.41270000  0.14839000  0.79749000  1.0
  H  H54  1  0.48438000  0.66019000  0.33519000  1.0
  H  H55  1  0.51562000  0.33979000  0.66482000  1.0
  H  H56  1  0.63423000  0.74369000  0.31053000  1.0
  H  H57  1  0.36576000  0.25630000  0.68947000  1.0
  H  H58  1  0.60715000  0.95291000  0.38728000  1.0
  H  H59  1  0.39284000  0.04708000  0.61272000  1.0
  H  H60  1  0.76784000  0.91413000  0.41958000  1.0
  H  H61  1  0.23216000  0.08586000  0.58042000  1.0
  H  H62  1  0.74926000  0.75939000  0.48690000  1.0
  H  H63  1  0.25074000  0.24061000  0.51310000  1.0
  H  H64  1  0.57251000  0.68989000  0.49179000  1.0
  H  H65  1  0.42750000  0.31011000  0.50822000  1.0
  H  H66  1  0.57480000  0.84377000  0.61246000  1.0
  H  H67  1  0.42521000  0.15623000  0.38755000  1.0
  H  H68  1  0.73511000  0.80590000  0.65054000  1.0
  H  H69  1  0.26491000  0.19411000  0.34946000  1.0
  H  H70  1  0.78395000  0.06834000  0.54478000  1.0
  H  H71  1  0.21604000  0.93166000  0.45522000  1.0
  H  H72  1  0.60622000  0.00536000  0.55173000  1.0
  H  H73  1  0.39378000  0.99464000  0.44827000  1.0
  H  H74  1  0.70888000  0.03121000  0.71684000  1.0
  H  H75  1  0.29116000  0.96881000  0.28317000  1.0
  H  H76  1  0.88774000  0.09312000  0.70933000  1.0
  H  H77  1  0.11230000  0.90688000  0.29067000  1.0
  H  H78  1  0.68520000  0.93204000  0.82920000  1.0
  H  H79  1  0.31481000  0.06795000  0.17078000  1.0
  H  H80  1  0.09379000  0.01074000  0.76201000  1.0
  H  H81  1  0.90625000  0.98925000  0.23801000  1.0
  H  H82  1  0.19821000  0.93745000  0.89103000  1.0
  H  H83  1  0.80180000  0.06255000  0.10899000  1.0
  H  H84  1  0.80129000  0.85743000  0.95258000  1.0
  H  H85  1  0.19871000  0.14257000  0.04741000  1.0
  C  C86  1  0.38753000  0.59433000  0.67957000  1.0
  C  C87  1  0.61247000  0.40567000  0.32044000  1.0
  C  C88  1  0.58577000  0.61744000  0.81944000  1.0
  C  C89  1  0.41423000  0.38256000  0.18055000  1.0
  C  C90  1  0.52313000  0.65573000  0.74683000  1.0
  C  C91  1  0.47687000  0.34427000  0.25317000  1.0
  C  C92  1  0.38540000  0.46435000  0.76749000  1.0
  C  C93  1  0.61460000  0.53565000  0.23251000  1.0
  C  C94  1  0.31955000  0.49623000  0.69128000  1.0
  C  C95  1  0.68045000  0.50377000  0.30872000  1.0
  C  C96  1  0.31617000  0.63432000  0.60049000  1.0
  C  C97  1  0.68382000  0.36568000  0.39951000  1.0
  C  C98  1  0.31418000  0.49888000  0.46742000  1.0
  C  C99  1  0.68582000  0.50113000  0.53258000  1.0
  C  C100  1  0.21720000  0.40728000  0.38110000  1.0
  C  C101  1  0.78281000  0.59272000  0.61889000  1.0
  C  C102  1  0.13473000  0.58814000  0.44658000  1.0
  C  C103  1  0.86524000  0.41185000  0.55341000  1.0
  C  C104  1  0.03750000  0.49700000  0.35949000  1.0
  C  C105  1  0.96248000  0.50299000  0.64051000  1.0
  C  C106  1  0.02955000  0.35183000  0.23222000  1.0
  C  C107  1  0.97044000  0.64817000  0.76777000  1.0
  C  C108  1  0.92661000  0.37953000  0.15787000  1.0
  C  C109  1  0.07336000  0.62047000  0.84212000  1.0
  C  C110  1  0.77746000  0.31980000  0.12000000  1.0
  C  C111  1  0.22251000  0.68020000  0.87999000  1.0
  C  C112  1  0.68427000  0.34678000  0.05126000  1.0
  C  C113  1  0.31571000  0.65324000  0.94873000  1.0
  C  C114  1  0.97546000  0.46630000  0.12408000  1.0
  C  C115  1  0.02454000  0.53370000  0.87592000  1.0
  C  C116  1  0.87631000  0.48979000  0.05627000  1.0
  C  C117  1  0.12370000  0.51021000  0.94373000  1.0
  C  C118  1  0.17638000  0.74900000  0.17502000  1.0
  C  C119  1  0.82361000  0.25099000  0.82499000  1.0
  C  C120  1  0.27445000  0.72899000  0.24615000  1.0
  C  C121  1  0.72554000  0.27100000  0.75386000  1.0
  C  C122  1  0.36766000  0.84064000  0.12869000  1.0
  C  C123  1  0.63234000  0.15936000  0.87132000  1.0
  C  C124  1  0.47157000  0.82311000  0.19829000  1.0
  C  C125  1  0.52842000  0.17689000  0.80172000  1.0
  C  C126  1  0.42563000  0.76553000  0.25864000  1.0
  C  C127  1  0.57436000  0.23446000  0.74137000  1.0
  C  C128  1  0.53403000  0.74137000  0.33259000  1.0
  C  C129  1  0.46597000  0.25862000  0.66741000  1.0
  C  C130  1  0.66623000  0.91875000  0.43782000  1.0
  C  C131  1  0.33377000  0.08125000  0.56218000  1.0
  C  C132  1  0.64541000  0.76899000  0.49879000  1.0
  C  C133  1  0.35460000  0.23101000  0.50121000  1.0
  C  C134  1  0.68000000  0.84012000  0.59844000  1.0
  C  C135  1  0.32001000  0.15988000  0.40156000  1.0
  C  C136  1  0.70682000  0.99100000  0.53823000  1.0
  C  C137  1  0.29318000  0.00900000  0.46177000  1.0
  C  C138  1  0.81014000  0.01668000  0.70476000  1.0
  C  C139  1  0.18990000  0.98332000  0.29524000  1.0
  C  C140  1  0.87831000  0.97377000  0.78204000  1.0
  C  C141  1  0.12172000  0.02623000  0.21796000  1.0
  C  C142  1  0.79840000  0.93213000  0.83869000  1.0
  C  C143  1  0.20161000  0.06787000  0.16130000  1.0
  C  C144  1  0.02455000  0.97463000  0.80084000  1.0
  C  C145  1  0.97548000  0.02537000  0.19917000  1.0
  C  C146  1  0.08305000  0.93350000  0.87241000  1.0
  C  C147  1  0.91697000  0.06651000  0.12760000  1.0
  C  C148  1  0.86217000  0.88995000  0.90774000  1.0
  C  C149  1  0.13785000  0.11005000  0.09226000  1.0
  N  N150  1  0.73230000  0.43079000  0.01896000  1.0
  N  N151  1  0.26770000  0.56922000  0.98104000  1.0
  N  N152  1  0.22148000  0.80418000  0.11618000  1.0
  N  N153  1  0.77851000  0.19581000  0.88383000  1.0
  N  N154  1  0.22570000  0.55002000  0.51413000  1.0
  N  N155  1  0.77429000  0.44998000  0.48587000  1.0
  N  N156  1  0.12394000  0.44305000  0.31282000  1.0
  N  N157  1  0.87606000  0.55695000  0.68717000  1.0
  N  N158  1  0.51887000  0.52261000  0.83053000  1.0
  N  N159  1  0.48114000  0.47739000  0.16947000  1.0
  N  N160  1  0.57096000  0.81262000  0.42847000  1.0
  N  N161  1  0.42904000  0.18738000  0.57154000  1.0
  N  N162  1  0.77633000  0.94564000  0.60941000  1.0
  N  N163  1  0.22368000  0.05436000  0.39058000  1.0
  N  N164  1  0.00321000  0.88948000  0.92442000  1.0
  N  N165  1  0.99680000  0.11052000  0.07558000  1.0
  O  O166  1  0.60672000  0.61509000  0.05131000  1.0
  O  O167  1  0.39327000  0.38492000  0.94869000  1.0
  O  O168  1  0.82811000  0.77917000  0.21360000  1.0
  O  O169  1  0.17192000  0.22082000  0.78640000  1.0
  O  O170  1  0.66858000  0.83718000  0.05490000  1.0
  O  O171  1  0.33144000  0.16284000  0.94511000  1.0
  O  O172  1  0.88401000  0.73031000  0.02871000  1.0
  O  O173  1  0.11599000  0.26968000  0.97128000  1.0
