# generated using pymatgen
data_MnAg2H8(C7N3)2
_symmetry_space_group_name_H-M   'P 1'
_cell_length_a   10.46920000
_cell_length_b   10.46920000
_cell_length_c   12.19680000
_cell_angle_alpha   90.00000000
_cell_angle_beta   90.00000000
_cell_angle_gamma   112.33100000
_symmetry_Int_Tables_number   1
_chemical_formula_structural   MnAg2H8(C7N3)2
_chemical_formula_sum   'Mn2 Ag4 H16 C28 N12'
_cell_volume   1236.56410728
_cell_formula_units_Z   2
loop_
 _symmetry_equiv_pos_site_id
 _symmetry_equiv_pos_as_xyz
  1  'x, y, z'
loop_
 _atom_site_type_symbol
 _atom_site_label
 _atom_site_symmetry_multiplicity
 _atom_site_fract_x
 _atom_site_fract_y
 _atom_site_fract_z
 _atom_site_occupancy
  Mn  Mn0  1  0.50000000  0.50000000  0.00000000  1.0
  Mn  Mn1  1  0.00000000  0.00000000  0.50000000  1.0
  Ag  Ag2  1  0.24578000  0.75422000  0.24313000  1.0
  Ag  Ag3  1  0.25422000  0.74578000  0.74313000  1.0
  Ag  Ag4  1  0.74578000  0.25422000  0.25687000  1.0
  Ag  Ag5  1  0.75423000  0.24578000  0.75687000  1.0
  H  H6  1  0.69505000  0.71137000  0.16852000  1.0
  H  H7  1  0.80495000  0.78863000  0.66852000  1.0
  H  H8  1  0.78863000  0.80495000  0.33147000  1.0
  H  H9  1  0.71137000  0.69505000  0.83148000  1.0
  H  H10  1  0.30495000  0.28863000  0.83148000  1.0
  H  H11  1  0.19505000  0.21137000  0.33147000  1.0
  H  H12  1  0.21137000  0.19505000  0.66852000  1.0
  H  H13  1  0.28863000  0.30495000  0.16853000  1.0
  H  H14  1  0.90776000  0.92335000  0.17748000  1.0
  H  H15  1  0.59224000  0.57665000  0.67748000  1.0
  H  H16  1  0.57665000  0.59224000  0.32252000  1.0
  H  H17  1  0.92335000  0.90776000  0.82252000  1.0
  H  H18  1  0.09224000  0.07665000  0.82252000  1.0
  H  H19  1  0.40776000  0.42335000  0.32252000  1.0
  H  H20  1  0.42335000  0.40776000  0.67748000  1.0
  H  H21  1  0.07665000  0.09224000  0.17748000  1.0
  C  C22  1  0.34942000  0.65058000  0.16809000  1.0
  C  C23  1  0.15058000  0.84942000  0.66809000  1.0
  C  C24  1  0.84942000  0.15058000  0.33191000  1.0
  C  C25  1  0.65058000  0.34942000  0.83191000  1.0
  C  C26  1  0.14273000  0.85727000  0.31978000  1.0
  C  C27  1  0.35727000  0.64273000  0.81978000  1.0
  C  C28  1  0.64273000  0.35726000  0.18022000  1.0
  C  C29  1  0.85727000  0.14273000  0.68022000  1.0
  C  C30  1  0.74993000  0.75877000  0.09397000  1.0
  C  C31  1  0.75007000  0.74124000  0.59397000  1.0
  C  C32  1  0.74123000  0.75007000  0.40603000  1.0
  C  C33  1  0.75877000  0.74993000  0.90603000  1.0
  C  C34  1  0.25007000  0.24123000  0.90603000  1.0
  C  C35  1  0.24993000  0.25876000  0.40603000  1.0
  C  C36  1  0.25876000  0.24993000  0.59397000  1.0
  C  C37  1  0.24123000  0.25007000  0.09396000  1.0
  C  C38  1  0.86898000  0.87784000  0.09796000  1.0
  C  C39  1  0.63102000  0.62216000  0.59796000  1.0
  C  C40  1  0.62216000  0.63102000  0.40204000  1.0
  C  C41  1  0.87784000  0.86898000  0.90204000  1.0
  C  C42  1  0.13102000  0.12216000  0.90204000  1.0
  C  C43  1  0.36898000  0.37784000  0.40204000  1.0
  C  C44  1  0.37784000  0.36898000  0.59796000  1.0
  C  C45  1  0.12216000  0.13102000  0.09796000  1.0
  C  C46  1  0.93652000  0.93652000  0.00000000  1.0
  C  C47  1  0.56348000  0.56348000  0.50000000  1.0
  C  C48  1  0.06348000  0.06348000  0.00000000  1.0
  C  C49  1  0.43652000  0.43652000  0.50000000  1.0
  N  N50  1  0.40889000  0.59111000  0.12301000  1.0
  N  N51  1  0.09111000  0.90889000  0.62301000  1.0
  N  N52  1  0.90889000  0.09111000  0.37699000  1.0
  N  N53  1  0.59111000  0.40889000  0.87699000  1.0
  N  N54  1  0.08429000  0.91571000  0.36749000  1.0
  N  N55  1  0.41571000  0.58429000  0.86749000  1.0
  N  N56  1  0.58429000  0.41571000  0.13251000  1.0
  N  N57  1  0.91571000  0.08429000  0.63251000  1.0
  N  N58  1  0.69472000  0.69472000  0.00000000  1.0
  N  N59  1  0.80528000  0.80528000  0.50000000  1.0
  N  N60  1  0.30528000  0.30528000  0.00000000  1.0
  N  N61  1  0.19472000  0.19472000  0.50000000  1.0
