# generated using pymatgen
data_SmH8C12N2O7
_symmetry_space_group_name_H-M   'P 1'
_cell_length_a   8.99626000
_cell_length_b   11.90230000
_cell_length_c   13.54700000
_cell_angle_alpha   90.00340000
_cell_angle_beta   90.00190000
_cell_angle_gamma   90.91400000
_symmetry_Int_Tables_number   1
_chemical_formula_structural   SmH8C12N2O7
_chemical_formula_sum   'Sm4 H32 C48 N8 O28'
_cell_volume   1450.37651749
_cell_formula_units_Z   4
loop_
 _symmetry_equiv_pos_site_id
 _symmetry_equiv_pos_as_xyz
  1  'x, y, z'
loop_
 _atom_site_type_symbol
 _atom_site_label
 _atom_site_symmetry_multiplicity
 _atom_site_fract_x
 _atom_site_fract_y
 _atom_site_fract_z
 _atom_site_occupancy
  Sm  Sm0  1  0.23630000  0.56758000  0.86310000  1.0
  Sm  Sm1  1  0.76368000  0.93242000  0.36310000  1.0
  Sm  Sm2  1  0.76370000  0.43242000  0.13691000  1.0
  Sm  Sm3  1  0.23632000  0.06758000  0.63691000  1.0
  H  H4  1  0.87208000  0.16470000  0.97306000  1.0
  H  H5  1  0.12791000  0.33529000  0.47304000  1.0
  H  H6  1  0.12790000  0.83529000  0.02695000  1.0
  H  H7  1  0.87211000  0.66470000  0.52694000  1.0
  H  H8  1  0.85201000  0.96372000  0.98349000  1.0
  H  H9  1  0.14799000  0.53629000  0.48348000  1.0
  H  H10  1  0.14795000  0.03630000  0.01652000  1.0
  H  H11  1  0.85204000  0.46370000  0.51651000  1.0
  H  H12  1  0.70018000  0.78885000  0.96519000  1.0
  H  H13  1  0.29979000  0.71117000  0.46518000  1.0
  H  H14  1  0.29977000  0.21116000  0.03482000  1.0
  H  H15  1  0.70020000  0.28883000  0.53481000  1.0
  H  H16  1  0.62806000  0.72071000  0.79868000  1.0
  H  H17  1  0.37190000  0.77929000  0.29866000  1.0
  H  H18  1  0.37193000  0.27930000  0.20133000  1.0
  H  H19  1  0.62809000  0.22073000  0.70132000  1.0
  H  H20  1  0.70371000  0.83054000  0.64917000  1.0
  H  H21  1  0.29625000  0.66942000  0.14915000  1.0
  H  H22  1  0.29630000  0.16946000  0.35085000  1.0
  H  H23  1  0.70375000  0.33058000  0.85084000  1.0
  H  H24  1  0.85585000  0.00476000  0.66646000  1.0
  H  H25  1  0.14412000  0.49520000  0.16645000  1.0
  H  H26  1  0.14416000  0.99523000  0.33355000  1.0
  H  H27  1  0.85590000  0.50480000  0.83353000  1.0
  H  H28  1  0.44782000  0.51635000  0.69524000  1.0
  H  H29  1  0.55221000  0.98362000  0.19520000  1.0
  H  H30  1  0.55216000  0.48365000  0.30476000  1.0
  H  H31  1  0.44782000  0.01637000  0.80477000  1.0
  H  H32  1  0.43381000  0.64710000  0.68093000  1.0
  H  H33  1  0.56619000  0.85285000  0.18096000  1.0
  H  H34  1  0.56618000  0.35290000  0.31905000  1.0
  H  H35  1  0.43383000  0.14712000  0.81905000  1.0
  C  C36  1  0.19804000  0.31480000  0.74355000  1.0
  C  C37  1  0.80192000  0.18519000  0.24353000  1.0
  C  C38  1  0.80195000  0.68519000  0.25646000  1.0
  C  C39  1  0.19807000  0.81481000  0.75647000  1.0
  C  C40  1  0.09827000  0.24451000  0.80716000  1.0
  C  C41  1  0.90170000  0.25548000  0.30715000  1.0
  C  C42  1  0.90172000  0.75548000  0.19285000  1.0
  C  C43  1  0.09831000  0.74452000  0.69285000  1.0
  C  C44  1  0.03043000  0.26364000  0.89791000  1.0
  C  C45  1  0.96956000  0.23636000  0.39789000  1.0
  C  C46  1  0.96955000  0.73636000  0.10210000  1.0
  C  C47  1  0.03046000  0.76364000  0.60210000  1.0
  C  C48  1  0.03575000  0.35144000  0.97519000  1.0
  C  C49  1  0.96426000  0.14857000  0.47518000  1.0
  C  C50  1  0.96425000  0.64856000  0.02481000  1.0
  C  C51  1  0.03574000  0.85143000  0.52482000  1.0
  C  C52  1  0.95287000  0.09887000  0.83567000  1.0
  C  C53  1  0.04710000  0.40111000  0.33565000  1.0
  C  C54  1  0.04712000  0.90113000  0.16435000  1.0
  C  C55  1  0.95291000  0.59888000  0.66433000  1.0
  C  C56  1  0.86562000  0.99515000  0.82587000  1.0
  C  C57  1  0.13435000  0.50484000  0.32586000  1.0
  C  C58  1  0.13436000  0.00486000  0.17414000  1.0
  C  C59  1  0.86567000  0.49515000  0.67413000  1.0
  C  C60  1  0.81904000  0.93491000  0.91006000  1.0
  C  C61  1  0.18094000  0.56509000  0.41005000  1.0
  C  C62  1  0.18093000  0.06510000  0.08995000  1.0
  C  C63  1  0.81907000  0.43490000  0.58994000  1.0
  C  C64  1  0.73426000  0.83650000  0.90002000  1.0
  C  C65  1  0.26571000  0.66350000  0.40000000  1.0
  C  C66  1  0.26570000  0.16350000  0.09999000  1.0
  C  C67  1  0.73430000  0.33650000  0.59999000  1.0
  C  C68  1  0.69420000  0.79776000  0.80615000  1.0
  C  C69  1  0.30576000  0.70223000  0.30614000  1.0
  C  C70  1  0.30578000  0.20225000  0.19386000  1.0
  C  C71  1  0.69424000  0.29777000  0.69385000  1.0
  C  C72  1  0.73825000  0.85832000  0.72243000  1.0
  C  C73  1  0.26171000  0.64165000  0.22241000  1.0
  C  C74  1  0.26174000  0.14168000  0.27759000  1.0
  C  C75  1  0.73830000  0.35835000  0.77758000  1.0
  C  C76  1  0.82381000  0.95639000  0.73178000  1.0
  C  C77  1  0.17616000  0.54359000  0.23177000  1.0
  C  C78  1  0.17618000  0.04361000  0.26823000  1.0
  C  C79  1  0.82386000  0.45641000  0.76822000  1.0
  C  C80  1  0.49136000  0.55659000  0.02840000  1.0
  C  C81  1  0.50865000  0.94342000  0.52840000  1.0
  C  C82  1  0.50867000  0.44343000  0.97159000  1.0
  C  C83  1  0.49135000  0.05658000  0.47161000  1.0
  N  N84  1  0.05184000  0.14140000  0.77108000  1.0
  N  N85  1  0.94813000  0.35858000  0.27107000  1.0
  N  N86  1  0.94816000  0.85859000  0.22894000  1.0
  N  N87  1  0.05187000  0.64141000  0.72893000  1.0
  N  N88  1  0.94027000  0.17085000  0.91319000  1.0
  N  N89  1  0.05973000  0.32914000  0.41317000  1.0
  N  N90  1  0.05972000  0.82915000  0.08682000  1.0
  N  N91  1  0.94030000  0.67085000  0.58681000  1.0
  O  O92  1  0.27418000  0.26314000  0.67953000  1.0
  O  O93  1  0.72582000  0.23685000  0.17949000  1.0
  O  O94  1  0.72581000  0.73686000  0.32048000  1.0
  O  O95  1  0.27417000  0.76314000  0.82052000  1.0
  O  O96  1  0.19723000  0.42086000  0.75237000  1.0
  O  O97  1  0.80268000  0.07913000  0.25236000  1.0
  O  O98  1  0.80276000  0.57914000  0.24764000  1.0
  O  O99  1  0.19731000  0.92086000  0.74763000  1.0
  O  O100  1  0.12824000  0.43212000  0.96890000  1.0
  O  O101  1  0.87179000  0.06788000  0.46889000  1.0
  O  O102  1  0.87177000  0.56787000  0.03110000  1.0
  O  O103  1  0.12821000  0.93214000  0.53111000  1.0
  O  O104  1  0.94427000  0.33562000  0.04572000  1.0
  O  O105  1  0.05576000  0.16440000  0.54571000  1.0
  O  O106  1  0.05574000  0.66439000  0.95429000  1.0
  O  O107  1  0.94425000  0.83560000  0.45429000  1.0
  O  O108  1  0.39795000  0.62542000  0.99377000  1.0
  O  O109  1  0.60204000  0.87459000  0.49376000  1.0
  O  O110  1  0.60207000  0.37461000  0.00622000  1.0
  O  O111  1  0.39796000  0.12541000  0.50625000  1.0
  O  O112  1  0.57054000  0.57134000  0.10418000  1.0
  O  O113  1  0.42949000  0.92866000  0.60418000  1.0
  O  O114  1  0.42949000  0.42867000  0.89581000  1.0
  O  O115  1  0.57052000  0.07134000  0.39583000  1.0
  O  O116  1  0.43786000  0.58757000  0.73010000  1.0
  O  O117  1  0.56209000  0.91242000  0.23010000  1.0
  O  O118  1  0.56213000  0.41243000  0.26989000  1.0
  O  O119  1  0.43793000  0.08758000  0.76989000  1.0
