# generated using pymatgen
data_CoH28C40(N5O3)2
_symmetry_space_group_name_H-M   'P 1'
_cell_length_a   8.48642000
_cell_length_b   10.06800000
_cell_length_c   11.75820000
_cell_angle_alpha   93.67310000
_cell_angle_beta   98.89160000
_cell_angle_gamma   91.48690000
_symmetry_Int_Tables_number   1
_chemical_formula_structural   CoH28C40(N5O3)2
_chemical_formula_sum   'Co1 H28 C40 N10 O6'
_cell_volume   989.86850988
_cell_formula_units_Z   1
loop_
 _symmetry_equiv_pos_site_id
 _symmetry_equiv_pos_as_xyz
  1  'x, y, z'
loop_
 _atom_site_type_symbol
 _atom_site_label
 _atom_site_symmetry_multiplicity
 _atom_site_fract_x
 _atom_site_fract_y
 _atom_site_fract_z
 _atom_site_occupancy
  Co  Co0  1  0.00000000  0.50000000  0.00000000  1.0
  H  H1  1  0.67691000  0.65646000  0.97203000  1.0
  H  H2  1  0.32308000  0.34354000  0.02797000  1.0
  H  H3  1  0.94338000  0.99417000  0.13821000  1.0
  H  H4  1  0.05663000  0.00583000  0.86179000  1.0
  H  H5  1  0.14345000  0.77894000  0.13166000  1.0
  H  H6  1  0.85655000  0.22106000  0.86833000  1.0
  H  H7  1  0.79711000  0.87868000  0.84329000  1.0
  H  H8  1  0.20290000  0.12132000  0.15671000  1.0
  H  H9  1  0.72974000  0.96620000  0.65331000  1.0
  H  H10  1  0.27026000  0.03381000  0.34669000  1.0
  H  H11  1  0.49174000  0.10588000  0.60824000  1.0
  H  H12  1  0.50825000  0.89412000  0.39176000  1.0
  H  H13  1  0.31847000  0.15474000  0.75532000  1.0
  H  H14  1  0.68153000  0.84526000  0.24469000  1.0
  H  H15  1  0.12670000  0.44764000  0.25887000  1.0
  H  H16  1  0.87329000  0.55235000  0.74112000  1.0
  H  H17  1  0.34753000  0.62404000  0.00503000  1.0
  H  H18  1  0.65247000  0.37596000  0.99497000  1.0
  H  H19  1  0.57354000  0.61127000  0.20515000  1.0
  H  H20  1  0.42645000  0.38873000  0.79486000  1.0
  H  H21  1  0.22679000  0.71426000  0.35316000  1.0
  H  H22  1  0.77320000  0.28574000  0.64684000  1.0
  H  H23  1  0.15461000  0.86736000  0.50690000  1.0
  H  H24  1  0.84539000  0.13265000  0.49310000  1.0
  H  H25  1  0.27127000  0.84506000  0.71291000  1.0
  H  H26  1  0.72873000  0.15495000  0.28709000  1.0
  H  H27  1  0.45858000  0.67086000  0.76564000  1.0
  H  H28  1  0.54142000  0.32914000  0.23436000  1.0
  C  C29  1  0.77911000  0.71525000  0.01639000  1.0
  C  C30  1  0.22089000  0.28475000  0.98361000  1.0
  C  C31  1  0.92111000  0.89106000  0.10518000  1.0
  C  C32  1  0.07890000  0.10894000  0.89481000  1.0
  C  C33  1  0.01684000  0.78341000  0.10149000  1.0
  C  C34  1  0.98316000  0.21659000  0.89850000  1.0
  C  C35  1  0.63305000  0.92329000  0.02525000  1.0
  C  C36  1  0.36696000  0.07671000  0.97475000  1.0
  C  C37  1  0.59754000  0.96825000  0.91376000  1.0
  C  C38  1  0.40247000  0.03176000  0.08625000  1.0
  C  C39  1  0.69311000  0.93985000  0.82603000  1.0
  C  C40  1  0.30690000  0.06016000  0.17398000  1.0
  C  C41  1  0.65512000  0.98887000  0.71918000  1.0
  C  C42  1  0.34488000  0.01113000  0.28082000  1.0
  C  C43  1  0.51952000  0.06771000  0.69347000  1.0
  C  C44  1  0.48047000  0.93229000  0.30653000  1.0
  C  C45  1  0.42379000  0.09579000  0.77541000  1.0
  C  C46  1  0.57622000  0.90422000  0.22460000  1.0
  C  C47  1  0.54043000  0.95182000  0.11223000  1.0
  C  C48  1  0.45958000  0.04818000  0.88777000  1.0
  C  C49  1  0.21542000  0.49701000  0.21757000  1.0
  C  C50  1  0.78457000  0.50298000  0.78242000  1.0
  C  C51  1  0.33816000  0.58472000  0.08753000  1.0
  C  C52  1  0.66183000  0.41528000  0.91247000  1.0
  C  C53  1  0.44855000  0.58075000  0.18543000  1.0
  C  C54  1  0.55144000  0.41925000  0.81457000  1.0
  C  C55  1  0.43482000  0.51167000  0.38490000  1.0
  C  C56  1  0.56517000  0.48832000  0.61510000  1.0
  C  C57  1  0.38740000  0.60035000  0.46969000  1.0
  C  C58  1  0.61259000  0.39965000  0.53032000  1.0
  C  C59  1  0.27828000  0.70355000  0.44273000  1.0
  C  C60  1  0.72172000  0.29644000  0.55727000  1.0
  C  C61  1  0.23829000  0.78906000  0.52859000  1.0
  C  C62  1  0.76171000  0.21094000  0.47141000  1.0
  C  C63  1  0.30413000  0.77682000  0.64572000  1.0
  C  C64  1  0.69587000  0.22318000  0.35428000  1.0
  C  C65  1  0.40942000  0.67902000  0.67529000  1.0
  C  C66  1  0.59057000  0.32097000  0.32470000  1.0
  C  C67  1  0.54502000  0.41181000  0.41089000  1.0
  C  C68  1  0.45497000  0.58818000  0.58911000  1.0
  N  N69  1  0.77102000  0.84582000  0.05092000  1.0
  N  N70  1  0.22898000  0.15418000  0.94908000  1.0
  N  N71  1  0.92730000  0.67411000  0.04530000  1.0
  N  N72  1  0.07270000  0.32589000  0.95469000  1.0
  N  N73  1  0.19359000  0.53172000  0.10891000  1.0
  N  N74  1  0.80641000  0.46828000  0.89109000  1.0
  N  N75  1  0.36961000  0.52564000  0.26699000  1.0
  N  N76  1  0.63039000  0.47436000  0.73302000  1.0
  N  N77  1  0.88069000  0.28419000  0.15111000  1.0
  N  N78  1  0.11931000  0.71581000  0.84889000  1.0
  O  O79  1  0.87772000  0.41124000  0.14300000  1.0
  O  O80  1  0.12228000  0.58876000  0.85699000  1.0
  O  O81  1  0.99899000  0.23468000  0.21070000  1.0
  O  O82  1  0.00101000  0.76532000  0.78930000  1.0
  O  O83  1  0.76513000  0.21097000  0.09999000  1.0
  O  O84  1  0.23487000  0.78903000  0.90001000  1.0
