# generated using pymatgen
data_ZnH22C28N3O14
_symmetry_space_group_name_H-M   'P 1'
_cell_length_a   14.69290000
_cell_length_b   16.06960000
_cell_length_c   19.36380000
_cell_angle_alpha   90.34000000
_cell_angle_beta   90.61040000
_cell_angle_gamma   90.62660000
_symmetry_Int_Tables_number   1
_chemical_formula_structural   ZnH22C28N3O14
_chemical_formula_sum   'Zn2 H44 C56 N6 O28'
_cell_volume   4571.35141733
_cell_formula_units_Z   2
loop_
 _symmetry_equiv_pos_site_id
 _symmetry_equiv_pos_as_xyz
  1  'x, y, z'
loop_
 _atom_site_type_symbol
 _atom_site_label
 _atom_site_symmetry_multiplicity
 _atom_site_fract_x
 _atom_site_fract_y
 _atom_site_fract_z
 _atom_site_occupancy
  Zn  Zn0  1  0.40539000  0.49437000  0.50003000  1.0
  Zn  Zn1  1  0.59460000  0.50563000  0.49998000  1.0
  H  H2  1  0.05061000  0.39302000  0.41789000  1.0
  H  H3  1  0.73262000  0.43098000  0.24201000  1.0
  H  H4  1  0.46400000  0.70102000  0.88615000  1.0
  H  H5  1  0.34329000  0.71609000  0.88024000  1.0
  H  H6  1  0.40877000  0.71072000  0.80251000  1.0
  H  H7  1  0.65674000  0.28389000  0.11979000  1.0
  H  H8  1  0.53603000  0.29895000  0.11386000  1.0
  H  H9  1  0.59124000  0.28926000  0.19751000  1.0
  H  H10  1  0.71600000  0.38678000  0.92864000  1.0
  H  H11  1  0.28402000  0.61320000  0.07133000  1.0
  H  H12  1  0.57534000  0.27120000  0.71782000  1.0
  H  H13  1  0.94938000  0.60698000  0.58211000  1.0
  H  H14  1  0.64242000  0.30242000  0.64471000  1.0
  H  H15  1  0.52690000  0.33479000  0.65082000  1.0
  H  H16  1  0.35757000  0.69758000  0.35527000  1.0
  H  H17  1  0.42466000  0.72878000  0.28215000  1.0
  H  H18  1  0.47309000  0.66520000  0.34916000  1.0
  H  H19  1  0.61116000  0.03308000  0.33009000  1.0
  H  H20  1  0.49131000  0.03021000  0.31107000  1.0
  H  H21  1  0.56474000  0.95538000  0.27205000  1.0
  H  H22  1  0.50868000  0.96980000  0.68892000  1.0
  H  H23  1  0.38884000  0.96692000  0.66990000  1.0
  H  H24  1  0.39352000  0.05808000  0.41429000  1.0
  H  H25  1  0.43526000  0.04462000  0.72793000  1.0
  H  H26  1  0.72042000  0.94895000  0.41781000  1.0
  H  H27  1  0.74502000  0.95359000  0.50868000  1.0
  H  H28  1  0.80331000  0.02245000  0.45093000  1.0
  H  H29  1  0.25497000  0.04641000  0.49131000  1.0
  H  H30  1  0.27958000  0.05105000  0.58218000  1.0
  H  H31  1  0.19668000  0.97756000  0.54907000  1.0
  H  H32  1  0.84089000  0.59150000  0.31590000  1.0
  H  H33  1  0.15911000  0.40850000  0.68409000  1.0
  H  H34  1  0.98431000  0.73180000  0.50737000  1.0
  H  H35  1  0.60646000  0.94192000  0.58569000  1.0
  H  H36  1  0.95590000  0.70922000  0.41842000  1.0
  H  H37  1  0.05504000  0.77131000  0.43970000  1.0
  H  H38  1  0.04410000  0.29079000  0.58158000  1.0
  H  H39  1  0.01569000  0.26820000  0.49263000  1.0
  H  H40  1  0.94496000  0.22870000  0.56031000  1.0
  H  H41  1  0.28941000  0.52474000  0.67336000  1.0
  H  H42  1  0.26234000  0.63298000  0.68234000  1.0
  H  H43  1  0.26739000  0.56900000  0.75802000  1.0
  H  H44  1  0.73765000  0.36701000  0.31769000  1.0
  H  H45  1  0.71058000  0.47524000  0.32667000  1.0
  C  C46  1  0.49619000  0.66166000  0.50478000  1.0
  C  C47  1  0.58677000  0.02415000  0.48434000  1.0
  C  C48  1  0.49395000  0.91466000  0.50059000  1.0
  C  C49  1  0.50603000  0.08534000  0.49939000  1.0
  C  C50  1  0.49069000  0.82691000  0.50171000  1.0
  C  C51  1  0.50930000  0.17309000  0.49828000  1.0
  C  C52  1  0.03111000  0.57598000  0.47847000  1.0
  C  C53  1  0.96888000  0.42402000  0.52152000  1.0
  C  C54  1  0.96557000  0.51331000  0.43463000  1.0
  C  C55  1  0.03442000  0.48669000  0.56536000  1.0
  C  C56  1  0.97275000  0.56057000  0.54513000  1.0
  C  C57  1  0.50380000  0.33833000  0.49523000  1.0
  C  C58  1  0.02724000  0.43944000  0.45487000  1.0
  C  C59  1  0.90765000  0.50093000  0.50258000  1.0
  C  C60  1  0.09234000  0.49908000  0.49742000  1.0
  C  C61  1  0.50018000  0.49436000  0.63450000  1.0
  C  C62  1  0.49980000  0.50564000  0.36551000  1.0
  C  C63  1  0.81159000  0.50210000  0.50383000  1.0
  C  C64  1  0.18841000  0.49790000  0.49616000  1.0
  C  C65  1  0.44455000  0.54827000  0.74799000  1.0
  C  C66  1  0.55545000  0.45171000  0.25202000  1.0
  C  C67  1  0.44572000  0.55116000  0.82073000  1.0
  C  C68  1  0.44016000  0.03082000  0.45197000  1.0
  C  C69  1  0.55429000  0.44881000  0.17929000  1.0
  C  C70  1  0.50436000  0.49888000  0.85767000  1.0
  C  C71  1  0.49565000  0.50109000  0.14233000  1.0
  C  C72  1  0.56097000  0.44309000  0.82206000  1.0
  C  C73  1  0.43903000  0.55688000  0.17794000  1.0
  C  C74  1  0.56080000  0.44172000  0.74958000  1.0
  C  C75  1  0.43919000  0.55826000  0.25041000  1.0
  C  C76  1  0.50179000  0.49407000  0.71224000  1.0
  C  C77  1  0.49820000  0.50591000  0.28776000  1.0
  C  C78  1  0.49802000  0.49999000  0.06635000  1.0
  C  C79  1  0.55983000  0.96917000  0.54801000  1.0
  C  C80  1  0.50201000  0.49998000  0.93365000  1.0
  C  C81  1  0.29641000  0.58021000  0.70670000  1.0
  C  C82  1  0.70358000  0.41978000  0.29332000  1.0
  C  C83  1  0.40212000  0.68756000  0.85551000  1.0
  C  C84  1  0.59790000  0.31241000  0.14451000  1.0
  C  C85  1  0.62444000  0.38619000  0.85926000  1.0
  C  C86  1  0.37557000  0.61378000  0.14073000  1.0
  C  C87  1  0.58909000  0.32108000  0.68056000  1.0
  C  C88  1  0.41090000  0.67891000  0.31942000  1.0
  C  C89  1  0.55232000  0.99192000  0.31885000  1.0
  C  C90  1  0.52010000  0.96968000  0.43592000  1.0
  C  C91  1  0.44768000  0.00808000  0.68114000  1.0
  C  C92  1  0.73848000  0.99074000  0.46123000  1.0
  C  C93  1  0.26151000  0.00927000  0.53876000  1.0
  C  C94  1  0.92564000  0.52385000  0.36424000  1.0
  C  C95  1  0.07436000  0.47615000  0.63576000  1.0
  C  C96  1  0.01181000  0.71921000  0.45575000  1.0
  C  C97  1  0.98819000  0.28079000  0.54425000  1.0
  C  C98  1  0.47989000  0.03032000  0.56406000  1.0
  C  C99  1  0.49088000  0.75122000  0.50366000  1.0
  C  C100  1  0.50911000  0.24878000  0.49635000  1.0
  C  C101  1  0.41322000  0.97585000  0.51564000  1.0
  N  N102  1  0.49538000  0.42565000  0.96562000  1.0
  N  N103  1  0.50466000  0.57432000  0.03439000  1.0
  N  N104  1  0.49353000  0.42546000  0.03373000  1.0
  N  N105  1  0.50651000  0.57450000  0.96628000  1.0
  N  N106  1  0.73274000  0.50393000  0.50321000  1.0
  N  N107  1  0.26725000  0.49607000  0.49680000  1.0
  O  O108  1  0.42109000  0.62110000  0.50546000  1.0
  O  O109  1  0.60881000  0.39659000  0.28777000  1.0
  O  O110  1  0.38385000  0.59900000  0.85547000  1.0
  O  O111  1  0.61617000  0.40098000  0.14455000  1.0
  O  O112  1  0.63016000  0.31145000  0.84980000  1.0
  O  O113  1  0.67903000  0.42883000  0.90538000  1.0
  O  O114  1  0.36985000  0.68852000  0.15019000  1.0
  O  O115  1  0.32099000  0.57115000  0.09460000  1.0
  O  O116  1  0.62347000  0.39361000  0.71685000  1.0
  O  O117  1  0.37652000  0.60638000  0.28314000  1.0
  O  O118  1  0.53864000  0.93283000  0.37335000  1.0
  O  O119  1  0.57891000  0.37890000  0.49454000  1.0
  O  O120  1  0.46135000  0.06717000  0.62663000  1.0
  O  O121  1  0.67222000  0.05489000  0.46943000  1.0
  O  O122  1  0.32776000  0.94510000  0.53056000  1.0
  O  O123  1  0.94154000  0.47895000  0.31506000  1.0
  O  O124  1  0.86811000  0.58962000  0.36235000  1.0
  O  O125  1  0.05846000  0.52105000  0.68493000  1.0
  O  O126  1  0.13189000  0.41038000  0.63764000  1.0
  O  O127  1  0.07091000  0.64782000  0.45777000  1.0
  O  O128  1  0.92909000  0.35218000  0.54223000  1.0
  O  O129  1  0.57612000  0.63185000  0.50434000  1.0
  O  O130  1  0.42388000  0.36815000  0.49568000  1.0
  O  O131  1  0.42273000  0.48433000  0.60547000  1.0
  O  O132  1  0.57726000  0.51567000  0.39454000  1.0
  O  O133  1  0.57595000  0.50438000  0.60492000  1.0
  O  O134  1  0.42404000  0.49562000  0.39508000  1.0
  O  O135  1  0.39119000  0.60339000  0.71225000  1.0
