# generated using pymatgen
data_Zn4H12C24O25
_symmetry_space_group_name_H-M   'P 1'
_cell_length_a   18.49740000
_cell_length_b   18.49740000
_cell_length_c   18.49740000
_cell_angle_alpha   60.00000000
_cell_angle_beta   60.00000000
_cell_angle_gamma   60.00000000
_symmetry_Int_Tables_number   1
_chemical_formula_structural   Zn4H12C24O25
_chemical_formula_sum   'Zn8 H24 C48 O50'
_cell_volume   4475.24758180
_cell_formula_units_Z   2
loop_
 _symmetry_equiv_pos_site_id
 _symmetry_equiv_pos_as_xyz
  1  'x, y, z'
loop_
 _atom_site_type_symbol
 _atom_site_label
 _atom_site_symmetry_multiplicity
 _atom_site_fract_x
 _atom_site_fract_y
 _atom_site_fract_z
 _atom_site_occupancy
  Zn  Zn0  1  0.04302000  0.54302000  0.04301000  1.0
  Zn  Zn1  1  0.87096000  0.54300000  0.04302000  1.0
  Zn  Zn2  1  0.04301000  0.37096000  0.04301000  1.0
  Zn  Zn3  1  0.04302000  0.54301000  0.87096000  1.0
  Zn  Zn4  1  0.45698000  0.95698000  0.45700000  1.0
  Zn  Zn5  1  0.45699000  0.12904000  0.45699000  1.0
  Zn  Zn6  1  0.62905000  0.95698000  0.45699000  1.0
  Zn  Zn7  1  0.45699000  0.95698000  0.62904000  1.0
  H  H8  1  0.16332000  0.66332000  0.71302000  1.0
  H  H9  1  0.33668000  0.83668000  0.78698000  1.0
  H  H10  1  0.33668000  0.83668000  0.53966000  1.0
  H  H11  1  0.16332000  0.66332000  0.96034000  1.0
  H  H12  1  0.96034000  0.21302000  0.16332000  1.0
  H  H13  1  0.53966000  0.28698000  0.33668000  1.0
  H  H14  1  0.78698000  0.03966000  0.33668000  1.0
  H  H15  1  0.71302000  0.46034000  0.16332000  1.0
  H  H16  1  0.16332000  0.21302000  0.16332000  1.0
  H  H17  1  0.33668000  0.28698000  0.33668000  1.0
  H  H18  1  0.33668000  0.03965000  0.33669000  1.0
  H  H19  1  0.16332000  0.46034000  0.16332000  1.0
  H  H20  1  0.96034000  0.66332000  0.71302000  1.0
  H  H21  1  0.53966000  0.83668000  0.78698000  1.0
  H  H22  1  0.78698000  0.83668000  0.53966000  1.0
  H  H23  1  0.71302000  0.66332000  0.96034000  1.0
  H  H24  1  0.71302000  0.66332000  0.16332000  1.0
  H  H25  1  0.78698000  0.83668000  0.33668000  1.0
  H  H26  1  0.53966000  0.83668000  0.33668000  1.0
  H  H27  1  0.96034000  0.66332000  0.16332000  1.0
  H  H28  1  0.16332000  0.46034000  0.71302000  1.0
  H  H29  1  0.33668000  0.03966000  0.78698000  1.0
  H  H30  1  0.33668000  0.28698000  0.53966000  1.0
  H  H31  1  0.16332000  0.21302000  0.96034000  1.0
  C  C32  1  0.85998000  0.64002000  0.14002000  1.0
  C  C33  1  0.85998000  0.35997000  0.14002000  1.0
  C  C34  1  0.14003000  0.35997000  0.14002000  1.0
  C  C35  1  0.14002000  0.35998000  0.85997000  1.0
  C  C36  1  0.14002000  0.64003000  0.85997000  1.0
  C  C37  1  0.85998000  0.64002000  0.85998000  1.0
  C  C38  1  0.35998000  0.14002000  0.35998000  1.0
  C  C39  1  0.64002000  0.14003000  0.35998000  1.0
  C  C40  1  0.64002000  0.85998000  0.35998000  1.0
  C  C41  1  0.64002000  0.85998000  0.64003000  1.0
  C  C42  1  0.35998000  0.85997000  0.64002000  1.0
  C  C43  1  0.35998000  0.14002000  0.64002000  1.0
  C  C44  1  0.19584000  0.69585000  0.80415000  1.0
  C  C45  1  0.30416000  0.80415000  0.69585000  1.0
  C  C46  1  0.22316000  0.72317000  0.70996000  1.0
  C  C47  1  0.27684000  0.77683000  0.79004000  1.0
  C  C48  1  0.27684000  0.77683000  0.65629000  1.0
  C  C49  1  0.22317000  0.72316000  0.84370000  1.0
  C  C50  1  0.80416000  0.30415000  0.19585000  1.0
  C  C51  1  0.69584000  0.19584000  0.30416000  1.0
  C  C52  1  0.84371000  0.20996000  0.22316000  1.0
  C  C53  1  0.65629000  0.29004000  0.27683000  1.0
  C  C54  1  0.79004000  0.15629000  0.27683000  1.0
  C  C55  1  0.70996000  0.34371000  0.22317000  1.0
  C  C56  1  0.19584000  0.30416000  0.19584000  1.0
  C  C57  1  0.30416000  0.19584000  0.30416000  1.0
  C  C58  1  0.22316000  0.20997000  0.22316000  1.0
  C  C59  1  0.27684000  0.29003000  0.27684000  1.0
  C  C60  1  0.27684000  0.15629000  0.27684000  1.0
  C  C61  1  0.22316000  0.34371000  0.22317000  1.0
  C  C62  1  0.80416000  0.69584000  0.80416000  1.0
  C  C63  1  0.69584000  0.80416000  0.69584000  1.0
  C  C64  1  0.84371000  0.72316000  0.70996000  1.0
  C  C65  1  0.65629000  0.77684000  0.79003000  1.0
  C  C66  1  0.79003000  0.77684000  0.65629000  1.0
  C  C67  1  0.70997000  0.72316000  0.84371000  1.0
  C  C68  1  0.80416000  0.69584000  0.19584000  1.0
  C  C69  1  0.69584000  0.80416000  0.30416000  1.0
  C  C70  1  0.70997000  0.72316000  0.22316000  1.0
  C  C71  1  0.79004000  0.77683000  0.27684000  1.0
  C  C72  1  0.65629000  0.77684000  0.27684000  1.0
  C  C73  1  0.84371000  0.72316000  0.22316000  1.0
  C  C74  1  0.19584000  0.30416000  0.80416000  1.0
  C  C75  1  0.30416000  0.19584000  0.69584000  1.0
  C  C76  1  0.22316000  0.34371000  0.70996000  1.0
  C  C77  1  0.27684000  0.15629000  0.79003000  1.0
  C  C78  1  0.27684000  0.29003000  0.65629000  1.0
  C  C79  1  0.22316000  0.20997000  0.84371000  1.0
  O  O80  1  1.00000000  0.50000000  1.00000000  1.0
  O  O81  1  0.94515000  0.61606000  0.11606000  1.0
  O  O82  1  0.82273000  0.44515000  0.11606000  1.0
  O  O83  1  0.11606000  0.32273000  0.11606000  1.0
  O  O84  1  0.82273000  0.61606000  0.11606000  1.0
  O  O85  1  0.11606000  0.44515000  0.11606000  1.0
  O  O86  1  0.94515000  0.32273000  0.11606000  1.0
  O  O87  1  0.11606000  0.32273000  0.94515000  1.0
  O  O88  1  0.11606000  0.61606000  0.82273000  1.0
  O  O89  1  0.11606000  0.44515000  0.82273000  1.0
  O  O90  1  0.11606000  0.61606000  0.94515000  1.0
  O  O91  1  0.82273000  0.61606000  0.94515000  1.0
  O  O92  1  0.94515000  0.61606000  0.82273000  1.0
  O  O93  1  0.50000000  1.00000000  0.50000000  1.0
  O  O94  1  0.38394000  0.05485000  0.38394000  1.0
  O  O95  1  0.55485000  0.17727000  0.38394000  1.0
  O  O96  1  0.67727000  0.88394000  0.38394000  1.0
  O  O97  1  0.38394000  0.17727000  0.38394000  1.0
  O  O98  1  0.55485000  0.88394000  0.38394000  1.0
  O  O99  1  0.67727000  0.05485000  0.38394000  1.0
  O  O100  1  0.67727000  0.88394000  0.55486000  1.0
  O  O101  1  0.38394000  0.88394000  0.67727000  1.0
  O  O102  1  0.55485000  0.88394000  0.67727000  1.0
  O  O103  1  0.38394000  0.88394000  0.55485000  1.0
  O  O104  1  0.38394000  0.17727000  0.55485000  1.0
  O  O105  1  0.38394000  0.05485000  0.67727000  1.0
  O  O106  1  0.20058000  0.70057000  0.66686000  1.0
  O  O107  1  0.29942000  0.79942000  0.83315000  1.0
  O  O108  1  0.29942000  0.79942000  0.56801000  1.0
  O  O109  1  0.20058000  0.70058000  0.93199000  1.0
  O  O110  1  0.93199000  0.16685000  0.20058000  1.0
  O  O111  1  0.56800000  0.33316000  0.29942000  1.0
  O  O112  1  0.83315000  0.06801000  0.29942000  1.0
  O  O113  1  0.66685000  0.43199000  0.20058000  1.0
  O  O114  1  0.20058000  0.16685000  0.20057000  1.0
  O  O115  1  0.29942000  0.33315000  0.29942000  1.0
  O  O116  1  0.29942000  0.06801000  0.29942000  1.0
  O  O117  1  0.20058000  0.43199000  0.20058000  1.0
  O  O118  1  0.93200000  0.70057000  0.66685000  1.0
  O  O119  1  0.56801000  0.79942000  0.83315000  1.0
  O  O120  1  0.83315000  0.79942000  0.56801000  1.0
  O  O121  1  0.66685000  0.70058000  0.93199000  1.0
  O  O122  1  0.66685000  0.70058000  0.20058000  1.0
  O  O123  1  0.83315000  0.79942000  0.29942000  1.0
  O  O124  1  0.56801000  0.79942000  0.29942000  1.0
  O  O125  1  0.93200000  0.70057000  0.20058000  1.0
  O  O126  1  0.20058000  0.43199000  0.66685000  1.0
  O  O127  1  0.29942000  0.06801000  0.83315000  1.0
  O  O128  1  0.29942000  0.33315000  0.56801000  1.0
  O  O129  1  0.20058000  0.16685000  0.93199000  1.0
