# generated using pymatgen
data_Zn4H40C40N20O13
_symmetry_space_group_name_H-M   'P 1'
_cell_length_a   23.89100480
_cell_length_b   23.89120000
_cell_length_c   23.88900000
_cell_angle_alpha   66.56480000
_cell_angle_beta   72.47051885
_cell_angle_gamma   107.52661530
_symmetry_Int_Tables_number   1
_chemical_formula_structural   Zn4H40C40N20O13
_chemical_formula_sum   'Zn8 H80 C80 N40 O26'
_cell_volume   10458.21292550
_cell_formula_units_Z   2
loop_
 _symmetry_equiv_pos_site_id
 _symmetry_equiv_pos_as_xyz
  1  'x, y, z'
loop_
 _atom_site_type_symbol
 _atom_site_label
 _atom_site_symmetry_multiplicity
 _atom_site_fract_x
 _atom_site_fract_y
 _atom_site_fract_z
 _atom_site_occupancy
  Zn  Zn0  1  0.05652000  0.09876000  0.45728000  1.0
  Zn  Zn1  1  0.05652000  0.95777000  0.48618000  1.0
  Zn  Zn2  1  0.94348000  0.95728000  0.59876000  1.0
  Zn  Zn3  1  0.94350000  0.98621000  0.45775000  1.0
  Zn  Zn4  1  0.94395000  0.40125000  0.04225000  1.0
  Zn  Zn5  1  0.05606000  0.54225000  0.90122000  1.0
  Zn  Zn6  1  0.94396000  0.54271000  0.01380000  1.0
  Zn  Zn7  1  0.05604000  0.51380000  0.04272000  1.0
  H  H8  1  0.91946000  0.07508000  0.33163000  1.0
  H  H9  1  0.91108000  0.10761000  0.25816000  1.0
  H  H10  1  0.09325000  0.42492000  0.15564000  1.0
  H  H11  1  0.13422000  0.39240000  0.19651000  1.0
  H  H12  1  0.90672000  0.25111000  0.16836000  1.0
  H  H13  1  0.86577000  0.16925000  0.24183000  1.0
  H  H14  1  0.08057000  0.24889000  0.34434000  1.0
  H  H15  1  0.08893000  0.33072000  0.30347000  1.0
  H  H16  1  0.91944000  0.84435000  0.74893000  1.0
  H  H17  1  0.91107000  0.80346000  0.83077000  1.0
  H  H18  1  0.09328000  0.66837000  0.75106000  1.0
  H  H19  1  0.13423000  0.74184000  0.66921000  1.0
  H  H20  1  0.90674000  0.65562000  0.92493000  1.0
  H  H21  1  0.86578000  0.69650000  0.89242000  1.0
  H  H22  1  0.08055000  0.83168000  0.57506000  1.0
  H  H23  1  0.08892000  0.75821000  0.60757000  1.0
  H  H24  1  0.92071000  0.28114000  0.00523000  1.0
  H  H25  1  0.91492000  0.20917000  0.00291000  1.0
  H  H26  1  0.07932000  0.50522000  0.78111000  1.0
  H  H27  1  0.08510000  0.50292000  0.70913000  1.0
  H  H28  1  0.09760000  0.37828000  0.67581000  1.0
  H  H29  1  0.13268000  0.44920000  0.67792000  1.0
  H  H30  1  0.90235000  0.17583000  0.87831000  1.0
  H  H31  1  0.86730000  0.17797000  0.94922000  1.0
  H  H32  1  0.93129000  0.11368000  0.83143000  1.0
  H  H33  1  0.90913000  0.03944000  0.83258000  1.0
  H  H34  1  0.06859000  0.33139000  0.61369000  1.0
  H  H35  1  0.09077000  0.33254000  0.53946000  1.0
  H  H36  1  0.09463000  0.21447000  0.49840000  1.0
  H  H37  1  0.13675000  0.27701000  0.51006000  1.0
  H  H38  1  0.90531000  0.99840000  0.71448000  1.0
  H  H39  1  0.86317000  0.01004000  0.77704000  1.0
  H  H40  1  0.07933000  0.57413000  0.13953000  1.0
  H  H41  1  0.08512000  0.58224000  0.20572000  1.0
  H  H42  1  0.92071000  0.63957000  0.07406000  1.0
  H  H43  1  0.91493000  0.70577000  0.08214000  1.0
  H  H44  1  0.90237000  0.72656000  0.21930000  1.0
  H  H45  1  0.86731000  0.68935000  0.18346000  1.0
  H  H46  1  0.09763000  0.71939000  0.22651000  1.0
  H  H47  1  0.13270000  0.68354000  0.18932000  1.0
  H  H48  1  0.06858000  0.73719000  0.31770000  1.0
  H  H49  1  0.09077000  0.75822000  0.36975000  1.0
  H  H50  1  0.93127000  0.81761000  0.23731000  1.0
  H  H51  1  0.90912000  0.86968000  0.25833000  1.0
  H  H52  1  0.90532000  0.90691000  0.38023000  1.0
  H  H53  1  0.86317000  0.85311000  0.35983000  1.0
  H  H54  1  0.09465000  0.88017000  0.40693000  1.0
  H  H55  1  0.13676000  0.85973000  0.35315000  1.0
  H  H56  1  0.78713000  0.28555000  0.11979000  1.0
  H  H57  1  0.71292000  0.22300000  0.14021000  1.0
  H  H58  1  0.78713000  0.50160000  0.09306000  1.0
  H  H59  1  0.71292000  0.48994000  0.14686000  1.0
  H  H60  1  0.55490000  0.38630000  0.18236000  1.0
  H  H61  1  0.62799000  0.46054000  0.13029000  1.0
  H  H62  1  0.55491000  0.16861000  0.26276000  1.0
  H  H63  1  0.62799000  0.16746000  0.24173000  1.0
  H  H64  1  0.44588000  0.12169000  0.28071000  1.0
  H  H65  1  0.37283000  0.05079000  0.31655000  1.0
  H  H66  1  0.44590000  0.32414000  0.27352000  1.0
  H  H67  1  0.37286000  0.32202000  0.31070000  1.0
  H  H68  1  0.21367000  0.21887000  0.36046000  1.0
  H  H69  1  0.28797000  0.29085000  0.29427000  1.0
  H  H70  1  0.21364000  0.99479000  0.42592000  1.0
  H  H71  1  0.28791000  0.99707000  0.41786000  1.0
  H  H72  1  0.21291000  0.61983000  0.78550000  1.0
  H  H73  1  0.28713000  0.64028000  0.72294000  1.0
  H  H74  1  0.21285000  0.59305000  0.00161000  1.0
  H  H75  1  0.28704000  0.64684000  0.98997000  1.0
  H  H76  1  0.44508000  0.68237000  0.88634000  1.0
  H  H77  1  0.37199000  0.63030000  0.96057000  1.0
  H  H78  1  0.44512000  0.76282000  0.66859000  1.0
  H  H79  1  0.37204000  0.74179000  0.66743000  1.0
  H  H80  1  0.55413000  0.78071000  0.62169000  1.0
  H  H81  1  0.62718000  0.81656000  0.55077000  1.0
  H  H82  1  0.55410000  0.77348000  0.82417000  1.0
  H  H83  1  0.62714000  0.81067000  0.82205000  1.0
  H  H84  1  0.78634000  0.86043000  0.71888000  1.0
  H  H85  1  0.71203000  0.79424000  0.79087000  1.0
  H  H86  1  0.78638000  0.92594000  0.49476000  1.0
  H  H87  1  0.71210000  0.91786000  0.49706000  1.0
  C  C88  1  0.18352000  0.09176000  0.40825000  1.0
  C  C89  1  0.00001000  0.86099000  0.63903000  1.0
  C  C90  1  0.99998000  0.09143000  0.59142000  1.0
  C  C91  1  0.81649000  0.90825000  0.59175000  1.0
  C  C92  1  0.00002000  0.13903000  0.36094000  1.0
  C  C93  1  0.00000000  0.90857000  0.40858000  1.0
  C  C94  1  0.00001000  0.40825000  0.90823000  1.0
  C  C95  1  0.00002000  0.63904000  0.86095000  1.0
  C  C96  1  0.81715000  0.40858000  0.09143000  1.0
  C  C97  1  0.00001000  0.59177000  0.09175000  1.0
  C  C98  1  0.99998000  0.36096000  0.13905000  1.0
  C  C99  1  0.18285000  0.59142000  0.90857000  1.0
  C  C100  1  0.00001000  0.19525000  0.30472000  1.0
  C  C101  1  0.99999000  0.30474000  0.19526000  1.0
  C  C102  1  0.95735000  0.17958000  0.27613000  1.0
  C  C103  1  0.04427000  0.32041000  0.22224000  1.0
  C  C104  1  0.95572000  0.23348000  0.22386000  1.0
  C  C105  1  0.04267000  0.26651000  0.27774000  1.0
  C  C106  1  0.00001000  0.80476000  0.69526000  1.0
  C  C107  1  0.00002000  0.69527000  0.80473000  1.0
  C  C108  1  0.95735000  0.77776000  0.76653000  1.0
  C  C109  1  0.04429000  0.72388000  0.73347000  1.0
  C  C110  1  0.95574000  0.72224000  0.82042000  1.0
  C  C111  1  0.04267000  0.77617000  0.67957000  1.0
  C  C112  1  0.00000000  0.37148000  0.87147000  1.0
  C  C113  1  0.95764000  0.29768000  0.90876000  1.0
  C  C114  1  0.95544000  0.26373000  0.87245000  1.0
  C  C115  1  0.99998000  0.30043000  0.80042000  1.0
  C  C116  1  0.04453000  0.37245000  0.76370000  1.0
  C  C117  1  0.04235000  0.40876000  0.79765000  1.0
  C  C118  1  0.99997000  0.26518000  0.76518000  1.0
  C  C119  1  0.99996000  0.23444000  0.73447000  1.0
  C  C120  1  0.99997000  0.19920000  0.69921000  1.0
  C  C121  1  0.95788000  0.12653000  0.73659000  1.0
  C  C122  1  0.95493000  0.09157000  0.70128000  1.0
  C  C123  1  0.99996000  0.12817000  0.62818000  1.0
  C  C124  1  0.04499000  0.20126000  0.59158000  1.0
  C  C125  1  0.04205000  0.23657000  0.62654000  1.0
  C  C126  1  0.00002000  0.62855000  0.12850000  1.0
  C  C127  1  0.04237000  0.63364000  0.15994000  1.0
  C  C128  1  0.04455000  0.67214000  0.19171000  1.0
  C  C129  1  0.00000000  0.69960000  0.19955000  1.0
  C  C130  1  0.95547000  0.69176000  0.17206000  1.0
  C  C131  1  0.95766000  0.65999000  0.13357000  1.0
  C  C132  1  0.99998000  0.73483000  0.23481000  1.0
  C  C133  1  0.99997000  0.76554000  0.26555000  1.0
  C  C134  1  0.99997000  0.80078000  0.30081000  1.0
  C  C135  1  0.04205000  0.80548000  0.33139000  1.0
  C  C136  1  0.04500000  0.84373000  0.36341000  1.0
  C  C137  1  0.99998000  0.87180000  0.37185000  1.0
  C  C138  1  0.95494000  0.86336000  0.34380000  1.0
  C  C139  1  0.95788000  0.83135000  0.30554000  1.0
  C  C140  1  0.74366000  0.37184000  0.12817000  1.0
  C  C141  1  0.70715000  0.29874000  0.15623000  1.0
  C  C142  1  0.63689000  0.26344000  0.19449000  1.0
  C  C143  1  0.60159000  0.30080000  0.19921000  1.0
  C  C144  1  0.63689000  0.37346000  0.16863000  1.0
  C  C145  1  0.70715000  0.40842000  0.13662000  1.0
  C  C146  1  0.53110000  0.26555000  0.23447000  1.0
  C  C147  1  0.46965000  0.23481000  0.26521000  1.0
  C  C148  1  0.39915000  0.19956000  0.30047000  1.0
  C  C149  1  0.36384000  0.12755000  0.32794000  1.0
  C  C150  1  0.29358000  0.09125000  0.36643000  1.0
  C  C151  1  0.25706000  0.12852000  0.37150000  1.0
  C  C152  1  0.29359000  0.20232000  0.34006000  1.0
  C  C153  1  0.36384000  0.23626000  0.30832000  1.0
  C  C154  1  0.25635000  0.62818000  0.87182000  1.0
  C  C155  1  0.29287000  0.65626000  0.79872000  1.0
  C  C156  1  0.36313000  0.69452000  0.76342000  1.0
  C  C157  1  0.39842000  0.69923000  0.80080000  1.0
  C  C158  1  0.36311000  0.66864000  0.87347000  1.0
  C  C159  1  0.29284000  0.63661000  0.90843000  1.0
  C  C160  1  0.46891000  0.73447000  0.76555000  1.0
  C  C161  1  0.53036000  0.76521000  0.73482000  1.0
  C  C162  1  0.60086000  0.80046000  0.69956000  1.0
  C  C163  1  0.63618000  0.82795000  0.62754000  1.0
  C  C164  1  0.70644000  0.86643000  0.59123000  1.0
  C  C165  1  0.74295000  0.87149000  0.62852000  1.0
  C  C166  1  0.70642000  0.84004000  0.70233000  1.0
  C  C167  1  0.63616000  0.80829000  0.73628000  1.0
  N  N168  1  0.91343000  0.11229000  0.29807000  1.0
  N  N169  1  0.08961000  0.38770000  0.19887000  1.0
  N  N170  1  0.91037000  0.21151000  0.20192000  1.0
  N  N171  1  0.08659000  0.28848000  0.30111000  1.0
  N  N172  1  0.91342000  0.80112000  0.78851000  1.0
  N  N173  1  0.08963000  0.70193000  0.71148000  1.0
  N  N174  1  0.91038000  0.69885000  0.88773000  1.0
  N  N175  1  0.08658000  0.79811000  0.61227000  1.0
  N  N176  1  0.91482000  0.25537000  0.98050000  1.0
  N  N177  1  0.08520000  0.48050000  0.75533000  1.0
  N  N178  1  0.08877000  0.40967000  0.69214000  1.0
  N  N179  1  0.91119000  0.19217000  0.90969000  1.0
  N  N180  1  0.91556000  0.08875000  0.80866000  1.0
  N  N181  1  0.08435000  0.30864000  0.58876000  1.0
  N  N182  1  0.09159000  0.24260000  0.52080000  1.0
  N  N183  1  0.90834000  0.02080000  0.74262000  1.0
  N  N184  1  0.08522000  0.60475000  0.15942000  1.0
  N  N185  1  0.91483000  0.65947000  0.10466000  1.0
  N  N186  1  0.91121000  0.71906000  0.17908000  1.0
  N  N187  1  0.08880000  0.67916000  0.21902000  1.0
  N  N188  1  0.08434000  0.77570000  0.32687000  1.0
  N  N189  1  0.91555000  0.82680000  0.27581000  1.0
  N  N190  1  0.90835000  0.88754000  0.34907000  1.0
  N  N191  1  0.09159000  0.84898000  0.38759000  1.0
  N  N192  1  0.73659000  0.25741000  0.15097000  1.0
  N  N193  1  0.73659000  0.47919000  0.11243000  1.0
  N  N194  1  0.60259000  0.41123000  0.17318000  1.0
  N  N195  1  0.60259000  0.19137000  0.22425000  1.0
  N  N196  1  0.39815000  0.09030000  0.32094000  1.0
  N  N197  1  0.39818000  0.30782000  0.28100000  1.0
  N  N198  1  0.26417000  0.24464000  0.34058000  1.0
  N  N199  1  0.26414000  0.01950000  0.39533000  1.0
  N  N200  1  0.26344000  0.65101000  0.75737000  1.0
  N  N201  1  0.26339000  0.61243000  0.97920000  1.0
  N  N202  1  0.39739000  0.67318000  0.91125000  1.0
  N  N203  1  0.39744000  0.72430000  0.69134000  1.0
  N  N204  1  0.60186000  0.82094000  0.59029000  1.0
  N  N205  1  0.60183000  0.78098000  0.80784000  1.0
  N  N206  1  0.73583000  0.84054000  0.74466000  1.0
  N  N207  1  0.73587000  0.89533000  0.51949000  1.0
  O  O208  1  0.00000000  0.00000000  0.50000000  1.0
  O  O209  1  0.15208000  0.12581000  0.41641000  1.0
  O  O210  1  0.04276000  0.88773000  0.57534000  1.0
  O  O211  1  0.96245000  0.02472000  0.62672000  1.0
  O  O212  1  0.15208000  0.02628000  0.43149000  1.0
  O  O213  1  0.03752000  0.12671000  0.52472000  1.0
  O  O214  1  0.95725000  0.88191000  0.65506000  1.0
  O  O215  1  0.84793000  0.91641000  0.62581000  1.0
  O  O216  1  0.95726000  0.07535000  0.38768000  1.0
  O  O217  1  0.84794000  0.93152000  0.52626000  1.0
  O  O218  1  0.04277000  0.15504000  0.38187000  1.0
  O  O219  1  0.03756000  0.91083000  0.43772000  1.0
  O  O220  1  0.96247000  0.93774000  0.41082000  1.0
  O  O221  1  0.00001000  0.50001000  0.99999000  1.0
  O  O222  1  0.95778000  0.37420000  0.97374000  1.0
  O  O223  1  0.03698000  0.61232000  0.84492000  1.0
  O  O224  1  0.84856000  0.47528000  0.06227000  1.0
  O  O225  1  0.04223000  0.47374000  0.87418000  1.0
  O  O226  1  0.84856000  0.37329000  0.08918000  1.0
  O  O227  1  0.96306000  0.61810000  0.92465000  1.0
  O  O228  1  0.95778000  0.58358000  0.06849000  1.0
  O  O229  1  0.03693000  0.42465000  0.11812000  1.0
  O  O230  1  0.04223000  0.56849000  0.08358000  1.0
  O  O231  1  0.96304000  0.34495000  0.11231000  1.0
  O  O232  1  0.15145000  0.58918000  0.87326000  1.0
  O  O233  1  0.15143000  0.56224000  0.97528000  1.0
