# generated using pymatgen
data_LiH3C2O3
_symmetry_space_group_name_H-M   'P 1'
_cell_length_a   4.91998000
_cell_length_b   10.99390000
_cell_length_c   15.73160000
_cell_angle_alpha   89.99900000
_cell_angle_beta   90.00140000
_cell_angle_gamma   89.99930000
_symmetry_Int_Tables_number   1
_chemical_formula_structural   LiH3C2O3
_chemical_formula_sum   'Li8 H24 C16 O24'
_cell_volume   850.91859574
_cell_formula_units_Z   8
loop_
 _symmetry_equiv_pos_site_id
 _symmetry_equiv_pos_as_xyz
  1  'x, y, z'
loop_
 _atom_site_type_symbol
 _atom_site_label
 _atom_site_symmetry_multiplicity
 _atom_site_fract_x
 _atom_site_fract_y
 _atom_site_fract_z
 _atom_site_occupancy
  Li  Li0  1  0.02470000  0.26554000  0.55189000  1.0
  Li  Li1  1  0.47530000  0.23446000  0.05188000  1.0
  Li  Li2  1  0.52471000  0.23446000  0.44811000  1.0
  Li  Li3  1  0.97529000  0.26555000  0.94811000  1.0
  Li  Li4  1  0.97531000  0.73446000  0.44811000  1.0
  Li  Li5  1  0.52470000  0.76554000  0.94811000  1.0
  Li  Li6  1  0.47529000  0.76554000  0.55189000  1.0
  Li  Li7  1  0.02469000  0.73446000  0.05189000  1.0
  H  H8  1  0.84989000  0.49405000  0.60122000  1.0
  H  H9  1  0.65012000  0.00596000  0.10122000  1.0
  H  H10  1  0.34990000  0.00596000  0.39878000  1.0
  H  H11  1  0.15011000  0.49404000  0.89878000  1.0
  H  H12  1  0.15012000  0.50595000  0.39878000  1.0
  H  H13  1  0.34986000  0.99404000  0.89878000  1.0
  H  H14  1  0.65011000  0.99404000  0.60122000  1.0
  H  H15  1  0.84989000  0.50595000  0.10122000  1.0
  H  H16  1  0.15422000  0.46184000  0.61497000  1.0
  H  H17  1  0.34577000  0.03817000  0.11497000  1.0
  H  H18  1  0.65424000  0.03817000  0.38504000  1.0
  H  H19  1  0.84576000  0.46184000  0.88504000  1.0
  H  H20  1  0.84577000  0.53816000  0.38504000  1.0
  H  H21  1  0.65422000  0.96183000  0.88504000  1.0
  H  H22  1  0.34576000  0.96184000  0.61496000  1.0
  H  H23  1  0.15423000  0.53815000  0.11497000  1.0
  H  H24  1  0.20443000  0.19715000  0.71638000  1.0
  H  H25  1  0.29559000  0.30285000  0.21638000  1.0
  H  H26  1  0.70441000  0.30286000  0.28362000  1.0
  H  H27  1  0.79559000  0.19714000  0.78362000  1.0
  H  H28  1  0.79556000  0.80286000  0.28362000  1.0
  H  H29  1  0.70441000  0.69715000  0.78362000  1.0
  H  H30  1  0.29559000  0.69715000  0.71638000  1.0
  H  H31  1  0.20442000  0.80286000  0.21638000  1.0
  C  C32  1  0.55389000  0.19860000  0.62821000  1.0
  C  C33  1  0.94613000  0.30140000  0.12821000  1.0
  C  C34  1  0.05387000  0.30140000  0.37179000  1.0
  C  C35  1  0.44615000  0.19861000  0.87179000  1.0
  C  C36  1  0.44612000  0.80139000  0.37178000  1.0
  C  C37  1  0.05386000  0.69860000  0.87178000  1.0
  C  C38  1  0.94614000  0.69860000  0.62822000  1.0
  C  C39  1  0.55387000  0.80139000  0.12822000  1.0
  C  C40  1  0.42626000  0.19499000  0.71414000  1.0
  C  C41  1  0.07375000  0.30501000  0.21414000  1.0
  C  C42  1  0.92624000  0.30501000  0.28586000  1.0
  C  C43  1  0.57375000  0.19500000  0.78586000  1.0
  C  C44  1  0.57375000  0.80500000  0.28586000  1.0
  C  C45  1  0.92624000  0.69499000  0.78586000  1.0
  C  C46  1  0.07376000  0.69500000  0.71414000  1.0
  C  C47  1  0.42624000  0.80500000  0.21413000  1.0
  O  O48  1  0.97957000  0.42605000  0.60062000  1.0
  O  O49  1  0.52042000  0.07395000  0.10062000  1.0
  O  O50  1  0.47958000  0.07396000  0.39937000  1.0
  O  O51  1  0.02042000  0.42605000  0.89938000  1.0
  O  O52  1  0.02043000  0.57395000  0.39938000  1.0
  O  O53  1  0.47956000  0.92605000  0.89938000  1.0
  O  O54  1  0.52042000  0.92605000  0.60063000  1.0
  O  O55  1  0.97958000  0.57395000  0.10062000  1.0
  O  O56  1  0.79354000  0.15705000  0.61823000  1.0
  O  O57  1  0.70646000  0.34295000  0.11824000  1.0
  O  O58  1  0.29352000  0.34295000  0.38176000  1.0
  O  O59  1  0.20649000  0.15705000  0.88176000  1.0
  O  O60  1  0.20646000  0.84295000  0.38176000  1.0
  O  O61  1  0.29352000  0.65705000  0.88176000  1.0
  O  O62  1  0.70648000  0.65705000  0.61824000  1.0
  O  O63  1  0.79353000  0.84295000  0.11823000  1.0
  O  O64  1  0.41033000  0.24236000  0.56757000  1.0
  O  O65  1  0.08971000  0.25765000  0.06756000  1.0
  O  O66  1  0.91031000  0.25764000  0.43244000  1.0
  O  O67  1  0.58970000  0.24236000  0.93244000  1.0
  O  O68  1  0.58970000  0.75764000  0.43243000  1.0
  O  O69  1  0.91031000  0.74236000  0.93244000  1.0
  O  O70  1  0.08969000  0.74236000  0.56756000  1.0
  O  O71  1  0.41030000  0.75764000  0.06757000  1.0
