# generated using pymatgen
data_MnH14C12(NO)4
_symmetry_space_group_name_H-M   'P 1'
_cell_length_a   9.37096000
_cell_length_b   9.52994000
_cell_length_c   9.58689000
_cell_angle_alpha   68.22470000
_cell_angle_beta   87.12090000
_cell_angle_gamma   63.92340000
_symmetry_Int_Tables_number   1
_chemical_formula_structural   MnH14C12(NO)4
_chemical_formula_sum   'Mn2 H28 C24 N8 O8'
_cell_volume   707.56759350
_cell_formula_units_Z   2
loop_
 _symmetry_equiv_pos_site_id
 _symmetry_equiv_pos_as_xyz
  1  'x, y, z'
loop_
 _atom_site_type_symbol
 _atom_site_label
 _atom_site_symmetry_multiplicity
 _atom_site_fract_x
 _atom_site_fract_y
 _atom_site_fract_z
 _atom_site_occupancy
  Mn  Mn0  1  0.16758000  0.49798000  0.24278000  1.0
  Mn  Mn1  1  0.83243000  0.50201000  0.75724000  1.0
  H  H2  1  0.85922000  0.16210000  0.50308000  1.0
  H  H3  1  0.14078000  0.83791000  0.49692000  1.0
  H  H4  1  0.94719000  0.14085000  0.33969000  1.0
  H  H5  1  0.05282000  0.85916000  0.66031000  1.0
  H  H6  1  0.66371000  0.94649000  0.08339000  1.0
  H  H7  1  0.33629000  0.05351000  0.91660000  1.0
  H  H8  1  0.60864000  0.80878000  0.04507000  1.0
  H  H9  1  0.39136000  0.19122000  0.95492000  1.0
  H  H10  1  0.87577000  0.90053000  0.37966000  1.0
  H  H11  1  0.12424000  0.09948000  0.62033000  1.0
  H  H12  1  0.77995000  0.93475000  0.53551000  1.0
  H  H13  1  0.22006000  0.06525000  0.46449000  1.0
  H  H14  1  0.49383000  0.57731000  0.29382000  1.0
  H  H15  1  0.50616000  0.42269000  0.70618000  1.0
  H  H16  1  0.58734000  0.79429000  0.31009000  1.0
  H  H17  1  0.41265000  0.20571000  0.68989000  1.0
  H  H18  1  0.44190000  0.01216000  0.24045000  1.0
  H  H19  1  0.55810000  0.98784000  0.75954000  1.0
  H  H20  1  0.75804000  0.18143000  0.10932000  1.0
  H  H21  1  0.24196000  0.81857000  0.89068000  1.0
  H  H22  1  0.00122000  0.90169000  0.14467000  1.0
  H  H23  1  0.99878000  0.09831000  0.85533000  1.0
  H  H24  1  0.49275000  0.15738000  0.48142000  1.0
  H  H25  1  0.50726000  0.84262000  0.51858000  1.0
  H  H26  1  0.43605000  0.41226000  0.00807000  1.0
  H  H27  1  0.56395000  0.58774000  0.99193000  1.0
  H  H28  1  0.15512000  0.09621000  0.13695000  1.0
  H  H29  1  0.84487000  0.90379000  0.86304000  1.0
  C  C30  1  0.00299000  0.58304000  0.94580000  1.0
  C  C31  1  0.99703000  0.41694000  0.05423000  1.0
  C  C32  1  0.92187000  0.07049000  0.44994000  1.0
  C  C33  1  0.07814000  0.92951000  0.55005000  1.0
  C  C34  1  0.56030000  0.92572000  0.06716000  1.0
  C  C35  1  0.43970000  0.07428000  0.93283000  1.0
  C  C36  1  0.81395000  0.99697000  0.42731000  1.0
  C  C37  1  0.18606000  0.00303000  0.57269000  1.0
  C  C38  1  0.92291000  0.57703000  0.44714000  1.0
  C  C39  1  0.07710000  0.42296000  0.55286000  1.0
  C  C40  1  0.37926000  0.69015000  0.25219000  1.0
  C  C41  1  0.62073000  0.30985000  0.74780000  1.0
  C  C42  1  0.49170000  0.89593000  0.21746000  1.0
  C  C43  1  0.50829000  0.10407000  0.78253000  1.0
  C  C44  1  0.65452000  0.20810000  0.16959000  1.0
  C  C45  1  0.34548000  0.79190000  0.83040000  1.0
  C  C46  1  0.12646000  0.86338000  0.17485000  1.0
  C  C47  1  0.87353000  0.13662000  0.82515000  1.0
  C  C48  1  0.51876000  0.19555000  0.36570000  1.0
  C  C49  1  0.48124000  0.80446000  0.63430000  1.0
  C  C50  1  0.49552000  0.32332000  0.12149000  1.0
  C  C51  1  0.50448000  0.67668000  0.87851000  1.0
  C  C52  1  0.20145000  0.96093000  0.16846000  1.0
  C  C53  1  0.79854000  0.03908000  0.83152000  1.0
  N  N54  1  0.66676000  0.12720000  0.32477000  1.0
  N  N55  1  0.33325000  0.87280000  0.67522000  1.0
  N  N56  1  0.23834000  0.69466000  0.22732000  1.0
  N  N57  1  0.76165000  0.30534000  0.77268000  1.0
  N  N58  1  0.41207000  0.31501000  0.24470000  1.0
  N  N59  1  0.58794000  0.68500000  0.75530000  1.0
  N  N60  1  0.36197000  0.84921000  0.21819000  1.0
  N  N61  1  0.63803000  0.15080000  0.78180000  1.0
  O  O62  1  0.07934000  0.63764000  0.99968000  1.0
  O  O63  1  0.92067000  0.36234000  0.00034000  1.0
  O  O64  1  0.79863000  0.63078000  0.50994000  1.0
  O  O65  1  0.20136000  0.36922000  0.49008000  1.0
  O  O66  1  0.93266000  0.63804000  0.30725000  1.0
  O  O67  1  0.06734000  0.36194000  0.69277000  1.0
  O  O68  1  0.92999000  0.65271000  0.81230000  1.0
  O  O69  1  0.07001000  0.34727000  0.18772000  1.0
