# generated using pymatgen
data_InH3(CO2)3
_symmetry_space_group_name_H-M   'P 1'
_cell_length_a   6.94866000
_cell_length_b   12.62250000
_cell_length_c   12.62250000
_cell_angle_alpha   60.00000000
_cell_angle_beta   90.00000000
_cell_angle_gamma   89.99990000
_symmetry_Int_Tables_number   1
_chemical_formula_structural   InH3(CO2)3
_chemical_formula_sum   'In6 H18 C18 O36'
_cell_volume   958.78769671
_cell_formula_units_Z   6
loop_
 _symmetry_equiv_pos_site_id
 _symmetry_equiv_pos_as_xyz
  1  'x, y, z'
loop_
 _atom_site_type_symbol
 _atom_site_label
 _atom_site_symmetry_multiplicity
 _atom_site_fract_x
 _atom_site_fract_y
 _atom_site_fract_z
 _atom_site_occupancy
  In  In0  1  0.00560000  0.98105000  0.67433000  1.0
  In  In1  1  0.00561000  0.67434000  0.34461000  1.0
  In  In2  1  0.00560000  0.34462000  0.98105000  1.0
  In  In3  1  0.50561000  0.01895000  0.32567000  1.0
  In  In4  1  0.50560000  0.32567000  0.65538000  1.0
  In  In5  1  0.50561000  0.65539000  0.01895000  1.0
  H  H6  1  0.28661000  0.20418000  0.49001000  1.0
  H  H7  1  0.28661000  0.49001000  0.30581000  1.0
  H  H8  1  0.28661000  0.30580000  0.20418000  1.0
  H  H9  1  0.78661000  0.79582000  0.50999000  1.0
  H  H10  1  0.78660000  0.50999000  0.69419000  1.0
  H  H11  1  0.78661000  0.69419000  0.79582000  1.0
  H  H12  1  0.26577000  0.77810000  0.68281000  1.0
  H  H13  1  0.26577000  0.68282000  0.53908000  1.0
  H  H14  1  0.26577000  0.53908000  0.77811000  1.0
  H  H15  1  0.76578000  0.22190000  0.31718000  1.0
  H  H16  1  0.76577000  0.31719000  0.46091000  1.0
  H  H17  1  0.76578000  0.46092000  0.22190000  1.0
  H  H18  1  0.68907000  0.01426000  0.84514000  1.0
  H  H19  1  0.68907000  0.84513000  0.14061000  1.0
  H  H20  1  0.68907000  0.14060000  0.01426000  1.0
  H  H21  1  0.18907000  0.98574000  0.15486000  1.0
  H  H22  1  0.18907000  0.15487000  0.85939000  1.0
  H  H23  1  0.18907000  0.85939000  0.98574000  1.0
  C  C24  1  0.32203000  0.12528000  0.47875000  1.0
  C  C25  1  0.32204000  0.47875000  0.39597000  1.0
  C  C26  1  0.32204000  0.39597000  0.12528000  1.0
  C  C27  1  0.82204000  0.87472000  0.52125000  1.0
  C  C28  1  0.82203000  0.52125000  0.60403000  1.0
  C  C29  1  0.82203000  0.60403000  0.87472000  1.0
  C  C30  1  0.28518000  0.76464000  0.77538000  1.0
  C  C31  1  0.28518000  0.77539000  0.45997000  1.0
  C  C32  1  0.28518000  0.45998000  0.76464000  1.0
  C  C33  1  0.78518000  0.23536000  0.22462000  1.0
  C  C34  1  0.78517000  0.22461000  0.54003000  1.0
  C  C35  1  0.78517000  0.54003000  0.23536000  1.0
  C  C36  1  0.67253000  0.91981000  0.86316000  1.0
  C  C37  1  0.67254000  0.86315000  0.21703000  1.0
  C  C38  1  0.67253000  0.21703000  0.91982000  1.0
  C  C39  1  0.17254000  0.08018000  0.13685000  1.0
  C  C40  1  0.17254000  0.13685000  0.78297000  1.0
  C  C41  1  0.17254000  0.78297000  0.08018000  1.0
  O  O42  1  0.76084000  0.88630000  0.79666000  1.0
  O  O43  1  0.76085000  0.79666000  0.31705000  1.0
  O  O44  1  0.76084000  0.31704000  0.88630000  1.0
  O  O45  1  0.26085000  0.11370000  0.20334000  1.0
  O  O46  1  0.26084000  0.20334000  0.68296000  1.0
  O  O47  1  0.26083000  0.68296000  0.11370000  1.0
  O  O48  1  0.25581000  0.02021000  0.55349000  1.0
  O  O49  1  0.25582000  0.55350000  0.42630000  1.0
  O  O50  1  0.25581000  0.42630000  0.02020000  1.0
  O  O51  1  0.75582000  0.97980000  0.44650000  1.0
  O  O52  1  0.75581000  0.44650000  0.57371000  1.0
  O  O53  1  0.75580000  0.57370000  0.97980000  1.0
  O  O54  1  0.56146000  0.85061000  0.95077000  1.0
  O  O55  1  0.56147000  0.95078000  0.19861000  1.0
  O  O56  1  0.56146000  0.19861000  0.85061000  1.0
  O  O57  1  0.06146000  0.14939000  0.04922000  1.0
  O  O58  1  0.06146000  0.04922000  0.80139000  1.0
  O  O59  1  0.06146000  0.80139000  0.14939000  1.0
  O  O60  1  0.18858000  0.82858000  0.80819000  1.0
  O  O61  1  0.18858000  0.80820000  0.36322000  1.0
  O  O62  1  0.18858000  0.36323000  0.82858000  1.0
  O  O63  1  0.68859000  0.17142000  0.19181000  1.0
  O  O64  1  0.68858000  0.19181000  0.63677000  1.0
  O  O65  1  0.68857000  0.63677000  0.17142000  1.0
  O  O66  1  0.40730000  0.68376000  0.84275000  1.0
  O  O67  1  0.40731000  0.84275000  0.47349000  1.0
  O  O68  1  0.40731000  0.47349000  0.68376000  1.0
  O  O69  1  0.90731000  0.31624000  0.15725000  1.0
  O  O70  1  0.90731000  0.15725000  0.52651000  1.0
  O  O71  1  0.90731000  0.52652000  0.31623000  1.0
  O  O72  1  0.43180000  0.14677000  0.38960000  1.0
  O  O73  1  0.43180000  0.38959000  0.46363000  1.0
  O  O74  1  0.43179000  0.46363000  0.14678000  1.0
  O  O75  1  0.93180000  0.85323000  0.61040000  1.0
  O  O76  1  0.93180000  0.61040000  0.53638000  1.0
  O  O77  1  0.93179000  0.53637000  0.85323000  1.0
