# generated using pymatgen
data_ZnH10C18Br2NO4
_symmetry_space_group_name_H-M   'P 1'
_cell_length_a   11.13090000
_cell_length_b   16.22280000
_cell_length_c   17.57170000
_cell_angle_alpha   83.97770000
_cell_angle_beta   89.77270000
_cell_angle_gamma   87.57990000
_symmetry_Int_Tables_number   1
_chemical_formula_structural   ZnH10C18Br2NO4
_chemical_formula_sum   'Zn2 H20 C36 Br4 N2 O8'
_cell_volume   3152.67242538
_cell_formula_units_Z   2
loop_
 _symmetry_equiv_pos_site_id
 _symmetry_equiv_pos_as_xyz
  1  'x, y, z'
loop_
 _atom_site_type_symbol
 _atom_site_label
 _atom_site_symmetry_multiplicity
 _atom_site_fract_x
 _atom_site_fract_y
 _atom_site_fract_z
 _atom_site_occupancy
  Zn  Zn0  1  0.50491000  0.41501000  0.50392000  1.0
  Zn  Zn1  1  0.49438000  0.58572000  0.49600000  1.0
  H  H2  1  0.61898000  0.71058000  0.57382000  1.0
  H  H3  1  0.61663000  0.86409000  0.57294000  1.0
  H  H4  1  0.33892000  0.87838000  0.39938000  1.0
  H  H5  1  0.35297000  0.72297000  0.40886000  1.0
  H  H6  1  0.64924000  0.12175000  0.60792000  1.0
  H  H7  1  0.39705000  0.13640000  0.41936000  1.0
  H  H8  1  0.39638000  0.29009000  0.41718000  1.0
  H  H9  1  0.63135000  0.27707000  0.60004000  1.0
  H  H10  1  0.40218000  0.00474000  0.43802000  1.0
  H  H11  1  0.59760000  0.99553000  0.56272000  1.0
  H  H12  1  0.48830000  0.61732000  0.73430000  1.0
  H  H13  1  0.48903000  0.61099000  0.87576000  1.0
  H  H14  1  0.51659000  0.34359000  0.88997000  1.0
  H  H15  1  0.52080000  0.35199000  0.74737000  1.0
  H  H16  1  0.49400000  0.65471000  0.11034000  1.0
  H  H17  1  0.49938000  0.38735000  0.12393000  1.0
  H  H18  1  0.49572000  0.38056000  0.26537000  1.0
  H  H19  1  0.49529000  0.64584000  0.25303000  1.0
  H  H20  1  0.50587000  0.40391000  0.00390000  1.0
  H  H21  1  0.49527000  0.59451000  0.99614000  1.0
  C  C22  1  0.50557000  0.49033000  0.64686000  1.0
  C  C23  1  0.73318000  0.50238000  0.49697000  1.0
  C  C24  1  0.49441000  0.50794000  0.35314000  1.0
  C  C25  1  0.26605000  0.50145000  0.50296000  1.0
  C  C26  1  0.55825000  0.75080000  0.53652000  1.0
  C  C27  1  0.55612000  0.83641000  0.53524000  1.0
  C  C28  1  0.47670000  0.88554000  0.48539000  1.0
  C  C29  1  0.40245000  0.84366000  0.43895000  1.0
  C  C30  1  0.40968000  0.75760000  0.44348000  1.0
  C  C31  1  0.46804000  0.97583000  0.47963000  1.0
  C  C32  1  0.53257000  0.02444000  0.52057000  1.0
  C  C33  1  0.59080000  0.15654000  0.56521000  1.0
  C  C34  1  0.52379000  0.11472000  0.51469000  1.0
  C  C35  1  0.45142000  0.16400000  0.46059000  1.0
  C  C36  1  0.44950000  0.24964000  0.45897000  1.0
  C  C37  1  0.58231000  0.24258000  0.56107000  1.0
  C  C38  1  0.50555000  0.48514000  0.73220000  1.0
  C  C39  1  0.49579000  0.55775000  0.76928000  1.0
  C  C40  1  0.49574000  0.55359000  0.84851000  1.0
  C  C41  1  0.50328000  0.47637000  0.89392000  1.0
  C  C42  1  0.51170000  0.40393000  0.85587000  1.0
  C  C43  1  0.51388000  0.40812000  0.77645000  1.0
  C  C44  1  0.50229000  0.46801000  0.97720000  1.0
  C  C45  1  0.49786000  0.53040000  0.02280000  1.0
  C  C46  1  0.49492000  0.59429000  0.14429000  1.0
  C  C47  1  0.49666000  0.52196000  0.10609000  1.0
  C  C48  1  0.49739000  0.44466000  0.15133000  1.0
  C  C49  1  0.49549000  0.44028000  0.23059000  1.0
  C  C50  1  0.49473000  0.51278000  0.26782000  1.0
  C  C51  1  0.49509000  0.58990000  0.22371000  1.0
  C  C52  1  0.87050000  0.50157000  0.49721000  1.0
  C  C53  1  0.12887000  0.50081000  0.50280000  1.0
  C  C54  1  0.93277000  0.57599000  0.49311000  1.0
  C  C55  1  0.06738000  0.42708000  0.49915000  1.0
  C  C56  1  0.05790000  0.57477000  0.50428000  1.0
  C  C57  1  0.94100000  0.42676000  0.50357000  1.0
  Br  Br58  1  0.85251000  0.68089000  0.46579000  1.0
  Br  Br59  1  0.15196000  0.32556000  0.48437000  1.0
  Br  Br60  1  0.12731000  0.67434000  0.52788000  1.0
  Br  Br61  1  0.86990000  0.32190000  0.52250000  1.0
  N  N62  1  0.48641000  0.71200000  0.49138000  1.0
  N  N63  1  0.51318000  0.28839000  0.50864000  1.0
  O  O64  1  0.54215000  0.42584000  0.61608000  1.0
  O  O65  1  0.46856000  0.55903000  0.61082000  1.0
  O  O66  1  0.67826000  0.56365000  0.52269000  1.0
  O  O67  1  0.68366000  0.44179000  0.47195000  1.0
  O  O68  1  0.52292000  0.57275000  0.38307000  1.0
  O  O69  1  0.46590000  0.43942000  0.39001000  1.0
  O  O70  1  0.32298000  0.43743000  0.53370000  1.0
  O  O71  1  0.31311000  0.56618000  0.47141000  1.0
