# generated using pymatgen
data_CdH4(C3N5)2
_symmetry_space_group_name_H-M   'P 1'
_cell_length_a   8.48080000
_cell_length_b   10.22010000
_cell_length_c   12.53480000
_cell_angle_alpha   100.08500000
_cell_angle_beta   89.99990000
_cell_angle_gamma   90.00000000
_symmetry_Int_Tables_number   1
_chemical_formula_structural   CdH4(C3N5)2
_chemical_formula_sum   'Cd4 H16 C24 N40'
_cell_volume   1069.66241529
_cell_formula_units_Z   4
loop_
 _symmetry_equiv_pos_site_id
 _symmetry_equiv_pos_as_xyz
  1  'x, y, z'
loop_
 _atom_site_type_symbol
 _atom_site_label
 _atom_site_symmetry_multiplicity
 _atom_site_fract_x
 _atom_site_fract_y
 _atom_site_fract_z
 _atom_site_occupancy
  Cd  Cd0  1  0.93199000  0.50199000  0.20447000  1.0
  Cd  Cd1  1  0.43199000  0.99801000  0.29553000  1.0
  Cd  Cd2  1  0.06801000  0.49800000  0.79553000  1.0
  Cd  Cd3  1  0.56801000  0.00199000  0.70447000  1.0
  H  H4  1  0.77784000  0.49473000  0.44850000  1.0
  H  H5  1  0.27784000  0.00527000  0.05150000  1.0
  H  H6  1  0.22216000  0.50527000  0.55150000  1.0
  H  H7  1  0.72216000  0.99473000  0.94850000  1.0
  H  H8  1  0.92901000  0.59368000  0.43670000  1.0
  H  H9  1  0.42901000  0.90632000  0.06330000  1.0
  H  H10  1  0.07099000  0.40632000  0.56330000  1.0
  H  H11  1  0.57099000  0.09368000  0.93670000  1.0
  H  H12  1  0.70872000  0.59379000  0.99802000  1.0
  H  H13  1  0.20871000  0.90621000  0.50198000  1.0
  H  H14  1  0.29129000  0.40621000  0.00198000  1.0
  H  H15  1  0.79128000  0.09379000  0.49802000  1.0
  H  H16  1  0.80622000  0.77301000  0.88716000  1.0
  H  H17  1  0.30622000  0.72699000  0.61284000  1.0
  H  H18  1  0.19378000  0.22699000  0.11285000  1.0
  H  H19  1  0.69377000  0.27301000  0.38716000  1.0
  C  C20  1  0.67248000  0.65218000  0.07503000  1.0
  C  C21  1  0.17248000  0.84782000  0.42497000  1.0
  C  C22  1  0.32752000  0.34782000  0.92497000  1.0
  C  C23  1  0.82751000  0.15218000  0.57503000  1.0
  C  C24  1  0.64829000  0.72233000  0.24363000  1.0
  C  C25  1  0.14829000  0.77767000  0.25637000  1.0
  C  C26  1  0.35171000  0.27767000  0.75637000  1.0
  C  C27  1  0.85171000  0.22233000  0.74363000  1.0
  C  C28  1  0.65542000  0.74959000  0.36069000  1.0
  C  C29  1  0.15542000  0.75041000  0.13931000  1.0
  C  C30  1  0.34458000  0.25041000  0.63931000  1.0
  C  C31  1  0.84458000  0.24959000  0.86069000  1.0
  C  C32  1  0.69528000  0.74747000  0.53323000  1.0
  C  C33  1  0.19528000  0.75252000  0.96678000  1.0
  C  C34  1  0.30471000  0.25253000  0.46677000  1.0
  C  C35  1  0.80472000  0.24747000  0.03323000  1.0
  C  C36  1  0.75060000  0.71489000  0.63381000  1.0
  C  C37  1  0.25060000  0.78511000  0.86619000  1.0
  C  C38  1  0.24940000  0.28511000  0.36620000  1.0
  C  C39  1  0.74940000  0.21489000  0.13381000  1.0
  C  C40  1  0.79873000  0.73698000  0.80044000  1.0
  C  C41  1  0.29872000  0.76302000  0.69956000  1.0
  C  C42  1  0.20127000  0.26302000  0.19956000  1.0
  C  C43  1  0.70127000  0.23698000  0.30044000  1.0
  N  N44  1  0.72180000  0.62658000  0.17228000  1.0
  N  N45  1  0.22181000  0.87342000  0.32772000  1.0
  N  N46  1  0.27820000  0.37343000  0.82772000  1.0
  N  N47  1  0.77819000  0.12658000  0.67228000  1.0
  N  N48  1  0.57510000  0.75662000  0.08447000  1.0
  N  N49  1  0.07510000  0.74338000  0.41553000  1.0
  N  N50  1  0.42490000  0.24338000  0.91553000  1.0
  N  N51  1  0.92490000  0.25662000  0.58447000  1.0
  N  N52  1  0.55944000  0.80108000  0.19290000  1.0
  N  N53  1  0.05945000  0.69892000  0.30710000  1.0
  N  N54  1  0.44056000  0.19892000  0.80710000  1.0
  N  N55  1  0.94055000  0.30108000  0.69290000  1.0
  N  N56  1  0.81899000  0.56396000  0.40547000  1.0
  N  N57  1  0.31899000  0.93604000  0.09453000  1.0
  N  N58  1  0.18101000  0.43604000  0.59453000  1.0
  N  N59  1  0.68101000  0.06396000  0.90547000  1.0
  N  N60  1  0.72360000  0.67729000  0.43131000  1.0
  N  N61  1  0.22359000  0.82271000  0.06869000  1.0
  N  N62  1  0.27641000  0.32272000  0.56870000  1.0
  N  N63  1  0.77641000  0.17728000  0.93131000  1.0
  N  N64  1  0.58731000  0.85712000  0.41768000  1.0
  N  N65  1  0.08731000  0.64289000  0.08232000  1.0
  N  N66  1  0.41269000  0.14289000  0.58232000  1.0
  N  N67  1  0.91269000  0.35711000  0.91768000  1.0
  N  N68  1  0.61118000  0.85499000  0.52534000  1.0
  N  N69  1  0.11117000  0.64501000  0.97466000  1.0
  N  N70  1  0.38883000  0.14501000  0.47466000  1.0
  N  N71  1  0.88883000  0.35499000  0.02534000  1.0
  N  N72  1  0.72642000  0.80025000  0.72880000  1.0
  N  N73  1  0.22641000  0.69975000  0.77120000  1.0
  N  N74  1  0.27359000  0.19975000  0.27120000  1.0
  N  N75  1  0.77358000  0.30025000  0.22880000  1.0
  N  N76  1  0.83171000  0.60521000  0.64450000  1.0
  N  N77  1  0.33171000  0.89479000  0.85550000  1.0
  N  N78  1  0.16829000  0.39479000  0.35550000  1.0
  N  N79  1  0.66829000  0.10521000  0.14450000  1.0
  N  N80  1  0.86190000  0.62039000  0.75276000  1.0
  N  N81  1  0.36190000  0.87960000  0.74724000  1.0
  N  N82  1  0.13810000  0.37960000  0.24724000  1.0
  N  N83  1  0.63810000  0.12039000  0.25276000  1.0
