# generated using pymatgen
data_UH12(C4O3)4
_symmetry_space_group_name_H-M   'P 1'
_cell_length_a   5.47645000
_cell_length_b   6.66356416
_cell_length_c   13.56880000
_cell_angle_alpha   79.60156783
_cell_angle_beta   84.42120000
_cell_angle_gamma   66.08629830
_symmetry_Int_Tables_number   1
_chemical_formula_structural   UH12(C4O3)4
_chemical_formula_sum   'U1 H12 C16 O12'
_cell_volume   445.06213911
_cell_formula_units_Z   1
loop_
 _symmetry_equiv_pos_site_id
 _symmetry_equiv_pos_as_xyz
  1  'x, y, z'
loop_
 _atom_site_type_symbol
 _atom_site_label
 _atom_site_symmetry_multiplicity
 _atom_site_fract_x
 _atom_site_fract_y
 _atom_site_fract_z
 _atom_site_occupancy
  U  U0  1  0.00001000  0.50001000  0.50000000  1.0
  H  H1  1  0.09007000  0.82624000  0.25942000  1.0
  H  H2  1  0.90993000  0.17378000  0.74058000  1.0
  H  H3  1  0.36148000  0.75558000  0.46160000  1.0
  H  H4  1  0.63853000  0.24443000  0.53840000  1.0
  H  H5  1  0.16812000  0.84142000  0.55406000  1.0
  H  H6  1  0.83188000  0.15859000  0.44594000  1.0
  H  H7  1  0.77149000  0.08061000  0.03810000  1.0
  H  H8  1  0.22848000  0.91937000  0.96190000  1.0
  H  H9  1  0.40476000  0.27635000  0.92243000  1.0
  H  H10  1  0.59520000  0.72359000  0.07758000  1.0
  H  H11  1  0.89466000  0.57625000  0.16526000  1.0
  H  H12  1  0.10535000  0.42375000  0.83473000  1.0
  C  C13  1  0.29703000  0.36073000  0.20081000  1.0
  C  C14  1  0.70297000  0.63927000  0.79918000  1.0
  C  C15  1  0.54664000  0.21665000  0.16678000  1.0
  C  C16  1  0.45336000  0.78335000  0.83322000  1.0
  C  C17  1  0.57864000  0.19030000  0.06560000  1.0
  C  C18  1  0.42136000  0.80966000  0.93441000  1.0
  C  C19  1  0.36797000  0.30148000  0.00043000  1.0
  C  C20  1  0.63202000  0.69847000  0.99958000  1.0
  C  C21  1  0.11441000  0.44184000  0.03398000  1.0
  C  C22  1  0.88558000  0.55814000  0.96603000  1.0
  C  C23  1  0.08552000  0.46902000  0.13540000  1.0
  C  C24  1  0.91448000  0.53098000  0.86460000  1.0
  C  C25  1  0.23859000  0.39729000  0.30789000  1.0
  C  C26  1  0.76142000  0.60273000  0.69210000  1.0
  C  C27  1  0.76121000  0.09158000  0.24051000  1.0
  C  C28  1  0.23879000  0.90843000  0.75948000  1.0
  O  O29  1  0.69809000  0.68564000  0.43339000  1.0
  O  O30  1  0.30192000  0.31437000  0.56661000  1.0
  O  O31  1  0.16399000  0.26480000  0.36969000  1.0
  O  O32  1  0.83602000  0.73523000  0.63030000  1.0
  O  O33  1  0.23278000  0.57454000  0.33494000  1.0
  O  O34  1  0.76724000  0.42547000  0.66506000  1.0
  O  O35  1  0.73520000  0.12819000  0.32727000  1.0
  O  O36  1  0.26483000  0.87182000  0.67273000  1.0
  O  O37  1  0.97551000  0.93486000  0.20380000  1.0
  O  O38  1  0.02449000  0.06516000  0.79620000  1.0
  O  O39  1  0.18112000  0.78057000  0.49160000  1.0
  O  O40  1  0.81888000  0.21945000  0.50840000  1.0
