# generated using pymatgen
data_GaH11C9Cl2
_symmetry_space_group_name_H-M   'P 1'
_cell_length_a   6.91684000
_cell_length_b   8.26982000
_cell_length_c   17.83470000
_cell_angle_alpha   80.81900000
_cell_angle_beta   89.99970000
_cell_angle_gamma   89.99990000
_symmetry_Int_Tables_number   1
_chemical_formula_structural   GaH11C9Cl2
_chemical_formula_sum   'Ga4 H44 C36 Cl8'
_cell_volume   1007.09398796
_cell_formula_units_Z   4
loop_
 _symmetry_equiv_pos_site_id
 _symmetry_equiv_pos_as_xyz
  1  'x, y, z'
loop_
 _atom_site_type_symbol
 _atom_site_label
 _atom_site_symmetry_multiplicity
 _atom_site_fract_x
 _atom_site_fract_y
 _atom_site_fract_z
 _atom_site_occupancy
  Ga  Ga0  1  0.24999000  0.50701000  0.29468000  1.0
  Ga  Ga1  1  0.75000000  0.49298000  0.70532000  1.0
  Ga  Ga2  1  0.75000000  0.61873000  0.22367000  1.0
  Ga  Ga3  1  0.25000000  0.38128000  0.77632000  1.0
  H  H4  1  0.25000000  0.54085000  0.53481000  1.0
  H  H5  1  0.75000000  0.45915000  0.46518000  1.0
  H  H6  1  0.12187000  0.60906000  0.44988000  1.0
  H  H7  1  0.62187000  0.39094000  0.55012000  1.0
  H  H8  1  0.87813000  0.39095000  0.55012000  1.0
  H  H9  1  0.37814000  0.60906000  0.44988000  1.0
  H  H10  1  0.25001000  0.26576000  0.57453000  1.0
  H  H11  1  0.75000000  0.73425000  0.42547000  1.0
  H  H12  1  0.25001000  0.98332000  0.62651000  1.0
  H  H13  1  0.75000000  0.01668000  0.37350000  1.0
  H  H14  1  0.37790000  0.85833000  0.57126000  1.0
  H  H15  1  0.87790000  0.14167000  0.42874000  1.0
  H  H16  1  0.62210000  0.14168000  0.42874000  1.0
  H  H17  1  0.12211000  0.85833000  0.57126000  1.0
  H  H18  1  0.25000000  0.91441000  0.42157000  1.0
  H  H19  1  0.75000000  0.08558000  0.57844000  1.0
  H  H20  1  0.25000000  0.98971000  0.29257000  1.0
  H  H21  1  0.75000000  0.01027000  0.70744000  1.0
  H  H22  1  0.37807000  0.17234000  0.25811000  1.0
  H  H23  1  0.87808000  0.82764000  0.74190000  1.0
  H  H24  1  0.62192000  0.82764000  0.74190000  1.0
  H  H25  1  0.12192000  0.17235000  0.25811000  1.0
  H  H26  1  0.75000000  0.44643000  0.00708000  1.0
  H  H27  1  0.25000000  0.55357000  0.99292000  1.0
  H  H28  1  0.62194000  0.42757000  0.09431000  1.0
  H  H29  1  0.12194000  0.57243000  0.90569000  1.0
  H  H30  1  0.37806000  0.57243000  0.90569000  1.0
  H  H31  1  0.87806000  0.42756000  0.09431000  1.0
  H  H32  1  0.75001000  0.70194000  0.93552000  1.0
  H  H33  1  0.25001000  0.29806000  0.06448000  1.0
  H  H34  1  0.75000000  0.96107000  0.85337000  1.0
  H  H35  1  0.25000000  0.03893000  0.14663000  1.0
  H  H36  1  0.87738000  0.11678000  0.89110000  1.0
  H  H37  1  0.37738000  0.88322000  0.10890000  1.0
  H  H38  1  0.12261000  0.88323000  0.10890000  1.0
  H  H39  1  0.62262000  0.11677000  0.89110000  1.0
  H  H40  1  0.75000000  0.14227000  0.03428000  1.0
  H  H41  1  0.25001000  0.85773000  0.96572000  1.0
  H  H42  1  0.75000000  0.93642000  0.23505000  1.0
  H  H43  1  0.24999000  0.06358000  0.76494000  1.0
  H  H44  1  0.62253000  0.09306000  0.17644000  1.0
  H  H45  1  0.12252000  0.90694000  0.82357000  1.0
  H  H46  1  0.37747000  0.90694000  0.82356000  1.0
  H  H47  1  0.87747000  0.09306000  0.17644000  1.0
  C  C48  1  0.25000000  0.33123000  0.38148000  1.0
  C  C49  1  0.75000000  0.66877000  0.61852000  1.0
  C  C50  1  0.25000000  0.36785000  0.45607000  1.0
  C  C51  1  0.75000000  0.63215000  0.54393000  1.0
  C  C52  1  0.25001000  0.23741000  0.51688000  1.0
  C  C53  1  0.75000000  0.76259000  0.48312000  1.0
  C  C54  1  0.25000000  0.07362000  0.50621000  1.0
  C  C55  1  0.75000000  0.92639000  0.49379000  1.0
  C  C56  1  0.25001000  0.04126000  0.43156000  1.0
  C  C57  1  0.75000000  0.95874000  0.56845000  1.0
  C  C58  1  0.25000000  0.16672000  0.36893000  1.0
  C  C59  1  0.75000000  0.83328000  0.63107000  1.0
  C  C60  1  0.25000000  0.54029000  0.47335000  1.0
  C  C61  1  0.75000000  0.45971000  0.52665000  1.0
  C  C62  1  0.25001000  0.93648000  0.57233000  1.0
  C  C63  1  0.75000000  0.06353000  0.42767000  1.0
  C  C64  1  0.25000000  0.12271000  0.29037000  1.0
  C  C65  1  0.75000000  0.87727000  0.70963000  1.0
  C  C66  1  0.75000000  0.74559000  0.12224000  1.0
  C  C67  1  0.25000000  0.25441000  0.87776000  1.0
  C  C68  1  0.75000000  0.66613000  0.05770000  1.0
  C  C69  1  0.25000000  0.33387000  0.94231000  1.0
  C  C70  1  0.75000000  0.76267000  0.98560000  1.0
  C  C71  1  0.25000000  0.23733000  0.01440000  1.0
  C  C72  1  0.75000000  0.93398000  0.97581000  1.0
  C  C73  1  0.25000000  0.06602000  0.02419000  1.0
  C  C74  1  0.75000000  0.00880000  0.04058000  1.0
  C  C75  1  0.25001000  0.99121000  0.95941000  1.0
  C  C76  1  0.75000000  0.91816000  0.11381000  1.0
  C  C77  1  0.25000000  0.08184000  0.88619000  1.0
  C  C78  1  0.75000000  0.48241000  0.06368000  1.0
  C  C79  1  0.24999000  0.51759000  0.93632000  1.0
  C  C80  1  0.75000000  0.03665000  0.89853000  1.0
  C  C81  1  0.25000000  0.96335000  0.10147000  1.0
  C  C82  1  0.75000000  0.01316000  0.17902000  1.0
  C  C83  1  0.24999000  0.98684000  0.82098000  1.0
  Cl  Cl84  1  0.25001000  0.50137000  0.17266000  1.0
  Cl  Cl85  1  0.75001000  0.49861000  0.82734000  1.0
  Cl  Cl86  1  0.75000000  0.35803000  0.26656000  1.0
  Cl  Cl87  1  0.25000000  0.64197000  0.73344000  1.0
  Cl  Cl88  1  0.00185000  0.70326000  0.30100000  1.0
  Cl  Cl89  1  0.50185000  0.29674000  0.69900000  1.0
  Cl  Cl90  1  0.99815000  0.29674000  0.69900000  1.0
  Cl  Cl91  1  0.49815000  0.70325000  0.30100000  1.0
