# generated using pymatgen
data_NaSrH6C6NO6
_symmetry_space_group_name_H-M   'P 1'
_cell_length_a   9.83250000
_cell_length_b   9.83251000
_cell_length_c   9.83252000
_cell_angle_alpha   90.00010000
_cell_angle_beta   89.99990000
_cell_angle_gamma   89.99960000
_symmetry_Int_Tables_number   1
_chemical_formula_structural   NaSrH6C6NO6
_chemical_formula_sum   'Na4 Sr4 H24 C24 N4 O24'
_cell_volume   950.58988840
_cell_formula_units_Z   4
loop_
 _symmetry_equiv_pos_site_id
 _symmetry_equiv_pos_as_xyz
  1  'x, y, z'
loop_
 _atom_site_type_symbol
 _atom_site_label
 _atom_site_symmetry_multiplicity
 _atom_site_fract_x
 _atom_site_fract_y
 _atom_site_fract_z
 _atom_site_occupancy
  Na  Na0  1  0.33004000  0.16996000  0.66995000  1.0
  Na  Na1  1  0.66995000  0.33004000  0.16996000  1.0
  Na  Na2  1  0.83005000  0.83004000  0.83005000  1.0
  Na  Na3  1  0.16996000  0.66996000  0.33004000  1.0
  Sr  Sr4  1  0.15814000  0.84186000  0.65814000  1.0
  Sr  Sr5  1  0.84186000  0.65814000  0.15814000  1.0
  Sr  Sr6  1  0.65814000  0.15814000  0.84186000  1.0
  Sr  Sr7  1  0.34186000  0.34186000  0.34186000  1.0
  H  H8  1  0.48712000  0.66335000  0.68948000  1.0
  H  H9  1  0.51289000  0.83666000  0.18948000  1.0
  H  H10  1  0.98711000  0.33666000  0.81053000  1.0
  H  H11  1  0.01288000  0.16334000  0.31052000  1.0
  H  H12  1  0.66335000  0.68948000  0.48712000  1.0
  H  H13  1  0.83665000  0.18948000  0.51289000  1.0
  H  H14  1  0.33665000  0.81053000  0.98711000  1.0
  H  H15  1  0.16334000  0.31052000  0.01288000  1.0
  H  H16  1  0.68947000  0.48712000  0.66335000  1.0
  H  H17  1  0.18948000  0.51289000  0.83665000  1.0
  H  H18  1  0.81053000  0.98712000  0.33666000  1.0
  H  H19  1  0.31052000  0.01288000  0.16334000  1.0
  H  H20  1  0.53477000  0.67280000  0.86324000  1.0
  H  H21  1  0.46524000  0.82720000  0.36324000  1.0
  H  H22  1  0.03476000  0.32720000  0.63676000  1.0
  H  H23  1  0.96524000  0.17280000  0.13676000  1.0
  H  H24  1  0.67280000  0.86324000  0.53477000  1.0
  H  H25  1  0.82720000  0.36324000  0.46524000  1.0
  H  H26  1  0.32720000  0.63676000  0.03476000  1.0
  H  H27  1  0.17280000  0.13676000  0.96524000  1.0
  H  H28  1  0.86324000  0.53476000  0.67280000  1.0
  H  H29  1  0.36324000  0.46524000  0.82720000  1.0
  H  H30  1  0.63676000  0.03476000  0.32720000  1.0
  H  H31  1  0.13676000  0.96524000  0.17280000  1.0
  C  C32  1  0.48589000  0.86525000  0.76667000  1.0
  C  C33  1  0.51410000  0.63476000  0.26667000  1.0
  C  C34  1  0.98591000  0.13476000  0.73333000  1.0
  C  C35  1  0.01410000  0.36524000  0.23333000  1.0
  C  C36  1  0.86525000  0.76667000  0.48589000  1.0
  C  C37  1  0.63476000  0.26667000  0.51409000  1.0
  C  C38  1  0.13476000  0.73333000  0.98590000  1.0
  C  C39  1  0.36524000  0.23333000  0.01411000  1.0
  C  C40  1  0.76667000  0.48589000  0.86525000  1.0
  C  C41  1  0.26667000  0.51410000  0.63475000  1.0
  C  C42  1  0.73333000  0.98590000  0.13476000  1.0
  C  C43  1  0.23333000  0.01411000  0.36525000  1.0
  C  C44  1  0.46190000  0.71217000  0.78722000  1.0
  C  C45  1  0.53810000  0.78783000  0.28723000  1.0
  C  C46  1  0.96189000  0.28783000  0.71278000  1.0
  C  C47  1  0.03810000  0.21216000  0.21278000  1.0
  C  C48  1  0.71217000  0.78722000  0.46190000  1.0
  C  C49  1  0.78783000  0.28722000  0.53810000  1.0
  C  C50  1  0.28784000  0.71278000  0.96190000  1.0
  C  C51  1  0.21216000  0.21278000  0.03810000  1.0
  C  C52  1  0.78722000  0.46190000  0.71217000  1.0
  C  C53  1  0.28722000  0.53810000  0.78783000  1.0
  C  C54  1  0.71278000  0.96190000  0.28784000  1.0
  C  C55  1  0.21278000  0.03810000  0.21216000  1.0
  N  N56  1  0.32020000  0.67981000  0.82019000  1.0
  N  N57  1  0.67981000  0.82019000  0.32020000  1.0
  N  N58  1  0.82019000  0.32020000  0.67981000  1.0
  N  N59  1  0.17980000  0.17980000  0.17981000  1.0
  O  O60  1  0.38610000  0.93810000  0.72942000  1.0
  O  O61  1  0.61390000  0.56190000  0.22941000  1.0
  O  O62  1  0.88609000  0.06189000  0.77059000  1.0
  O  O63  1  0.11390000  0.43810000  0.27058000  1.0
  O  O64  1  0.93810000  0.72942000  0.38611000  1.0
  O  O65  1  0.56189000  0.22941000  0.61391000  1.0
  O  O66  1  0.06189000  0.77059000  0.88609000  1.0
  O  O67  1  0.43810000  0.27059000  0.11389000  1.0
  O  O68  1  0.72942000  0.38610000  0.93810000  1.0
  O  O69  1  0.22941000  0.61390000  0.56189000  1.0
  O  O70  1  0.77059000  0.88609000  0.06189000  1.0
  O  O71  1  0.27058000  0.11390000  0.43810000  1.0
  O  O72  1  0.60608000  0.90859000  0.78523000  1.0
  O  O73  1  0.39393000  0.59142000  0.28523000  1.0
  O  O74  1  0.10606000  0.09142000  0.71478000  1.0
  O  O75  1  0.89392000  0.40858000  0.21477000  1.0
  O  O76  1  0.90858000  0.78523000  0.60608000  1.0
  O  O77  1  0.59142000  0.28523000  0.39394000  1.0
  O  O78  1  0.09142000  0.71478000  0.10606000  1.0
  O  O79  1  0.40858000  0.21477000  0.89392000  1.0
  O  O80  1  0.78522000  0.60607000  0.90858000  1.0
  O  O81  1  0.28523000  0.39394000  0.59142000  1.0
  O  O82  1  0.71477000  0.10607000  0.09142000  1.0
  O  O83  1  0.21477000  0.89393000  0.40858000  1.0
