# generated using pymatgen
data_Zn2H19C30N3O7
_symmetry_space_group_name_H-M   'P 1'
_cell_length_a   10.02590000
_cell_length_b   11.71440000
_cell_length_c   12.19880000
_cell_angle_alpha   74.70230000
_cell_angle_beta   88.18490000
_cell_angle_gamma   72.63690000
_symmetry_Int_Tables_number   1
_chemical_formula_structural   Zn2H19C30N3O7
_chemical_formula_sum   'Zn4 H38 C60 N6 O14'
_cell_volume   1317.25702305
_cell_formula_units_Z   2
loop_
 _symmetry_equiv_pos_site_id
 _symmetry_equiv_pos_as_xyz
  1  'x, y, z'
loop_
 _atom_site_type_symbol
 _atom_site_label
 _atom_site_symmetry_multiplicity
 _atom_site_fract_x
 _atom_site_fract_y
 _atom_site_fract_z
 _atom_site_occupancy
  Zn  Zn0  1  0.68334000  0.38178000  0.21070000  1.0
  Zn  Zn1  1  0.31665000  0.61822000  0.78930000  1.0
  Zn  Zn2  1  0.43389000  0.58628000  0.07999000  1.0
  Zn  Zn3  1  0.56611000  0.41372000  0.92001000  1.0
  H  H4  1  0.96021000  0.32817000  0.11452000  1.0
  H  H5  1  0.03978000  0.67184000  0.88548000  1.0
  H  H6  1  0.16993000  0.14079000  0.12831000  1.0
  H  H7  1  0.83007000  0.85921000  0.87169000  1.0
  H  H8  1  0.17182000  0.94102000  0.26337000  1.0
  H  H9  1  0.82818000  0.05898000  0.73663000  1.0
  H  H10  1  0.76431000  0.12702000  0.36253000  1.0
  H  H11  1  0.23569000  0.87298000  0.63747000  1.0
  H  H12  1  0.15561000  0.78605000  0.37107000  1.0
  H  H13  1  0.84439000  0.21395000  0.62893000  1.0
  H  H14  1  0.92167000  0.61325000  0.62874000  1.0
  H  H15  1  0.07834000  0.38675000  0.37126000  1.0
  H  H16  1  0.76088000  0.64225000  0.73607000  1.0
  H  H17  1  0.23912000  0.35775000  0.26393000  1.0
  H  H18  1  0.63911000  0.02746000  0.54429000  1.0
  H  H19  1  0.36088000  0.97254000  0.45571000  1.0
  H  H20  1  0.44361000  0.06633000  0.67832000  1.0
  H  H21  1  0.55639000  0.93367000  0.32168000  1.0
  H  H22  1  0.42430000  0.88616000  0.83783000  1.0
  H  H23  1  0.57570000  0.11384000  0.16218000  1.0
  H  H24  1  0.10307000  0.46114000  0.67089000  1.0
  H  H25  1  0.89693000  0.53886000  0.32911000  1.0
  H  H26  1  0.29619000  0.27060000  0.68746000  1.0
  H  H27  1  0.70382000  0.72940000  0.31254000  1.0
  H  H28  1  0.47946000  0.26027000  0.54192000  1.0
  H  H29  1  0.52055000  0.73973000  0.45808000  1.0
  H  H30  1  0.25926000  0.62782000  0.35280000  1.0
  H  H31  1  0.74074000  0.37219000  0.64720000  1.0
  H  H32  1  0.61185000  0.87950000  0.07947000  1.0
  H  H33  1  0.38815000  0.12050000  0.92053000  1.0
  H  H34  1  0.75798000  0.02362000  0.07060000  1.0
  H  H35  1  0.24203000  0.97638000  0.92940000  1.0
  H  H36  1  0.01780000  0.93709000  0.08711000  1.0
  H  H37  1  0.98220000  0.06291000  0.91289000  1.0
  H  H38  1  0.98811000  0.57306000  0.11526000  1.0
  H  H39  1  0.01189000  0.42694000  0.88474000  1.0
  H  H40  1  0.51817000  0.65315000  0.87295000  1.0
  H  H41  1  0.48183000  0.34685000  0.12705000  1.0
  C  C42  1  0.96691000  0.23833000  0.17310000  1.0
  C  C43  1  0.03309000  0.76167000  0.82690000  1.0
  C  C44  1  0.08201000  0.13432000  0.18169000  1.0
  C  C45  1  0.91798000  0.86568000  0.81831000  1.0
  C  C46  1  0.08217000  0.02273000  0.25823000  1.0
  C  C47  1  0.91782000  0.97727000  0.74177000  1.0
  C  C48  1  0.96792000  0.01691000  0.32671000  1.0
  C  C49  1  0.03208000  0.98309000  0.67329000  1.0
  C  C50  1  0.85604000  0.12590000  0.31215000  1.0
  C  C51  1  0.14395000  0.87410000  0.68785000  1.0
  C  C52  1  0.96035000  0.90235000  0.41131000  1.0
  C  C53  1  0.03965000  0.09765000  0.58869000  1.0
  C  C54  1  0.06495000  0.78978000  0.42266000  1.0
  C  C55  1  0.93505000  0.21022000  0.57734000  1.0
  C  C56  1  0.05386000  0.68162000  0.50086000  1.0
  C  C57  1  0.94614000  0.31838000  0.49915000  1.0
  C  C58  1  0.93668000  0.69431000  0.56771000  1.0
  C  C59  1  0.06332000  0.30570000  0.43229000  1.0
  C  C60  1  0.83833000  0.81157000  0.55493000  1.0
  C  C61  1  0.16166000  0.18843000  0.44507000  1.0
  C  C62  1  0.69489000  0.73856000  0.71902000  1.0
  C  C63  1  0.30511000  0.26144000  0.28098000  1.0
  C  C64  1  0.71786000  0.83282000  0.62895000  1.0
  C  C65  1  0.28214000  0.16718000  0.37105000  1.0
  C  C66  1  0.62443000  0.95272000  0.61393000  1.0
  C  C67  1  0.37557000  0.04728000  0.38607000  1.0
  C  C68  1  0.51733000  0.97418000  0.68824000  1.0
  C  C69  1  0.48267000  0.02582000  0.31176000  1.0
  C  C70  1  0.50548000  0.87470000  0.77636000  1.0
  C  C71  1  0.49452000  0.12530000  0.22364000  1.0
  C  C72  1  0.16439000  0.56228000  0.51123000  1.0
  C  C73  1  0.83561000  0.43773000  0.48877000  1.0
  C  C74  1  0.17745000  0.45787000  0.60399000  1.0
  C  C75  1  0.82255000  0.54213000  0.39601000  1.0
  C  C76  1  0.28853000  0.34958000  0.61416000  1.0
  C  C77  1  0.71147000  0.65042000  0.38584000  1.0
  C  C78  1  0.39029000  0.34311000  0.53361000  1.0
  C  C79  1  0.60971000  0.65690000  0.46639000  1.0
  C  C80  1  0.37777000  0.44558000  0.43987000  1.0
  C  C81  1  0.62223000  0.55442000  0.56013000  1.0
  C  C82  1  0.26458000  0.55246000  0.42869000  1.0
  C  C83  1  0.73542000  0.44754000  0.57131000  1.0
  C  C84  1  0.48171000  0.44666000  0.34933000  1.0
  C  C85  1  0.51829000  0.55334000  0.65067000  1.0
  C  C86  1  0.70506000  0.63122000  0.10983000  1.0
  C  C87  1  0.29494000  0.36878000  0.89017000  1.0
  C  C88  1  0.79121000  0.71769000  0.10069000  1.0
  C  C89  1  0.20879000  0.28231000  0.89931000  1.0
  C  C90  1  0.72590000  0.84500000  0.08710000  1.0
  C  C91  1  0.27411000  0.15500000  0.91290000  1.0
  C  C92  1  0.80686000  0.92411000  0.08406000  1.0
  C  C93  1  0.19314000  0.07589000  0.91594000  1.0
  C  C94  1  0.95260000  0.87670000  0.09177000  1.0
  C  C95  1  0.04740000  0.12329000  0.90823000  1.0
  C  C96  1  0.01875000  0.75081000  0.10100000  1.0
  C  C97  1  0.98125000  0.24919000  0.89900000  1.0
  C  C98  1  0.93729000  0.67118000  0.10763000  1.0
  C  C99  1  0.06271000  0.32882000  0.89236000  1.0
  C  C100  1  0.17468000  0.70478000  0.09452000  1.0
  C  C101  1  0.82532000  0.29522000  0.90548000  1.0
  N  N102  1  0.85555000  0.23283000  0.23677000  1.0
  N  N103  1  0.14445000  0.76717000  0.76323000  1.0
  N  N104  1  0.84921000  0.91315000  0.47670000  1.0
  N  N105  1  0.15079000  0.08685000  0.52329000  1.0
  N  N106  1  0.59181000  0.75907000  0.79055000  1.0
  N  N107  1  0.40819000  0.24093000  0.20945000  1.0
  O  O108  1  0.58791000  0.34907000  0.35845000  1.0
  O  O109  1  0.41209000  0.65093000  0.64155000  1.0
  O  O110  1  0.46080000  0.54347000  0.26772000  1.0
  O  O111  1  0.53920000  0.45653000  0.73228000  1.0
  O  O112  1  0.76937000  0.51568000  0.15283000  1.0
  O  O113  1  0.23063000  0.48432000  0.84717000  1.0
  O  O114  1  0.57751000  0.67843000  0.07651000  1.0
  O  O115  1  0.42249000  0.32157000  0.92349000  1.0
  O  O116  1  0.22944000  0.58902000  0.09727000  1.0
  O  O117  1  0.77056000  0.41098000  0.90273000  1.0
  O  O118  1  0.24648000  0.77881000  0.08287000  1.0
  O  O119  1  0.75352000  0.22118000  0.91713000  1.0
  O  O120  1  0.45570000  0.60065000  0.90667000  1.0
  O  O121  1  0.54430000  0.39935000  0.09333000  1.0
