# generated using pymatgen
data_CdH16C22(NO2)2
_symmetry_space_group_name_H-M   'P 1'
_cell_length_a   7.48528000
_cell_length_b   9.80035000
_cell_length_c   13.20640000
_cell_angle_alpha   88.48290000
_cell_angle_beta   77.26700000
_cell_angle_gamma   72.27790000
_symmetry_Int_Tables_number   1
_chemical_formula_structural   CdH16C22(NO2)2
_chemical_formula_sum   'Cd2 H32 C44 N4 O8'
_cell_volume   899.26982660
_cell_formula_units_Z   2
loop_
 _symmetry_equiv_pos_site_id
 _symmetry_equiv_pos_as_xyz
  1  'x, y, z'
loop_
 _atom_site_type_symbol
 _atom_site_label
 _atom_site_symmetry_multiplicity
 _atom_site_fract_x
 _atom_site_fract_y
 _atom_site_fract_z
 _atom_site_occupancy
  Cd  Cd0  1  0.28045000  0.95520000  0.48412000  1.0
  Cd  Cd1  1  0.71955000  0.04482000  0.51588000  1.0
  H  H2  1  0.07838000  0.89781000  0.71712000  1.0
  H  H3  1  0.92162000  0.10219000  0.28288000  1.0
  H  H4  1  0.15586000  0.73328000  0.85706000  1.0
  H  H5  1  0.84414000  0.26672000  0.14294000  1.0
  H  H6  1  0.62448000  0.45944000  0.62939000  1.0
  H  H7  1  0.37552000  0.54056000  0.37060000  1.0
  H  H8  1  0.53618000  0.63905000  0.49890000  1.0
  H  H9  1  0.46382000  0.36096000  0.50110000  1.0
  H  H10  1  0.54864000  0.38465000  0.81263000  1.0
  H  H11  1  0.45136000  0.61535000  0.18736000  1.0
  H  H12  1  0.23843000  0.59570000  0.96850000  1.0
  H  H13  1  0.76158000  0.40429000  0.03150000  1.0
  H  H14  1  0.53002000  0.69936000  0.00451000  1.0
  H  H15  1  0.46999000  0.30064000  0.99548000  1.0
  H  H16  1  0.80120000  0.45970000  0.85410000  1.0
  H  H17  1  0.19881000  0.54030000  0.14588000  1.0
  H  H18  1  0.95444000  0.52420000  0.68220000  1.0
  H  H19  1  0.04557000  0.47582000  0.31780000  1.0
  H  H20  1  0.96599000  0.71100000  0.55257000  1.0
  H  H21  1  0.03402000  0.28902000  0.44743000  1.0
  H  H22  1  0.52171000  0.01786000  0.74329000  1.0
  H  H23  1  0.47826000  0.98214000  0.25671000  1.0
  H  H24  1  0.48308000  0.84563000  0.88045000  1.0
  H  H25  1  0.51690000  0.15436000  0.11954000  1.0
  H  H26  1  0.64964000  0.76475000  0.18595000  1.0
  H  H27  1  0.35035000  0.23525000  0.81406000  1.0
  H  H28  1  0.81347000  0.81098000  0.00820000  1.0
  H  H29  1  0.18651000  0.18900000  0.99181000  1.0
  H  H30  1  0.12044000  0.87246000  0.98358000  1.0
  H  H31  1  0.87956000  0.12750000  0.01642000  1.0
  H  H32  1  0.26743000  0.87519000  0.13511000  1.0
  H  H33  1  0.73257000  0.12480000  0.86489000  1.0
  C  C34  1  0.19893000  0.79959000  0.70043000  1.0
  C  C35  1  0.80107000  0.20042000  0.29958000  1.0
  C  C36  1  0.24406000  0.70656000  0.77875000  1.0
  C  C37  1  0.75594000  0.29344000  0.22125000  1.0
  C  C38  1  0.40587000  0.58466000  0.75673000  1.0
  C  C39  1  0.59414000  0.41534000  0.24326000  1.0
  C  C40  1  0.50229000  0.55568000  0.65218000  1.0
  C  C41  1  0.49771000  0.44432000  0.34782000  1.0
  C  C42  1  0.45049000  0.65416000  0.57834000  1.0
  C  C43  1  0.54951000  0.34585000  0.42165000  1.0
  C  C44  1  0.49640000  0.49870000  0.83761000  1.0
  C  C45  1  0.50362000  0.50129000  0.16238000  1.0
  C  C46  1  0.39085000  0.53288000  0.95241000  1.0
  C  C47  1  0.60915000  0.46711000  0.04758000  1.0
  C  C48  1  0.55437000  0.59029000  0.97454000  1.0
  C  C49  1  0.44563000  0.40971000  0.02546000  1.0
  C  C50  1  0.66980000  0.55109000  0.86094000  1.0
  C  C51  1  0.33021000  0.44891000  0.13905000  1.0
  C  C52  1  0.71183000  0.66666667  0.79287000  1.0
  C  C53  1  0.28817000  0.33333333  0.20713000  1.0
  C  C54  1  0.85347000  0.63222000  0.70014000  1.0
  C  C55  1  0.14653000  0.36779000  0.29985000  1.0
  C  C56  1  0.86266000  0.73619000  0.62692000  1.0
  C  C57  1  0.13734000  0.26383000  0.37308000  1.0
  C  C58  1  0.61491000  0.90764000  0.73361000  1.0
  C  C59  1  0.38508000  0.09236000  0.26639000  1.0
  C  C60  1  0.59576000  0.81005000  0.81016000  1.0
  C  C61  1  0.40422000  0.18995000  0.18984000  1.0
  C  C62  1  0.03825000  0.82899000  0.24522000  1.0
  C  C63  1  0.96176000  0.17101000  0.75478000  1.0
  C  C64  1  0.86033000  0.80176000  0.26048000  1.0
  C  C65  1  0.13967000  0.19824000  0.73953000  1.0
  C  C66  1  0.78386000  0.79158000  0.17391000  1.0
  C  C67  1  0.21614000  0.20842000  0.82611000  1.0
  C  C68  1  0.87629000  0.81666000  0.07459000  1.0
  C  C69  1  0.12370000  0.18332000  0.92542000  1.0
  C  C70  1  0.04932000  0.84936000  0.06028000  1.0
  C  C71  1  0.95068000  0.15061000  0.93972000  1.0
  C  C72  1  0.13090000  0.85253000  0.14479000  1.0
  C  C73  1  0.86910000  0.14746000  0.85521000  1.0
  C  C74  1  0.75020000  0.77674000  0.36630000  1.0
  C  C75  1  0.24980000  0.22327000  0.63370000  1.0
  C  C76  1  0.13286000  0.83876000  0.33278000  1.0
  C  C77  1  0.86713000  0.16125000  0.66723000  1.0
  N  N78  1  0.30455000  0.77750000  0.60244000  1.0
  N  N79  1  0.69545000  0.22250000  0.39756000  1.0
  N  N80  1  0.74291000  0.87154000  0.64208000  1.0
  N  N81  1  0.25708000  0.12847000  0.35792000  1.0
  O  O82  1  0.31440000  0.80155000  0.31490000  1.0
  O  O83  1  0.68560000  0.19846000  0.68510000  1.0
  O  O84  1  0.02615000  0.89073000  0.42196000  1.0
  O  O85  1  0.97385000  0.10929000  0.57804000  1.0
  O  O86  1  0.62040000  0.88951000  0.41501000  1.0
  O  O87  1  0.37959000  0.11050000  0.58500000  1.0
  O  O88  1  0.78737000  0.65164000  0.39579000  1.0
  O  O89  1  0.21263000  0.34837000  0.60422000  1.0
