# generated using pymatgen
data_AlH11C8S
_symmetry_space_group_name_H-M   'P 1'
_cell_length_a   6.92406000
_cell_length_b   7.06532000
_cell_length_c   8.94903000
_cell_angle_alpha   100.84000000
_cell_angle_beta   89.99970000
_cell_angle_gamma   90.00000000
_symmetry_Int_Tables_number   1
_chemical_formula_structural   AlH11C8S
_chemical_formula_sum   'Al2 H22 C16 S2'
_cell_volume   429.98091862
_cell_formula_units_Z   2
loop_
 _symmetry_equiv_pos_site_id
 _symmetry_equiv_pos_as_xyz
  1  'x, y, z'
loop_
 _atom_site_type_symbol
 _atom_site_label
 _atom_site_symmetry_multiplicity
 _atom_site_fract_x
 _atom_site_fract_y
 _atom_site_fract_z
 _atom_site_occupancy
  Al  Al0  1  0.55806000  0.86565000  0.07603000  1.0
  Al  Al1  1  0.44195000  0.36566000  0.07603000  1.0
  H  H2  1  0.46008000  0.87412000  0.59873000  1.0
  H  H3  1  0.53991000  0.37412000  0.59872000  1.0
  H  H4  1  0.71541000  0.85444000  0.40077000  1.0
  H  H5  1  0.28457000  0.35445000  0.40078000  1.0
  H  H6  1  0.03204000  0.01654000  0.46302000  1.0
  H  H7  1  0.96794000  0.51655000  0.46305000  1.0
  H  H8  1  0.09441000  0.19629000  0.72608000  1.0
  H  H9  1  0.90559000  0.69630000  0.72612000  1.0
  H  H10  1  0.84128000  0.21469000  0.92414000  1.0
  H  H11  1  0.15874000  0.71469000  0.92417000  1.0
  H  H12  1  0.36910000  0.77191000  0.30162000  1.0
  H  H13  1  0.63088000  0.27191000  0.30163000  1.0
  H  H14  1  0.21492000  0.89769000  0.19638000  1.0
  H  H15  1  0.78508000  0.39770000  0.19639000  1.0
  H  H16  1  0.38862000  0.02465000  0.32315000  1.0
  H  H17  1  0.61136000  0.52465000  0.32315000  1.0
  H  H18  1  0.91625000  0.90433000  0.01129000  1.0
  H  H19  1  0.08375000  0.40432000  0.01129000  1.0
  H  H20  1  0.89442000  0.76893000  0.15837000  1.0
  H  H21  1  0.10560000  0.26893000  0.15837000  1.0
  H  H22  1  0.87002000  0.02393000  0.20058000  1.0
  H  H23  1  0.12998000  0.52392000  0.20058000  1.0
  C  C24  1  0.63519000  0.04625000  0.77340000  1.0
  C  C25  1  0.36483000  0.54625000  0.77341000  1.0
  C  C26  1  0.59938000  0.94398000  0.62605000  1.0
  C  C27  1  0.40061000  0.44398000  0.62606000  1.0
  C  C28  1  0.74304000  0.93381000  0.51530000  1.0
  C  C29  1  0.25697000  0.43381000  0.51532000  1.0
  C  C30  1  0.92068000  0.02501000  0.55018000  1.0
  C  C31  1  0.07931000  0.52501000  0.55021000  1.0
  C  C32  1  0.95587000  0.12560000  0.69751000  1.0
  C  C33  1  0.04414000  0.62560000  0.69754000  1.0
  C  C34  1  0.81388000  0.13617000  0.80930000  1.0
  C  C35  1  0.18615000  0.63616000  0.80933000  1.0
  C  C36  1  0.36322000  0.89182000  0.23909000  1.0
  C  C37  1  0.63678000  0.39182000  0.23910000  1.0
  C  C38  1  0.83689000  0.89409000  0.11580000  1.0
  C  C39  1  0.16312000  0.39408000  0.11580000  1.0
  S  S40  1  0.44436000  0.06010000  0.90898000  1.0
  S  S41  1  0.55565000  0.56009000  0.90897000  1.0
