# generated using pymatgen
data_CoPH6C2NO3
_symmetry_space_group_name_H-M   'P 1'
_cell_length_a   6.42768000
_cell_length_b   8.32714000
_cell_length_c   9.75077000
_cell_angle_alpha   90.00000000
_cell_angle_beta   99.83950000
_cell_angle_gamma   90.00000000
_symmetry_Int_Tables_number   1
_chemical_formula_structural   CoPH6C2NO3
_chemical_formula_sum   'Co4 P4 H24 C8 N4 O12'
_cell_volume   514.22506615
_cell_formula_units_Z   4
loop_
 _symmetry_equiv_pos_site_id
 _symmetry_equiv_pos_as_xyz
  1  'x, y, z'
loop_
 _atom_site_type_symbol
 _atom_site_label
 _atom_site_symmetry_multiplicity
 _atom_site_fract_x
 _atom_site_fract_y
 _atom_site_fract_z
 _atom_site_occupancy
  Co  Co0  1  0.50992000  0.66375000  0.34319000  1.0
  Co  Co1  1  0.49008000  0.16375000  0.15681000  1.0
  Co  Co2  1  0.49008000  0.33625000  0.65681000  1.0
  Co  Co3  1  0.50992000  0.83625000  0.84319000  1.0
  P  P4  1  0.75813000  0.85709000  0.15324000  1.0
  P  P5  1  0.24187000  0.35709000  0.34676000  1.0
  P  P6  1  0.24187000  0.14291000  0.84676000  1.0
  P  P7  1  0.75813000  0.64291000  0.65324000  1.0
  H  H8  1  0.09257000  0.72673000  0.16548000  1.0
  H  H9  1  0.90744000  0.22672000  0.33452000  1.0
  H  H10  1  0.90743000  0.27328000  0.83452000  1.0
  H  H11  1  0.09257000  0.77328000  0.66548000  1.0
  H  H12  1  0.11209000  0.93985000  0.16790000  1.0
  H  H13  1  0.88791000  0.43985000  0.33210000  1.0
  H  H14  1  0.88791000  0.06015000  0.83210000  1.0
  H  H15  1  0.11210000  0.56015000  0.66790000  1.0
  H  H16  1  0.02805000  0.93092000  0.41670000  1.0
  H  H17  1  0.97195000  0.43092000  0.08330000  1.0
  H  H18  1  0.97195000  0.06908000  0.58330000  1.0
  H  H19  1  0.02805000  0.56908000  0.91670000  1.0
  H  H20  1  0.05122000  0.71883000  0.41149000  1.0
  H  H21  1  0.94878000  0.21883000  0.08851000  1.0
  H  H22  1  0.94878000  0.28116000  0.58851000  1.0
  H  H23  1  0.05122000  0.78117000  0.91149000  1.0
  H  H24  1  0.37968000  0.84275000  0.51610000  1.0
  H  H25  1  0.62032000  0.34275000  0.98390000  1.0
  H  H26  1  0.62032000  0.15725000  0.48390000  1.0
  H  H27  1  0.37968000  0.65725000  0.01610000  1.0
  H  H28  1  0.38210000  0.95289000  0.37666000  1.0
  H  H29  1  0.61791000  0.45289000  0.12334000  1.0
  H  H30  1  0.61791000  0.04711000  0.62334000  1.0
  H  H31  1  0.38209000  0.54711000  0.87666000  1.0
  C  C32  1  0.03951000  0.83639000  0.21200000  1.0
  C  C33  1  0.96049000  0.33638000  0.28800000  1.0
  C  C34  1  0.96049000  0.16362000  0.78800000  1.0
  C  C35  1  0.03951000  0.66362000  0.71200000  1.0
  C  C36  1  0.10366000  0.83124000  0.36968000  1.0
  C  C37  1  0.89634000  0.33124000  0.13032000  1.0
  C  C38  1  0.89634000  0.16876000  0.63032000  1.0
  C  C39  1  0.10366000  0.66876000  0.86968000  1.0
  N  N40  1  0.33645000  0.84298000  0.40951000  1.0
  N  N41  1  0.66356000  0.34298000  0.09049000  1.0
  N  N42  1  0.66356000  0.15702000  0.59049000  1.0
  N  N43  1  0.33645000  0.65702000  0.90951000  1.0
  O  O44  1  0.68312000  0.99539000  0.23870000  1.0
  O  O45  1  0.31687000  0.49539000  0.26130000  1.0
  O  O46  1  0.31687000  0.00461000  0.76130000  1.0
  O  O47  1  0.68313000  0.50461000  0.73870000  1.0
  O  O48  1  0.64389000  0.69811000  0.17955000  1.0
  O  O49  1  0.35611000  0.19811000  0.32045000  1.0
  O  O50  1  0.35611000  0.30189000  0.82045000  1.0
  O  O51  1  0.64389000  0.80189000  0.67955000  1.0
  O  O52  1  0.73059000  0.89436000  0.99635000  1.0
  O  O53  1  0.26941000  0.39435000  0.50365000  1.0
  O  O54  1  0.26941000  0.10564000  0.00365000  1.0
  O  O55  1  0.73059000  0.60564000  0.49635000  1.0
