# generated using pymatgen
data_ZnH22C26N3O4
_symmetry_space_group_name_H-M   'P 1'
_cell_length_a   16.25610000
_cell_length_b   17.39100000
_cell_length_c   19.40330000
_cell_angle_alpha   85.87950000
_cell_angle_beta   85.38780000
_cell_angle_gamma   86.21420000
_symmetry_Int_Tables_number   1
_chemical_formula_structural   ZnH22C26N3O4
_chemical_formula_sum   'Zn2 H44 C52 N6 O8'
_cell_volume   5443.58373765
_cell_formula_units_Z   2
loop_
 _symmetry_equiv_pos_site_id
 _symmetry_equiv_pos_as_xyz
  1  'x, y, z'
loop_
 _atom_site_type_symbol
 _atom_site_label
 _atom_site_symmetry_multiplicity
 _atom_site_fract_x
 _atom_site_fract_y
 _atom_site_fract_z
 _atom_site_occupancy
  Zn  Zn0  1  0.58582000  0.50029000  0.49449000  1.0
  Zn  Zn1  1  0.41418000  0.49969000  0.50551000  1.0
  H  H2  1  0.62775000  0.51568000  0.71416000  1.0
  H  H3  1  0.37226000  0.48431000  0.28585000  1.0
  H  H4  1  0.27816000  0.58029000  0.43283000  1.0
  H  H5  1  0.72184000  0.41970000  0.56717000  1.0
  H  H6  1  0.71085000  0.59303000  0.41046000  1.0
  H  H7  1  0.28915000  0.40696000  0.58954000  1.0
  H  H8  1  0.13508000  0.39752000  0.59829000  1.0
  H  H9  1  0.86492000  0.60248000  0.40172000  1.0
  H  H10  1  0.62139000  0.51594000  0.84372000  1.0
  H  H11  1  0.37860000  0.48408000  0.15628000  1.0
  H  H12  1  0.39525000  0.25784000  0.56951000  1.0
  H  H13  1  0.60475000  0.74213000  0.43050000  1.0
  H  H14  1  0.64535000  0.10514000  0.48020000  1.0
  H  H15  1  0.35466000  0.89485000  0.51980000  1.0
  H  H16  1  0.60273000  0.88646000  0.42400000  1.0
  H  H17  1  0.39729000  0.11352000  0.57601000  1.0
  H  H18  1  0.99706000  0.55820000  0.43642000  1.0
  H  H19  1  0.00294000  0.44182000  0.56360000  1.0
  H  H20  1  0.87510000  0.42112000  0.56640000  1.0
  H  H21  1  0.12490000  0.57889000  0.43361000  1.0
  H  H22  1  0.25760000  0.55895000  0.79307000  1.0
  H  H23  1  0.25529000  0.45793000  0.78557000  1.0
  H  H24  1  0.20074000  0.50120000  0.85692000  1.0
  H  H25  1  0.33135000  0.43173000  0.89380000  1.0
  H  H26  1  0.32786000  0.52967000  0.90660000  1.0
  H  H27  1  0.74469000  0.54215000  0.21442000  1.0
  H  H28  1  0.74242000  0.44113000  0.20692000  1.0
  H  H29  1  0.79925000  0.49889000  0.14307000  1.0
  H  H30  1  0.67215000  0.47038000  0.09339000  1.0
  H  H31  1  0.66862000  0.56833000  0.10619000  1.0
  H  H32  1  0.36696000  0.49318000  0.72531000  1.0
  H  H33  1  0.63304000  0.50683000  0.27469000  1.0
  H  H34  1  0.35605000  0.75062000  0.52285000  1.0
  H  H35  1  0.64396000  0.24937000  0.47715000  1.0
  H  H36  1  0.46456000  0.95989000  0.33203000  1.0
  H  H37  1  0.36467000  0.95738000  0.37517000  1.0
  H  H38  1  0.39033000  0.03784000  0.31765000  1.0
  H  H39  1  0.39158000  0.07348000  0.43946000  1.0
  H  H40  1  0.48934000  0.07882000  0.39579000  1.0
  H  H41  1  0.63533000  0.04260000  0.62483000  1.0
  H  H42  1  0.53543000  0.04009000  0.66796000  1.0
  H  H43  1  0.60966000  0.96214000  0.68236000  1.0
  H  H44  1  0.51067000  0.92116000  0.60421000  1.0
  H  H45  1  0.60843000  0.92651000  0.56054000  1.0
  C  C46  1  0.51551000  0.34860000  0.51561000  1.0
  C  C47  1  0.48449000  0.65138000  0.48439000  1.0
  C  C48  1  0.51923000  0.26216000  0.52257000  1.0
  C  C49  1  0.48077000  0.73782000  0.47743000  1.0
  C  C50  1  0.45005000  0.22364000  0.55087000  1.0
  C  C51  1  0.54995000  0.77634000  0.44913000  1.0
  C  C52  1  0.45133000  0.14339000  0.55402000  1.0
  C  C53  1  0.54869000  0.85659000  0.44598000  1.0
  C  C54  1  0.52095000  0.09967000  0.52758000  1.0
  C  C55  1  0.47906000  0.90032000  0.47242000  1.0
  C  C56  1  0.59079000  0.13855000  0.50082000  1.0
  C  C57  1  0.40921000  0.86144000  0.49918000  1.0
  C  C58  1  0.59027000  0.21889000  0.49877000  1.0
  C  C59  1  0.40974000  0.78110000  0.50123000  1.0
  C  C60  1  0.51849000  0.01440000  0.52588000  1.0
  C  C61  1  0.48153000  0.98558000  0.47411000  1.0
  C  C62  1  0.24321000  0.54072000  0.46824000  1.0
  C  C63  1  0.75679000  0.45928000  0.53176000  1.0
  C  C64  1  0.15800000  0.53918000  0.46920000  1.0
  C  C65  1  0.84200000  0.46083000  0.53081000  1.0
  C  C66  1  0.11597000  0.48717000  0.51632000  1.0
  C  C67  1  0.88403000  0.51284000  0.48369000  1.0
  C  C68  1  0.49806000  0.50393000  0.63538000  1.0
  C  C69  1  0.50196000  0.49606000  0.36462000  1.0
  C  C70  1  0.16426000  0.43890000  0.56069000  1.0
  C  C71  1  0.83574000  0.56111000  0.43932000  1.0
  C  C72  1  0.24951000  0.44367000  0.55640000  1.0
  C  C73  1  0.75049000  0.55633000  0.44361000  1.0
  C  C74  1  0.02668000  0.48112000  0.52123000  1.0
  C  C75  1  0.97331000  0.51889000  0.47879000  1.0
  C  C76  1  0.56957000  0.50999000  0.74553000  1.0
  C  C77  1  0.43044000  0.49001000  0.25446000  1.0
  C  C78  1  0.56578000  0.50980000  0.81727000  1.0
  C  C79  1  0.43422000  0.49022000  0.18273000  1.0
  C  C80  1  0.49064000  0.50150000  0.85784000  1.0
  C  C81  1  0.50935000  0.49853000  0.14215000  1.0
  C  C82  1  0.41634000  0.49486000  0.82533000  1.0
  C  C83  1  0.58366000  0.50516000  0.17466000  1.0
  C  C84  1  0.42205000  0.49659000  0.75300000  1.0
  C  C85  1  0.57795000  0.50342000  0.24700000  1.0
  C  C86  1  0.49698000  0.50334000  0.71289000  1.0
  C  C87  1  0.50302000  0.49666000  0.28710000  1.0
  C  C88  1  0.50571000  0.49913000  0.06654000  1.0
  C  C89  1  0.49427000  0.50093000  0.93345000  1.0
  C  C90  1  0.33289000  0.48878000  0.86546000  1.0
  C  C91  1  0.25782000  0.50256000  0.82258000  1.0
  C  C92  1  0.66710000  0.51127000  0.13453000  1.0
  C  C93  1  0.74218000  0.49752000  0.17741000  1.0
  C  C94  1  0.44364000  0.03740000  0.41661000  1.0
  C  C95  1  0.41425000  0.99569000  0.35721000  1.0
  C  C96  1  0.55636000  0.96259000  0.58339000  1.0
  C  C97  1  0.58575000  0.00429000  0.64279000  1.0
  N  N98  1  0.44120000  0.45865000  0.97572000  1.0
  N  N99  1  0.55876000  0.54142000  0.02428000  1.0
  N  N100  1  0.44700000  0.45778000  0.04310000  1.0
  N  N101  1  0.55296000  0.54229000  0.95690000  1.0
  N  N102  1  0.28826000  0.49376000  0.51104000  1.0
  N  N103  1  0.71174000  0.50623000  0.48896000  1.0
  O  O104  1  0.58369000  0.38150000  0.50615000  1.0
  O  O105  1  0.41630000  0.61849000  0.49386000  1.0
  O  O106  1  0.44358000  0.38282000  0.51886000  1.0
  O  O107  1  0.55641000  0.61717000  0.48114000  1.0
  O  O108  1  0.56840000  0.50380000  0.60124000  1.0
  O  O109  1  0.43161000  0.49620000  0.39876000  1.0
  O  O110  1  0.42827000  0.50444000  0.60983000  1.0
  O  O111  1  0.57174000  0.49554000  0.39017000  1.0
