# generated using pymatgen
data_CdH24C26S2N2(ClO4)2
_symmetry_space_group_name_H-M   'P 1'
_cell_length_a   11.38380000
_cell_length_b   11.38270000
_cell_length_c   14.21053126
_cell_angle_alpha   102.22522301
_cell_angle_beta   102.23589896
_cell_angle_gamma   118.10500000
_symmetry_Int_Tables_number   1
_chemical_formula_structural   CdH24C26S2N2(ClO4)2
_chemical_formula_sum   'Cd2 H48 C52 S4 N4 Cl4 O16'
_cell_volume   1480.03004402
_cell_formula_units_Z   2
loop_
 _symmetry_equiv_pos_site_id
 _symmetry_equiv_pos_as_xyz
  1  'x, y, z'
loop_
 _atom_site_type_symbol
 _atom_site_label
 _atom_site_symmetry_multiplicity
 _atom_site_fract_x
 _atom_site_fract_y
 _atom_site_fract_z
 _atom_site_occupancy
  Cd  Cd0  1  0.97927000  0.97926000  0.00001000  1.0
  Cd  Cd1  1  0.72921000  0.22918000  0.49999000  1.0
  H  H2  1  0.60899000  0.49145000  0.43416000  1.0
  H  H3  1  0.05724000  0.17475000  0.56571000  1.0
  H  H4  1  0.92480000  0.30726000  0.06594000  1.0
  H  H5  1  0.24159000  0.85905000  0.93416000  1.0
  H  H6  1  0.64136000  0.37053000  0.28658000  1.0
  H  H7  1  0.08384000  0.35465000  0.71330000  1.0
  H  H8  1  0.10486000  0.33393000  0.21346000  1.0
  H  H9  1  0.12067000  0.89144000  0.78658000  1.0
  H  H10  1  0.93370000  0.78008000  0.27387000  1.0
  H  H11  1  0.50618000  0.65974000  0.72624000  1.0
  H  H12  1  0.40984000  0.75618000  0.22613000  1.0
  H  H13  1  0.53013000  0.18362000  0.77375000  1.0
  H  H14  1  0.90695000  0.90179000  0.42841000  1.0
  H  H15  1  0.47342000  0.47850000  0.57167000  1.0
  H  H16  1  0.22846000  0.72333000  0.07161000  1.0
  H  H17  1  0.65192000  0.15698000  0.92839000  1.0
  H  H18  1  0.76703000  0.64232000  0.62337000  1.0
  H  H19  1  0.01892000  0.14369000  0.37663000  1.0
  H  H20  1  0.89341000  0.26876000  0.87668000  1.0
  H  H21  1  0.39208000  0.01679000  0.12332000  1.0
  H  H22  1  0.93130000  0.80091000  0.64296000  1.0
  H  H23  1  0.15799000  0.28846000  0.35714000  1.0
  H  H24  1  0.03814000  0.40779000  0.85714000  1.0
  H  H25  1  0.55064000  0.18108000  0.14287000  1.0
  H  H26  1  0.77413000  0.89925000  0.12950000  1.0
  H  H27  1  0.76997000  0.64484000  0.87077000  1.0
  H  H28  1  0.39464000  0.01973000  0.37048000  1.0
  H  H29  1  0.64904000  0.02404000  0.62930000  1.0
  H  H30  1  0.56289000  0.69174000  0.13632000  1.0
  H  H31  1  0.55560000  0.42672000  0.86380000  1.0
  H  H32  1  0.17650000  0.80545000  0.36357000  1.0
  H  H33  1  0.44156000  0.81293000  0.63623000  1.0
  H  H34  1  0.29690000  0.33287000  0.83509000  1.0
  H  H35  1  0.49773000  0.46167000  0.16484000  1.0
  H  H36  1  0.21161000  0.74782000  0.66487000  1.0
  H  H37  1  0.08279000  0.54673000  0.33516000  1.0
  H  H38  1  0.08687000  0.12452000  0.84259000  1.0
  H  H39  1  0.28184000  0.24412000  0.15729000  1.0
  H  H40  1  0.99413000  0.53186000  0.65741000  1.0
  H  H41  1  0.87451000  0.33667000  0.34273000  1.0
  H  H42  1  0.07494000  0.79794000  0.02553000  1.0
  H  H43  1  0.77240000  0.04936000  0.97453000  1.0
  H  H44  1  0.79965000  0.02258000  0.47445000  1.0
  H  H45  1  0.54805000  0.32501000  0.52547000  1.0
  H  H46  1  0.11250000  0.91129000  0.13599000  1.0
  H  H47  1  0.77530000  0.97656000  0.86403000  1.0
  H  H48  1  0.72667000  0.02542000  0.36399000  1.0
  H  H49  1  0.66139000  0.36266000  0.63599000  1.0
  C  C50  1  0.75750000  0.70466000  0.44016000  1.0
  C  C51  1  0.26450000  0.31729000  0.55982000  1.0
  C  C52  1  0.06727000  0.51448000  0.05992000  1.0
  C  C53  1  0.45477000  0.00752000  0.94014000  1.0
  C  C54  1  0.68095000  0.55554000  0.40023000  1.0
  C  C55  1  0.15526000  0.28066000  0.59967000  1.0
  C  C56  1  0.03070000  0.40530000  0.09986000  1.0
  C  C57  1  0.30567000  0.93100000  0.90021000  1.0
  C  C58  1  0.69682000  0.48658000  0.31515000  1.0
  C  C59  1  0.17134000  0.38158000  0.68475000  1.0
  C  C60  1  0.13171000  0.42142000  0.18491000  1.0
  C  C61  1  0.23671000  0.94686000  0.81513000  1.0
  C  C62  1  0.78642000  0.56829000  0.26995000  1.0
  C  C63  1  0.29825000  0.51635000  0.73002000  1.0
  C  C64  1  0.26651000  0.54832000  0.23008000  1.0
  C  C65  1  0.31841000  0.03641000  0.76990000  1.0
  C  C66  1  0.86355000  0.71727000  0.30946000  1.0
  C  C67  1  0.40780000  0.55400000  0.69060000  1.0
  C  C68  1  0.30408000  0.65779000  0.19057000  1.0
  C  C69  1  0.46739000  0.11349000  0.80938000  1.0
  C  C70  1  0.84870000  0.78562000  0.39591000  1.0
  C  C71  1  0.38973000  0.45273000  0.60413000  1.0
  C  C72  1  0.20273000  0.63970000  0.10414000  1.0
  C  C73  1  0.53576000  0.09870000  0.89588000  1.0
  C  C74  1  0.82303000  0.75925000  0.64413000  1.0
  C  C75  1  0.11508000  0.17895000  0.35588000  1.0
  C  C76  1  0.92869000  0.36497000  0.85594000  1.0
  C  C77  1  0.50901000  0.07283000  0.14409000  1.0
  C  C78  1  0.82483000  0.82973000  0.74936000  1.0
  C  C79  1  0.08040000  0.07562000  0.25062000  1.0
  C  C80  1  0.82535000  0.33037000  0.75071000  1.0
  C  C81  1  0.57962000  0.07473000  0.24935000  1.0
  C  C82  1  0.72350000  0.79212000  0.07323000  1.0
  C  C83  1  0.71907000  0.65042000  0.92700000  1.0
  C  C84  1  0.40020000  0.96885000  0.42674000  1.0
  C  C85  1  0.54192000  0.97340000  0.57304000  1.0
  C  C86  1  0.60570000  0.67594000  0.07641000  1.0
  C  C87  1  0.59965000  0.52941000  0.92373000  1.0
  C  C88  1  0.27918000  0.84950000  0.42353000  1.0
  C  C89  1  0.42573000  0.85567000  0.57628000  1.0
  C  C90  1  0.54121000  0.54122000  0.00004000  1.0
  C  C91  1  0.29097000  0.79114000  0.49993000  1.0
  C  C92  1  0.41537000  0.41536000  0.99998000  1.0
  C  C93  1  0.16519000  0.66535000  0.50000000  1.0
  C  C94  1  0.29818000  0.31775000  0.90838000  1.0
  C  C95  1  0.40932000  0.38968000  0.09155000  1.0
  C  C96  1  0.13958000  0.65937000  0.59160000  1.0
  C  C97  1  0.06763000  0.54804000  0.40844000  1.0
  C  C98  1  0.18088000  0.20160000  0.91197000  1.0
  C  C99  1  0.28958000  0.26875000  0.08792000  1.0
  C  C100  1  0.01873000  0.53959000  0.58802000  1.0
  C  C101  1  0.95158000  0.43072000  0.41209000  1.0
  S  S102  1  0.72803000  0.79319000  0.54466000  1.0
  S  S103  1  0.24844000  0.18328000  0.45528000  1.0
  S  S104  1  0.93319000  0.49838000  0.95541000  1.0
  S  S105  1  0.54303000  0.97786000  0.04467000  1.0
  N  N106  1  0.77964000  0.77964000  0.00014000  1.0
  N  N107  1  0.52943000  0.02946000  0.49988000  1.0
  N  N108  1  0.17683000  0.17680000  0.99993000  1.0
  N  N109  1  0.92681000  0.42678000  0.50008000  1.0
  Cl  Cl110  1  0.80051000  0.48110000  0.16116000  1.0
  Cl  Cl111  1  0.31980000  0.63915000  0.83883000  1.0
  Cl  Cl112  1  0.38941000  0.56994000  0.33887000  1.0
  Cl  Cl113  1  0.23119000  0.05043000  0.66108000  1.0
  O  O114  1  0.82061000  0.95153000  0.56634000  1.0
  O  O115  1  0.38504000  0.25412000  0.43355000  1.0
  O  O116  1  0.00399000  0.63499000  0.93366000  1.0
  O  O117  1  0.70141000  0.07036000  0.06652000  1.0
  O  O118  1  0.72468000  0.84907000  0.75190000  1.0
  O  O119  1  0.09688000  0.97272000  0.24805000  1.0
  O  O120  1  0.72272000  0.34727000  0.74816000  1.0
  O  O121  1  0.59881000  0.97449000  0.25192000  1.0
  O  O122  1  0.93032000  0.86184000  0.82584000  1.0
  O  O123  1  0.03647000  0.10490000  0.17418000  1.0
  O  O124  1  0.85436000  0.28602000  0.67424000  1.0
  O  O125  1  0.61202000  0.18039000  0.32578000  1.0
  O  O126  1  0.12775000  0.90139000  0.06826000  1.0
  O  O127  1  0.83311000  0.05949000  0.93179000  1.0
  O  O128  1  0.80966000  0.08330000  0.43172000  1.0
  O  O129  1  0.65149000  0.37781000  0.56821000  1.0
