# generated using pymatgen
data_Zr3H10(C9O8)2
_symmetry_space_group_name_H-M   'P 1'
_cell_length_a   12.92190000
_cell_length_b   15.11210000
_cell_length_c   15.14750000
_cell_angle_alpha   90.04370000
_cell_angle_beta   89.91210000
_cell_angle_gamma   89.94760000
_symmetry_Int_Tables_number   1
_chemical_formula_structural   Zr3H10(C9O8)2
_chemical_formula_sum   'Zr6 H20 C36 O32'
_cell_volume   2957.95345751
_cell_formula_units_Z   2
loop_
 _symmetry_equiv_pos_site_id
 _symmetry_equiv_pos_as_xyz
  1  'x, y, z'
loop_
 _atom_site_type_symbol
 _atom_site_label
 _atom_site_symmetry_multiplicity
 _atom_site_fract_x
 _atom_site_fract_y
 _atom_site_fract_z
 _atom_site_occupancy
  Zr  Zr0  1  0.00697000  0.98820000  0.83538000  1.0
  Zr  Zr1  1  0.00755000  0.83089000  0.00767000  1.0
  Zr  Zr2  1  0.00974000  0.16636000  0.98867000  1.0
  Zr  Zr3  1  0.00359000  0.00689000  0.16237000  1.0
  Zr  Zr4  1  0.81183000  0.99868000  0.99720000  1.0
  Zr  Zr5  1  0.20179000  0.99699000  0.99855000  1.0
  H  H6  1  0.15626000  0.85966000  0.86745000  1.0
  H  H7  1  0.85515000  0.86997000  0.13455000  1.0
  H  H8  1  0.15657000  0.13325000  0.12894000  1.0
  H  H9  1  0.86881000  0.13440000  0.85635000  1.0
  H  H10  1  0.95248000  0.71063000  0.13395000  1.0
  H  H11  1  0.00672000  0.82322000  0.20101000  1.0
  H  H12  1  0.95093000  0.13022000  0.27755000  1.0
  H  H13  1  0.00360000  0.20232000  0.17043000  1.0
  H  H14  1  0.05424000  0.28829000  0.87259000  1.0
  H  H15  1  0.95250000  0.07197000  0.67400000  1.0
  H  H16  1  0.95315000  0.86517000  0.71883000  1.0
  H  H17  1  0.00221000  0.79508000  0.82515000  1.0
  H  H18  1  0.93739000  0.27510000  0.11492000  1.0
  H  H19  1  0.07448000  0.07740000  0.69117000  1.0
  H  H20  1  0.93349000  0.72167000  0.87910000  1.0
  H  H21  1  0.07525000  0.87843000  0.27234000  1.0
  H  H22  1  0.69860000  0.99823000  0.49546000  1.0
  H  H23  1  0.31456000  0.99807000  0.49904000  1.0
  H  H24  1  0.69833000  0.49733000  0.99897000  1.0
  H  H25  1  0.31385000  0.49727000  0.99732000  1.0
  C  C26  1  0.75748000  0.98692000  0.78768000  1.0
  C  C27  1  0.25537000  0.78877000  0.00755000  1.0
  C  C28  1  0.75578000  0.78909000  0.99713000  1.0
  C  C29  1  0.25965000  0.00147000  0.79077000  1.0
  C  C30  1  0.26008000  0.20357000  0.98762000  1.0
  C  C31  1  0.75539000  0.01008000  0.20551000  1.0
  C  C32  1  0.25494000  0.99368000  0.20703000  1.0
  C  C33  1  0.75345000  0.20369000  0.00275000  1.0
  C  C34  1  0.56265000  0.99701000  0.57784000  1.0
  C  C35  1  0.45226000  0.99844000  0.57886000  1.0
  C  C36  1  0.39880000  0.99821000  0.49833000  1.0
  C  C37  1  0.45046000  0.99821000  0.41679000  1.0
  C  C38  1  0.56087000  0.99985000  0.41585000  1.0
  C  C39  1  0.61435000  0.99835000  0.49638000  1.0
  C  C40  1  0.56117000  0.57840000  0.99875000  1.0
  C  C41  1  0.45071000  0.57839000  0.99950000  1.0
  C  C42  1  0.39812000  0.49723000  0.99763000  1.0
  C  C43  1  0.45108000  0.41618000  0.99630000  1.0
  C  C44  1  0.56145000  0.41616000  0.99819000  1.0
  C  C45  1  0.61406000  0.49728000  0.99870000  1.0
  C  C46  1  0.39341000  0.33696000  0.99303000  1.0
  C  C47  1  0.33730000  0.27238000  0.98935000  1.0
  C  C48  1  0.67579000  0.27241000  0.00221000  1.0
  C  C49  1  0.61940000  0.33697000  0.99976000  1.0
  C  C50  1  0.39183000  0.65714000  0.00243000  1.0
  C  C51  1  0.33280000  0.71992000  0.00596000  1.0
  C  C52  1  0.67835000  0.72043000  0.99659000  1.0
  C  C53  1  0.61982000  0.65727000  0.99791000  1.0
  C  C54  1  0.39088000  0.99643000  0.33868000  1.0
  C  C55  1  0.33192000  0.99397000  0.27606000  1.0
  C  C56  1  0.61911000  0.00342000  0.33696000  1.0
  C  C57  1  0.67784000  0.00782000  0.27415000  1.0
  C  C58  1  0.33675000  0.00215000  0.72173000  1.0
  C  C59  1  0.39440000  0.00000000  0.65805000  1.0
  C  C60  1  0.68033000  0.98974000  0.71898000  1.0
  C  C61  1  0.62197000  0.99390000  0.65602000  1.0
  O  O62  1  0.85130000  0.98349000  0.75979000  1.0
  O  O63  1  0.72770000  0.98894000  0.86742000  1.0
  O  O64  1  0.16198000  0.76177000  0.00887000  1.0
  O  O65  1  0.28630000  0.86897000  0.00634000  1.0
  O  O66  1  0.84966000  0.76116000  0.99617000  1.0
  O  O67  1  0.72594000  0.86924000  0.99969000  1.0
  O  O68  1  0.16586000  0.00706000  0.76385000  1.0
  O  O69  1  0.28960000  0.99371000  0.87018000  1.0
  O  O70  1  0.01040000  0.86933000  0.76026000  1.0
  O  O71  1  0.00562000  0.08836000  0.71658000  1.0
  O  O72  1  0.00062000  0.75112000  0.87932000  1.0
  O  O73  1  0.00291000  0.75752000  0.12610000  1.0
  O  O74  1  0.92413000  0.92585000  0.93212000  1.0
  O  O75  1  0.11562000  0.89835000  0.90525000  1.0
  O  O76  1  0.16714000  0.23151000  0.98266000  1.0
  O  O77  1  0.28995000  0.12323000  0.99222000  1.0
  O  O78  1  0.84881000  0.01442000  0.23306000  1.0
  O  O79  1  0.72529000  0.00626000  0.12561000  1.0
  O  O80  1  0.16110000  0.98961000  0.23350000  1.0
  O  O81  1  0.28631000  0.99887000  0.12754000  1.0
  O  O82  1  0.84583000  0.23043000  0.01311000  1.0
  O  O83  1  0.72396000  0.12378000  0.99139000  1.0
  O  O84  1  0.00513000  0.24642000  0.11719000  1.0
  O  O85  1  0.99462000  0.25303000  0.88933000  1.0
  O  O86  1  0.00787000  0.12577000  0.23570000  1.0
  O  O87  1  0.00751000  0.87794000  0.24388000  1.0
  O  O88  1  0.11514000  0.09609000  0.09041000  1.0
  O  O89  1  0.92414000  0.06787000  0.06128000  1.0
  O  O90  1  0.09150000  0.06371000  0.92622000  1.0
  O  O91  1  0.89623000  0.90757000  0.09626000  1.0
  O  O92  1  0.90268000  0.09202000  0.89503000  1.0
  O  O93  1  0.08796000  0.93080000  0.06846000  1.0
