# generated using pymatgen
data_Co3H13C11S(NO2)5
_symmetry_space_group_name_H-M   'P 1'
_cell_length_a   7.80637000
_cell_length_b   15.33000000
_cell_length_c   18.21560000
_cell_angle_alpha   72.35700000
_cell_angle_beta   77.62770000
_cell_angle_gamma   75.25630000
_symmetry_Int_Tables_number   1
_chemical_formula_structural   Co3H13C11S(NO2)5
_chemical_formula_sum   'Co12 H52 C44 S4 N20 O40'
_cell_volume   1986.59306243
_cell_formula_units_Z   4
loop_
 _symmetry_equiv_pos_site_id
 _symmetry_equiv_pos_as_xyz
  1  'x, y, z'
loop_
 _atom_site_type_symbol
 _atom_site_label
 _atom_site_symmetry_multiplicity
 _atom_site_fract_x
 _atom_site_fract_y
 _atom_site_fract_z
 _atom_site_occupancy
  Co  Co0  1  0.14822000  0.87133000  0.89730000  1.0
  Co  Co1  1  0.82133000  0.98225000  0.99153000  1.0
  Co  Co2  1  0.89230000  0.74673000  0.98936000  1.0
  Co  Co3  1  0.91682000  0.62874000  0.60272000  1.0
  Co  Co4  1  0.79528000  0.51775000  0.50843000  1.0
  Co  Co5  1  0.62854000  0.75327000  0.51065000  1.0
  Co  Co6  1  0.85178000  0.12867000  0.10271000  1.0
  Co  Co7  1  0.17868000  0.01775000  0.00848000  1.0
  Co  Co8  1  0.10771000  0.25327000  0.01065000  1.0
  Co  Co9  1  0.08317000  0.37126000  0.39728000  1.0
  Co  Co10  1  0.20471000  0.48226000  0.49156000  1.0
  Co  Co11  1  0.37144000  0.24674000  0.48935000  1.0
  H  H12  1  0.05312000  0.82385000  0.04778000  1.0
  H  H13  1  0.05439000  0.05989000  0.87246000  1.0
  H  H14  1  0.20643000  0.00361000  0.76533000  1.0
  H  H15  1  0.47641000  0.71486000  0.87448000  1.0
  H  H16  1  0.69298000  0.68118000  0.90264000  1.0
  H  H17  1  0.50172000  0.94746000  0.09082000  1.0
  H  H18  1  0.66708000  0.84972000  0.10622000  1.0
  H  H19  1  0.59450000  0.31770000  0.25281000  1.0
  H  H20  1  0.92218000  0.50071000  0.08929000  1.0
  H  H21  1  0.57007000  0.58934000  0.28174000  1.0
  H  H22  1  0.11486000  0.84972000  0.74069000  1.0
  H  H23  1  0.11688000  0.96484000  0.67735000  1.0
  H  H24  1  0.32189000  0.87911000  0.68592000  1.0
  H  H25  1  0.92503000  0.67620000  0.45231000  1.0
  H  H26  1  0.98671000  0.44008000  0.62756000  1.0
  H  H27  1  0.97533000  0.49656000  0.73473000  1.0
  H  H28  1  0.06576000  0.78535000  0.62542000  1.0
  H  H29  1  0.27702000  0.81885000  0.59734000  1.0
  H  H30  1  0.53993000  0.55245000  0.40930000  1.0
  H  H31  1  0.62304000  0.65019000  0.39380000  1.0
  H  H32  1  0.16509000  0.18213000  0.24736000  1.0
  H  H33  1  0.51277000  0.99920000  0.41062000  1.0
  H  H34  1  0.44102000  0.91049000  0.21837000  1.0
  H  H35  1  0.70513000  0.65040000  0.75941000  1.0
  H  H36  1  0.75927000  0.53529000  0.82282000  1.0
  H  H37  1  0.88702000  0.62117000  0.81401000  1.0
  H  H38  1  0.94688000  0.17615000  0.95223000  1.0
  H  H39  1  0.94560000  0.94010000  0.12754000  1.0
  H  H40  1  0.79360000  0.99638000  0.23467000  1.0
  H  H41  1  0.52360000  0.28514000  0.12553000  1.0
  H  H42  1  0.30703000  0.31882000  0.09736000  1.0
  H  H43  1  0.49829000  0.05254000  0.90919000  1.0
  H  H44  1  0.33293000  0.15028000  0.89378000  1.0
  H  H45  1  0.40550000  0.68230000  0.74719000  1.0
  H  H46  1  0.07783000  0.49929000  0.91072000  1.0
  H  H47  1  0.42990000  0.41067000  0.71825000  1.0
  H  H48  1  0.88515000  0.15027000  0.25931000  1.0
  H  H49  1  0.88312000  0.03515000  0.32265000  1.0
  H  H50  1  0.67812000  0.12089000  0.31408000  1.0
  H  H51  1  0.07495000  0.32380000  0.54769000  1.0
  H  H52  1  0.01328000  0.55992000  0.37244000  1.0
  H  H53  1  0.02466000  0.50344000  0.26528000  1.0
  H  H54  1  0.93424000  0.21464000  0.37459000  1.0
  H  H55  1  0.72297000  0.18115000  0.40266000  1.0
  H  H56  1  0.46003000  0.44756000  0.59068000  1.0
  H  H57  1  0.37694000  0.34982000  0.60619000  1.0
  H  H58  1  0.83492000  0.81787000  0.75263000  1.0
  H  H59  1  0.48724000  0.00081000  0.58938000  1.0
  H  H60  1  0.55901000  0.08952000  0.78163000  1.0
  H  H61  1  0.29486000  0.34960000  0.24059000  1.0
  H  H62  1  0.24072000  0.46471000  0.17719000  1.0
  H  H63  1  0.11297000  0.37883000  0.18599000  1.0
  C  C64  1  0.52146000  0.78544000  0.94415000  1.0
  C  C65  1  0.52994000  0.86517000  0.02127000  1.0
  C  C66  1  0.56564000  0.45178000  0.27421000  1.0
  C  C67  1  0.63593000  0.38471000  0.23187000  1.0
  C  C68  1  0.76204000  0.40232000  0.16477000  1.0
  C  C69  1  0.82110000  0.48717000  0.14045000  1.0
  C  C70  1  0.75369000  0.55225000  0.18409000  1.0
  C  C71  1  0.62382000  0.53641000  0.24963000  1.0
  C  C72  1  0.43445000  0.43195000  0.34704000  1.0
  C  C73  1  0.84218000  0.32900000  0.12164000  1.0
  C  C74  1  0.19139000  0.90533000  0.71732000  1.0
  C  C75  1  0.25114000  0.71457000  0.55589000  1.0
  C  C76  1  0.41638000  0.63483000  0.47875000  1.0
  C  C77  1  0.29171000  0.04811000  0.22584000  1.0
  C  C78  1  0.25272000  0.11516000  0.26820000  1.0
  C  C79  1  0.32923000  0.09750000  0.33532000  1.0
  C  C80  1  0.44886000  0.01269000  0.35960000  1.0
  C  C81  1  0.49018000  0.94764000  0.31594000  1.0
  C  C82  1  0.40990000  0.96347000  0.25041000  1.0
  C  C83  1  0.21338000  0.06806000  0.15303000  1.0
  C  C84  1  0.29294000  0.17084000  0.37843000  1.0
  C  C85  1  0.81400000  0.59484000  0.78274000  1.0
  C  C86  1  0.47855000  0.21455000  0.05586000  1.0
  C  C87  1  0.47007000  0.13482000  0.97873000  1.0
  C  C88  1  0.43435000  0.54821000  0.72579000  1.0
  C  C89  1  0.36406000  0.61528000  0.76813000  1.0
  C  C90  1  0.23795000  0.59768000  0.83523000  1.0
  C  C91  1  0.17890000  0.51283000  0.85955000  1.0
  C  C92  1  0.24630000  0.44775000  0.81592000  1.0
  C  C93  1  0.37617000  0.46358000  0.75037000  1.0
  C  C94  1  0.56552000  0.56806000  0.65296000  1.0
  C  C95  1  0.15783000  0.67100000  0.87836000  1.0
  C  C96  1  0.80862000  0.09467000  0.28268000  1.0
  C  C97  1  0.74886000  0.28543000  0.44411000  1.0
  C  C98  1  0.58360000  0.36518000  0.52124000  1.0
  C  C99  1  0.70831000  0.95189000  0.77416000  1.0
  C  C100  1  0.74729000  0.88484000  0.73180000  1.0
  C  C101  1  0.67078000  0.90250000  0.66468000  1.0
  C  C102  1  0.55116000  0.98732000  0.64040000  1.0
  C  C103  1  0.50983000  0.05237000  0.68406000  1.0
  C  C104  1  0.59012000  0.03654000  0.74959000  1.0
  C  C105  1  0.78665000  0.93194000  0.84696000  1.0
  C  C106  1  0.70705000  0.82916000  0.62157000  1.0
  C  C107  1  0.18600000  0.40516000  0.21726000  1.0
  S  S108  1  0.85871000  0.64820000  0.16747000  1.0
  S  S109  1  0.67458000  0.85168000  0.33250000  1.0
  S  S110  1  0.14130000  0.35180000  0.83254000  1.0
  S  S111  1  0.32542000  0.14832000  0.66750000  1.0
  N  N112  1  0.36803000  0.89730000  0.99916000  1.0
  N  N113  1  0.36247000  0.84607000  0.94784000  1.0
  N  N114  1  0.62921000  0.79430000  0.99012000  1.0
  N  N115  1  0.57346000  0.72621000  0.89833000  1.0
  N  N116  1  0.60200000  0.90285000  0.06505000  1.0
  N  N117  1  0.26443000  0.60273000  0.50085000  1.0
  N  N118  1  0.15643000  0.65394000  0.55221000  1.0
  N  N119  1  0.41372000  0.70569000  0.50992000  1.0
  N  N120  1  0.19802000  0.77393000  0.60159000  1.0
  N  N121  1  0.56987000  0.59712000  0.43502000  1.0
  N  N122  1  0.63198000  0.10269000  0.00084000  1.0
  N  N123  1  0.63753000  0.15393000  0.05216000  1.0
  N  N124  1  0.37080000  0.20570000  0.00988000  1.0
  N  N125  1  0.42654000  0.27378000  0.10168000  1.0
  N  N126  1  0.39801000  0.09716000  0.93495000  1.0
  N  N127  1  0.73555000  0.39728000  0.49914000  1.0
  N  N128  1  0.84356000  0.34606000  0.44779000  1.0
  N  N129  1  0.58627000  0.29431000  0.49008000  1.0
  N  N130  1  0.80198000  0.22606000  0.39841000  1.0
  N  N131  1  0.43010000  0.40289000  0.56497000  1.0
  O  O132  1  0.39833000  0.48765000  0.39037000  1.0
  O  O133  1  0.36649000  0.35982000  0.36151000  1.0
  O  O134  1  0.76076000  0.26316000  0.13270000  1.0
  O  O135  1  0.99074000  0.33778000  0.07588000  1.0
  O  O136  1  0.97230000  0.61765000  0.22945000  1.0
  O  O137  1  0.97123000  0.65421000  0.08929000  1.0
  O  O138  1  0.72082000  0.73139000  0.17104000  1.0
  O  O139  1  0.98149000  0.84545000  0.00552000  1.0
  O  O140  1  0.06237000  0.00787000  0.91916000  1.0
  O  O141  1  0.21793000  0.93406000  0.78149000  1.0
  O  O142  1  0.27620000  0.01239000  0.10966000  1.0
  O  O143  1  0.08791000  0.14023000  0.13857000  1.0
  O  O144  1  0.15672000  0.23666000  0.36738000  1.0
  O  O145  1  0.40459000  0.16213000  0.42413000  1.0
  O  O146  1  0.81949000  0.88228000  0.27045000  1.0
  O  O147  1  0.71545000  0.84554000  0.41063000  1.0
  O  O148  1  0.62311000  0.76858000  0.32892000  1.0
  O  O149  1  0.83261000  0.65456000  0.49446000  1.0
  O  O150  1  0.98940000  0.49213000  0.58088000  1.0
  O  O151  1  0.93322000  0.56608000  0.71853000  1.0
  O  O152  1  0.60165000  0.51236000  0.60963000  1.0
  O  O153  1  0.63348000  0.64018000  0.63849000  1.0
  O  O154  1  0.23925000  0.73684000  0.86730000  1.0
  O  O155  1  0.00927000  0.66222000  0.92412000  1.0
  O  O156  1  0.02769000  0.38235000  0.77056000  1.0
  O  O157  1  0.02876000  0.34579000  0.91071000  1.0
  O  O158  1  0.27918000  0.26862000  0.82896000  1.0
  O  O159  1  0.01851000  0.15454000  0.99448000  1.0
  O  O160  1  0.93764000  0.99213000  0.08084000  1.0
  O  O161  1  0.78208000  0.06594000  0.21851000  1.0
  O  O162  1  0.72381000  0.98761000  0.89034000  1.0
  O  O163  1  0.91210000  0.85976000  0.86143000  1.0
  O  O164  1  0.84327000  0.76334000  0.63262000  1.0
  O  O165  1  0.59541000  0.83788000  0.57587000  1.0
  O  O166  1  0.18051000  0.11772000  0.72956000  1.0
  O  O167  1  0.28456000  0.15446000  0.58937000  1.0
  O  O168  1  0.37689000  0.23142000  0.67107000  1.0
  O  O169  1  0.16737000  0.34545000  0.50554000  1.0
  O  O170  1  0.01062000  0.50787000  0.41912000  1.0
  O  O171  1  0.06677000  0.43392000  0.28147000  1.0
