# generated using pymatgen
data_CsH7C6O7
_symmetry_space_group_name_H-M   'P 1'
_cell_length_a   5.05400000
_cell_length_b   9.40510000
_cell_length_c   19.62560000
_cell_angle_alpha   90.00040000
_cell_angle_beta   90.00040000
_cell_angle_gamma   89.99990000
_symmetry_Int_Tables_number   1
_chemical_formula_structural   CsH7C6O7
_chemical_formula_sum   'Cs4 H28 C24 O28'
_cell_volume   932.87101220
_cell_formula_units_Z   4
loop_
 _symmetry_equiv_pos_site_id
 _symmetry_equiv_pos_as_xyz
  1  'x, y, z'
loop_
 _atom_site_type_symbol
 _atom_site_label
 _atom_site_symmetry_multiplicity
 _atom_site_fract_x
 _atom_site_fract_y
 _atom_site_fract_z
 _atom_site_occupancy
  Cs  Cs0  1  0.81072000  0.98978000  0.19112000  1.0
  Cs  Cs1  1  0.31072000  0.51022000  0.69113000  1.0
  Cs  Cs2  1  0.81073000  0.48977000  0.30888000  1.0
  Cs  Cs3  1  0.31072000  0.01022000  0.80888000  1.0
  H  H4  1  0.22370000  0.39463000  0.98908000  1.0
  H  H5  1  0.72369000  0.10538000  0.48908000  1.0
  H  H6  1  0.22371000  0.89462000  0.51092000  1.0
  H  H7  1  0.72369000  0.60537000  0.01092000  1.0
  H  H8  1  0.96009000  0.33137000  0.04144000  1.0
  H  H9  1  0.46009000  0.16864000  0.54144000  1.0
  H  H10  1  0.96010000  0.83136000  0.45856000  1.0
  H  H11  1  0.46008000  0.66864000  0.95856000  1.0
  H  H12  1  0.66354000  0.36638000  0.12873000  1.0
  H  H13  1  0.16352000  0.13363000  0.62874000  1.0
  H  H14  1  0.66353000  0.86637000  0.37127000  1.0
  H  H15  1  0.16352000  0.63362000  0.87127000  1.0
  H  H16  1  0.21752000  0.60887000  0.04626000  1.0
  H  H17  1  0.71756000  0.89114000  0.54625000  1.0
  H  H18  1  0.21751000  0.10886000  0.45374000  1.0
  H  H19  1  0.71753000  0.39114000  0.95374000  1.0
  H  H20  1  0.97145000  0.55609000  0.10542000  1.0
  H  H21  1  0.47149000  0.94390000  0.60543000  1.0
  H  H22  1  0.97147000  0.05608000  0.39457000  1.0
  H  H23  1  0.47146000  0.44391000  0.89457000  1.0
  H  H24  1  0.33998000  0.68902000  0.25042000  1.0
  H  H25  1  0.83996000  0.81098000  0.75041000  1.0
  H  H26  1  0.33996000  0.18903000  0.24958000  1.0
  H  H27  1  0.83996000  0.31098000  0.74959000  1.0
  H  H28  1  0.54286000  0.06886000  0.97903000  1.0
  H  H29  1  0.04284000  0.43115000  0.47903000  1.0
  H  H30  1  0.54287000  0.56886000  0.52096000  1.0
  H  H31  1  0.04285000  0.93114000  0.02097000  1.0
  C  C32  1  0.26481000  0.18195000  0.02486000  1.0
  C  C33  1  0.76481000  0.31807000  0.52486000  1.0
  C  C34  1  0.26482000  0.68194000  0.47514000  1.0
  C  C35  1  0.76480000  0.81806000  0.97514000  1.0
  C  C36  1  0.17525000  0.33246000  0.03461000  1.0
  C  C37  1  0.67525000  0.16754000  0.53461000  1.0
  C  C38  1  0.17526000  0.83247000  0.46539000  1.0
  C  C39  1  0.67525000  0.66755000  0.96539000  1.0
  C  C40  1  0.29982000  0.40970000  0.09707000  1.0
  C  C41  1  0.79983000  0.09031000  0.59706000  1.0
  C  C42  1  0.29982000  0.90969000  0.40294000  1.0
  C  C43  1  0.79986000  0.59030000  0.90294000  1.0
  C  C44  1  0.18607000  0.56170000  0.09648000  1.0
  C  C45  1  0.68612000  0.93830000  0.59648000  1.0
  C  C46  1  0.18607000  0.06169000  0.40351000  1.0
  C  C47  1  0.68607000  0.43830000  0.90352000  1.0
  C  C48  1  0.30560000  0.65880000  0.14927000  1.0
  C  C49  1  0.80566000  0.84121000  0.64927000  1.0
  C  C50  1  0.30562000  0.15878000  0.35073000  1.0
  C  C51  1  0.80562000  0.34121000  0.85073000  1.0
  C  C52  1  0.22244000  0.32794000  0.16248000  1.0
  C  C53  1  0.72246000  0.17206000  0.66248000  1.0
  C  C54  1  0.22245000  0.82793000  0.33752000  1.0
  C  C55  1  0.72245000  0.67206000  0.83752000  1.0
  O  O56  1  0.47788000  0.16991000  0.98607000  1.0
  O  O57  1  0.97785000  0.33010000  0.48606000  1.0
  O  O58  1  0.47789000  0.66991000  0.51393000  1.0
  O  O59  1  0.97787000  0.83009000  0.01393000  1.0
  O  O60  1  0.14774000  0.07909000  0.05113000  1.0
  O  O61  1  0.64775000  0.42092000  0.55114000  1.0
  O  O62  1  0.14776000  0.57909000  0.44886000  1.0
  O  O63  1  0.64776000  0.92091000  0.94887000  1.0
  O  O64  1  0.98377000  0.31840000  0.17950000  1.0
  O  O65  1  0.48378000  0.18160000  0.67951000  1.0
  O  O66  1  0.98378000  0.81838000  0.32050000  1.0
  O  O67  1  0.48377000  0.68160000  0.82050000  1.0
  O  O68  1  0.41756000  0.27040000  0.19433000  1.0
  O  O69  1  0.91755000  0.22960000  0.69433000  1.0
  O  O70  1  0.41757000  0.77039000  0.30567000  1.0
  O  O71  1  0.91755000  0.72959000  0.80567000  1.0
  O  O72  1  0.27847000  0.61091000  0.21265000  1.0
  O  O73  1  0.77847000  0.88908000  0.71264000  1.0
  O  O74  1  0.27846000  0.11091000  0.28735000  1.0
  O  O75  1  0.77846000  0.38909000  0.78736000  1.0
  O  O76  1  0.41158000  0.77379000  0.13524000  1.0
  O  O77  1  0.91171000  0.72623000  0.63524000  1.0
  O  O78  1  0.41165000  0.27378000  0.36476000  1.0
  O  O79  1  0.91160000  0.22620000  0.86476000  1.0
  O  O80  1  0.57953000  0.41771000  0.09021000  1.0
  O  O81  1  0.07955000  0.08231000  0.59021000  1.0
  O  O82  1  0.57953000  0.91770000  0.40979000  1.0
  O  O83  1  0.07952000  0.58230000  0.90978000  1.0
