# generated using pymatgen
data_CuH4C5SN
_symmetry_space_group_name_H-M   'P 1'
_cell_length_a   10.24146793
_cell_length_b   10.24150000
_cell_length_c   10.54040000
_cell_angle_alpha   84.30540000
_cell_angle_beta   64.98547238
_cell_angle_gamma   117.56010070
_symmetry_Int_Tables_number   1
_chemical_formula_structural   CuH4C5SN
_chemical_formula_sum   'Cu6 H24 C30 S6 N6'
_cell_volume   826.18536345
_cell_formula_units_Z   6
loop_
 _symmetry_equiv_pos_site_id
 _symmetry_equiv_pos_as_xyz
  1  'x, y, z'
loop_
 _atom_site_type_symbol
 _atom_site_label
 _atom_site_symmetry_multiplicity
 _atom_site_fract_x
 _atom_site_fract_y
 _atom_site_fract_z
 _atom_site_occupancy
  Cu  Cu0  1  0.52786000  0.27786000  0.75001000  1.0
  Cu  Cu1  1  0.47213000  0.72213000  0.25000000  1.0
  Cu  Cu2  1  0.65666000  0.54359000  0.97667000  1.0
  Cu  Cu3  1  0.02026000  0.63333000  0.52333000  1.0
  Cu  Cu4  1  0.34334000  0.45641000  0.02333000  1.0
  Cu  Cu5  1  0.97974000  0.36667000  0.47667000  1.0
  H  H6  1  0.22812000  0.75056000  0.19054000  1.0
  H  H7  1  0.44110000  0.41865000  0.30946000  1.0
  H  H8  1  0.77189000  0.24944000  0.80946000  1.0
  H  H9  1  0.55890000  0.58134000  0.69054000  1.0
  H  H10  1  0.38588000  0.99678000  0.97464000  1.0
  H  H11  1  0.47142000  0.36051000  0.52536000  1.0
  H  H12  1  0.61412000  0.00322000  0.02536000  1.0
  H  H13  1  0.52858000  0.63947000  0.47465000  1.0
  H  H14  1  0.27013000  0.22014000  0.29434000  1.0
  H  H15  1  0.01448000  0.56446000  0.20567000  1.0
  H  H16  1  0.72986000  0.77984000  0.70567000  1.0
  H  H17  1  0.98552000  0.43554000  0.79433000  1.0
  H  H18  1  0.10420000  0.96075000  0.49833000  1.0
  H  H19  1  0.95908000  0.60253000  0.00167000  1.0
  H  H20  1  0.89580000  0.03924000  0.50167000  1.0
  H  H21  1  0.04092000  0.39748000  0.99833000  1.0
  H  H22  1  0.50675000  0.02781000  0.62588000  1.0
  H  H23  1  0.15369000  0.13264000  0.87411000  1.0
  H  H24  1  0.49325000  0.97220000  0.37411000  1.0
  H  H25  1  0.84631000  0.86737000  0.12589000  1.0
  H  H26  1  0.28181000  0.79533000  0.61638000  1.0
  H  H27  1  0.91170000  0.89819000  0.88362000  1.0
  H  H28  1  0.71819000  0.20468000  0.38362000  1.0
  H  H29  1  0.08830000  0.10182000  0.11638000  1.0
  C  C30  1  0.23748000  0.85649000  0.20963000  1.0
  C  C31  1  0.56612000  0.44710000  0.29037000  1.0
  C  C32  1  0.76252000  0.14350000  0.79037000  1.0
  C  C33  1  0.43388000  0.55290000  0.70963000  1.0
  C  C34  1  0.32866000  0.99520000  0.08889000  1.0
  C  C35  1  0.58409000  0.41755000  0.41111000  1.0
  C  C36  1  0.67134000  0.00480000  0.91111000  1.0
  C  C37  1  0.41592000  0.58246000  0.58888000  1.0
  C  C38  1  0.34975000  0.13377000  0.11495000  1.0
  C  C39  1  0.74873000  0.46470000  0.38504000  1.0
  C  C40  1  0.65025000  0.86622000  0.88505000  1.0
  C  C41  1  0.25128000  0.53530000  0.61495000  1.0
  C  C42  1  0.26700000  0.11979000  0.26644000  1.0
  C  C43  1  0.88624000  0.53344000  0.23356000  1.0
  C  C44  1  0.73300000  0.88020000  0.73356000  1.0
  C  C45  1  0.11376000  0.46656000  0.76644000  1.0
  C  C46  1  0.17271000  0.97473000  0.38047000  1.0
  C  C47  1  0.85521000  0.55319000  0.11952000  1.0
  C  C48  1  0.82730000  0.02527000  0.61952000  1.0
  C  C49  1  0.14479000  0.44682000  0.88048000  1.0
  C  C50  1  0.37352000  0.99647000  0.68000000  1.0
  C  C51  1  0.17647000  0.05352000  0.82000000  1.0
  C  C52  1  0.62648000  0.00353000  0.32000000  1.0
  C  C53  1  0.82353000  0.94649000  0.18000000  1.0
  C  C54  1  0.24749000  0.86639000  0.67562000  1.0
  C  C55  1  0.04201000  0.92311000  0.82438000  1.0
  C  C56  1  0.75250000  0.13361000  0.32439000  1.0
  C  C57  1  0.95799000  0.07689000  0.17562000  1.0
  C  C58  1  0.07427000  0.82427000  0.75000000  1.0
  C  C59  1  0.92573000  0.17574000  0.25000000  1.0
  S  S60  1  0.47240000  0.31310000  0.96475000  1.0
  S  S61  1  0.77785000  0.43714000  0.53525000  1.0
  S  S62  1  0.52760000  0.68690000  0.03525000  1.0
  S  S63  1  0.22215000  0.56285000  0.46475000  1.0
  S  S64  1  0.91049000  0.66049000  0.75000000  1.0
  S  S65  1  0.08950000  0.33950000  0.25000000  1.0
  N  N66  1  0.15826000  0.84316000  0.35499000  1.0
  N  N67  1  0.69815000  0.51324000  0.14502000  1.0
  N  N68  1  0.84174000  0.15683000  0.64502000  1.0
  N  N69  1  0.30185000  0.48676000  0.85498000  1.0
  N  N70  1  0.34184000  0.09184000  0.75000000  1.0
  N  N71  1  0.65816000  0.90817000  0.24999000  1.0
