# generated using pymatgen
data_Zn4H18C41O30
_symmetry_space_group_name_H-M   'P 1'
_cell_length_a   15.19720000
_cell_length_b   20.09040000
_cell_length_c   22.66500000
_cell_angle_alpha   89.85830000
_cell_angle_beta   90.72450000
_cell_angle_gamma   89.65820000
_symmetry_Int_Tables_number   1
_chemical_formula_structural   Zn4H18C41O30
_chemical_formula_sum   'Zn8 H36 C82 O60'
_cell_volume   6919.32971990
_cell_formula_units_Z   2
loop_
 _symmetry_equiv_pos_site_id
 _symmetry_equiv_pos_as_xyz
  1  'x, y, z'
loop_
 _atom_site_type_symbol
 _atom_site_label
 _atom_site_symmetry_multiplicity
 _atom_site_fract_x
 _atom_site_fract_y
 _atom_site_fract_z
 _atom_site_occupancy
  Zn  Zn0  1  0.56923000  0.58303000  0.00018000  1.0
  Zn  Zn1  1  0.57054000  0.08227000  0.49700000  1.0
  Zn  Zn2  1  0.58052000  0.42413000  0.99506000  1.0
  Zn  Zn3  1  0.58482000  0.92317000  0.49820000  1.0
  Zn  Zn4  1  0.42373000  0.49455000  0.92874000  1.0
  Zn  Zn5  1  0.42807000  0.49666000  0.06913000  1.0
  Zn  Zn6  1  0.42525000  0.99368000  0.42843000  1.0
  Zn  Zn7  1  0.42891000  0.99664000  0.56771000  1.0
  H  H8  1  0.14833000  0.55366000  0.06119000  1.0
  H  H9  1  0.24687000  0.87596000  0.43433000  1.0
  H  H10  1  0.49848000  0.17626000  0.93644000  1.0
  H  H11  1  0.69346000  0.36970000  0.12118000  1.0
  H  H12  1  0.50263000  0.67723000  0.43682000  1.0
  H  H13  1  0.68638000  0.87388000  0.62062000  1.0
  H  H14  1  0.47057000  0.37473000  0.62484000  1.0
  H  H15  1  0.25897000  0.24839000  0.27068000  1.0
  H  H16  1  0.47129000  0.87630000  0.12595000  1.0
  H  H17  1  0.26043000  0.74458000  0.77655000  1.0
  H  H18  1  0.52093000  0.62823000  0.37559000  1.0
  H  H19  1  0.15098000  0.05619000  0.55894000  1.0
  H  H20  1  0.74816000  0.77558000  0.72432000  1.0
  H  H21  1  0.51818000  0.12759000  0.87538000  1.0
  H  H22  1  0.74884000  0.26485000  0.22137000  1.0
  H  H23  1  0.46404000  0.82635000  0.06336000  1.0
  H  H24  1  0.25213000  0.68552000  0.83095000  1.0
  H  H25  1  0.47051000  0.32504000  0.56237000  1.0
  H  H26  1  0.24709000  0.18890000  0.32451000  1.0
  H  H27  1  0.46413000  0.57660000  0.19143000  1.0
  H  H28  1  0.62699000  0.66857000  0.87788000  1.0
  H  H29  1  0.46849000  0.07527000  0.69038000  1.0
  H  H30  1  0.50433000  0.40639000  0.73127000  1.0
  H  H31  1  0.62069000  0.16439000  0.37523000  1.0
  H  H32  1  0.78257000  0.42006000  0.96702000  1.0
  H  H33  1  0.89415000  0.89227000  0.43931000  1.0
  H  H34  1  0.87795000  0.64263000  0.09644000  1.0
  H  H35  1  0.87249000  0.14270000  0.59799000  1.0
  H  H36  1  0.05188000  0.34696000  0.91010000  1.0
  H  H37  1  0.06954000  0.83856000  0.40757000  1.0
  H  H38  1  0.33198000  0.30320000  0.18348000  1.0
  H  H39  1  0.51313000  0.90704000  0.23152000  1.0
  H  H40  1  0.32921000  0.80052000  0.68847000  1.0
  H  H41  1  0.06386000  0.62599000  0.07785000  1.0
  H  H42  1  0.06518000  0.12369000  0.58428000  1.0
  H  H43  1  0.25216000  0.37758000  0.93839000  1.0
  C  C44  1  0.52496000  0.37643000  0.11058000  1.0
  C  C45  1  0.46352000  0.26097000  0.23712000  1.0
  C  C46  1  0.50015000  0.78437000  0.24113000  1.0
  C  C47  1  0.46360000  0.76242000  0.74140000  1.0
  C  C48  1  0.50334000  0.33333333  0.78566000  1.0
  C  C49  1  0.45798000  0.30311000  0.18571000  1.0
  C  C50  1  0.51131000  0.83407000  0.28595000  1.0
  C  C51  1  0.45511000  0.80313000  0.68935000  1.0
  C  C52  1  0.50073000  0.24722000  0.86153000  1.0
  C  C53  1  0.61851000  0.30665000  0.18155000  1.0
  C  C54  1  0.50684000  0.74813000  0.36187000  1.0
  C  C55  1  0.50383000  0.36983000  0.88967000  1.0
  C  C56  1  0.61520000  0.81107000  0.68375000  1.0
  C  C57  1  0.50354000  0.19710000  0.81811000  1.0
  C  C58  1  0.62574000  0.26270000  0.23068000  1.0
  C  C59  1  0.50688000  0.69794000  0.31843000  1.0
  C  C60  1  0.62544000  0.76909000  0.73405000  1.0
  C  C61  1  0.83441000  0.51497000  0.01734000  1.0
  C  C62  1  0.83489000  0.01553000  0.51807000  1.0
  C  C63  1  0.16681000  0.47440000  0.00102000  1.0
  C  C64  1  0.16713000  0.97585000  0.50046000  1.0
  C  C65  1  0.03433000  0.42003000  0.96093000  1.0
  C  C66  1  0.51761000  0.87514000  0.61126000  1.0
  C  C67  1  0.03178000  0.92136000  0.46173000  1.0
  C  C68  1  0.12809000  0.42452000  0.96441000  1.0
  C  C69  1  0.12693000  0.92498000  0.46440000  1.0
  C  C70  1  0.11552000  0.51765000  0.03264000  1.0
  C  C71  1  0.11664000  0.01968000  0.53164000  1.0
  C  C72  1  0.49216000  0.62159000  0.88409000  1.0
  C  C73  1  0.48280000  0.63315000  0.10645000  1.0
  C  C74  1  0.48384000  0.12190000  0.38238000  1.0
  C  C75  1  0.49046000  0.13172000  0.60583000  1.0
  C  C76  1  0.02214000  0.51659000  0.02724000  1.0
  C  C77  1  0.51205000  0.87085000  0.39007000  1.0
  C  C78  1  0.02253000  0.01937000  0.52750000  1.0
  C  C79  1  0.97980000  0.46624000  0.99219000  1.0
  C  C80  1  0.97972000  0.96901000  0.49297000  1.0
  C  C81  1  0.88579000  0.46430000  0.98998000  1.0
  C  C82  1  0.88602000  0.96697000  0.48923000  1.0
  C  C83  1  0.87878000  0.56577000  0.04951000  1.0
  C  C84  1  0.87796000  0.06594000  0.55010000  1.0
  C  C85  1  0.97018000  0.56512000  0.05493000  1.0
  C  C86  1  0.97034000  0.06736000  0.55508000  1.0
  C  C87  1  0.73807000  0.51484000  0.01041000  1.0
  C  C88  1  0.49796000  0.71510000  0.25744000  1.0
  C  C89  1  0.73710000  0.01361000  0.51300000  1.0
  C  C90  1  0.26424000  0.48472000  0.00239000  1.0
  C  C91  1  0.26470000  0.98490000  0.50153000  1.0
  C  C92  1  0.50165000  0.31508000  0.84463000  1.0
  C  C93  1  0.53419000  0.32734000  0.16022000  1.0
  C  C94  1  0.51030000  0.81592000  0.34504000  1.0
  C  C95  1  0.52963000  0.82830000  0.66245000  1.0
  C  C96  1  0.47730000  0.68509000  0.15259000  1.0
  C  C97  1  0.48134000  0.67697000  0.84139000  1.0
  C  C98  1  0.48249000  0.18380000  0.65172000  1.0
  C  C99  1  0.54951000  0.74571000  0.76456000  1.0
  C  C100  1  0.47552000  0.17578000  0.33777000  1.0
  C  C101  1  0.48655000  0.80167000  0.18052000  1.0
  C  C102  1  0.38845000  0.73920000  0.77253000  1.0
  C  C103  1  0.48579000  0.30049000  0.67981000  1.0
  C  C104  1  0.38683000  0.23948000  0.26744000  1.0
  C  C105  1  0.47382000  0.75390000  0.13698000  1.0
  C  C106  1  0.39590000  0.69673000  0.82104000  1.0
  C  C107  1  0.47777000  0.25249000  0.63594000  1.0
  C  C108  1  0.39151000  0.19732000  0.31636000  1.0
  C  C109  1  0.48460000  0.66581000  0.21200000  1.0
  C  C110  1  0.49635000  0.21413000  0.75696000  1.0
  C  C111  1  0.55674000  0.70521000  0.81696000  1.0
  C  C112  1  0.48680000  0.16465000  0.71130000  1.0
  C  C113  1  0.55269000  0.20120000  0.31327000  1.0
  C  C114  1  0.17986000  0.37591000  0.93350000  1.0
  C  C115  1  0.17502000  0.87683000  0.43396000  1.0
  C  C116  1  0.48896000  0.22990000  0.92376000  1.0
  C  C117  1  0.69907000  0.33165000  0.15620000  1.0
  C  C118  1  0.49354000  0.73088000  0.42400000  1.0
  C  C119  1  0.69401000  0.83769000  0.65703000  1.0
  C  C120  1  0.44257000  0.77539000  0.07812000  1.0
  C  C121  1  0.54816000  0.24148000  0.26067000  1.0
  C  C122  1  0.31703000  0.68090000  0.85528000  1.0
  C  C123  1  0.44990000  0.27355000  0.57622000  1.0
  C  C124  1  0.31111000  0.18353000  0.34976000  1.0
  C  C125  1  0.49650000  0.28345000  0.74068000  1.0
  O  O126  1  0.50066000  0.50093000  0.99873000  1.0
  O  O127  1  0.53421000  0.14406000  0.55986000  1.0
  O  O128  1  0.70256000  0.45922000  0.99303000  1.0
  O  O129  1  0.70067000  0.95767000  0.52237000  1.0
  O  O130  1  0.30030000  0.48984000  0.95233000  1.0
  O  O131  1  0.30184000  0.48903000  0.05300000  1.0
  O  O132  1  0.30225000  0.98098000  0.45181000  1.0
  O  O133  1  0.30176000  0.99661000  0.55135000  1.0
  O  O134  1  0.57419000  0.37565000  0.92033000  1.0
  O  O135  1  0.56816000  0.36500000  0.06360000  1.0
  O  O136  1  0.58103000  0.87688000  0.42207000  1.0
  O  O137  1  0.50245000  0.00003000  0.49784000  1.0
  O  O138  1  0.55821000  0.86174000  0.56392000  1.0
  O  O139  1  0.44961000  0.57577000  0.11970000  1.0
  O  O140  1  0.44206000  0.57177000  0.87821000  1.0
  O  O141  1  0.45614000  0.07466000  0.61850000  1.0
  O  O142  1  0.43314000  0.07219000  0.37773000  1.0
  O  O143  1  0.69366000  0.56751000  0.02003000  1.0
  O  O144  1  0.69781000  0.06806000  0.49947000  1.0
  O  O145  1  0.51276000  0.39920000  0.77387000  1.0
  O  O146  1  0.38041000  0.31905000  0.15889000  1.0
  O  O147  1  0.52319000  0.89958000  0.27394000  1.0
  O  O148  1  0.47611000  0.42657000  0.12066000  1.0
  O  O149  1  0.37636000  0.81667000  0.66295000  1.0
  O  O150  1  0.00434000  0.61543000  0.09004000  1.0
  O  O151  1  0.00203000  0.11899000  0.58924000  1.0
  O  O152  1  0.14678000  0.33109000  0.90152000  1.0
  O  O153  1  0.13775000  0.82968000  0.40285000  1.0
  O  O154  1  0.46740000  0.26924000  0.96241000  1.0
  O  O155  1  0.77431000  0.31253000  0.17238000  1.0
  O  O156  1  0.47066000  0.77028000  0.46222000  1.0
  O  O157  1  0.77030000  0.82178000  0.67373000  1.0
  O  O158  1  0.47650000  0.36763000  0.66730000  1.0
  O  O159  1  0.43646000  0.40756000  0.89069000  1.0
  O  O160  1  0.30762000  0.26618000  0.24794000  1.0
  O  O161  1  0.47912000  0.86899000  0.16826000  1.0
  O  O162  1  0.30791000  0.76452000  0.75408000  1.0
  O  O163  1  0.51223000  0.63240000  0.33302000  1.0
  O  O164  1  0.70585000  0.75208000  0.75271000  1.0
  O  O165  1  0.51084000  0.13169000  0.83270000  1.0
  O  O166  1  0.70484000  0.24200000  0.24891000  1.0
  O  O167  1  0.39381000  0.74358000  0.04561000  1.0
  O  O168  1  0.31601000  0.66465000  0.90733000  1.0
  O  O169  1  0.40483000  0.24091000  0.54200000  1.0
  O  O170  1  0.46870000  0.92556000  0.62087000  1.0
  O  O171  1  0.30816000  0.16815000  0.40195000  1.0
  O  O172  1  0.48092000  0.60163000  0.22802000  1.0
  O  O173  1  0.63689000  0.69302000  0.84020000  1.0
  O  O174  1  0.48349000  0.10043000  0.72725000  1.0
  O  O175  1  0.63202000  0.18714000  0.33690000  1.0
  O  O176  1  0.84765000  0.41443000  0.96077000  1.0
  O  O177  1  0.84554000  0.92062000  0.45661000  1.0
  O  O178  1  0.83346000  0.61466000  0.07705000  1.0
  O  O179  1  0.83044000  0.11315000  0.57820000  1.0
  O  O180  1  0.99887000  0.37289000  0.92779000  1.0
  O  O181  1  0.44425000  0.90818000  0.38941000  1.0
  O  O182  1  0.99459000  0.87472000  0.43043000  1.0
  O  O183  1  0.55718000  0.62602000  0.92154000  1.0
  O  O184  1  0.52392000  0.64581000  0.05948000  1.0
  O  O185  1  0.54791000  0.12756000  0.42010000  1.0
