# generated using pymatgen
data_Zn3H24C54(NO8)2
_symmetry_space_group_name_H-M   'P 1'
_cell_length_a   21.83230000
_cell_length_b   21.83230000
_cell_length_c   31.97585692
_cell_angle_alpha   70.05238639
_cell_angle_beta   70.03307964
_cell_angle_gamma   90.01280000
_symmetry_Int_Tables_number   1
_chemical_formula_structural   Zn3H24C54(NO8)2
_chemical_formula_sum   'Zn6 H48 C108 N4 O32'
_cell_volume   13347.64890269
_cell_formula_units_Z   2
loop_
 _symmetry_equiv_pos_site_id
 _symmetry_equiv_pos_as_xyz
  1  'x, y, z'
loop_
 _atom_site_type_symbol
 _atom_site_label
 _atom_site_symmetry_multiplicity
 _atom_site_fract_x
 _atom_site_fract_y
 _atom_site_fract_z
 _atom_site_occupancy
  Zn  Zn0  1  0.47729000  0.47729000  0.04544000  1.0
  Zn  Zn1  1  0.44166000  0.00001000  0.99999000  1.0
  Zn  Zn2  1  0.00000000  0.44165000  0.00001000  1.0
  Zn  Zn3  1  0.55830000  1.00000000  0.00000000  1.0
  Zn  Zn4  1  0.52273000  0.52273000  0.95456000  1.0
  Zn  Zn5  1  0.00000000  0.55830000  0.00000000  1.0
  H  H6  1  0.71969000  0.59658000  0.94547000  1.0
  H  H7  1  0.45798000  0.71964000  0.94545000  1.0
  H  H8  1  0.33486000  0.45793000  0.94544000  1.0
  H  H9  1  0.59655000  0.33492000  0.94546000  1.0
  H  H10  1  0.66509000  0.40343000  0.05455000  1.0
  H  H11  1  0.40337000  0.28030000  0.05456000  1.0
  H  H12  1  0.28038000  0.54202000  0.05453000  1.0
  H  H13  1  0.54205000  0.66516000  0.05453000  1.0
  H  H14  1  0.83348000  0.59829000  0.94784000  1.0
  H  H15  1  0.45366000  0.83337000  0.94793000  1.0
  H  H16  1  0.21865000  0.45375000  0.94791000  1.0
  H  H17  1  0.59838000  0.21875000  0.94788000  1.0
  H  H18  1  0.78130000  0.40160000  0.05207000  1.0
  H  H19  1  0.40166000  0.16656000  0.05209000  1.0
  H  H20  1  0.16663000  0.54626000  0.05212000  1.0
  H  H21  1  0.54612000  0.78133000  0.05215000  1.0
  H  H22  1  0.65020000  0.16474000  0.46567000  1.0
  H  H23  1  0.16471000  0.88408000  0.46566000  1.0
  H  H24  1  0.88408000  0.36970000  0.46567000  1.0
  H  H25  1  0.36970000  0.65031000  0.46567000  1.0
  H  H26  1  0.11595000  0.83532000  0.53434000  1.0
  H  H27  1  0.63044000  0.11585000  0.53433000  1.0
  H  H28  1  0.34978000  0.63042000  0.53434000  1.0
  H  H29  1  0.83534000  0.34977000  0.53433000  1.0
  H  H30  1  0.69359000  0.21256000  0.37724000  1.0
  H  H31  1  0.21265000  0.92915000  0.37724000  1.0
  H  H32  1  0.92922000  0.41019000  0.37726000  1.0
  H  H33  1  0.41023000  0.69355000  0.37727000  1.0
  H  H34  1  0.07079000  0.78746000  0.62273000  1.0
  H  H35  1  0.58984000  0.07081000  0.62276000  1.0
  H  H36  1  0.30642000  0.58993000  0.62276000  1.0
  H  H37  1  0.78743000  0.30649000  0.62274000  1.0
  H  H38  1  0.85803000  0.47605000  0.24026000  1.0
  H  H39  1  0.28374000  0.85811000  0.24026000  1.0
  H  H40  1  0.90163000  0.28387000  0.24023000  1.0
  H  H41  1  0.47598000  0.90170000  0.24020000  1.0
  H  H42  1  0.09839000  0.52400000  0.75974000  1.0
  H  H43  1  0.52410000  0.14184000  0.75977000  1.0
  H  H44  1  0.14188000  0.71619000  0.75979000  1.0
  H  H45  1  0.71631000  0.09831000  0.75974000  1.0
  H  H46  1  0.90265000  0.52055000  0.15081000  1.0
  H  H47  1  0.32864000  0.90276000  0.15082000  1.0
  H  H48  1  0.94646000  0.32879000  0.15079000  1.0
  H  H49  1  0.52045000  0.94659000  0.15076000  1.0
  H  H50  1  0.05361000  0.47945000  0.84918000  1.0
  H  H51  1  0.47957000  0.09724000  0.84921000  1.0
  H  H52  1  0.09733000  0.67122000  0.84924000  1.0
  H  H53  1  0.67136000  0.05349000  0.84918000  1.0
  C  C54  1  0.87744000  0.37757000  0.24501000  1.0
  C  C55  1  0.27548000  0.77546000  0.44900000  1.0
  C  C56  1  0.44397000  0.90232000  0.22040000  1.0
  C  C57  1  0.09781000  0.55600000  0.77955000  1.0
  C  C58  1  0.55609000  0.12263000  0.77958000  1.0
  C  C59  1  0.12271000  0.66437000  0.77960000  1.0
  C  C60  1  0.66449000  0.09768000  0.77954000  1.0
  C  C61  1  0.90216000  0.46883000  0.17077000  1.0
  C  C62  1  0.36040000  0.90234000  0.17077000  1.0
  C  C63  1  0.92693000  0.36055000  0.17074000  1.0
  C  C64  1  0.46873000  0.92709000  0.17073000  1.0
  C  C65  1  0.07312000  0.53117000  0.82923000  1.0
  C  C66  1  0.22446000  0.72448000  0.55100000  1.0
  C  C67  1  0.53129000  0.09766000  0.82926000  1.0
  C  C68  1  0.09781000  0.63946000  0.82927000  1.0
  C  C69  1  0.63960000  0.07295000  0.82922000  1.0
  C  C70  1  0.72437000  0.22463000  0.55100000  1.0
  C  C71  1  0.92711000  0.42727000  0.14562000  1.0
  C  C72  1  0.42712000  0.92731000  0.14561000  1.0
  C  C73  1  0.07292000  0.57272000  0.85439000  1.0
  C  C74  1  0.57289000  0.07274000  0.85437000  1.0
  C  C75  1  0.50006000  0.61773000  0.99994000  1.0
  C  C76  1  0.77564000  0.27537000  0.44900000  1.0
  C  C77  1  0.38233000  0.50000000  0.99997000  1.0
  C  C78  1  0.49997000  0.38230000  0.00003000  1.0
  C  C79  1  0.61767000  0.49999000  0.00007000  1.0
  C  C80  1  0.73339000  0.55472000  0.96934000  1.0
  C  C81  1  0.47588000  0.73335000  0.96936000  1.0
  C  C82  1  0.29727000  0.47587000  0.96935000  1.0
  C  C83  1  0.55470000  0.29732000  0.96935000  1.0
  C  C84  1  0.70270000  0.44525000  0.03064000  1.0
  C  C85  1  0.44522000  0.26662000  0.03065000  1.0
  C  C86  1  0.26667000  0.52405000  0.03065000  1.0
  C  C87  1  0.52406000  0.70272000  0.03066000  1.0
  C  C88  1  0.79658000  0.55540000  0.97031000  1.0
  C  C89  1  0.47407000  0.79650000  0.97040000  1.0
  C  C90  1  0.23308000  0.47414000  0.97038000  1.0
  C  C91  1  0.55548000  0.23314000  0.97035000  1.0
  C  C92  1  0.76689000  0.44448000  0.02960000  1.0
  C  C93  1  0.44452000  0.20346000  0.02962000  1.0
  C  C94  1  0.20349000  0.52583000  0.02965000  1.0
  C  C95  1  0.52571000  0.76689000  0.02969000  1.0
  C  C96  1  0.81377000  0.49992000  0.99992000  1.0
  C  C97  1  0.69267000  0.20263000  0.44740000  1.0
  C  C98  1  0.49983000  0.81370000  0.00007000  1.0
  C  C99  1  0.18625000  0.50000000  0.00003000  1.0
  C  C100  1  0.50002000  0.18627000  0.99998000  1.0
  C  C101  1  0.68599000  0.50001000  0.00002000  1.0
  C  C102  1  0.50003000  0.68601000  0.99998000  1.0
  C  C103  1  0.31402000  0.49996000  0.99999000  1.0
  C  C104  1  0.20268000  0.85993000  0.44741000  1.0
  C  C105  1  0.49995000  0.31401000  0.00001000  1.0
  C  C106  1  0.95381000  0.45391000  0.09230000  1.0
  C  C107  1  0.45379000  0.95391000  0.09230000  1.0
  C  C108  1  0.04621000  0.54609000  0.90770000  1.0
  C  C109  1  0.54621000  0.04612000  0.90769000  1.0
  C  C110  1  0.86000000  0.34991000  0.44741000  1.0
  C  C111  1  0.88205000  0.49990000  0.99994000  1.0
  C  C112  1  0.49983000  0.88199000  0.00006000  1.0
  C  C113  1  0.11797000  0.50002000  0.00003000  1.0
  C  C114  1  0.50005000  0.11800000  0.99997000  1.0
  C  C115  1  0.37749000  0.87752000  0.24500000  1.0
  C  C116  1  0.34997000  0.69269000  0.44740000  1.0
  C  C117  1  0.72141000  0.22392000  0.47392000  1.0
  C  C118  1  0.22396000  0.80469000  0.47392000  1.0
  C  C119  1  0.80478000  0.30206000  0.47393000  1.0
  C  C120  1  0.30209000  0.72135000  0.47393000  1.0
  C  C121  1  0.19527000  0.77600000  0.52607000  1.0
  C  C122  1  0.69785000  0.19532000  0.52608000  1.0
  C  C123  1  0.27863000  0.69790000  0.52608000  1.0
  C  C124  1  0.77598000  0.27871000  0.52607000  1.0
  C  C125  1  0.14006000  0.79734000  0.55260000  1.0
  C  C126  1  0.65005000  0.14006000  0.55260000  1.0
  C  C127  1  0.30737000  0.65012000  0.55259000  1.0
  C  C128  1  0.79731000  0.30743000  0.55258000  1.0
  C  C129  1  0.12251000  0.62248000  0.75500000  1.0
  C  C130  1  0.71665000  0.22913000  0.39754000  1.0
  C  C131  1  0.22927000  0.88586000  0.39755000  1.0
  C  C132  1  0.88597000  0.37319000  0.39755000  1.0
  C  C133  1  0.37326000  0.71657000  0.39753000  1.0
  C  C134  1  0.11408000  0.77077000  0.60247000  1.0
  C  C135  1  0.62669000  0.11417000  0.60246000  1.0
  C  C136  1  0.28343000  0.62684000  0.60245000  1.0
  C  C137  1  0.62258000  0.12245000  0.75499000  1.0
  C  C138  1  0.77072000  0.28354000  0.60245000  1.0
  C  C139  1  0.77095000  0.27735000  0.37259000  1.0
  C  C140  1  0.27754000  0.85656000  0.37260000  1.0
  C  C141  1  0.85675000  0.34977000  0.37260000  1.0
  C  C142  1  0.34993000  0.77077000  0.37258000  1.0
  C  C143  1  0.14334000  0.72249000  0.62743000  1.0
  C  C144  1  0.64995000  0.14353000  0.62741000  1.0
  C  C145  1  0.22917000  0.65015000  0.62740000  1.0
  C  C146  1  0.72236000  0.22936000  0.62740000  1.0
  C  C147  1  0.80123000  0.30085000  0.39791000  1.0
  C  C148  1  0.30106000  0.80099000  0.39791000  1.0
  C  C149  1  0.19890000  0.69897000  0.60209000  1.0
  C  C150  1  0.69877000  0.19914000  0.60209000  1.0
  C  C151  1  0.79550000  0.30395000  0.31979000  1.0
  C  C152  1  0.30401000  0.88472000  0.31980000  1.0
  C  C153  1  0.88482000  0.37622000  0.31979000  1.0
  C  C154  1  0.37623000  0.79542000  0.31977000  1.0
  C  C155  1  0.11517000  0.69599000  0.68023000  1.0
  C  C156  1  0.62375000  0.11528000  0.68021000  1.0
  C  C157  1  0.20453000  0.62382000  0.68020000  1.0
  C  C158  1  0.69600000  0.20462000  0.68021000  1.0
  C  C159  1  0.87721000  0.44404000  0.22045000  1.0
  C  C160  1  0.33555000  0.87734000  0.22045000  1.0
  C  C161  1  0.90222000  0.33567000  0.22042000  1.0
  N  N162  1  0.85177000  0.35180000  0.29648000  1.0
  N  N163  1  0.35177000  0.85173000  0.29647000  1.0
  N  N164  1  0.14820000  0.64824000  0.70353000  1.0
  N  N165  1  0.64828000  0.14825000  0.70351000  1.0
  O  O166  1  0.49681000  0.57161000  0.03859000  1.0
  O  O167  1  0.38980000  0.49679000  0.03863000  1.0
  O  O168  1  0.46456000  0.38977000  0.03869000  1.0
  O  O169  1  0.57154000  0.46458000  0.03873000  1.0
  O  O170  1  0.53543000  0.42844000  0.96137000  1.0
  O  O171  1  0.42846000  0.50324000  0.96131000  1.0
  O  O172  1  0.50331000  0.61027000  0.96127000  1.0
  O  O173  1  0.61019000  0.53540000  0.96141000  1.0
  O  O174  1  0.95149000  0.51490000  0.07130000  1.0
  O  O175  1  0.41380000  0.95155000  0.07130000  1.0
  O  O176  1  0.97714000  0.41390000  0.07131000  1.0
  O  O177  1  0.51481000  0.97722000  0.07130000  1.0
  O  O178  1  0.02285000  0.48509000  0.92870000  1.0
  O  O179  1  0.48521000  0.04845000  0.92869000  1.0
  O  O180  1  0.04851000  0.58611000  0.92870000  1.0
  O  O181  1  0.58620000  0.02280000  0.92870000  1.0
  O  O182  1  0.91418000  0.55555000  0.98920000  1.0
  O  O183  1  0.45496000  0.91413000  0.98928000  1.0
  O  O184  1  0.09659000  0.45513000  0.98926000  1.0
  O  O185  1  0.55570000  0.09662000  0.98921000  1.0
  O  O186  1  0.90341000  0.44425000  0.01072000  1.0
  O  O187  1  0.44439000  0.08584000  0.01075000  1.0
  O  O188  1  0.08583000  0.54491000  0.01079000  1.0
  O  O189  1  0.54474000  0.90338000  0.01080000  1.0
  O  O190  1  0.76898000  0.28611000  0.29681000  1.0
  O  O191  1  0.28614000  0.93419000  0.29682000  1.0
  O  O192  1  0.93421000  0.41718000  0.29680000  1.0
  O  O193  1  0.41711000  0.76894000  0.29678000  1.0
  O  O194  1  0.06569000  0.71386000  0.70322000  1.0
  O  O195  1  0.58295000  0.06576000  0.70319000  1.0
  O  O196  1  0.23102000  0.58299000  0.70318000  1.0
  O  O197  1  0.71395000  0.23104000  0.70319000  1.0
