# generated using pymatgen
data_CdH18C15S2N4O3
_symmetry_space_group_name_H-M   'P 1'
_cell_length_a   8.87445000
_cell_length_b   10.98740000
_cell_length_c   11.54730000
_cell_angle_alpha   117.87300000
_cell_angle_beta   104.64400000
_cell_angle_gamma   97.74480000
_symmetry_Int_Tables_number   1
_chemical_formula_structural   CdH18C15S2N4O3
_chemical_formula_sum   'Cd2 H36 C30 S4 N8 O6'
_cell_volume   919.90460421
_cell_formula_units_Z   2
loop_
 _symmetry_equiv_pos_site_id
 _symmetry_equiv_pos_as_xyz
  1  'x, y, z'
loop_
 _atom_site_type_symbol
 _atom_site_label
 _atom_site_symmetry_multiplicity
 _atom_site_fract_x
 _atom_site_fract_y
 _atom_site_fract_z
 _atom_site_occupancy
  Cd  Cd0  1  0.19635000  0.81156000  0.45019000  1.0
  Cd  Cd1  1  0.80220000  0.18678000  0.54746000  1.0
  H  H2  1  0.00514000  0.23558000  0.30447000  1.0
  H  H3  1  0.99269000  0.76400000  0.69170000  1.0
  H  H4  1  0.69608000  0.16417000  0.91277000  1.0
  H  H5  1  0.30193000  0.83554000  0.08333000  1.0
  H  H6  1  0.86214000  0.98981000  0.10966000  1.0
  H  H7  1  0.13529000  0.01064000  0.88830000  1.0
  H  H8  1  0.75900000  0.95565000  0.93869000  1.0
  H  H9  1  0.24308000  0.04373000  0.05798000  1.0
  H  H10  1  0.65946000  0.99834000  0.06170000  1.0
  H  H11  1  0.33762000  0.00013000  0.93139000  1.0
  H  H12  1  0.19118000  0.43183000  0.46614000  1.0
  H  H13  1  0.80584000  0.56723000  0.53016000  1.0
  H  H14  1  0.37908000  0.58204000  0.63819000  1.0
  H  H15  1  0.61632000  0.41537000  0.35948000  1.0
  H  H16  1  0.35952000  0.76055000  0.72009000  1.0
  H  H17  1  0.63740000  0.23709000  0.27693000  1.0
  H  H18  1  0.55571000  0.84858000  0.64698000  1.0
  H  H19  1  0.44893000  0.15165000  0.35990000  1.0
  H  H20  1  0.63967000  0.74446000  0.71093000  1.0
  H  H21  1  0.35868000  0.24512000  0.28513000  1.0
  H  H22  1  0.52283000  0.69115000  0.43883000  1.0
  H  H23  1  0.46894000  0.31644000  0.56353000  1.0
  H  H24  1  0.70031000  0.35296000  0.86660000  1.0
  H  H25  1  0.29524000  0.64761000  0.12916000  1.0
  H  H26  1  0.91129000  0.63618000  0.10854000  1.0
  H  H27  1  0.09066000  0.36227000  0.88592000  1.0
  H  H28  1  0.73110000  0.53246000  0.80672000  1.0
  H  H29  1  0.26702000  0.47014000  0.18993000  1.0
  H  H30  1  0.84590000  0.71391000  0.94402000  1.0
  H  H31  1  0.15528000  0.28830000  0.05511000  1.0
  H  H32  1  0.61839000  0.72786000  0.04072000  1.0
  H  H33  1  0.38326000  0.27431000  0.95789000  1.0
  H  H34  1  0.55423000  0.69208000  0.86603000  1.0
  H  H35  1  0.44602000  0.30844000  0.13232000  1.0
  H  H36  1  0.48735000  0.50365000  0.96016000  1.0
  H  H37  1  0.55216000  0.55276000  0.20443000  1.0
  C  C38  1  0.96953000  0.48194000  0.20403000  1.0
  C  C39  1  0.03032000  0.51705000  0.79097000  1.0
  C  C40  1  0.02535000  0.42403000  0.29030000  1.0
  C  C41  1  0.97365000  0.57539000  0.70525000  1.0
  C  C42  1  0.95975000  0.27647000  0.23669000  1.0
  C  C43  1  0.03857000  0.72304000  0.75925000  1.0
  C  C44  1  0.84202000  0.18012000  0.10221000  1.0
  C  C45  1  0.15633000  0.81959000  0.89384000  1.0
  C  C46  1  0.78778000  0.23565000  0.01830000  1.0
  C  C47  1  0.21053000  0.76417000  0.97763000  1.0
  C  C48  1  0.84751000  0.38264000  0.06556000  1.0
  C  C49  1  0.15137000  0.61686000  0.92968000  1.0
  C  C50  1  0.77766000  0.02285000  0.05051000  1.0
  C  C51  1  0.22111000  0.97677000  0.94548000  1.0
  C  C52  1  0.15740000  0.50156000  0.42606000  1.0
  C  C53  1  0.84112000  0.49764000  0.57000000  1.0
  C  C54  1  0.37746000  0.67651000  0.62786000  1.0
  C  C55  1  0.62047000  0.32109000  0.36987000  1.0
  C  C56  1  0.54214000  0.73807000  0.62548000  1.0
  C  C57  1  0.45764000  0.25913000  0.37456000  1.0
  C  C58  1  0.78650000  0.43099000  0.97300000  1.0
  C  C59  1  0.21172000  0.56869000  0.02191000  1.0
  C  C60  1  0.75657000  0.61601000  0.91612000  1.0
  C  C61  1  0.24368000  0.38576000  0.08109000  1.0
  C  C62  1  0.59679000  0.64666000  0.93077000  1.0
  C  C63  1  0.40237000  0.35356000  0.06739000  1.0
  C  C64  1  0.48280000  0.13169000  0.65014000  1.0
  C  C65  1  0.51984000  0.85966000  0.33950000  1.0
  C  C66  1  0.06789000  0.06098000  0.39927000  1.0
  C  C67  1  0.93065000  0.93416000  0.59573000  1.0
  S  S68  1  0.37001000  0.05297000  0.70151000  1.0
  S  S69  1  0.62933000  0.94496000  0.29182000  1.0
  S  S70  1  0.13777000  0.93920000  0.29816000  1.0
  S  S71  1  0.86964000  0.05973000  0.70225000  1.0
  N  N72  1  0.24236000  0.63620000  0.50125000  1.0
  N  N73  1  0.75750000  0.36275000  0.49536000  1.0
  N  N74  1  0.82805000  0.56563000  0.00683000  1.0
  N  N75  1  0.17216000  0.43381000  0.98819000  1.0
  N  N76  1  0.56678000  0.19395000  0.61761000  1.0
  N  N77  1  0.43756000  0.79134000  0.36839000  1.0
  N  N78  1  0.01786000  0.15147000  0.47038000  1.0
  N  N79  1  0.97376000  0.84056000  0.51998000  1.0
  O  O80  1  0.02755000  0.61406000  0.24024000  1.0
  O  O81  1  0.97414000  0.38487000  0.75472000  1.0
  O  O82  1  0.56512000  0.65131000  0.49718000  1.0
  O  O83  1  0.43174000  0.35068000  0.49948000  1.0
  O  O84  1  0.47456000  0.51829000  0.88073000  1.0
  O  O85  1  0.52428000  0.47915000  0.10599000  1.0
