# generated using pymatgen
data_HgH7C14O2F5
_symmetry_space_group_name_H-M   'P 1'
_cell_length_a   6.32280000
_cell_length_b   7.36460000
_cell_length_c   14.50490000
_cell_angle_alpha   84.62180000
_cell_angle_beta   81.72380000
_cell_angle_gamma   86.86820000
_symmetry_Int_Tables_number   1
_chemical_formula_structural   HgH7C14O2F5
_chemical_formula_sum   'Hg2 H14 C28 O4 F10'
_cell_volume   664.86221673
_cell_formula_units_Z   2
loop_
 _symmetry_equiv_pos_site_id
 _symmetry_equiv_pos_as_xyz
  1  'x, y, z'
loop_
 _atom_site_type_symbol
 _atom_site_label
 _atom_site_symmetry_multiplicity
 _atom_site_fract_x
 _atom_site_fract_y
 _atom_site_fract_z
 _atom_site_occupancy
  Hg  Hg0  1  0.12874000  0.79041000  0.42241000  1.0
  Hg  Hg1  1  0.87129000  0.20958000  0.57760000  1.0
  H  H2  1  0.60823000  0.64376000  0.38675000  1.0
  H  H3  1  0.39182000  0.35627000  0.61324000  1.0
  H  H4  1  0.88228000  0.63187000  0.25024000  1.0
  H  H5  1  0.11773000  0.36815000  0.74974000  1.0
  H  H6  1  0.44558000  0.90387000  0.07483000  1.0
  H  H7  1  0.55437000  0.09612000  0.92517000  1.0
  H  H8  1  0.16664000  0.91645000  0.21139000  1.0
  H  H9  1  0.83334000  0.08354000  0.78862000  1.0
  H  H10  1  0.01588000  0.75528000  0.08700000  1.0
  H  H11  1  0.98409000  0.24478000  0.91297000  1.0
  H  H12  1  0.83726000  0.87704000  0.01664000  1.0
  H  H13  1  0.16265000  0.12296000  0.98334000  1.0
  H  H14  1  0.84049000  0.63607000  0.03190000  1.0
  H  H15  1  0.15949000  0.36393000  0.96809000  1.0
  C  C16  1  0.36627000  0.78165000  0.30938000  1.0
  C  C17  1  0.63374000  0.21835000  0.69063000  1.0
  C  C18  1  0.56906000  0.70201000  0.31904000  1.0
  C  C19  1  0.43097000  0.29800000  0.68096000  1.0
  C  C20  1  0.72630000  0.69575000  0.24093000  1.0
  C  C21  1  0.27370000  0.30426000  0.75906000  1.0
  C  C22  1  0.68574000  0.76804000  0.15192000  1.0
  C  C23  1  0.31424000  0.23196000  0.84807000  1.0
  C  C24  1  0.48160000  0.84653000  0.14335000  1.0
  C  C25  1  0.51837000  0.15346000  0.85665000  1.0
  C  C26  1  0.32301000  0.85354000  0.22077000  1.0
  C  C27  1  0.67697000  0.14645000  0.77924000  1.0
  C  C28  1  0.85399000  0.75930000  0.06776000  1.0
  C  C29  1  0.14597000  0.24072000  0.93222000  1.0
  C  C30  1  0.85937000  0.69312000  0.60036000  1.0
  C  C31  1  0.14066000  0.30687000  0.39965000  1.0
  C  C32  1  0.66565000  0.71488000  0.67309000  1.0
  C  C33  1  0.33436000  0.28512000  0.32691000  1.0
  C  C34  1  0.47157000  0.79710000  0.65096000  1.0
  C  C35  1  0.52846000  0.20292000  0.34904000  1.0
  C  C36  1  0.29706000  0.82615000  0.71889000  1.0
  C  C37  1  0.70296000  0.17386000  0.28112000  1.0
  C  C38  1  0.31035000  0.77065000  0.81218000  1.0
  C  C39  1  0.68964000  0.22934000  0.18782000  1.0
  C  C40  1  0.49870000  0.68549000  0.83668000  1.0
  C  C41  1  0.50127000  0.31446000  0.16332000  1.0
  C  C42  1  0.67240000  0.65878000  0.76788000  1.0
  C  C43  1  0.32758000  0.34118000  0.23213000  1.0
  O  O44  1  0.86700000  0.81998000  0.53070000  1.0
  O  O45  1  0.13304000  0.18000000  0.46931000  1.0
  O  O46  1  0.99579000  0.56731000  0.60910000  1.0
  O  O47  1  0.00423000  0.43267000  0.39092000  1.0
  F  F48  1  0.44429000  0.85050000  0.56183000  1.0
  F  F49  1  0.55578000  0.14960000  0.43818000  1.0
  F  F50  1  0.11493000  0.91032000  0.69520000  1.0
  F  F51  1  0.88511000  0.08971000  0.30480000  1.0
  F  F52  1  0.14365000  0.80087000  0.87841000  1.0
  F  F53  1  0.85636000  0.19914000  0.12159000  1.0
  F  F54  1  0.51313000  0.63511000  0.92739000  1.0
  F  F55  1  0.48683000  0.36480000  0.07260000  1.0
  F  F56  1  0.85228000  0.58245000  0.79747000  1.0
  F  F57  1  0.14770000  0.41753000  0.20254000  1.0
