# generated using pymatgen
data_CdH18C24(N2O3)2
_symmetry_space_group_name_H-M   'P 1'
_cell_length_a   10.06190000
_cell_length_b   10.43380000
_cell_length_c   11.51210000
_cell_angle_alpha   100.16040000
_cell_angle_beta   106.04150000
_cell_angle_gamma   90.52690000
_symmetry_Int_Tables_number   1
_chemical_formula_structural   CdH18C24(N2O3)2
_chemical_formula_sum   'Cd2 H36 C48 N8 O12'
_cell_volume   1141.16253557
_cell_formula_units_Z   2
loop_
 _symmetry_equiv_pos_site_id
 _symmetry_equiv_pos_as_xyz
  1  'x, y, z'
loop_
 _atom_site_type_symbol
 _atom_site_label
 _atom_site_symmetry_multiplicity
 _atom_site_fract_x
 _atom_site_fract_y
 _atom_site_fract_z
 _atom_site_occupancy
  Cd  Cd0  1  0.36347000  0.34223000  0.14592000  1.0
  Cd  Cd1  1  0.63653000  0.65776000  0.85407000  1.0
  H  H2  1  0.31677000  0.24287000  0.85038000  1.0
  H  H3  1  0.68323000  0.75712000  0.14962000  1.0
  H  H4  1  0.12559000  0.19463000  0.65167000  1.0
  H  H5  1  0.87440000  0.80537000  0.34832000  1.0
  H  H6  1  0.87984000  0.22061000  0.66184000  1.0
  H  H7  1  0.12016000  0.77939000  0.33816000  1.0
  H  H8  1  0.83744000  0.30451000  0.86289000  1.0
  H  H9  1  0.16255000  0.69549000  0.13711000  1.0
  H  H10  1  0.81222000  0.37508000  0.02615000  1.0
  H  H11  1  0.18778000  0.62492000  0.97385000  1.0
  H  H12  1  0.79162000  0.44956000  0.23539000  1.0
  H  H13  1  0.20839000  0.55043000  0.76461000  1.0
  H  H14  1  0.00901000  0.48791000  0.41442000  1.0
  H  H15  1  0.99100000  0.51209000  0.58559000  1.0
  H  H16  1  0.23731000  0.44239000  0.37168000  1.0
  H  H17  1  0.76270000  0.55761000  0.62832000  1.0
  H  H18  1  0.34610000  0.83805000  0.14567000  1.0
  H  H19  1  0.65390000  0.16195000  0.85433000  1.0
  H  H20  1  0.65101000  0.69607000  0.42984000  1.0
  H  H21  1  0.34899000  0.30393000  0.57016000  1.0
  H  H22  1  0.61356000  0.10960000  0.44635000  1.0
  H  H23  1  0.38645000  0.89040000  0.55366000  1.0
  H  H24  1  0.09708000  0.78169000  0.54170000  1.0
  H  H25  1  0.90293000  0.21831000  0.45831000  1.0
  H  H26  1  0.31670000  0.81064000  0.71467000  1.0
  H  H27  1  0.68330000  0.18936000  0.28533000  1.0
  H  H28  1  0.09505000  0.00018000  0.96151000  1.0
  H  H29  1  0.90495000  0.99982000  0.03849000  1.0
  H  H30  1  0.87578000  0.96972000  0.78853000  1.0
  H  H31  1  0.12421000  0.03028000  0.21147000  1.0
  H  H32  1  0.57634000  0.21564000  0.05395000  1.0
  H  H33  1  0.42365000  0.78436000  0.94605000  1.0
  H  H34  1  0.56471000  0.34463000  0.99363000  1.0
  H  H35  1  0.43529000  0.65537000  0.00637000  1.0
  H  H36  1  0.33186000  0.98431000  0.01748000  1.0
  H  H37  1  0.66814000  0.01569000  0.98252000  1.0
  C  C38  1  0.20881000  0.25565000  0.84871000  1.0
  C  C39  1  0.79118000  0.74435000  0.15128000  1.0
  C  C40  1  0.10258000  0.22795000  0.73901000  1.0
  C  C41  1  0.89742000  0.77205000  0.26099000  1.0
  C  C42  1  0.96695000  0.24426000  0.74464000  1.0
  C  C43  1  0.03304000  0.75574000  0.25536000  1.0
  C  C44  1  0.94266000  0.28910000  0.85774000  1.0
  C  C45  1  0.05734000  0.71090000  0.14226000  1.0
  C  C46  1  0.05516000  0.31568000  0.96419000  1.0
  C  C47  1  0.94484000  0.68433000  0.03581000  1.0
  C  C48  1  0.03594000  0.36416000  0.08764000  1.0
  C  C49  1  0.96406000  0.63585000  0.91236000  1.0
  C  C50  1  0.90489000  0.38842000  0.10401000  1.0
  C  C51  1  0.09512000  0.61158000  0.89599000  1.0
  C  C52  1  0.89355000  0.43247000  0.22198000  1.0
  C  C53  1  0.10645000  0.56753000  0.77802000  1.0
  C  C54  1  0.01324000  0.45301000  0.32083000  1.0
  C  C55  1  0.98676000  0.54699000  0.67917000  1.0
  C  C56  1  0.14009000  0.42775000  0.29798000  1.0
  C  C57  1  0.85991000  0.57226000  0.70202000  1.0
  C  C58  1  0.41192000  0.09836000  0.23298000  1.0
  C  C59  1  0.58808000  0.90164000  0.76702000  1.0
  C  C60  1  0.47377000  0.98580000  0.28926000  1.0
  C  C61  1  0.52623000  0.01420000  0.71074000  1.0
  C  C62  1  0.43038000  0.85689000  0.23062000  1.0
  C  C63  1  0.56962000  0.14311000  0.76938000  1.0
  C  C64  1  0.49271000  0.75239000  0.28168000  1.0
  C  C65  1  0.50729000  0.24761000  0.71832000  1.0
  C  C66  1  0.60250000  0.77702000  0.38974000  1.0
  C  C67  1  0.39750000  0.22298000  0.61026000  1.0
  C  C68  1  0.64873000  0.90583000  0.44675000  1.0
  C  C69  1  0.35127000  0.09417000  0.55325000  1.0
  C  C70  1  0.58078000  0.00969000  0.39929000  1.0
  C  C71  1  0.41922000  0.99030000  0.60071000  1.0
  C  C72  1  0.44466000  0.61401000  0.22107000  1.0
  C  C73  1  0.55534000  0.38599000  0.77893000  1.0
  C  C74  1  0.97512000  0.87891000  0.65337000  1.0
  C  C75  1  0.02488000  0.12109000  0.34663000  1.0
  C  C76  1  0.09887000  0.83091000  0.63394000  1.0
  C  C77  1  0.90114000  0.16909000  0.36606000  1.0
  C  C78  1  0.22040000  0.84753000  0.72896000  1.0
  C  C79  1  0.77960000  0.15247000  0.27105000  1.0
  C  C80  1  0.21929000  0.91157000  0.84667000  1.0
  C  C81  1  0.78072000  0.08843000  0.15333000  1.0
  C  C82  1  0.09439000  0.95417000  0.86868000  1.0
  C  C83  1  0.90561000  0.04582000  0.13132000  1.0
  C  C84  1  0.97334000  0.93850000  0.77263000  1.0
  C  C85  1  0.02666000  0.06150000  0.22737000  1.0
  N  N86  1  0.18596000  0.29793000  0.95800000  1.0
  N  N87  1  0.81404000  0.70207000  0.04200000  1.0
  N  N88  1  0.15049000  0.38416000  0.18445000  1.0
  N  N89  1  0.84952000  0.61585000  0.81554000  1.0
  N  N90  1  0.76330000  0.93664000  0.55286000  1.0
  N  N91  1  0.23670000  0.06336000  0.44714000  1.0
  N  N92  1  0.86020000  0.86003000  0.54955000  1.0
  N  N93  1  0.13980000  0.13997000  0.45045000  1.0
  O  O94  1  0.54051000  0.30396000  0.05850000  1.0
  O  O95  1  0.45948000  0.69604000  0.94149000  1.0
  O  O96  1  0.32001000  0.07692000  0.12828000  1.0
  O  O97  1  0.67999000  0.92308000  0.87173000  1.0
  O  O98  1  0.45589000  0.21328000  0.29032000  1.0
  O  O99  1  0.54411000  0.78672000  0.70968000  1.0
  O  O100  1  0.38045000  0.58883000  0.10590000  1.0
  O  O101  1  0.61955000  0.41117000  0.89410000  1.0
  O  O102  1  0.46928000  0.52680000  0.28722000  1.0
  O  O103  1  0.53072000  0.47320000  0.71278000  1.0
  O  O104  1  0.34075000  0.92742000  0.93697000  1.0
  O  O105  1  0.65925000  0.07258000  0.06303000  1.0
