# generated using pymatgen
data_ZnAsH16C18N3O5
_symmetry_space_group_name_H-M   'P 1'
_cell_length_a   8.36749000
_cell_length_b   9.58231000
_cell_length_c   11.38470000
_cell_angle_alpha   89.99990000
_cell_angle_beta   69.34400000
_cell_angle_gamma   89.99990000
_symmetry_Int_Tables_number   1
_chemical_formula_structural   ZnAsH16C18N3O5
_chemical_formula_sum   'Zn2 As2 H32 C36 N6 O10'
_cell_volume   854.14321613
_cell_formula_units_Z   2
loop_
 _symmetry_equiv_pos_site_id
 _symmetry_equiv_pos_as_xyz
  1  'x, y, z'
loop_
 _atom_site_type_symbol
 _atom_site_label
 _atom_site_symmetry_multiplicity
 _atom_site_fract_x
 _atom_site_fract_y
 _atom_site_fract_z
 _atom_site_occupancy
  Zn  Zn0  1  0.98792000  0.39815000  0.58084000  1.0
  Zn  Zn1  1  0.01208000  0.89814000  0.41916000  1.0
  As  As2  1  0.86300000  0.21668000  0.39244000  1.0
  As  As3  1  0.13700000  0.71668000  0.60756000  1.0
  H  H4  1  0.69624000  0.03214000  0.36496000  1.0
  H  H5  1  0.30376000  0.53214000  0.63504000  1.0
  H  H6  1  0.71521000  0.46545000  0.41346000  1.0
  H  H7  1  0.28479000  0.96546000  0.58654000  1.0
  H  H8  1  0.12887000  0.16626000  0.14988000  1.0
  H  H9  1  0.87114000  0.66626000  0.85012000  1.0
  H  H10  1  0.24549000  0.29735000  0.94582000  1.0
  H  H11  1  0.75452000  0.79735000  0.05418000  1.0
  H  H12  1  0.11580000  0.52487000  0.92515000  1.0
  H  H13  1  0.88420000  0.02487000  0.07485000  1.0
  H  H14  1  0.88182000  0.62461000  0.10109000  1.0
  H  H15  1  0.11818000  0.12461000  0.89891000  1.0
  H  H16  1  0.52904000  0.64199000  0.40173000  1.0
  H  H17  1  0.47096000  0.14200000  0.59827000  1.0
  H  H18  1  0.61694000  0.64437000  0.23691000  1.0
  H  H19  1  0.38306000  0.14438000  0.76309000  1.0
  H  H20  1  0.95631000  0.27885000  0.84427000  1.0
  H  H21  1  0.04369000  0.77884000  0.15573000  1.0
  H  H22  1  0.76192000  0.28803000  0.06537000  1.0
  H  H23  1  0.23808000  0.78802000  0.93463000  1.0
  H  H24  1  0.40790000  0.51698000  0.93838000  1.0
  H  H25  1  0.59210000  0.01698000  0.06162000  1.0
  H  H26  1  0.61342000  0.48728000  0.72013000  1.0
  H  H27  1  0.38658000  0.98727000  0.27987000  1.0
  H  H28  1  0.53254000  0.22105000  0.21554000  1.0
  H  H29  1  0.46746000  0.72104000  0.78447000  1.0
  H  H30  1  0.32126000  0.60479000  0.13305000  1.0
  H  H31  1  0.67874000  0.10479000  0.86695000  1.0
  H  H32  1  0.30721000  0.22605000  0.42549000  1.0
  H  H33  1  0.69279000  0.72605000  0.57451000  1.0
  H  H34  1  0.10595000  0.59535000  0.34906000  1.0
  H  H35  1  0.89405000  0.09534000  0.65094000  1.0
  C  C36  1  0.93915000  0.32132000  0.23777000  1.0
  C  C37  1  0.06086000  0.82132000  0.76223000  1.0
  C  C38  1  0.07361000  0.26585000  0.13743000  1.0
  C  C39  1  0.92640000  0.76585000  0.86257000  1.0
  C  C40  1  0.13871000  0.33835000  0.02409000  1.0
  C  C41  1  0.86129000  0.83835000  0.97591000  1.0
  C  C42  1  0.06776000  0.46774000  0.01372000  1.0
  C  C43  1  0.93224000  0.96774000  0.98629000  1.0
  C  C44  1  0.93446000  0.52424000  0.11330000  1.0
  C  C45  1  0.06554000  0.02424000  0.88670000  1.0
  C  C46  1  0.86502000  0.45308000  0.22914000  1.0
  C  C47  1  0.13498000  0.95309000  0.77086000  1.0
  C  C48  1  0.65067000  0.63713000  0.32170000  1.0
  C  C49  1  0.34933000  0.13713000  0.67830000  1.0
  C  C50  1  0.75028000  0.76886000  0.33088000  1.0
  C  C51  1  0.24972000  0.26886000  0.66912000  1.0
  C  C52  1  0.83277000  0.32963000  0.86885000  1.0
  C  C53  1  0.16723000  0.82963000  0.13115000  1.0
  C  C54  1  0.72229000  0.33477000  0.99286000  1.0
  C  C55  1  0.27771000  0.83476000  0.00714000  1.0
  C  C56  1  0.56604000  0.40484000  0.02261000  1.0
  C  C57  1  0.43396000  0.90483000  0.97739000  1.0
  C  C58  1  0.52875000  0.46403000  0.92220000  1.0
  C  C59  1  0.47125000  0.96402000  0.07780000  1.0
  C  C60  1  0.64350000  0.44909000  0.80007000  1.0
  C  C61  1  0.35649000  0.94908000  0.19993000  1.0
  C  C62  1  0.44445000  0.41142000  0.15308000  1.0
  C  C63  1  0.55555000  0.91141000  0.84692000  1.0
  C  C64  1  0.44134000  0.30667000  0.23973000  1.0
  C  C65  1  0.55866000  0.80667000  0.76027000  1.0
  C  C66  1  0.32378000  0.51877000  0.19467000  1.0
  C  C67  1  0.67622000  0.01877000  0.80533000  1.0
  C  C68  1  0.31641000  0.30925000  0.35854000  1.0
  C  C69  1  0.68358000  0.80925000  0.64146000  1.0
  C  C70  1  0.20358000  0.51479000  0.31567000  1.0
  C  C71  1  0.79642000  0.01478000  0.68433000  1.0
  N  N72  1  0.73091000  0.50541000  0.32676000  1.0
  N  N73  1  0.26910000  0.00541000  0.67324000  1.0
  N  N74  1  0.79505000  0.38453000  0.77330000  1.0
  N  N75  1  0.20494000  0.88453000  0.22670000  1.0
  N  N76  1  0.19803000  0.41068000  0.39661000  1.0
  N  N77  1  0.80196000  0.91068000  0.60339000  1.0
  O  O78  1  0.80533000  0.33211000  0.51471000  1.0
  O  O79  1  0.19467000  0.83211000  0.48529000  1.0
  O  O80  1  0.01944000  0.10323000  0.39040000  1.0
  O  O81  1  0.98055000  0.60323000  0.60960000  1.0
  O  O82  1  0.67143000  0.12945000  0.40470000  1.0
  O  O83  1  0.32857000  0.62945000  0.59530000  1.0
  O  O84  1  0.87576000  0.75035000  0.36869000  1.0
  O  O85  1  0.12424000  0.25035000  0.63132000  1.0
  O  O86  1  0.69819000  0.88383000  0.30389000  1.0
  O  O87  1  0.30180000  0.38383000  0.69611000  1.0
