# generated using pymatgen
data_Zr3H13C13NO16
_symmetry_space_group_name_H-M   'P 1'
_cell_length_a   12.01900000
_cell_length_b   14.01920000
_cell_length_c   23.14880000
_cell_angle_alpha   82.13080000
_cell_angle_beta   74.97030000
_cell_angle_gamma   64.62110000
_symmetry_Int_Tables_number   1
_chemical_formula_structural   Zr3H13C13NO16
_chemical_formula_sum   'Zr12 H52 C52 N4 O64'
_cell_volume   3402.03592905
_cell_formula_units_Z   4
loop_
 _symmetry_equiv_pos_site_id
 _symmetry_equiv_pos_as_xyz
  1  'x, y, z'
loop_
 _atom_site_type_symbol
 _atom_site_label
 _atom_site_symmetry_multiplicity
 _atom_site_fract_x
 _atom_site_fract_y
 _atom_site_fract_z
 _atom_site_occupancy
  Zr  Zr0  1  0.26936000  0.39124000  0.55712000  1.0
  Zr  Zr1  1  0.45700000  0.64901000  0.51246000  1.0
  Zr  Zr2  1  0.51628000  0.41634000  0.44304000  1.0
  Zr  Zr3  1  0.20956000  0.62548000  0.62746000  1.0
  Zr  Zr4  1  0.51982000  0.41202000  0.60087000  1.0
  Zr  Zr5  1  0.20532000  0.63000000  0.47210000  1.0
  Zr  Zr6  1  0.65669000  0.16280000  0.01156000  1.0
  Zr  Zr7  1  0.05745000  0.90498000  0.05617000  1.0
  Zr  Zr8  1  0.81463000  0.13759000  0.12570000  1.0
  Zr  Zr9  1  0.90139000  0.92862000  0.94115000  1.0
  Zr  Zr10  1  0.97166000  0.14203000  0.96789000  1.0
  Zr  Zr11  1  0.74649000  0.92397000  0.09650000  1.0
  H  H12  1  0.45524000  0.21048000  0.24504000  1.0
  H  H13  1  0.33341000  0.16947000  0.17377000  1.0
  H  H14  1  0.28490000  0.41824000  0.67434000  1.0
  H  H15  1  0.68704000  0.45738000  0.50061000  1.0
  H  H16  1  0.20054000  0.78956000  0.54253000  1.0
  H  H17  1  0.28073000  0.42851000  0.42903000  1.0
  H  H18  1  0.69737000  0.20845000  0.57004000  1.0
  H  H19  1  0.53996000  0.44408000  0.32505000  1.0
  H  H20  1  0.28187000  0.66440000  0.34904000  1.0
  H  H21  1  0.52092000  0.46023000  0.70931000  1.0
  H  H22  1  0.16974000  0.59314000  0.74833000  1.0
  H  H23  1  0.96273000  0.73783000  0.64867000  1.0
  H  H24  1  0.99994000  0.83344000  0.49795000  1.0
  H  H25  1  0.74907000  0.38610000  0.60988000  1.0
  H  H26  1  0.69186000  0.66487000  0.50051000  1.0
  H  H27  1  0.10054000  0.36531000  0.49992000  1.0
  H  H28  1  0.08076000  0.57587000  0.41206000  1.0
  H  H29  1  0.36856000  0.50986000  0.71311000  1.0
  H  H30  1  0.58997000  0.73002000  0.55570000  1.0
  H  H31  1  0.70868000  0.23280000  0.42565000  1.0
  H  H32  1  0.70615000  0.27492000  0.50650000  1.0
  H  H33  1  0.01509000  0.76381000  0.56198000  1.0
  H  H34  1  0.35676000  0.53635000  0.35952000  1.0
  H  H35  1  0.07273000  0.49212000  0.49183000  1.0
  H  H36  1  0.24169000  0.85821000  0.82714000  1.0
  H  H37  1  0.32871000  0.92423000  0.90496000  1.0
  H  H38  1  0.36605000  0.69586000  0.74156000  1.0
  H  H39  1  0.59677000  0.62928000  0.66368000  1.0
  H  H40  1  0.81625000  0.13592000  0.89437000  1.0
  H  H41  1  0.08402000  0.09662000  0.06807000  1.0
  H  H42  1  0.97155000  0.76446000  0.02605000  1.0
  H  H43  1  0.57733000  0.12538000  0.13966000  1.0
  H  H44  1  0.91493000  0.34560000  0.99873000  1.0
  H  H45  1  0.74856000  0.10940000  0.24370000  1.0
  H  H46  1  0.73443000  0.88924000  0.21958000  1.0
  H  H47  1  0.12952000  0.09363000  0.85955000  1.0
  H  H48  1  0.94977000  0.96120000  0.82032000  1.0
  H  H49  1  0.78813000  0.81627000  0.91990000  1.0
  H  H50  1  0.77037000  0.72048000  0.07060000  1.0
  H  H51  1  0.18425000  0.16755000  0.95904000  1.0
  H  H52  1  0.29622000  0.88933000  0.06807000  1.0
  H  H53  1  0.40483000  0.18877000  0.06877000  1.0
  H  H54  1  0.50783000  0.97802000  0.15652000  1.0
  H  H55  1  0.03036000  0.04436000  0.85560000  1.0
  H  H56  1  0.31445000  0.82422000  0.01289000  1.0
  H  H57  1  0.80584000  0.32123000  0.14306000  1.0
  H  H58  1  0.92652000  0.27913000  0.06226000  1.0
  H  H59  1  0.77987000  0.79018000  0.00660000  1.0
  H  H60  1  0.69180000  0.01730000  0.20920000  1.0
  H  H61  1  0.49570000  0.06191000  0.07683000  1.0
  H  H62  1  0.34908000  0.34299000  0.32365000  1.0
  H  H63  1  0.11493000  0.38426000  0.39485000  1.0
  C  C64  1  0.38205000  0.11203000  0.31160000  1.0
  C  C65  1  0.40238000  0.16178000  0.25609000  1.0
  C  C66  1  0.34144000  0.13901000  0.21881000  1.0
  C  C67  1  0.28580000  0.07270000  0.25056000  1.0
  C  C68  1  0.44039000  0.21426000  0.64093000  1.0
  C  C69  1  0.03565000  0.48649000  0.66892000  1.0
  C  C70  1  0.41665000  0.22675000  0.45071000  1.0
  C  C71  1  0.67832000  0.56163000  0.39129000  1.0
  C  C72  1  0.29700000  0.82078000  0.42250000  1.0
  C  C73  1  0.32075000  0.80681000  0.62336000  1.0
  C  C74  1  0.33820000  0.93979000  0.75933000  1.0
  C  C75  1  0.29846000  0.90372000  0.81665000  1.0
  C  C76  1  0.34403000  0.93699000  0.85685000  1.0
  C  C77  1  0.41219000  0.99371000  0.82452000  1.0
  C  C78  1  0.47642000  0.61427000  0.80935000  1.0
  C  C79  1  0.45786000  0.65027000  0.75202000  1.0
  C  C80  1  0.57682000  0.61670000  0.71180000  1.0
  C  C81  1  0.66936000  0.55994000  0.74415000  1.0
  C  C82  1  0.73448000  0.33993000  0.92792000  1.0
  C  C83  1  0.62985000  0.06741000  0.89977000  1.0
  C  C84  1  0.53294000  0.32717000  0.11804000  1.0
  C  C85  1  0.07046000  0.99210000  0.17727000  1.0
  C  C86  1  0.97951000  0.73313000  0.14605000  1.0
  C  C87  1  0.19001000  0.74744000  0.94517000  1.0
  C  C88  1  0.24412000  0.44140000  0.25703000  1.0
  C  C89  1  0.25862000  0.39167000  0.31254000  1.0
  C  C90  1  0.13763000  0.41456000  0.34977000  1.0
  C  C91  1  0.04751000  0.48086000  0.31797000  1.0
  C  C92  1  0.69465000  0.42977000  0.88786000  1.0
  C  C93  1  0.65863000  0.49157000  0.84747000  1.0
  C  C94  1  0.02125000  0.64128000  0.18448000  1.0
  C  C95  1  0.06207000  0.57166000  0.22072000  1.0
  C  C96  1  0.33458000  0.42444000  0.20339000  1.0
  C  C97  1  0.42198000  0.39335000  0.15962000  1.0
  C  C98  1  0.30187000  0.67794000  0.90648000  1.0
  C  C99  1  0.38920000  0.64015000  0.86362000  1.0
  C  C100  1  0.15023000  0.00310000  0.21112000  1.0
  C  C101  1  0.21446000  0.03070000  0.23220000  1.0
  C  C102  1  0.28554000  0.91258000  0.38407000  1.0
  C  C103  1  0.29353000  0.98208000  0.34788000  1.0
  C  C104  1  0.80295000  0.55053000  0.35739000  1.0
  C  C105  1  0.91583000  0.52289000  0.33630000  1.0
  C  C106  1  0.80048000  0.51786000  0.72362000  1.0
  C  C107  1  0.91228000  0.49254000  0.70078000  1.0
  C  C108  1  0.43580000  0.06249000  0.72132000  1.0
  C  C109  1  0.45022000  0.12452000  0.68106000  1.0
  C  C110  1  0.48087000  0.03567000  0.84505000  1.0
  C  C111  1  0.54433000  0.06110000  0.86799000  1.0
  C  C112  1  0.32418000  0.87646000  0.66208000  1.0
  C  C113  1  0.33089000  0.91403000  0.70504000  1.0
  C  C114  1  0.40176000  0.12899000  0.36532000  1.0
  C  C115  1  0.41397000  0.16033000  0.40911000  1.0
  N  N116  1  0.31153000  0.05502000  0.30779000  1.0
  N  N117  1  0.40756000  0.99714000  0.76420000  1.0
  N  N118  1  0.60795000  0.55671000  0.80449000  1.0
  N  N119  1  0.11281000  0.49849000  0.26077000  1.0
  O  O120  1  0.09130000  0.42483000  0.52074000  1.0
  O  O121  1  0.35359000  0.24530000  0.61188000  1.0
  O  O122  1  0.32683000  0.25472000  0.49761000  1.0
  O  O123  1  0.05831000  0.56428000  0.67639000  1.0
  O  O124  1  0.50535000  0.25781000  0.43381000  1.0
  O  O125  1  0.10741000  0.40792000  0.63577000  1.0
  O  O126  1  0.51677000  0.25649000  0.63920000  1.0
  O  O127  1  0.44888000  0.38156000  0.53251000  1.0
  O  O128  1  0.31027000  0.44501000  0.63450000  1.0
  O  O129  1  0.30690000  0.45162000  0.45884000  1.0
  O  O130  1  0.19058000  0.55495000  0.55478000  1.0
  O  O131  1  0.03220000  0.75075000  0.62179000  1.0
  O  O132  1  0.70306000  0.27358000  0.55203000  1.0
  O  O133  1  0.40901000  0.57544000  0.59149000  1.0
  O  O134  1  0.59673000  0.47641000  0.50933000  1.0
  O  O135  1  0.40236000  0.57864000  0.46143000  1.0
  O  O136  1  0.24519000  0.71375000  0.53812000  1.0
  O  O137  1  0.69809000  0.29748000  0.44176000  1.0
  O  O138  1  0.64197000  0.49414000  0.38169000  1.0
  O  O139  1  0.62165000  0.63337000  0.43026000  1.0
  O  O140  1  0.06657000  0.58968000  0.45403000  1.0
  O  O141  1  0.38231000  0.79085000  0.45219000  1.0
  O  O142  1  0.47242000  0.43848000  0.35728000  1.0
  O  O143  1  0.26885000  0.60302000  0.36897000  1.0
  O  O144  1  0.01776000  0.76274000  0.51528000  1.0
  O  O145  1  0.22207000  0.77737000  0.42278000  1.0
  O  O146  1  0.63161000  0.66073000  0.53728000  1.0
  O  O147  1  0.23393000  0.60148000  0.71526000  1.0
  O  O148  1  0.40160000  0.78469000  0.57264000  1.0
  O  O149  1  0.23903000  0.76942000  0.64451000  1.0
  O  O150  1  0.45335000  0.44559000  0.70197000  1.0
  O  O151  1  0.66031000  0.42292000  0.62838000  1.0
  O  O152  1  0.47589000  0.12925000  0.04794000  1.0
  O  O153  1  0.64971000  0.30881000  0.95689000  1.0
  O  O154  1  0.51826000  0.29936000  0.07101000  1.0
  O  O155  1  0.73788000  0.98974000  0.89225000  1.0
  O  O156  1  0.63563000  0.29611000  0.13511000  1.0
  O  O157  1  0.58995000  0.14603000  0.93288000  1.0
  O  O158  1  0.85136000  0.29763000  0.92963000  1.0
  O  O159  1  0.80191000  0.17247000  0.03623000  1.0
  O  O160  1  0.82866000  0.10912000  0.93420000  1.0
  O  O161  1  0.65638000  0.10237000  0.10985000  1.0
  O  O162  1  0.73926000  0.99909000  0.01385000  1.0
  O  O163  1  0.84371000  0.80329000  0.94677000  1.0
  O  O164  1  0.96771000  0.28048000  0.01677000  1.0
  O  O165  1  0.01479000  0.97865000  0.97717000  1.0
  O  O166  1  0.02143000  0.07758000  0.05938000  1.0
  O  O167  1  0.88146000  0.97531000  0.10721000  1.0
  O  O168  1  0.93604000  0.84028000  0.03045000  1.0
  O  O169  1  0.87612000  0.25654000  0.12702000  1.0
  O  O170  1  0.95708000  0.05968000  0.18689000  1.0
  O  O171  1  0.12432000  0.92034000  0.13831000  1.0
  O  O172  1  0.54937000  0.96429000  0.11455000  1.0
  O  O173  1  0.06462000  0.76297000  0.11637000  1.0
  O  O174  1  0.70753000  0.11506000  0.21149000  1.0
  O  O175  1  0.67994000  0.95068000  0.19969000  1.0
  O  O176  1  0.73483000  0.79119000  0.05330000  1.0
  O  O177  1  0.86143000  0.77666000  0.14580000  1.0
  O  O178  1  0.26846000  0.89350000  0.03132000  1.0
  O  O179  1  0.98935000  0.95281000  0.85338000  1.0
  O  O180  1  0.19795000  0.76943000  0.99597000  1.0
  O  O181  1  0.09204000  0.78480000  0.92402000  1.0
  O  O182  1  0.03994000  0.10851000  0.86679000  1.0
  O  O183  1  0.15066000  0.13084000  0.94054000  1.0
