# generated using pymatgen
data_CdH12C19(SN4)2
_symmetry_space_group_name_H-M   'P 1'
_cell_length_a   8.77614000
_cell_length_b   9.91481000
_cell_length_c   12.20440000
_cell_angle_alpha   73.34000000
_cell_angle_beta   75.13150000
_cell_angle_gamma   79.80860000
_symmetry_Int_Tables_number   1
_chemical_formula_structural   CdH12C19(SN4)2
_chemical_formula_sum   'Cd2 H24 C38 S4 N16'
_cell_volume   977.16189223
_cell_formula_units_Z   2
loop_
 _symmetry_equiv_pos_site_id
 _symmetry_equiv_pos_as_xyz
  1  'x, y, z'
loop_
 _atom_site_type_symbol
 _atom_site_label
 _atom_site_symmetry_multiplicity
 _atom_site_fract_x
 _atom_site_fract_y
 _atom_site_fract_z
 _atom_site_occupancy
  Cd  Cd0  1  0.63601000  0.80575000  0.68453000  1.0
  Cd  Cd1  1  0.36399000  0.19425000  0.31547000  1.0
  H  H2  1  0.90928000  0.92269000  0.44221000  1.0
  H  H3  1  0.09073000  0.07730000  0.55778000  1.0
  H  H4  1  0.16896000  0.84066000  0.32133000  1.0
  H  H5  1  0.83105000  0.15933000  0.67867000  1.0
  H  H6  1  0.31132000  0.60448000  0.40576000  1.0
  H  H7  1  0.68869000  0.39552000  0.59424000  1.0
  H  H8  1  0.18861000  0.45959000  0.60107000  1.0
  H  H9  1  0.81139000  0.54040000  0.39894000  1.0
  H  H10  1  0.05919000  0.27203000  0.03900000  1.0
  H  H11  1  0.94081000  0.72797000  0.96100000  1.0
  H  H12  1  0.00819000  0.12910000  0.24356000  1.0
  H  H13  1  0.99181000  0.87089000  0.75644000  1.0
  H  H14  1  0.72670000  0.09768000  0.35363000  1.0
  H  H15  1  0.27329000  0.90232000  0.64637000  1.0
  H  H16  1  0.55207000  0.32509000  0.06112000  1.0
  H  H17  1  0.44792000  0.67492000  0.93888000  1.0
  H  H18  1  0.44147000  0.46088000  0.83705000  1.0
  H  H19  1  0.55853000  0.53912000  0.16295000  1.0
  H  H20  1  0.53770000  0.21359000  0.82051000  1.0
  H  H21  1  0.46230000  0.78642000  0.17948000  1.0
  H  H22  1  0.34619000  0.06500000  0.80267000  1.0
  H  H23  1  0.65382000  0.93500000  0.19733000  1.0
  H  H24  1  0.06023000  0.16970000  0.80796000  1.0
  H  H25  1  0.93977000  0.83030000  0.19204000  1.0
  C  C26  1  0.97561000  0.82085000  0.47398000  1.0
  C  C27  1  0.02439000  0.17915000  0.52602000  1.0
  C  C28  1  0.11982000  0.77512000  0.40748000  1.0
  C  C29  1  0.88019000  0.22488000  0.59252000  1.0
  C  C30  1  0.19792000  0.64401000  0.45426000  1.0
  C  C31  1  0.80208000  0.35599000  0.54574000  1.0
  C  C32  1  0.13010000  0.56304000  0.56431000  1.0
  C  C33  1  0.86990000  0.43695000  0.43568000  1.0
  C  C34  1  0.98484000  0.61660000  0.62489000  1.0
  C  C35  1  0.01516000  0.38340000  0.37511000  1.0
  C  C36  1  0.89625000  0.54055000  0.73821000  1.0
  C  C37  1  0.10375000  0.45945000  0.26179000  1.0
  C  C38  1  0.81738000  0.40717000  0.91551000  1.0
  C  C39  1  0.18262000  0.59283000  0.08449000  1.0
  C  C40  1  0.80881000  0.31224000  0.03243000  1.0
  C  C41  1  0.19118000  0.68776000  0.96758000  1.0
  C  C42  1  0.93792000  0.25420000  0.08503000  1.0
  C  C43  1  0.06208000  0.74580000  0.91497000  1.0
  C  C44  1  0.90939000  0.17414000  0.20102000  1.0
  C  C45  1  0.09061000  0.82586000  0.79898000  1.0
  C  C46  1  0.75457000  0.15618000  0.26189000  1.0
  C  C47  1  0.24543000  0.84381000  0.73811000  1.0
  C  C48  1  0.65581000  0.28410000  0.09920000  1.0
  C  C49  1  0.34419000  0.71590000  0.90080000  1.0
  C  C50  1  0.11079000  0.36936000  0.82188000  1.0
  C  C51  1  0.88921000  0.63064000  0.17812000  1.0
  C  C52  1  0.36114000  0.39424000  0.82804000  1.0
  C  C53  1  0.63885000  0.60576000  0.17196000  1.0
  C  C54  1  0.41496000  0.25628000  0.81801000  1.0
  C  C55  1  0.58504000  0.74373000  0.18199000  1.0
  C  C56  1  0.30785000  0.17328000  0.80958000  1.0
  C  C57  1  0.69216000  0.82672000  0.19042000  1.0
  C  C58  1  0.15028000  0.23070000  0.81121000  1.0
  C  C59  1  0.84973000  0.76930000  0.18879000  1.0
  C  C60  1  0.45765000  0.85830000  0.46042000  1.0
  C  C61  1  0.54234000  0.14169000  0.53958000  1.0
  C  C62  1  0.71987000  0.94892000  0.87495000  1.0
  C  C63  1  0.28013000  0.05108000  0.12504000  1.0
  S  S64  1  0.55269000  0.70880000  0.51714000  1.0
  S  S65  1  0.44729000  0.29120000  0.48287000  1.0
  S  S66  1  0.76906000  0.06513000  0.92533000  1.0
  S  S67  1  0.23094000  0.93488000  0.07467000  1.0
  N  N68  1  0.90965000  0.74467000  0.57996000  1.0
  N  N69  1  0.09035000  0.25533000  0.42003000  1.0
  N  N70  1  0.74073000  0.57145000  0.77366000  1.0
  N  N71  1  0.25927000  0.42855000  0.22634000  1.0
  N  N72  1  0.69115000  0.49033000  0.88333000  1.0
  N  N73  1  0.30885000  0.50967000  0.11667000  1.0
  N  N74  1  0.94941000  0.43455000  0.82504000  1.0
  N  N75  1  0.05059000  0.56545000  0.17496000  1.0
  N  N76  1  0.62973000  0.21017000  0.21120000  1.0
  N  N77  1  0.37027000  0.78984000  0.78880000  1.0
  N  N78  1  0.21022000  0.45150000  0.82981000  1.0
  N  N79  1  0.78978000  0.54850000  0.17019000  1.0
  N  N80  1  0.38304000  0.96582000  0.42246000  1.0
  N  N81  1  0.61695000  0.03418000  0.57754000  1.0
  N  N82  1  0.68781000  0.86065000  0.83860000  1.0
  N  N83  1  0.31219000  0.13936000  0.16140000  1.0
