# generated using pymatgen
data_CdH13C14N5O3
_symmetry_space_group_name_H-M   'P 1'
_cell_length_a   9.75059000
_cell_length_b   10.35780000
_cell_length_c   22.84490000
_cell_angle_alpha   90.00020000
_cell_angle_beta   89.99980000
_cell_angle_gamma   89.99940000
_symmetry_Int_Tables_number   1
_chemical_formula_structural   CdH13C14N5O3
_chemical_formula_sum   'Cd4 H52 C56 N20 O12'
_cell_volume   2307.21293325
_cell_formula_units_Z   4
loop_
 _symmetry_equiv_pos_site_id
 _symmetry_equiv_pos_as_xyz
  1  'x, y, z'
loop_
 _atom_site_type_symbol
 _atom_site_label
 _atom_site_symmetry_multiplicity
 _atom_site_fract_x
 _atom_site_fract_y
 _atom_site_fract_z
 _atom_site_occupancy
  Cd  Cd0  1  0.49601000  0.06965000  0.90342000  1.0
  Cd  Cd1  1  0.00399000  0.93035000  0.40342000  1.0
  Cd  Cd2  1  0.50400000  0.56965000  0.59657000  1.0
  Cd  Cd3  1  0.99602000  0.43035000  0.09658000  1.0
  H  H4  1  0.29642000  0.01060000  0.02193000  1.0
  H  H5  1  0.20359000  0.98937000  0.52192000  1.0
  H  H6  1  0.70360000  0.51062000  0.47808000  1.0
  H  H7  1  0.79643000  0.48938000  0.97808000  1.0
  H  H8  1  0.13115000  0.13663000  0.08809000  1.0
  H  H9  1  0.36884000  0.86334000  0.58809000  1.0
  H  H10  1  0.86888000  0.63663000  0.41192000  1.0
  H  H11  1  0.63116000  0.36336000  0.91191000  1.0
  H  H12  1  0.11752000  0.43210000  0.96609000  1.0
  H  H13  1  0.38248000  0.56789000  0.46608000  1.0
  H  H14  1  0.88250000  0.93210000  0.53392000  1.0
  H  H15  1  0.61754000  0.06789000  0.03391000  1.0
  H  H16  1  0.27280000  0.53177000  0.88991000  1.0
  H  H17  1  0.22717000  0.46822000  0.38990000  1.0
  H  H18  1  0.72717000  0.03179000  0.61009000  1.0
  H  H19  1  0.77282000  0.96823000  0.11010000  1.0
  H  H20  1  0.12914000  0.44601000  0.86278000  1.0
  H  H21  1  0.37083000  0.55396000  0.36277000  1.0
  H  H22  1  0.87083000  0.94604000  0.63722000  1.0
  H  H23  1  0.62917000  0.05397000  0.13723000  1.0
  H  H24  1  0.27988000  0.46422000  0.81851000  1.0
  H  H25  1  0.22009000  0.53577000  0.31850000  1.0
  H  H26  1  0.72009000  0.96425000  0.68149000  1.0
  H  H27  1  0.77991000  0.03577000  0.18149000  1.0
  H  H28  1  0.81377000  0.16956000  0.75060000  1.0
  H  H29  1  0.68618000  0.83041000  0.25061000  1.0
  H  H30  1  0.18620000  0.66959000  0.74940000  1.0
  H  H31  1  0.31380000  0.33042000  0.24940000  1.0
  H  H32  1  0.92472000  0.25557000  0.65773000  1.0
  H  H33  1  0.57525000  0.74441000  0.15773000  1.0
  H  H34  1  0.07529000  0.75559000  0.84228000  1.0
  H  H35  1  0.42472000  0.24443000  0.34228000  1.0
  H  H36  1  0.79746000  0.42305000  0.59996000  1.0
  H  H37  1  0.70253000  0.57694000  0.09996000  1.0
  H  H38  1  0.20256000  0.92306000  0.90005000  1.0
  H  H39  1  0.29744000  0.07698000  0.40005000  1.0
  H  H40  1  0.47475000  0.42539000  0.71790000  1.0
  H  H41  1  0.02522000  0.57460000  0.21791000  1.0
  H  H42  1  0.52523000  0.92542000  0.78209000  1.0
  H  H43  1  0.97477000  0.07460000  0.28210000  1.0
  H  H44  1  0.58499000  0.70988000  0.03404000  1.0
  H  H45  1  0.91504000  0.29011000  0.53405000  1.0
  H  H46  1  0.41506000  0.20991000  0.46595000  1.0
  H  H47  1  0.08495000  0.79011000  0.96597000  1.0
  H  H48  1  0.74588000  0.72606000  0.99547000  1.0
  H  H49  1  0.75414000  0.27394000  0.49548000  1.0
  H  H50  1  0.25415000  0.22607000  0.50452000  1.0
  H  H51  1  0.24586000  0.77396000  0.00453000  1.0
  H  H52  1  0.60426000  0.64963000  0.96148000  1.0
  H  H53  1  0.89577000  0.35036000  0.46149000  1.0
  H  H54  1  0.39578000  0.14964000  0.53851000  1.0
  H  H55  1  0.10423000  0.85037000  0.03853000  1.0
  C  C56  1  0.57443000  0.38546000  0.70615000  1.0
  C  C57  1  0.92554000  0.61454000  0.20616000  1.0
  C  C58  1  0.42555000  0.88547000  0.79384000  1.0
  C  C59  1  0.07445000  0.11454000  0.29384000  1.0
  C  C60  1  0.63732000  0.29188000  0.74136000  1.0
  C  C61  1  0.86265000  0.70811000  0.24137000  1.0
  C  C62  1  0.36266000  0.79190000  0.75863000  1.0
  C  C63  1  0.13733000  0.20811000  0.25863000  1.0
  C  C64  1  0.25438000  0.10449000  0.00971000  1.0
  C  C65  1  0.24562000  0.89550000  0.50971000  1.0
  C  C66  1  0.74564000  0.60450000  0.49029000  1.0
  C  C67  1  0.75439000  0.39551000  0.99029000  1.0
  C  C68  1  0.16500000  0.17348000  0.04575000  1.0
  C  C69  1  0.33500000  0.82650000  0.54575000  1.0
  C  C70  1  0.83503000  0.67349000  0.45425000  1.0
  C  C71  1  0.66501000  0.32651000  0.95425000  1.0
  C  C72  1  0.15812000  0.33723000  0.97758000  1.0
  C  C73  1  0.34188000  0.66276000  0.47757000  1.0
  C  C74  1  0.84189000  0.83723000  0.52243000  1.0
  C  C75  1  0.65813000  0.16277000  0.02242000  1.0
  C  C76  1  0.24959000  0.26926000  0.94101000  1.0
  C  C77  1  0.25042000  0.73073000  0.44100000  1.0
  C  C78  1  0.75042000  0.76927000  0.55899000  1.0
  C  C79  1  0.74960000  0.23074000  0.05900000  1.0
  C  C80  1  0.30082000  0.32514000  0.88636000  1.0
  C  C81  1  0.19918000  0.67485000  0.38635000  1.0
  C  C82  1  0.69917000  0.82515000  0.61364000  1.0
  C  C83  1  0.80082000  0.17485000  0.11365000  1.0
  C  C84  1  0.24184000  0.44839000  0.86302000  1.0
  C  C85  1  0.25814000  0.55160000  0.36301000  1.0
  C  C86  1  0.75814000  0.94841000  0.63698000  1.0
  C  C87  1  0.74186000  0.05159000  0.13699000  1.0
  C  C88  1  0.57149000  0.24266000  0.79595000  1.0
  C  C89  1  0.92848000  0.75732000  0.29596000  1.0
  C  C90  1  0.42848000  0.74269000  0.70404000  1.0
  C  C91  1  0.07151000  0.25732000  0.20405000  1.0
  C  C92  1  0.76485000  0.24336000  0.72374000  1.0
  C  C93  1  0.73511000  0.75662000  0.22374000  1.0
  C  C94  1  0.23513000  0.74338000  0.77626000  1.0
  C  C95  1  0.26486000  0.25663000  0.27626000  1.0
  C  C96  1  0.82520000  0.29037000  0.67271000  1.0
  C  C97  1  0.67477000  0.70961000  0.17271000  1.0
  C  C98  1  0.17480000  0.79039000  0.82730000  1.0
  C  C99  1  0.32521000  0.20963000  0.32730000  1.0
  C  C100  1  0.75541000  0.38361000  0.64042000  1.0
  C  C101  1  0.74457000  0.61638000  0.14043000  1.0
  C  C102  1  0.24460000  0.88363000  0.85958000  1.0
  C  C103  1  0.25540000  0.11640000  0.35958000  1.0
  C  C104  1  0.63361000  0.72784000  0.99157000  1.0
  C  C105  1  0.86641000  0.27215000  0.49158000  1.0
  C  C106  1  0.36642000  0.22785000  0.50841000  1.0
  C  C107  1  0.13359000  0.77216000  0.00843000  1.0
  C  C108  1  0.58373000  0.85423000  0.96589000  1.0
  C  C109  1  0.91629000  0.14577000  0.46590000  1.0
  C  C110  1  0.41629000  0.35424000  0.53410000  1.0
  C  C111  1  0.08373000  0.64576000  0.03411000  1.0
  N  N112  1  0.63223000  0.42963000  0.65678000  1.0
  N  N113  1  0.86776000  0.57037000  0.15678000  1.0
  N  N114  1  0.36777000  0.92965000  0.84322000  1.0
  N  N115  1  0.13223000  0.07037000  0.34322000  1.0
  N  N116  1  0.29566000  0.15187000  0.95835000  1.0
  N  N117  1  0.20435000  0.84812000  0.45834000  1.0
  N  N118  1  0.70435000  0.65189000  0.54165000  1.0
  N  N119  1  0.79566000  0.34812000  0.04166000  1.0
  N  N120  1  0.11834000  0.28977000  0.02922000  1.0
  N  N121  1  0.38166000  0.71021000  0.52921000  1.0
  N  N122  1  0.88169000  0.78977000  0.47079000  1.0
  N  N123  1  0.61835000  0.21023000  0.97079000  1.0
  N  N124  1  0.40344000  0.26384000  0.86184000  1.0
  N  N125  1  0.09655000  0.73616000  0.36183000  1.0
  N  N126  1  0.59655000  0.76385000  0.63816000  1.0
  N  N127  1  0.90344000  0.23616000  0.13817000  1.0
  N  N128  1  0.45977000  0.31198000  0.81300000  1.0
  N  N129  1  0.04020000  0.68801000  0.31300000  1.0
  N  N130  1  0.54021000  0.81200000  0.68700000  1.0
  N  N131  1  0.95979000  0.18802000  0.18700000  1.0
  O  O132  1  0.62471000  0.14579000  0.82115000  1.0
  O  O133  1  0.87525000  0.85418000  0.32116000  1.0
  O  O134  1  0.37524000  0.64583000  0.67883000  1.0
  O  O135  1  0.12473000  0.35419000  0.17884000  1.0
  O  O136  1  0.64881000  0.90124000  0.92225000  1.0
  O  O137  1  0.85121000  0.09877000  0.42226000  1.0
  O  O138  1  0.35123000  0.40123000  0.57775000  1.0
  O  O139  1  0.14881000  0.59878000  0.07776000  1.0
  O  O140  1  0.47803000  0.90801000  0.98798000  1.0
  O  O141  1  0.02198000  0.09198000  0.48800000  1.0
  O  O142  1  0.52197000  0.40805000  0.51200000  1.0
  O  O143  1  0.97807000  0.59195000  0.01201000  1.0
