# generated using pymatgen
data_Cd3H60C70S2(N9O8)2
_symmetry_space_group_name_H-M   'P 1'
_cell_length_a   10.23990000
_cell_length_b   13.46180000
_cell_length_c   15.94970000
_cell_angle_alpha   107.37600000
_cell_angle_beta   99.43190000
_cell_angle_gamma   97.33560000
_symmetry_Int_Tables_number   1
_chemical_formula_structural   Cd3H60C70S2(N9O8)2
_chemical_formula_sum   'Cd3 H60 C70 S2 N18 O16'
_cell_volume   2033.17478663
_cell_formula_units_Z   1
loop_
 _symmetry_equiv_pos_site_id
 _symmetry_equiv_pos_as_xyz
  1  'x, y, z'
loop_
 _atom_site_type_symbol
 _atom_site_label
 _atom_site_symmetry_multiplicity
 _atom_site_fract_x
 _atom_site_fract_y
 _atom_site_fract_z
 _atom_site_occupancy
  Cd  Cd0  1  0.67091000  0.10203000  0.55079000  1.0
  Cd  Cd1  1  0.32908000  0.89796000  0.44920000  1.0
  Cd  Cd2  1  0.50000000  0.50000000  0.00000000  1.0
  H  H3  1  0.15424000  0.09783000  0.54777000  1.0
  H  H4  1  0.84575000  0.90216000  0.45223000  1.0
  H  H5  1  0.45885000  0.37984000  0.68192000  1.0
  H  H6  1  0.54114000  0.62015000  0.31807000  1.0
  H  H7  1  0.04806000  0.37833000  0.71383000  1.0
  H  H8  1  0.95194000  0.62167000  0.28617000  1.0
  H  H9  1  0.63131000  0.27882000  0.46169000  1.0
  H  H10  1  0.36869000  0.72118000  0.53830000  1.0
  H  H11  1  0.62724000  0.31311000  0.31376000  1.0
  H  H12  1  0.37276000  0.68689000  0.68624000  1.0
  H  H13  1  0.69225000  0.99375000  0.20223000  1.0
  H  H14  1  0.30776000  0.00625000  0.79777000  1.0
  H  H15  1  0.69730000  0.97409000  0.35483000  1.0
  H  H16  1  0.30270000  0.02591000  0.64516000  1.0
  H  H17  1  0.64145000  0.24950000  0.15519000  1.0
  H  H18  1  0.35855000  0.75050000  0.84481000  1.0
  H  H19  1  0.66331000  0.96460000  0.95088000  1.0
  H  H20  1  0.33669000  0.03540000  0.04912000  1.0
  H  H21  1  0.60145000  0.21059000  0.89004000  1.0
  H  H22  1  0.39856000  0.78942000  0.10996000  1.0
  H  H23  1  0.60449000  0.22299000  0.73583000  1.0
  H  H24  1  0.39551000  0.77701000  0.26416000  1.0
  H  H25  1  0.69204000  0.92248000  0.64522000  1.0
  H  H26  1  0.30796000  0.07752000  0.35478000  1.0
  H  H27  1  0.70188000  0.89979000  0.79633000  1.0
  H  H28  1  0.29812000  0.10022000  0.20367000  1.0
  H  H29  1  0.42158000  0.35475000  0.11264000  1.0
  H  H30  1  0.57842000  0.64525000  0.88736000  1.0
  H  H31  1  0.24084000  0.20400000  0.10073000  1.0
  H  H32  1  0.75916000  0.79600000  0.89927000  1.0
  H  H33  1  0.14949000  0.13936000  0.81311000  1.0
  H  H34  1  0.85051000  0.86063000  0.18690000  1.0
  H  H35  1  0.33072000  0.29534000  0.83654000  1.0
  H  H36  1  0.66927000  0.70466000  0.16346000  1.0
  H  H37  1  0.00719000  0.03431000  0.87600000  1.0
  H  H38  1  0.99280000  0.96570000  0.12400000  1.0
  H  H39  1  0.24868000  0.61136000  0.97452000  1.0
  H  H40  1  0.75132000  0.38863000  0.02547000  1.0
  H  H41  1  0.93621000  0.62693000  0.00578000  1.0
  H  H42  1  0.06379000  0.37308000  0.99422000  1.0
  H  H43  1  0.04413000  0.75125000  0.06842000  1.0
  H  H44  1  0.95587000  0.24875000  0.93158000  1.0
  H  H45  1  0.07214000  0.67581000  0.96202000  1.0
  H  H46  1  0.92786000  0.32419000  0.03798000  1.0
  H  H47  1  0.00028000  0.55487000  0.13579000  1.0
  H  H48  1  0.99972000  0.44513000  0.86421000  1.0
  H  H49  1  0.17635000  0.55701000  0.17243000  1.0
  H  H50  1  0.82365000  0.44299000  0.82756000  1.0
  H  H51  1  0.11150000  0.67640000  0.20317000  1.0
  H  H52  1  0.88850000  0.32360000  0.79682000  1.0
  H  H53  1  0.03426000  0.06502000  0.38226000  1.0
  H  H54  1  0.96574000  0.93499000  0.61774000  1.0
  H  H55  1  0.96912000  0.46188000  0.35722000  1.0
  H  H56  1  0.03088000  0.53812000  0.64278000  1.0
  H  H57  1  0.97854000  0.32334000  0.22256000  1.0
  H  H58  1  0.02147000  0.67667000  0.77744000  1.0
  H  H59  1  0.00300000  0.13757000  0.14540000  1.0
  H  H60  1  0.99702000  0.86244000  0.85461000  1.0
  H  H61  1  0.01870000  0.25033000  0.46984000  1.0
  H  H62  1  0.98129000  0.74968000  0.53016000  1.0
  C  C63  1  0.08787000  0.23213000  0.63052000  1.0
  C  C64  1  0.91213000  0.76787000  0.36948000  1.0
  C  C65  1  0.18435000  0.17973000  0.59253000  1.0
  C  C66  1  0.81564000  0.82027000  0.40746000  1.0
  C  C67  1  0.31749000  0.23367000  0.61022000  1.0
  C  C68  1  0.68250000  0.76632000  0.38978000  1.0
  C  C69  1  0.35486000  0.33892000  0.66809000  1.0
  C  C70  1  0.64514000  0.66107000  0.33190000  1.0
  C  C71  1  0.25819000  0.38966000  0.70663000  1.0
  C  C72  1  0.74181000  0.61034000  0.29337000  1.0
  C  C73  1  0.12478000  0.33773000  0.68682000  1.0
  C  C74  1  0.87522000  0.66227000  0.31317000  1.0
  C  C75  1  0.94245000  0.17912000  0.60853000  1.0
  C  C76  1  0.05755000  0.82088000  0.39147000  1.0
  C  C77  1  0.42321000  0.18011000  0.56963000  1.0
  C  C78  1  0.57679000  0.81988000  0.43037000  1.0
  C  C79  1  0.64517000  0.21855000  0.40224000  1.0
  C  C80  1  0.35483000  0.78145000  0.59775000  1.0
  C  C81  1  0.64243000  0.23688000  0.32062000  1.0
  C  C82  1  0.35757000  0.76312000  0.67937000  1.0
  C  C83  1  0.65865000  0.15503000  0.24651000  1.0
  C  C84  1  0.34136000  0.84497000  0.75349000  1.0
  C  C85  1  0.67902000  0.05844000  0.25841000  1.0
  C  C86  1  0.32099000  0.94157000  0.74159000  1.0
  C  C87  1  0.68150000  0.04731000  0.34213000  1.0
  C  C88  1  0.31850000  0.95269000  0.65787000  1.0
  C  C89  1  0.65333000  0.17130000  0.15969000  1.0
  C  C90  1  0.34668000  0.82870000  0.84031000  1.0
  C  C91  1  0.65731000  0.04274000  0.94407000  1.0
  C  C92  1  0.34269000  0.95727000  0.05593000  1.0
  C  C93  1  0.65289000  0.05429000  0.85579000  1.0
  C  C94  1  0.34712000  0.94571000  0.14421000  1.0
  C  C95  1  0.62421000  0.14621000  0.83775000  1.0
  C  C96  1  0.37579000  0.85380000  0.16225000  1.0
  C  C97  1  0.62403000  0.15267000  0.75264000  1.0
  C  C98  1  0.37597000  0.84733000  0.24736000  1.0
  C  C99  1  0.67376000  0.98446000  0.70170000  1.0
  C  C100  1  0.32624000  0.01554000  0.29830000  1.0
  C  C101  1  0.67784000  0.97217000  0.78562000  1.0
  C  C102  1  0.32216000  0.02783000  0.21438000  1.0
  C  C103  1  0.35933000  0.30479000  0.04749000  1.0
  C  C104  1  0.64067000  0.69521000  0.95251000  1.0
  C  C105  1  0.26022000  0.22053000  0.04064000  1.0
  C  C106  1  0.73977000  0.77947000  0.95936000  1.0
  C  C107  1  0.18176000  0.15888000  0.95560000  1.0
  C  C108  1  0.81824000  0.84112000  0.04441000  1.0
  C  C109  1  0.20860000  0.18478000  0.88031000  1.0
  C  C110  1  0.79139000  0.81522000  0.11970000  1.0
  C  C111  1  0.30942000  0.27074000  0.89287000  1.0
  C  C112  1  0.69057000  0.72925000  0.10713000  1.0
  C  C113  1  0.07194000  0.07218000  0.94365000  1.0
  C  C114  1  0.92806000  0.92782000  0.05636000  1.0
  C  C115  1  0.24095000  0.59458000  0.03730000  1.0
  C  C116  1  0.75905000  0.40542000  0.96269000  1.0
  C  C117  1  0.04055000  0.67072000  0.02333000  1.0
  C  C118  1  0.95946000  0.32928000  0.97667000  1.0
  C  C119  1  0.10283000  0.60067000  0.14943000  1.0
  C  C120  1  0.89718000  0.39933000  0.85056000  1.0
  C  C121  1  0.02384000  0.12478000  0.34899000  1.0
  C  C122  1  0.97616000  0.87523000  0.65101000  1.0
  C  C123  1  0.99009000  0.41110000  0.39850000  1.0
  C  C124  1  0.00991000  0.58891000  0.60150000  1.0
  C  C125  1  0.99435000  0.26880000  0.26024000  1.0
  C  C126  1  0.00566000  0.73120000  0.73977000  1.0
  C  C127  1  0.00557000  0.16484000  0.21751000  1.0
  C  C128  1  0.99444000  0.83517000  0.78250000  1.0
  C  C129  1  0.99996000  0.30194000  0.35305000  1.0
  C  C130  1  0.00004000  0.69807000  0.64695000  1.0
  C  C131  1  0.01485000  0.22738000  0.39792000  1.0
  C  C132  1  0.98515000  0.77263000  0.60209000  1.0
  S  S133  1  0.30708000  0.51847000  0.78880000  1.0
  S  S134  1  0.69292000  0.48154000  0.21120000  1.0
  N  N135  1  0.66360000  0.12543000  0.41260000  1.0
  N  N136  1  0.33639000  0.87457000  0.58740000  1.0
  N  N137  1  0.66254000  0.09424000  0.09049000  1.0
  N  N138  1  0.33747000  0.90576000  0.90951000  1.0
  N  N139  1  0.65615000  0.12269000  0.01336000  1.0
  N  N140  1  0.34386000  0.87732000  0.98664000  1.0
  N  N141  1  0.64746000  0.07285000  0.68546000  1.0
  N  N142  1  0.35254000  0.92715000  0.31454000  1.0
  N  N143  1  0.38283000  0.33009000  0.97484000  1.0
  N  N144  1  0.61717000  0.66991000  0.02517000  1.0
  N  N145  1  0.05457000  0.04123000  0.01129000  1.0
  N  N146  1  0.94543000  0.95876000  0.98872000  1.0
  N  N147  1  0.13051000  0.61783000  0.06757000  1.0
  N  N148  1  0.86949000  0.38217000  0.93243000  1.0
  N  N149  1  0.00589000  0.44714000  0.48505000  1.0
  N  N150  1  0.99410000  0.55287000  0.51495000  1.0
  N  N151  1  0.01999000  0.09299000  0.25976000  1.0
  N  N152  1  0.98002000  0.90702000  0.74025000  1.0
  O  O153  1  0.90751000  0.08298000  0.55751000  1.0
  O  O154  1  0.09249000  0.91702000  0.44249000  1.0
  O  O155  1  0.85935000  0.23525000  0.64057000  1.0
  O  O156  1  0.14066000  0.76475000  0.35944000  1.0
  O  O157  1  0.39263000  0.08238000  0.52185000  1.0
  O  O158  1  0.60736000  0.91761000  0.47815000  1.0
  O  O159  1  0.54117000  0.23506000  0.58756000  1.0
  O  O160  1  0.45882000  0.76493000  0.41243000  1.0
  O  O161  1  0.35459000  0.49458000  0.87290000  1.0
  O  O162  1  0.64541000  0.50542000  0.12710000  1.0
  O  O163  1  0.41609000  0.57681000  0.76341000  1.0
  O  O164  1  0.58391000  0.42319000  0.23659000  1.0
  O  O165  1  0.18629000  0.56562000  0.79359000  1.0
  O  O166  1  0.81371000  0.43438000  0.20640000  1.0
  O  O167  1  0.32895000  0.55586000  0.07534000  1.0
  O  O168  1  0.67105000  0.44414000  0.92466000  1.0
