# generated using pymatgen
data_RbH2C5N3O5
_symmetry_space_group_name_H-M   'P 1'
_cell_length_a   4.22482000
_cell_length_b   9.01598000
_cell_length_c   10.89130000
_cell_angle_alpha   91.94950000
_cell_angle_beta   90.56890000
_cell_angle_gamma   102.64100000
_symmetry_Int_Tables_number   1
_chemical_formula_structural   RbH2C5N3O5
_chemical_formula_sum   'Rb2 H4 C10 N6 O10'
_cell_volume   404.50480944
_cell_formula_units_Z   2
loop_
 _symmetry_equiv_pos_site_id
 _symmetry_equiv_pos_as_xyz
  1  'x, y, z'
loop_
 _atom_site_type_symbol
 _atom_site_label
 _atom_site_symmetry_multiplicity
 _atom_site_fract_x
 _atom_site_fract_y
 _atom_site_fract_z
 _atom_site_occupancy
  Rb  Rb0  1  0.79138000  0.19096000  0.61930000  1.0
  Rb  Rb1  1  0.20862000  0.80904000  0.38070000  1.0
  H  H2  1  0.63809000  0.53593000  0.88427000  1.0
  H  H3  1  0.36191000  0.46407000  0.11573000  1.0
  H  H4  1  0.27642000  0.98221000  0.90723000  1.0
  H  H5  1  0.72358000  0.01779000  0.09277000  1.0
  C  C6  1  0.79851000  0.82049000  0.67193000  1.0
  C  C7  1  0.20149000  0.17951000  0.32807000  1.0
  C  C8  1  0.66129000  0.67591000  0.72773000  1.0
  C  C9  1  0.33871000  0.32409000  0.27227000  1.0
  C  C10  1  0.74574000  0.64432000  0.84502000  1.0
  C  C11  1  0.25426000  0.35568000  0.15498000  1.0
  C  C12  1  0.96792000  0.75652000  0.91103000  1.0
  C  C13  1  0.03208000  0.24348000  0.08897000  1.0
  C  C14  1  0.10146000  0.89493000  0.85526000  1.0
  C  C15  1  0.89853000  0.10507000  0.14474000  1.0
  N  N16  1  0.02442000  0.92576000  0.74279000  1.0
  N  N17  1  0.97558000  0.07424000  0.25721000  1.0
  N  N18  1  0.43438000  0.55786000  0.66028000  1.0
  N  N19  1  0.56562000  0.44214000  0.33972000  1.0
  N  N20  1  0.05487000  0.73205000  0.03469000  1.0
  N  N21  1  0.94512000  0.26795000  0.96531000  1.0
  O  O22  1  0.73116000  0.85346000  0.56522000  1.0
  O  O23  1  0.26884000  0.14654000  0.43478000  1.0
  O  O24  1  0.24708000  0.59399000  0.58390000  1.0
  O  O25  1  0.75292000  0.40601000  0.41610000  1.0
  O  O26  1  0.43251000  0.42254000  0.68316000  1.0
  O  O27  1  0.56749000  0.57746000  0.31684000  1.0
  O  O28  1  0.90438000  0.61661000  0.08607000  1.0
  O  O29  1  0.09561000  0.38339000  0.91393000  1.0
  O  O30  1  0.27968000  0.82814000  0.08747000  1.0
  O  O31  1  0.72032000  0.17186000  0.91253000  1.0
