# generated using pymatgen
data_Ag2P2H28C35N8
_symmetry_space_group_name_H-M   'P 1'
_cell_length_a   10.14490000
_cell_length_b   13.17900000
_cell_length_c   16.82100000
_cell_angle_alpha   73.23070000
_cell_angle_beta   85.63900000
_cell_angle_gamma   77.78580000
_symmetry_Int_Tables_number   1
_chemical_formula_structural   Ag2P2H28C35N8
_chemical_formula_sum   'Ag4 P4 H56 C70 N16'
_cell_volume   2104.30869905
_cell_formula_units_Z   2
loop_
 _symmetry_equiv_pos_site_id
 _symmetry_equiv_pos_as_xyz
  1  'x, y, z'
loop_
 _atom_site_type_symbol
 _atom_site_label
 _atom_site_symmetry_multiplicity
 _atom_site_fract_x
 _atom_site_fract_y
 _atom_site_fract_z
 _atom_site_occupancy
  Ag  Ag0  1  0.48196000  0.88178000  0.07637000  1.0
  Ag  Ag1  1  0.51804000  0.11823000  0.92363000  1.0
  Ag  Ag2  1  0.02633000  0.40590000  0.14040000  1.0
  Ag  Ag3  1  0.97368000  0.59409000  0.85960000  1.0
  P  P4  1  0.59579000  0.82702000  0.20267000  1.0
  P  P5  1  0.40421000  0.17298000  0.79732000  1.0
  P  P6  1  0.00851000  0.51793000  0.22689000  1.0
  P  P7  1  0.99149000  0.48207000  0.77311000  1.0
  H  H8  1  0.52684000  0.64134000  0.12682000  1.0
  H  H9  1  0.47316000  0.35866000  0.87318000  1.0
  H  H10  1  0.47564000  0.60552000  0.99788000  1.0
  H  H11  1  0.52437000  0.39448000  0.00212000  1.0
  H  H12  1  0.66059000  0.58242000  0.89197000  1.0
  H  H13  1  0.33942000  0.41758000  0.10803000  1.0
  H  H14  1  0.94046000  0.63101000  0.03597000  1.0
  H  H15  1  0.05954000  0.36898000  0.96403000  1.0
  H  H16  1  0.72850000  0.65565000  0.28821000  1.0
  H  H17  1  0.27149000  0.34435000  0.71178000  1.0
  H  H18  1  0.59896000  0.63267000  0.23554000  1.0
  H  H19  1  0.40104000  0.36734000  0.76446000  1.0
  H  H20  1  0.91467000  0.70751000  0.22464000  1.0
  H  H21  1  0.08533000  0.29249000  0.77536000  1.0
  H  H22  1  0.96942000  0.69640000  0.12494000  1.0
  H  H23  1  0.03058000  0.30359000  0.87506000  1.0
  H  H24  1  0.23745000  0.35847000  0.29203000  1.0
  H  H25  1  0.76256000  0.64153000  0.70797000  1.0
  H  H26  1  0.45236000  0.36217000  0.35202000  1.0
  H  H27  1  0.54764000  0.63783000  0.64797000  1.0
  H  H28  1  0.50149000  0.53678000  0.35919000  1.0
  H  H29  1  0.49851000  0.46321000  0.64081000  1.0
  H  H30  1  0.33667000  0.70878000  0.30211000  1.0
  H  H31  1  0.66334000  0.29122000  0.69789000  1.0
  H  H32  1  0.12463000  0.70655000  0.24189000  1.0
  H  H33  1  0.87537000  0.29344000  0.75811000  1.0
  H  H34  1  0.82939000  0.36802000  0.27648000  1.0
  H  H35  1  0.17061000  0.63198000  0.72352000  1.0
  H  H36  1  0.68336000  0.31640000  0.40116000  1.0
  H  H37  1  0.31663000  0.68361000  0.59885000  1.0
  H  H38  1  0.68310000  0.39710000  0.51843000  1.0
  H  H39  1  0.31689000  0.60291000  0.48157000  1.0
  H  H40  1  0.83003000  0.52869000  0.51070000  1.0
  H  H41  1  0.16996000  0.47133000  0.48930000  1.0
  H  H42  1  0.97743000  0.57937000  0.38653000  1.0
  H  H43  1  0.02256000  0.42064000  0.61347000  1.0
  H  H44  1  0.76169000  0.84148000  0.33854000  1.0
  H  H45  1  0.23830000  0.15852000  0.66146000  1.0
  H  H46  1  0.97618000  0.90484000  0.33255000  1.0
  H  H47  1  0.02382000  0.09515000  0.66745000  1.0
  H  H48  1  0.07772000  0.98821000  0.19485000  1.0
  H  H49  1  0.92228000  0.01178000  0.80516000  1.0
  H  H50  1  0.96141000  0.01027000  0.06537000  1.0
  H  H51  1  0.03860000  0.98973000  0.93463000  1.0
  H  H52  1  0.74606000  0.94655000  0.07057000  1.0
  H  H53  1  0.25394000  0.05346000  0.92943000  1.0
  H  H54  1  0.63156000  0.71233000  0.38702000  1.0
  H  H55  1  0.36844000  0.28767000  0.61298000  1.0
  H  H56  1  0.48668000  0.73219000  0.50716000  1.0
  H  H57  1  0.51332000  0.26781000  0.49284000  1.0
  H  H58  1  0.26696000  0.86427000  0.48850000  1.0
  H  H59  1  0.73304000  0.13573000  0.51150000  1.0
  H  H60  1  0.19629000  0.97887000  0.34615000  1.0
  H  H61  1  0.80371000  0.02114000  0.65384000  1.0
  H  H62  1  0.34067000  0.95635000  0.22437000  1.0
  H  H63  1  0.65933000  0.04365000  0.77563000  1.0
  C  C64  1  0.74048000  0.63869000  0.09486000  1.0
  C  C65  1  0.25952000  0.36130000  0.90514000  1.0
  C  C66  1  0.60747000  0.63114000  0.08155000  1.0
  C  C67  1  0.39254000  0.36885000  0.91845000  1.0
  C  C68  1  0.57821000  0.61076000  0.00885000  1.0
  C  C69  1  0.42179000  0.38924000  0.99115000  1.0
  C  C70  1  0.67969000  0.59819000  0.94978000  1.0
  C  C71  1  0.32032000  0.40180000  0.05022000  1.0
  C  C72  1  0.83622000  0.62503000  0.03123000  1.0
  C  C73  1  0.16378000  0.37496000  0.96877000  1.0
  C  C74  1  0.67803000  0.68020000  0.22840000  1.0
  C  C75  1  0.32197000  0.31980000  0.77160000  1.0
  C  C76  1  0.91557000  0.65911000  0.18138000  1.0
  C  C77  1  0.08443000  0.34089000  0.81862000  1.0
  C  C78  1  0.16532000  0.53170000  0.26462000  1.0
  C  C79  1  0.83468000  0.46830000  0.73538000  1.0
  C  C80  1  0.25936000  0.43498000  0.29524000  1.0
  C  C81  1  0.74064000  0.56502000  0.70476000  1.0
  C  C82  1  0.37966000  0.43742000  0.32892000  1.0
  C  C83  1  0.62034000  0.56258000  0.67108000  1.0
  C  C84  1  0.40759000  0.53567000  0.33213000  1.0
  C  C85  1  0.59241000  0.46433000  0.66787000  1.0
  C  C86  1  0.31541000  0.63186000  0.30038000  1.0
  C  C87  1  0.68460000  0.36813000  0.69962000  1.0
  C  C88  1  0.19460000  0.63027000  0.26651000  1.0
  C  C89  1  0.80540000  0.36973000  0.73349000  1.0
  C  C90  1  0.91120000  0.47777000  0.32294000  1.0
  C  C91  1  0.08880000  0.52224000  0.67706000  1.0
  C  C92  1  0.82849000  0.40342000  0.32784000  1.0
  C  C93  1  0.17151000  0.59659000  0.67216000  1.0
  C  C94  1  0.74659000  0.37488000  0.39794000  1.0
  C  C95  1  0.25341000  0.62513000  0.60206000  1.0
  C  C96  1  0.74634000  0.42010000  0.46349000  1.0
  C  C97  1  0.25365000  0.57991000  0.53651000  1.0
  C  C98  1  0.82952000  0.49388000  0.45921000  1.0
  C  C99  1  0.17047000  0.50613000  0.54079000  1.0
  C  C100  1  0.91206000  0.52231000  0.38939000  1.0
  C  C101  1  0.08793000  0.47770000  0.61061000  1.0
  C  C102  1  0.74139000  0.88723000  0.20469000  1.0
  C  C103  1  0.25861000  0.11278000  0.79530000  1.0
  C  C104  1  0.80566000  0.87735000  0.27842000  1.0
  C  C105  1  0.19434000  0.12265000  0.72157000  1.0
  C  C106  1  0.92643000  0.91321000  0.27504000  1.0
  C  C107  1  0.07357000  0.08678000  0.72496000  1.0
  C  C108  1  0.98366000  0.95967000  0.19832000  1.0
  C  C109  1  0.01635000  0.04033000  0.80168000  1.0
  C  C110  1  0.91826000  0.97205000  0.12506000  1.0
  C  C111  1  0.08174000  0.02795000  0.87494000  1.0
  C  C112  1  0.79734000  0.93635000  0.12793000  1.0
  C  C113  1  0.20266000  0.06365000  0.87207000  1.0
  C  C114  1  0.49743000  0.83539000  0.29667000  1.0
  C  C115  1  0.50257000  0.16461000  0.70332000  1.0
  C  C116  1  0.53704000  0.77158000  0.37694000  1.0
  C  C117  1  0.46296000  0.22842000  0.62306000  1.0
  C  C118  1  0.45427000  0.78237000  0.44537000  1.0
  C  C119  1  0.54573000  0.21763000  0.55463000  1.0
  C  C120  1  0.33154000  0.85646000  0.43484000  1.0
  C  C121  1  0.66846000  0.14354000  0.56516000  1.0
  C  C122  1  0.29120000  0.92002000  0.35526000  1.0
  C  C123  1  0.70880000  0.07999000  0.64474000  1.0
  C  C124  1  0.37337000  0.90880000  0.28671000  1.0
  C  C125  1  0.62663000  0.09120000  0.71329000  1.0
  C  C126  1  0.23772000  0.78112000  0.04095000  1.0
  C  C127  1  0.76228000  0.21887000  0.95905000  1.0
  C  C128  1  0.15153000  0.68624000  0.96758000  1.0
  C  C129  1  0.84847000  0.31375000  0.03243000  1.0
  C  C130  1  0.68873000  0.88581000  0.91141000  1.0
  C  C131  1  0.31126000  0.11419000  0.08859000  1.0
  C  C132  1  0.81451000  0.81970000  0.80967000  1.0
  C  C133  1  0.18549000  0.18029000  0.19032000  1.0
  N  N134  1  0.80657000  0.60575000  0.96150000  1.0
  N  N135  1  0.19343000  0.39424000  0.03850000  1.0
  N  N136  1  0.77685000  0.65889000  0.16561000  1.0
  N  N137  1  0.22315000  0.34111000  0.83439000  1.0
  N  N138  1  0.28539000  0.84867000  0.05464000  1.0
  N  N139  1  0.71462000  0.15133000  0.94536000  1.0
  N  N140  1  0.18365000  0.70304000  0.03522000  1.0
  N  N141  1  0.81635000  0.29696000  0.96478000  1.0
  N  N142  1  0.11723000  0.66141000  0.91157000  1.0
  N  N143  1  0.88277000  0.33858000  0.08843000  1.0
  N  N144  1  0.59640000  0.90891000  0.95472000  1.0
  N  N145  1  0.40359000  0.09109000  0.04528000  1.0
  N  N146  1  0.79493000  0.87176000  0.86584000  1.0
  N  N147  1  0.20506000  0.12824000  0.13415000  1.0
  N  N148  1  0.84492000  0.77458000  0.75744000  1.0
  N  N149  1  0.15508000  0.22542000  0.24256000  1.0
