# generated using pymatgen
data_RbH3C2(N3O)2
_symmetry_space_group_name_H-M   'P 1'
_cell_length_a   8.87246000
_cell_length_b   10.24150000
_cell_length_c   15.21470000
_cell_angle_alpha   90.00000000
_cell_angle_beta   92.83050000
_cell_angle_gamma   90.00000000
_symmetry_Int_Tables_number   1
_chemical_formula_structural   RbH3C2(N3O)2
_chemical_formula_sum   'Rb8 H24 C16 N48 O16'
_cell_volume   1380.83201139
_cell_formula_units_Z   8
loop_
 _symmetry_equiv_pos_site_id
 _symmetry_equiv_pos_as_xyz
  1  'x, y, z'
loop_
 _atom_site_type_symbol
 _atom_site_label
 _atom_site_symmetry_multiplicity
 _atom_site_fract_x
 _atom_site_fract_y
 _atom_site_fract_z
 _atom_site_occupancy
  Rb  Rb0  1  0.32678000  0.93896000  0.07779000  1.0
  Rb  Rb1  1  0.17322000  0.43896000  0.42221000  1.0
  Rb  Rb2  1  0.67322000  0.06104000  0.92221000  1.0
  Rb  Rb3  1  0.82678000  0.56104000  0.57779000  1.0
  Rb  Rb4  1  0.36324000  0.63031000  0.65464000  1.0
  Rb  Rb5  1  0.13676000  0.13031000  0.84536000  1.0
  Rb  Rb6  1  0.63676000  0.36969000  0.34536000  1.0
  Rb  Rb7  1  0.86324000  0.86969000  0.15464000  1.0
  H  H8  1  0.02229000  0.53119000  0.09722000  1.0
  H  H9  1  0.47771000  0.03119000  0.40278000  1.0
  H  H10  1  0.97771000  0.46881000  0.90278000  1.0
  H  H11  1  0.52229000  0.96881000  0.59722000  1.0
  H  H12  1  0.97462000  0.47912000  0.20391000  1.0
  H  H13  1  0.52538000  0.97912000  0.29609000  1.0
  H  H14  1  0.02538000  0.52088000  0.79609000  1.0
  H  H15  1  0.47462000  0.02088000  0.70391000  1.0
  H  H16  1  0.83132000  0.48584000  0.11561000  1.0
  H  H17  1  0.66868000  0.98584000  0.38439000  1.0
  H  H18  1  0.16868000  0.51416000  0.88439000  1.0
  H  H19  1  0.33132000  0.01416000  0.61561000  1.0
  H  H20  1  0.64239000  0.40081000  0.88879000  1.0
  H  H21  1  0.85761000  0.90081000  0.61121000  1.0
  H  H22  1  0.35761000  0.59919000  0.11121000  1.0
  H  H23  1  0.14239000  0.09919000  0.38879000  1.0
  H  H24  1  0.46051000  0.45232000  0.84468000  1.0
  H  H25  1  0.03949000  0.95232000  0.65532000  1.0
  H  H26  1  0.53949000  0.54768000  0.15532000  1.0
  H  H27  1  0.96051000  0.04768000  0.34468000  1.0
  H  H28  1  0.62991000  0.50654000  0.79540000  1.0
  H  H29  1  0.87009000  0.00654000  0.70459000  1.0
  H  H30  1  0.37009000  0.49346000  0.20459000  1.0
  H  H31  1  0.12991000  0.99346000  0.29540000  1.0
  C  C32  1  0.50890000  0.70549000  0.91388000  1.0
  C  C33  1  0.99110000  0.20549000  0.58612000  1.0
  C  C34  1  0.49110000  0.29451000  0.08612000  1.0
  C  C35  1  0.00890000  0.79451000  0.41388000  1.0
  C  C36  1  0.07857000  0.24477000  0.15162000  1.0
  C  C37  1  0.42143000  0.74477000  0.34838000  1.0
  C  C38  1  0.92143000  0.75523000  0.84838000  1.0
  C  C39  1  0.57857000  0.25523000  0.65162000  1.0
  C  C40  1  0.94977000  0.46546000  0.13344000  1.0
  C  C41  1  0.55023000  0.96546000  0.36656000  1.0
  C  C42  1  0.05023000  0.53454000  0.86656000  1.0
  C  C43  1  0.44977000  0.03454000  0.63344000  1.0
  C  C44  1  0.57854000  0.48094000  0.85729000  1.0
  C  C45  1  0.92146000  0.98094000  0.64271000  1.0
  C  C46  1  0.42146000  0.51906000  0.14271000  1.0
  C  C47  1  0.07854000  0.01906000  0.35729000  1.0
  N  N48  1  0.27700000  0.21741000  0.25347000  1.0
  N  N49  1  0.22300000  0.71741000  0.24653000  1.0
  N  N50  1  0.72300000  0.78259000  0.74653000  1.0
  N  N51  1  0.77700000  0.28259000  0.75347000  1.0
  N  N52  1  0.40291000  0.72042000  0.84682000  1.0
  N  N53  1  0.09709000  0.22042000  0.65319000  1.0
  N  N54  1  0.59709000  0.27958000  0.15319000  1.0
  N  N55  1  0.90291000  0.77958000  0.34681000  1.0
  N  N56  1  0.06921000  0.13183000  0.10595000  1.0
  N  N57  1  0.43078000  0.63183000  0.39405000  1.0
  N  N58  1  0.93078000  0.86817000  0.89405000  1.0
  N  N59  1  0.56922000  0.36816000  0.60595000  1.0
  N  N60  1  0.15568000  0.28492000  0.22677000  1.0
  N  N61  1  0.34432000  0.78492000  0.27323000  1.0
  N  N62  1  0.84432000  0.71508000  0.77323000  1.0
  N  N63  1  0.65568000  0.21508000  0.72677000  1.0
  N  N64  1  0.58781000  0.59101000  0.91725000  1.0
  N  N65  1  0.91219000  0.09101000  0.58275000  1.0
  N  N66  1  0.41219000  0.40899000  0.08275000  1.0
  N  N67  1  0.08781000  0.90899000  0.41725000  1.0
  N  N68  1  0.68782000  0.59406000  0.98694000  1.0
  N  N69  1  0.81218000  0.09406000  0.51306000  1.0
  N  N70  1  0.31218000  0.40594000  0.01306000  1.0
  N  N71  1  0.18782000  0.90594000  0.48694000  1.0
  N  N72  1  0.98011000  0.33061000  0.11111000  1.0
  N  N73  1  0.51989000  0.83061000  0.38889000  1.0
  N  N74  1  0.01989000  0.66939000  0.88889000  1.0
  N  N75  1  0.48011000  0.16939000  0.61111000  1.0
  N  N76  1  0.96523000  0.15329000  0.03888000  1.0
  N  N77  1  0.53477000  0.65329000  0.46112000  1.0
  N  N78  1  0.03477000  0.84671000  0.96112000  1.0
  N  N79  1  0.46523000  0.34671000  0.53888000  1.0
  N  N80  1  0.91108000  0.27171000  0.04112000  1.0
  N  N81  1  0.58892000  0.77171000  0.45888000  1.0
  N  N82  1  0.08892000  0.72829000  0.95888000  1.0
  N  N83  1  0.41108000  0.22829000  0.54112000  1.0
  N  N84  1  0.33889000  0.83646000  0.83565000  1.0
  N  N85  1  0.16111000  0.33646000  0.66435000  1.0
  N  N86  1  0.66111000  0.16355000  0.16435000  1.0
  N  N87  1  0.83889000  0.66354000  0.33565000  1.0
  N  N88  1  0.55996000  0.77850000  0.98298000  1.0
  N  N89  1  0.94004000  0.27850000  0.51702000  1.0
  N  N90  1  0.44004000  0.22150000  0.01702000  1.0
  N  N91  1  0.05996000  0.72150000  0.48298000  1.0
  N  N92  1  0.66931000  0.70617000  0.02532000  1.0
  N  N93  1  0.83069000  0.20617000  0.47468000  1.0
  N  N94  1  0.33069000  0.29383000  0.97468000  1.0
  N  N95  1  0.16931000  0.79383000  0.52532000  1.0
  O  O96  1  0.32694000  0.12051000  0.21312000  1.0
  O  O97  1  0.17306000  0.62051000  0.28688000  1.0
  O  O98  1  0.67306000  0.87949000  0.78688000  1.0
  O  O99  1  0.82694000  0.37949000  0.71312000  1.0
  O  O100  1  0.24285000  0.84649000  0.77149000  1.0
  O  O101  1  0.25715000  0.34649000  0.72851000  1.0
  O  O102  1  0.75715000  0.15351000  0.22851000  1.0
  O  O103  1  0.74285000  0.65351000  0.27149000  1.0
  O  O104  1  0.37012000  0.93426000  0.88466000  1.0
  O  O105  1  0.12988000  0.43426000  0.61534000  1.0
  O  O106  1  0.62988000  0.06574000  0.11534000  1.0
  O  O107  1  0.87012000  0.56574000  0.38466000  1.0
  O  O108  1  0.34392000  0.25700000  0.32462000  1.0
  O  O109  1  0.15608000  0.75700000  0.17538000  1.0
  O  O110  1  0.65608000  0.74300000  0.67538000  1.0
  O  O111  1  0.84392000  0.24300000  0.82462000  1.0
