# generated using pymatgen
data_GdH8C9O8
_symmetry_space_group_name_H-M   'P 1'
_cell_length_a   5.84382000
_cell_length_b   10.22983093
_cell_length_c   19.50540000
_cell_angle_alpha   93.77257141
_cell_angle_beta   98.60940000
_cell_angle_gamma   106.59354368
_symmetry_Int_Tables_number   1
_chemical_formula_structural   GdH8C9O8
_chemical_formula_sum   'Gd4 H32 C36 O32'
_cell_volume   1097.63143370
_cell_formula_units_Z   4
loop_
 _symmetry_equiv_pos_site_id
 _symmetry_equiv_pos_as_xyz
  1  'x, y, z'
loop_
 _atom_site_type_symbol
 _atom_site_label
 _atom_site_symmetry_multiplicity
 _atom_site_fract_x
 _atom_site_fract_y
 _atom_site_fract_z
 _atom_site_occupancy
  Gd  Gd0  1  0.34718000  0.30651000  0.03115000  1.0
  Gd  Gd1  1  0.50944000  0.19343000  0.46880000  1.0
  Gd  Gd2  1  0.65282000  0.69349000  0.96885000  1.0
  Gd  Gd3  1  0.49056000  0.80657000  0.53120000  1.0
  H  H4  1  0.25815000  0.41916000  0.27277000  1.0
  H  H5  1  0.06589000  0.08079000  0.22707000  1.0
  H  H6  1  0.74185000  0.58085000  0.72723000  1.0
  H  H7  1  0.93412000  0.91920000  0.77293000  1.0
  H  H8  1  0.09549000  0.52643000  0.36680000  1.0
  H  H9  1  0.70176000  0.97382000  0.13312000  1.0
  H  H10  1  0.90450000  0.47358000  0.63320000  1.0
  H  H11  1  0.29823000  0.02618000  0.86688000  1.0
  H  H12  1  0.79808000  0.65357000  0.33435000  1.0
  H  H13  1  0.30974000  0.84673000  0.16564000  1.0
  H  H14  1  0.20190000  0.34643000  0.66565000  1.0
  H  H15  1  0.69027000  0.15328000  0.83436000  1.0
  H  H16  1  0.68884000  0.69016000  0.21102000  1.0
  H  H17  1  0.28757000  0.80984000  0.28893000  1.0
  H  H18  1  0.31114000  0.30984000  0.78898000  1.0
  H  H19  1  0.71243000  0.19015000  0.71107000  1.0
  H  H20  1  0.73843000  0.24002000  0.96000000  1.0
  H  H21  1  0.03842000  0.25994000  0.54003000  1.0
  H  H22  1  0.26157000  0.75998000  0.04000000  1.0
  H  H23  1  0.96159000  0.74006000  0.45997000  1.0
  H  H24  1  0.73937000  0.39038000  0.94899000  1.0
  H  H25  1  0.89967000  0.10966000  0.55107000  1.0
  H  H26  1  0.26063000  0.60962000  0.05102000  1.0
  H  H27  1  0.10033000  0.89034000  0.44893000  1.0
  H  H28  1  0.62253000  0.20503000  0.15237000  1.0
  H  H29  1  0.76538000  0.29493000  0.34768000  1.0
  H  H30  1  0.37748000  0.79498000  0.84764000  1.0
  H  H31  1  0.23461000  0.70507000  0.65231000  1.0
  H  H32  1  0.74952000  0.18732000  0.08627000  1.0
  H  H33  1  0.97610000  0.31256000  0.41378000  1.0
  H  H34  1  0.25050000  0.81269000  0.91374000  1.0
  H  H35  1  0.02389000  0.68744000  0.58622000  1.0
  C  C36  1  0.91219000  0.57675000  0.17262000  1.0
  C  C37  1  0.66285000  0.92303000  0.32732000  1.0
  C  C38  1  0.08781000  0.42325000  0.82738000  1.0
  C  C39  1  0.33716000  0.07697000  0.67268000  1.0
  C  C40  1  0.07019000  0.49788000  0.18995000  1.0
  C  C41  1  0.88236000  0.00190000  0.30994000  1.0
  C  C42  1  0.92980000  0.50212000  0.81005000  1.0
  C  C43  1  0.11765000  0.99809000  0.69006000  1.0
  C  C44  1  0.13320000  0.47899000  0.26014000  1.0
  C  C45  1  0.89385000  0.02094000  0.23976000  1.0
  C  C46  1  0.86680000  0.52101000  0.73986000  1.0
  C  C47  1  0.10615000  0.97905000  0.76024000  1.0
  C  C48  1  0.03896000  0.53600000  0.31208000  1.0
  C  C49  1  0.69058000  0.96416000  0.18783000  1.0
  C  C50  1  0.96102000  0.46400000  0.68792000  1.0
  C  C51  1  0.30942000  0.03584000  0.81217000  1.0
  C  C52  1  0.87533000  0.60998000  0.29424000  1.0
  C  C53  1  0.47085000  0.89019000  0.20570000  1.0
  C  C54  1  0.12465000  0.39002000  0.70575000  1.0
  C  C55  1  0.52915000  0.10981000  0.79430000  1.0
  C  C56  1  0.81356000  0.63079000  0.22488000  1.0
  C  C57  1  0.45785000  0.86917000  0.27506000  1.0
  C  C58  1  0.18643000  0.36921000  0.77512000  1.0
  C  C59  1  0.54215000  0.13082000  0.72494000  1.0
  C  C60  1  0.83519000  0.60785000  0.10026000  1.0
  C  C61  1  0.62725000  0.89194000  0.39969000  1.0
  C  C62  1  0.16481000  0.39215000  0.89973000  1.0
  C  C63  1  0.37274000  0.10806000  0.60031000  1.0
  C  C64  1  0.16966000  0.43232000  0.13580000  1.0
  C  C65  1  0.10166000  0.06738000  0.36405000  1.0
  C  C66  1  0.83035000  0.56769000  0.86420000  1.0
  C  C67  1  0.89836000  0.93262000  0.63595000  1.0
  C  C68  1  0.09701000  0.98094000  0.98204000  1.0
  C  C69  1  0.63401000  0.51906000  0.51800000  1.0
  C  C70  1  0.90302000  0.01907000  0.01797000  1.0
  C  C71  1  0.36599000  0.48092000  0.48200000  1.0
  O  O72  1  0.93762000  0.72311000  0.08095000  1.0
  O  O73  1  0.63396000  0.77676000  0.41906000  1.0
  O  O74  1  0.06238000  0.27689000  0.91904000  1.0
  O  O75  1  0.36603000  0.22322000  0.58094000  1.0
  O  O76  1  0.29285000  0.35098000  0.15160000  1.0
  O  O77  1  0.29047000  0.14864000  0.34825000  1.0
  O  O78  1  0.70718000  0.64904000  0.84840000  1.0
  O  O79  1  0.70951000  0.85135000  0.65175000  1.0
  O  O80  1  0.12624000  0.45732000  0.07168000  1.0
  O  O81  1  0.09735000  0.04242000  0.42819000  1.0
  O  O82  1  0.87377000  0.54269000  0.92832000  1.0
  O  O83  1  0.90266000  0.95758000  0.57181000  1.0
  O  O84  1  0.29157000  0.07328000  0.98230000  1.0
  O  O85  1  0.73601000  0.42674000  0.51774000  1.0
  O  O86  1  0.70843000  0.92671000  0.01770000  1.0
  O  O87  1  0.26396000  0.57326000  0.48225000  1.0
  O  O88  1  0.04136000  0.85640000  0.95445000  1.0
  O  O89  1  0.73027000  0.64360000  0.54562000  1.0
  O  O90  1  0.95865000  0.14359000  0.04555000  1.0
  O  O91  1  0.26972000  0.35641000  0.45438000  1.0
  O  O92  1  0.63568000  0.30016000  0.95923000  1.0
  O  O93  1  0.87613000  0.19983000  0.54064000  1.0
  O  O94  1  0.36433000  0.69985000  0.04077000  1.0
  O  O95  1  0.12387000  0.80017000  0.45936000  1.0
  O  O96  1  0.64991000  0.52420000  0.06043000  1.0
  O  O97  1  0.56522000  0.97555000  0.43951000  1.0
  O  O98  1  0.35009000  0.47580000  0.93957000  1.0
  O  O99  1  0.43479000  0.02445000  0.56049000  1.0
  O  O100  1  0.63098000  0.22763000  0.10506000  1.0
  O  O101  1  0.79847000  0.27234000  0.39499000  1.0
  O  O102  1  0.36903000  0.77237000  0.89494000  1.0
  O  O103  1  0.20152000  0.72766000  0.60501000  1.0
