# generated using pymatgen
data_AlH7C16O7
_symmetry_space_group_name_H-M   'P 1'
_cell_length_a   6.69733000
_cell_length_b   21.92760000
_cell_length_c   25.09960000
_cell_angle_alpha   95.80840000
_cell_angle_beta   89.99990000
_cell_angle_gamma   89.99890000
_symmetry_Int_Tables_number   1
_chemical_formula_structural   AlH7C16O7
_chemical_formula_sum   'Al4 H28 C64 O28'
_cell_volume   3667.11168372
_cell_formula_units_Z   4
loop_
 _symmetry_equiv_pos_site_id
 _symmetry_equiv_pos_as_xyz
  1  'x, y, z'
loop_
 _atom_site_type_symbol
 _atom_site_label
 _atom_site_symmetry_multiplicity
 _atom_site_fract_x
 _atom_site_fract_y
 _atom_site_fract_z
 _atom_site_occupancy
  Al  Al0  1  0.78555000  0.75145000  0.74983000  1.0
  Al  Al1  1  0.21677000  0.24897000  0.25008000  1.0
  Al  Al2  1  0.28555000  0.74855000  0.75017000  1.0
  Al  Al3  1  0.71677000  0.25103000  0.24992000  1.0
  H  H4  1  0.72667000  0.57726000  0.52044000  1.0
  H  H5  1  0.26983000  0.42598000  0.47675000  1.0
  H  H6  1  0.22668000  0.92274000  0.97956000  1.0
  H  H7  1  0.76983000  0.07401000  0.02325000  1.0
  H  H8  1  0.29895000  0.53100000  0.91879000  1.0
  H  H9  1  0.69595000  0.46541000  0.07793000  1.0
  H  H10  1  0.79894000  0.96900000  0.58121000  1.0
  H  H11  1  0.19594000  0.03459000  0.42207000  1.0
  H  H12  1  0.32344000  0.60381000  0.84850000  1.0
  H  H13  1  0.67356000  0.39346000  0.14919000  1.0
  H  H14  1  0.82344000  0.89619000  0.65151000  1.0
  H  H15  1  0.17357000  0.10654000  0.35080000  1.0
  H  H16  1  0.72504000  0.66666667  0.88596000  1.0
  H  H17  1  0.27973000  0.33751000  0.11737000  1.0
  H  H18  1  0.22504000  0.83336000  0.61404000  1.0
  H  H19  1  0.77972000  0.16249000  0.38264000  1.0
  H  H20  1  0.53033000  0.53916000  0.45298000  1.0
  H  H21  1  0.35033000  0.53505000  0.60098000  1.0
  H  H22  1  0.03034000  0.96084000  0.04702000  1.0
  H  H23  1  0.85033000  0.96495000  0.89903000  1.0
  H  H24  1  0.65301000  0.56390000  0.99644000  1.0
  H  H25  1  0.46452000  0.36953000  0.05013000  1.0
  H  H26  1  0.15300000  0.93610000  0.50356000  1.0
  H  H27  1  0.96451000  0.13047000  0.44987000  1.0
  H  H28  1  0.54169000  0.66966000  0.75020000  1.0
  H  H29  1  0.46341000  0.32639000  0.27557000  1.0
  H  H30  1  0.04168000  0.83034000  0.74980000  1.0
  H  H31  1  0.96341000  0.17361000  0.22443000  1.0
  C  C32  1  0.53259000  0.82025000  0.68179000  1.0
  C  C33  1  0.46888000  0.17926000  0.31806000  1.0
  C  C34  1  0.03260000  0.67975000  0.81821000  1.0
  C  C35  1  0.96887000  0.32074000  0.18194000  1.0
  C  C36  1  0.53363000  0.82650000  0.82665000  1.0
  C  C37  1  0.46821000  0.17452000  0.17294000  1.0
  C  C38  1  0.03365000  0.67350000  0.67335000  1.0
  C  C39  1  0.96819000  0.32548000  0.32706000  1.0
  C  C40  1  0.82416000  0.50060000  0.46668000  1.0
  C  C41  1  0.16962000  0.50205000  0.53061000  1.0
  C  C42  1  0.32416000  0.99940000  0.03332000  1.0
  C  C43  1  0.66961000  0.99795000  0.96938000  1.0
  C  C44  1  0.97821000  0.45678000  0.45362000  1.0
  C  C45  1  0.01607000  0.54574000  0.54366000  1.0
  C  C46  1  0.47821000  0.04322000  0.04638000  1.0
  C  C47  1  0.51607000  0.95425000  0.95634000  1.0
  C  C48  1  0.14951000  0.45887000  0.48608000  1.0
  C  C49  1  0.84601000  0.54411000  0.51073000  1.0
  C  C50  1  0.64950000  0.04113000  0.01392000  1.0
  C  C51  1  0.34602000  0.95589000  0.98927000  1.0
  C  C52  1  0.96565000  0.41129000  0.40962000  1.0
  C  C53  1  0.02869000  0.59011000  0.58858000  1.0
  C  C54  1  0.46565000  0.08871000  0.09038000  1.0
  C  C55  1  0.52869000  0.90988000  0.91142000  1.0
  C  C56  1  0.03082000  0.62893000  0.62689000  1.0
  C  C57  1  0.97020000  0.37087000  0.37264000  1.0
  C  C58  1  0.53082000  0.87107000  0.87310000  1.0
  C  C59  1  0.47022000  0.12913000  0.12736000  1.0
  C  C60  1  0.17489000  0.56096000  0.91112000  1.0
  C  C61  1  0.82289000  0.43708000  0.08677000  1.0
  C  C62  1  0.67488000  0.93904000  0.58888000  1.0
  C  C63  1  0.32289000  0.06292000  0.41324000  1.0
  C  C64  1  0.18739000  0.60111000  0.87195000  1.0
  C  C65  1  0.81056000  0.39712000  0.12624000  1.0
  C  C66  1  0.68739000  0.89889000  0.62805000  1.0
  C  C67  1  0.31057000  0.10288000  0.37376000  1.0
  C  C68  1  0.02423000  0.63866000  0.86190000  1.0
  C  C69  1  0.97608000  0.36150000  0.13785000  1.0
  C  C70  1  0.52423000  0.86134000  0.63810000  1.0
  C  C71  1  0.47609000  0.13850000  0.36215000  1.0
  C  C72  1  0.85152000  0.63718000  0.89295000  1.0
  C  C73  1  0.15137000  0.36533000  0.10818000  1.0
  C  C74  1  0.35152000  0.86282000  0.60705000  1.0
  C  C75  1  0.65138000  0.13467000  0.39182000  1.0
  C  C76  1  0.83900000  0.59866000  0.93384000  1.0
  C  C77  1  0.16550000  0.40416000  0.06747000  1.0
  C  C78  1  0.33900000  0.90134000  0.56616000  1.0
  C  C79  1  0.66550000  0.09584000  0.43253000  1.0
  C  C80  1  0.00106000  0.55903000  0.94273000  1.0
  C  C81  1  0.99924000  0.44155000  0.05660000  1.0
  C  C82  1  0.50106000  0.94097000  0.55727000  1.0
  C  C83  1  0.49924000  0.05845000  0.44340000  1.0
  C  C84  1  0.99408000  0.51856000  0.98295000  1.0
  C  C85  1  0.00417000  0.48231000  0.01672000  1.0
  C  C86  1  0.49407000  0.98144000  0.51705000  1.0
  C  C87  1  0.50418000  0.01769000  0.48328000  1.0
  C  C88  1  0.63369000  0.50174000  0.43658000  1.0
  C  C89  1  0.35129000  0.50182000  0.56432000  1.0
  C  C90  1  0.13368000  0.99826000  0.06342000  1.0
  C  C91  1  0.85129000  0.99818000  0.93568000  1.0
  C  C92  1  0.65858000  0.59965000  0.96790000  1.0
  C  C93  1  0.35706000  0.40501000  0.03865000  1.0
  C  C94  1  0.15858000  0.90036000  0.53210000  1.0
  C  C95  1  0.85705000  0.09499000  0.46135000  1.0
  O  O96  1  0.36416000  0.80806000  0.80872000  1.0
  O  O97  1  0.63738000  0.19326000  0.19108000  1.0
  O  O98  1  0.86418000  0.69194000  0.69128000  1.0
  O  O99  1  0.13737000  0.30675000  0.30891000  1.0
  O  O100  1  0.70401000  0.80677000  0.69945000  1.0
  O  O101  1  0.29741000  0.19264000  0.30053000  1.0
  O  O102  1  0.20402000  0.69324000  0.80055000  1.0
  O  O103  1  0.79741000  0.30736000  0.19947000  1.0
  O  O104  1  0.70503000  0.81096000  0.80806000  1.0
  O  O105  1  0.29778000  0.19142000  0.19136000  1.0
  O  O106  1  0.20504000  0.68903000  0.69195000  1.0
  O  O107  1  0.79777000  0.30858000  0.30864000  1.0
  O  O108  1  0.86550000  0.69765000  0.80117000  1.0
  O  O109  1  0.13707000  0.30365000  0.19878000  1.0
  O  O110  1  0.36550000  0.80234000  0.69883000  1.0
  O  O111  1  0.63707000  0.19635000  0.30122000  1.0
  O  O112  1  0.53716000  0.71349000  0.74825000  1.0
  O  O113  1  0.46558000  0.28742000  0.25348000  1.0
  O  O114  1  0.03715000  0.78651000  0.75175000  1.0
  O  O115  1  0.96559000  0.21258000  0.24652000  1.0
  O  O116  1  0.58614000  0.46636000  0.39796000  1.0
  O  O117  1  0.49534000  0.46831000  0.55341000  1.0
  O  O118  1  0.08614000  0.03364000  0.10204000  1.0
  O  O119  1  0.99534000  0.03169000  0.94659000  1.0
  O  O120  1  0.52191000  0.63660000  0.96565000  1.0
  O  O121  1  0.40455000  0.44028000  0.00588000  1.0
  O  O122  1  0.02191000  0.86341000  0.53436000  1.0
  O  O123  1  0.90454000  0.05972000  0.49412000  1.0
