# generated using pymatgen
data_Al6H80(C11O4)9
_symmetry_space_group_name_H-M   'P 1'
_cell_length_a   12.49080000
_cell_length_b   12.80130000
_cell_length_c   27.72090000
_cell_angle_alpha   89.83710000
_cell_angle_beta   88.52430000
_cell_angle_gamma   119.19710000
_symmetry_Int_Tables_number   1
_chemical_formula_structural   Al6H80(C11O4)9
_chemical_formula_sum   'Al6 H80 C99 O36'
_cell_volume   3867.47636051
_cell_formula_units_Z   1
loop_
 _symmetry_equiv_pos_site_id
 _symmetry_equiv_pos_as_xyz
  1  'x, y, z'
loop_
 _atom_site_type_symbol
 _atom_site_label
 _atom_site_symmetry_multiplicity
 _atom_site_fract_x
 _atom_site_fract_y
 _atom_site_fract_z
 _atom_site_occupancy
  Al  Al0  1  0.81886000  0.41024000  0.50460000  1.0
  Al  Al1  1  0.06929000  0.65838000  0.49809000  1.0
  Al  Al2  1  0.08646000  0.43330000  0.50089000  1.0
  Al  Al3  1  0.83528000  0.90234000  0.01597000  1.0
  Al  Al4  1  0.58474000  0.91456000  0.01890000  1.0
  Al  Al5  1  0.56609000  0.67401000  0.01542000  1.0
  H  H6  1  0.32502000  0.50819000  0.21868000  1.0
  H  H7  1  0.94437000  0.77273000  0.12627000  1.0
  H  H8  1  0.59095000  0.55614000  0.24170000  1.0
  H  H9  1  0.55599000  0.56576000  0.15454000  1.0
  H  H10  1  0.20215000  0.48873000  0.72138000  1.0
  H  H11  1  0.00248000  0.15478000  0.72033000  1.0
  H  H12  1  0.97470000  0.12775000  0.81001000  1.0
  H  H13  1  0.44856000  0.97246000  0.70604000  1.0
  H  H14  1  0.56625000  0.93615000  0.69576000  1.0
  H  H15  1  0.44029000  0.88078000  0.65627000  1.0
  H  H16  1  0.46809000  0.48283000  0.78972000  1.0
  H  H17  1  0.40211000  0.85909000  0.29390000  1.0
  H  H18  1  0.46080000  0.56242000  0.84216000  1.0
  H  H19  1  0.55900000  0.49756000  0.84134000  1.0
  H  H20  1  0.99023000  0.66108000  0.85792000  1.0
  H  H21  1  0.97999000  0.53968000  0.82388000  1.0
  H  H22  1  0.08990000  0.68694000  0.80625000  1.0
  H  H23  1  0.90594000  0.49197000  0.67628000  1.0
  H  H24  1  0.96756000  0.45914000  0.72847000  1.0
  H  H25  1  0.06537000  0.53636000  0.67697000  1.0
  H  H26  1  0.44271000  0.96251000  0.36381000  1.0
  H  H27  1  0.31522000  0.89431000  0.40557000  1.0
  H  H28  1  0.23697000  0.47174000  0.37855000  1.0
  H  H29  1  0.45174000  0.89282000  0.41798000  1.0
  H  H30  1  0.29454000  0.40563000  0.15244000  1.0
  H  H31  1  0.26048000  0.45036000  0.09649000  1.0
  H  H32  1  0.41359000  0.49621000  0.10973000  1.0
  H  H33  1  0.14174000  0.77389000  0.25371000  1.0
  H  H34  1  0.16975000  0.85623000  0.19744000  1.0
  H  H35  1  0.21880000  0.93453000  0.25298000  1.0
  H  H36  1  0.26411000  0.81447000  0.06341000  1.0
  H  H37  1  0.14455000  0.78795000  0.10737000  1.0
  H  H38  1  0.24988000  0.93723000  0.08649000  1.0
  H  H39  1  0.07582000  0.26667000  0.37188000  1.0
  H  H40  1  0.32012000  0.37271000  0.34497000  1.0
  H  H41  1  0.45220000  0.47882000  0.31032000  1.0
  H  H42  1  0.34416000  0.33908000  0.28436000  1.0
  H  H43  1  0.35258000  0.96194000  0.81354000  1.0
  H  H44  1  0.50693000  0.05386000  0.83281000  1.0
  H  H45  1  0.41001000  0.91241000  0.86240000  1.0
  H  H46  1  0.00936000  0.36551000  0.12516000  1.0
  H  H47  1  0.99424000  0.24583000  0.08797000  1.0
  H  H48  1  0.88125000  0.29125000  0.08745000  1.0
  H  H49  1  0.02810000  0.12103000  0.25387000  1.0
  H  H50  1  0.96269000  0.31259000  0.20837000  1.0
  H  H51  1  0.11926000  0.27862000  0.25544000  1.0
  H  H52  1  0.13220000  0.18905000  0.30144000  1.0
  H  H53  1  0.59403000  0.80392000  0.19787000  1.0
  H  H54  1  0.55035000  0.86013000  0.14779000  1.0
  H  H55  1  0.66835000  0.82265000  0.14064000  1.0
  H  H56  1  0.61399000  0.34015000  0.35895000  1.0
  H  H57  1  0.73275000  0.36223000  0.39840000  1.0
  H  H58  1  0.63227000  0.41368000  0.41511000  1.0
  H  H59  1  0.17021000  0.49827000  0.85356000  1.0
  H  H60  1  0.11665000  0.40798000  0.80132000  1.0
  H  H61  1  0.69221000  0.95652000  0.25419000  1.0
  H  H62  1  0.25474000  0.43386000  0.82791000  1.0
  H  H63  1  0.71194000  0.35068000  0.29245000  1.0
  H  H64  1  0.58795000  0.37659000  0.28144000  1.0
  H  H65  1  0.71679000  0.43583000  0.24121000  1.0
  H  H66  1  0.93140000  0.93497000  0.31904000  1.0
  H  H67  1  0.01392000  0.90995000  0.27187000  1.0
  H  H68  1  0.85998000  0.87245000  0.26354000  1.0
  H  H69  1  0.12600000  0.93425000  0.33980000  1.0
  H  H70  1  0.13281000  0.82943000  0.38133000  1.0
  H  H71  1  0.14342000  0.96586000  0.40303000  1.0
  H  H72  1  0.66633000  0.12904000  0.30354000  1.0
  H  H73  1  0.75870000  0.41059000  0.82948000  1.0
  H  H74  1  0.76252000  0.30918000  0.87390000  1.0
  H  H75  1  0.62233000  0.30986000  0.86334000  1.0
  H  H76  1  0.71321000  0.27096000  0.67193000  1.0
  H  H77  1  0.59315000  0.19029000  0.71576000  1.0
  H  H78  1  0.69722000  0.34261000  0.72468000  1.0
  H  H79  1  0.56685000  0.66901000  0.71708000  1.0
  H  H80  1  0.68924000  0.75150000  0.67434000  1.0
  H  H81  1  0.60494000  0.59441000  0.67078000  1.0
  H  H82  1  0.70176000  0.18835000  0.39007000  1.0
  H  H83  1  0.98023000  0.75310000  0.21334000  1.0
  H  H84  1  0.61954000  0.27460000  0.53334000  1.0
  H  H85  1  0.03502000  0.98617000  0.98360000  1.0
  C  C86  1  0.89453000  0.62395000  0.56849000  1.0
  C  C87  1  0.93458000  0.16999000  0.73977000  1.0
  C  C88  1  0.92021000  0.15632000  0.78936000  1.0
  C  C89  1  0.21569000  0.61830000  0.56787000  1.0
  C  C90  1  0.76007000  0.21322000  0.78791000  1.0
  C  C91  1  0.77094000  0.22441000  0.73736000  1.0
  C  C92  1  0.85986000  0.20285000  0.71341000  1.0
  C  C93  1  0.83167000  0.17604000  0.81437000  1.0
  C  C94  1  0.81062000  0.14822000  0.86422000  1.0
  C  C95  1  0.87847000  0.22021000  0.66283000  1.0
  C  C96  1  0.79324000  0.11617000  0.90652000  1.0
  C  C97  1  0.26867000  0.58440000  0.78704000  1.0
  C  C98  1  0.87353000  0.65870000  0.61555000  1.0
  C  C99  1  0.73083000  0.65831000  0.72893000  1.0
  C  C100  1  0.71403000  0.64994000  0.77902000  1.0
  C  C101  1  0.91393000  0.28963000  0.57131000  1.0
  C  C102  1  0.90471000  0.64025000  0.78961000  1.0
  C  C103  1  0.91897000  0.64432000  0.73939000  1.0
  C  C104  1  0.83573000  0.65654000  0.70935000  1.0
  C  C105  1  0.80111000  0.64415000  0.80930000  1.0
  C  C106  1  0.78412000  0.64825000  0.85966000  1.0
  C  C107  1  0.85619000  0.66113000  0.65890000  1.0
  C  C108  1  0.26050000  0.57543000  0.73727000  1.0
  C  C109  1  0.76722000  0.65720000  0.90262000  1.0
  C  C110  1  0.29197000  0.65724000  0.38608000  1.0
  C  C111  1  0.34703000  0.77044000  0.36238000  1.0
  C  C112  1  0.36342000  0.77270000  0.31228000  1.0
  C  C113  1  0.88573000  0.60990000  0.43267000  1.0
  C  C114  1  0.33234000  0.67085000  0.28351000  1.0
  C  C115  1  0.29972000  0.56388000  0.31029000  1.0
  C  C116  1  0.27538000  0.55784000  0.35976000  1.0
  C  C117  1  0.32984000  0.58567000  0.20075000  1.0
  C  C118  1  0.33333333  0.58756000  0.15060000  1.0
  C  C119  1  0.32319000  0.67693000  0.70645000  1.0
  C  C120  1  0.32725000  0.77453000  0.15345000  1.0
  C  C121  1  0.32593000  0.77042000  0.20456000  1.0
  C  C122  1  0.33263000  0.67758000  0.22987000  1.0
  C  C123  1  0.34453000  0.69025000  0.12562000  1.0
  C  C124  1  0.89314000  0.23785000  0.38524000  1.0
  C  C125  1  0.23577000  0.63100000  0.43560000  1.0
  C  C126  1  0.98678000  0.23812000  0.35619000  1.0
  C  C127  1  0.96823000  0.20334000  0.30802000  1.0
  C  C128  1  0.85271000  0.16969000  0.28849000  1.0
  C  C129  1  0.75651000  0.16053000  0.31873000  1.0
  C  C130  1  0.34512000  0.69876000  0.80694000  1.0
  C  C131  1  0.77570000  0.19368000  0.36672000  1.0
  C  C132  1  0.89465000  0.22120000  0.19958000  1.0
  C  C133  1  0.87352000  0.18953000  0.15104000  1.0
  C  C134  1  0.71964000  0.98713000  0.17743000  1.0
  C  C135  1  0.74205000  0.02208000  0.22533000  1.0
  C  C136  1  0.82989000  0.13837000  0.23700000  1.0
  C  C137  1  0.91855000  0.29305000  0.43361000  1.0
  C  C138  1  0.78537000  0.07165000  0.14052000  1.0
  C  C139  1  0.84708000  0.62455000  0.38378000  1.0
  C  C140  1  0.76210000  0.52151000  0.35881000  1.0
  C  C141  1  0.36732000  0.70884000  0.85685000  1.0
  C  C142  1  0.75286000  0.53084000  0.30853000  1.0
  C  C143  1  0.80875000  0.64455000  0.28553000  1.0
  C  C144  1  0.87932000  0.74977000  0.31161000  1.0
  C  C145  1  0.90240000  0.73739000  0.35996000  1.0
  C  C146  1  0.88731000  0.71302000  0.20041000  1.0
  C  C147  1  0.86811000  0.72209000  0.15180000  1.0
  C  C148  1  0.64881000  0.60533000  0.16755000  1.0
  C  C149  1  0.27135000  0.64780000  0.61420000  1.0
  C  C150  1  0.66879000  0.60053000  0.21630000  1.0
  C  C151  1  0.78841000  0.65332000  0.23356000  1.0
  C  C152  1  0.30036000  0.66274000  0.65637000  1.0
  C  C153  1  0.74829000  0.66744000  0.13501000  1.0
  C  C154  1  0.76461000  0.05571000  0.95264000  1.0
  C  C155  1  0.44530000  0.73714000  0.94613000  1.0
  C  C156  1  0.74622000  0.69615000  0.94870000  1.0
  C  C157  1  0.76173000  0.02695000  0.08977000  1.0
  C  C158  1  0.40803000  0.72411000  0.07768000  1.0
  C  C159  1  0.72670000  0.68960000  0.08463000  1.0
  C  C160  1  0.39842000  0.79130000  0.72554000  1.0
  C  C161  1  0.40732000  0.80102000  0.77594000  1.0
  C  C162  1  0.46655000  0.90072000  0.69394000  1.0
  C  C163  1  0.39252000  0.71795000  0.89946000  1.0
  C  C164  1  0.52048000  0.54189000  0.81922000  1.0
  C  C165  1  0.99637000  0.63225000  0.82121000  1.0
  C  C166  1  0.98636000  0.52451000  0.69909000  1.0
  C  C167  1  0.39116000  0.88623000  0.38870000  1.0
  C  C168  1  0.32537000  0.47934000  0.12594000  1.0
  C  C169  1  0.20591000  0.85551000  0.23311000  1.0
  C  C170  1  0.23986000  0.84947000  0.09536000  1.0
  C  C171  1  0.35469000  0.41077000  0.30859000  1.0
  C  C172  1  0.43390000  0.96193000  0.82794000  1.0
  C  C173  1  0.94365000  0.27817000  0.11091000  1.0
  C  C174  1  0.89581000  0.24097000  0.61953000  1.0
  C  C175  1  0.06736000  0.19772000  0.27804000  1.0
  C  C176  1  0.62820000  0.86149000  0.16552000  1.0
  C  C177  1  0.68111000  0.40320000  0.38371000  1.0
  C  C178  1  0.19856000  0.47564000  0.81913000  1.0
  C  C179  1  0.68870000  0.41797000  0.27942000  1.0
  C  C180  1  0.92336000  0.87296000  0.29032000  1.0
  C  C181  1  0.10081000  0.89480000  0.37653000  1.0
  C  C182  1  0.70758000  0.32109000  0.84639000  1.0
  C  C183  1  0.68988000  0.25922000  0.71065000  1.0
  C  C184  1  0.64238000  0.66867000  0.69632000  1.0
  O  O185  1  0.83179000  0.31197000  0.55693000  1.0
  O  O186  1  0.46665000  0.65516000  0.96216000  1.0
  O  O187  1  0.64913000  0.62265000  0.97346000  1.0
  O  O188  1  0.82385000  0.51649000  0.55783000  1.0
  O  O189  1  0.81376000  0.77475000  0.06115000  1.0
  O  O190  1  0.83520000  0.99626000  0.07100000  1.0
  O  O191  1  0.66495000  0.01670000  0.06999000  1.0
  O  O192  1  0.45292000  0.83345000  0.06270000  1.0
  O  O193  1  0.42911000  0.64851000  0.05500000  1.0
  O  O194  1  0.61705000  0.62423000  0.06888000  1.0
  O  O195  1  0.66110000  0.83021000  0.01643000  1.0
  O  O196  1  0.20362000  0.70358000  0.45423000  1.0
  O  O197  1  0.98630000  0.70253000  0.54256000  1.0
  O  O198  1  0.18386000  0.68993000  0.54914000  1.0
  O  O199  1  0.19726000  0.51867000  0.55023000  1.0
  O  O200  1  0.01317000  0.31136000  0.54778000  1.0
  O  O201  1  0.83711000  0.31144000  0.45359000  1.0
  O  O202  1  0.81385000  0.51863000  0.45791000  1.0
  O  O203  1  0.99487000  0.68615000  0.44589000  1.0
  O  O204  1  0.61509000  0.65459000  0.79974000  1.0
  O  O205  1  0.01801000  0.63980000  0.71865000  1.0
  O  O206  1  0.32441000  0.86404000  0.22829000  1.0
  O  O207  1  0.21210000  0.53120000  0.45548000  1.0
  O  O208  1  0.32069000  0.86934000  0.13468000  1.0
  O  O209  1  0.28580000  0.46183000  0.28806000  1.0
  O  O210  1  0.48352000  0.91270000  0.79266000  1.0
  O  O211  1  0.97111000  0.83902000  0.38615000  1.0
  O  O212  1  0.67089000  0.23130000  0.80969000  1.0
  O  O213  1  0.02496000  0.32451000  0.45130000  1.0
  O  O214  1  0.99346000  0.50107000  0.50175000  1.0
  O  O215  1  0.82249000  0.80172000  0.96008000  1.0
  O  O216  1  0.83670000  0.02064000  0.96744000  1.0
  O  O217  1  0.66380000  0.03836000  0.97426000  1.0
  O  O218  1  0.47151000  0.83508000  0.96721000  1.0
  O  O219  1  0.65778000  0.32530000  0.50519000  1.0
  O  O220  1  0.99622000  0.96978000  0.01542000  1.0
