# generated using pymatgen
data_ZnH12C12(N2O3)3
_symmetry_space_group_name_H-M   'P 1'
_cell_length_a   7.35566000
_cell_length_b   11.66690000
_cell_length_c   14.93146963
_cell_angle_alpha   112.97808005
_cell_angle_beta   100.72473080
_cell_angle_gamma   90.01740000
_symmetry_Int_Tables_number   1
_chemical_formula_structural   ZnH12C12(N2O3)3
_chemical_formula_sum   'Zn2 H24 C24 N12 O18'
_cell_volume   1155.33075904
_cell_formula_units_Z   2
loop_
 _symmetry_equiv_pos_site_id
 _symmetry_equiv_pos_as_xyz
  1  'x, y, z'
loop_
 _atom_site_type_symbol
 _atom_site_label
 _atom_site_symmetry_multiplicity
 _atom_site_fract_x
 _atom_site_fract_y
 _atom_site_fract_z
 _atom_site_occupancy
  Zn  Zn0  1  0.00000000  0.50000000  0.50000000  1.0
  Zn  Zn1  1  0.50000000  0.00000000  0.50000000  1.0
  H  H2  1  0.02973000  0.54603000  0.71042000  1.0
  H  H3  1  0.52927000  0.16391000  0.71037000  1.0
  H  H4  1  0.97026000  0.45397000  0.28957000  1.0
  H  H5  1  0.47073000  0.83611000  0.28964000  1.0
  H  H6  1  0.10852000  0.71692000  0.88007000  1.0
  H  H7  1  0.60794000  0.16262000  0.88002000  1.0
  H  H8  1  0.89147000  0.28308000  0.11993000  1.0
  H  H9  1  0.39206000  0.83738000  0.11998000  1.0
  H  H10  1  0.15633000  0.97378000  0.73853000  1.0
  H  H11  1  0.65556000  0.76427000  0.73863000  1.0
  H  H12  1  0.84367000  0.02622000  0.26147000  1.0
  H  H13  1  0.34445000  0.23573000  0.26137000  1.0
  H  H14  1  0.07322000  0.79273000  0.57600000  1.0
  H  H15  1  0.57271000  0.78285000  0.57605000  1.0
  H  H16  1  0.92678000  0.20728000  0.42400000  1.0
  H  H17  1  0.42729000  0.21715000  0.42395000  1.0
  H  H18  1  0.31044000  0.41229000  0.58369000  1.0
  H  H19  1  0.81035000  0.17107000  0.58377000  1.0
  H  H20  1  0.68957000  0.58771000  0.41631000  1.0
  H  H21  1  0.18965000  0.82894000  0.41624000  1.0
  H  H22  1  0.13034000  0.33398000  0.58186000  1.0
  H  H23  1  0.63037000  0.24763000  0.58197000  1.0
  H  H24  1  0.86966000  0.66602000  0.41814000  1.0
  H  H25  1  0.36963000  0.75237000  0.41803000  1.0
  C  C26  1  0.05737000  0.64243000  0.72061000  1.0
  C  C27  1  0.55689000  0.07769000  0.72056000  1.0
  C  C28  1  0.94262000  0.35756000  0.27938000  1.0
  C  C29  1  0.44311000  0.92231000  0.27944000  1.0
  C  C30  1  0.10327000  0.73744000  0.81459000  1.0
  C  C31  1  0.60271000  0.07664000  0.81457000  1.0
  C  C32  1  0.89674000  0.26256000  0.18541000  1.0
  C  C33  1  0.39728000  0.92336000  0.18543000  1.0
  C  C34  1  0.14328000  0.85933000  0.82308000  1.0
  C  C35  1  0.64269000  0.96328000  0.82314000  1.0
  C  C36  1  0.85672000  0.14067000  0.17692000  1.0
  C  C37  1  0.35731000  0.03671000  0.17685000  1.0
  C  C38  1  0.12906000  0.88092000  0.73618000  1.0
  C  C39  1  0.62835000  0.85479000  0.73626000  1.0
  C  C40  1  0.87094000  0.11908000  0.26382000  1.0
  C  C41  1  0.37166000  0.14520000  0.26374000  1.0
  C  C42  1  0.08208000  0.77961000  0.64495000  1.0
  C  C43  1  0.58150000  0.86487000  0.64502000  1.0
  C  C44  1  0.91792000  0.22039000  0.35505000  1.0
  C  C45  1  0.41850000  0.13513000  0.35498000  1.0
  C  C46  1  0.20189000  0.95918000  0.92079000  1.0
  C  C47  1  0.70159000  0.96143000  0.92094000  1.0
  C  C48  1  0.79811000  0.04082000  0.07921000  1.0
  C  C49  1  0.29841000  0.03856000  0.07906000  1.0
  N  N50  1  0.04917000  0.66221000  0.63706000  1.0
  N  N51  1  0.54871000  0.97438000  0.63705000  1.0
  N  N52  1  0.95082000  0.33779000  0.36294000  1.0
  N  N53  1  0.45129000  0.02562000  0.36295000  1.0
  N  N54  1  0.21896000  0.08092000  0.94852000  1.0
  N  N55  1  0.71921000  0.86766000  0.94895000  1.0
  N  N56  1  0.78103000  0.91909000  0.05148000  1.0
  N  N57  1  0.28079000  0.13234000  0.05105000  1.0
  N  N58  1  0.34919000  0.53991000  0.41860000  1.0
  N  N59  1  0.84936000  0.87899000  0.41856000  1.0
  N  N60  1  0.65081000  0.46009000  0.58140000  1.0
  N  N61  1  0.15064000  0.12101000  0.58144000  1.0
  O  O62  1  0.25030000  0.92581000  0.00001000  1.0
  O  O63  1  0.74969000  0.07419000  0.99999000  1.0
  O  O64  1  0.17389000  0.41193000  0.57733000  1.0
  O  O65  1  0.67380000  0.16517000  0.57751000  1.0
  O  O66  1  0.82611000  0.58808000  0.42267000  1.0
  O  O67  1  0.32620000  0.83483000  0.42249000  1.0
  O  O68  1  0.21299000  0.58999000  0.45747000  1.0
  O  O69  1  0.71319000  0.86787000  0.45752000  1.0
  O  O70  1  0.78701000  0.41002000  0.54254000  1.0
  O  O71  1  0.28681000  0.13214000  0.54248000  1.0
  O  O72  1  0.37710000  0.42857000  0.39932000  1.0
  O  O73  1  0.87722000  0.97091000  0.39906000  1.0
  O  O74  1  0.62290000  0.57143000  0.60068000  1.0
  O  O75  1  0.12278000  0.02910000  0.60094000  1.0
  O  O76  1  0.45676000  0.61039000  0.39967000  1.0
  O  O77  1  0.95694000  0.78962000  0.39978000  1.0
  O  O78  1  0.54324000  0.38961000  0.60033000  1.0
  O  O79  1  0.04306000  0.21038000  0.60022000  1.0
