# generated using pymatgen
data_ZnH21C24N3ClO4
_symmetry_space_group_name_H-M   'P 1'
_cell_length_a   12.31050000
_cell_length_b   13.07800000
_cell_length_c   19.27430000
_cell_angle_alpha   87.03710000
_cell_angle_beta   86.37930000
_cell_angle_gamma   85.13690000
_symmetry_Int_Tables_number   1
_chemical_formula_structural   ZnH21C24N3ClO4
_chemical_formula_sum   'Zn2 H42 C48 N6 Cl2 O8'
_cell_volume   3082.40494978
_cell_formula_units_Z   2
loop_
 _symmetry_equiv_pos_site_id
 _symmetry_equiv_pos_as_xyz
  1  'x, y, z'
loop_
 _atom_site_type_symbol
 _atom_site_label
 _atom_site_symmetry_multiplicity
 _atom_site_fract_x
 _atom_site_fract_y
 _atom_site_fract_z
 _atom_site_occupancy
  Zn  Zn0  1  0.62444000  0.50076000  0.48985000  1.0
  Zn  Zn1  1  0.37370000  0.49759000  0.51031000  1.0
  H  H2  1  0.01478000  0.35072000  0.60626000  1.0
  H  H3  1  0.31046000  0.81164000  0.57317000  1.0
  H  H4  1  0.29613000  0.00191000  0.58361000  1.0
  H  H5  1  0.69175000  0.99441000  0.42521000  1.0
  H  H6  1  0.53780000  0.79552000  0.21220000  1.0
  H  H7  1  0.39390000  0.79809000  0.20870000  1.0
  H  H8  1  0.45092000  0.85678000  0.27731000  1.0
  H  H9  1  0.38423000  0.68953000  0.32110000  1.0
  H  H10  1  0.52503000  0.68937000  0.32673000  1.0
  H  H11  1  0.47295000  0.21279000  0.77450000  1.0
  H  H12  1  0.42163000  0.26640000  0.69524000  1.0
  H  H13  1  0.98297000  0.65046000  0.39236000  1.0
  H  H14  1  0.52238000  0.16070000  0.69385000  1.0
  H  H15  1  0.60666000  0.32350000  0.65732000  1.0
  H  H16  1  0.65955000  0.27007000  0.73524000  1.0
  H  H17  1  0.80184000  0.25434000  0.49939000  1.0
  H  H18  1  0.92735000  0.24147000  0.54160000  1.0
  H  H19  1  0.80391000  0.20827000  0.58729000  1.0
  H  H20  1  0.84567000  0.37993000  0.62428000  1.0
  H  H21  1  0.72567000  0.38938000  0.57956000  1.0
  H  H22  1  0.06711000  0.75937000  0.45988000  1.0
  H  H23  1  0.19137000  0.74748000  0.50341000  1.0
  H  H24  1  0.51531000  0.33213000  0.15551000  1.0
  H  H25  1  0.19029000  0.79647000  0.41602000  1.0
  H  H26  1  0.27271000  0.61607000  0.42148000  1.0
  H  H27  1  0.15350000  0.62507000  0.37585000  1.0
  H  H28  1  0.86984000  0.59493000  0.28737000  1.0
  H  H29  1  0.75681000  0.51985000  0.30963000  1.0
  H  H30  1  0.73442000  0.64620000  0.27250000  1.0
  H  H31  1  0.68631000  0.64540000  0.40042000  1.0
  H  H32  1  0.79712000  0.71978000  0.37828000  1.0
  H  H33  1  0.24649000  0.48964000  0.68386000  1.0
  H  H34  1  0.13030000  0.42080000  0.71030000  1.0
  H  H35  1  0.47320000  0.66192000  0.84383000  1.0
  H  H36  1  0.26439000  0.36695000  0.72678000  1.0
  H  H37  1  0.19666000  0.28460000  0.62548000  1.0
  H  H38  1  0.31040000  0.35365000  0.59910000  1.0
  H  H39  1  0.47152000  0.66255000  0.14622000  1.0
  H  H40  1  0.57093000  0.33749000  0.85210000  1.0
  H  H41  1  0.36870000  0.17116000  0.55161000  1.0
  H  H42  1  0.61448000  0.82521000  0.45244000  1.0
  H  H43  1  0.67713000  0.18462000  0.43559000  1.0
  C  C44  1  0.46942000  0.69497000  0.50356000  1.0
  C  C45  1  0.43987000  0.13139000  0.52525000  1.0
  C  C46  1  0.53949000  0.97295000  0.48498000  1.0
  C  C47  1  0.44700000  0.02334000  0.52229000  1.0
  C  C48  1  0.04597000  0.40705000  0.56825000  1.0
  C  C49  1  0.95203000  0.59381000  0.43024000  1.0
  C  C50  1  0.15580000  0.42161000  0.56615000  1.0
  C  C51  1  0.84204000  0.57942000  0.43258000  1.0
  C  C52  1  0.13709000  0.54978000  0.47595000  1.0
  C  C53  1  0.86112000  0.45205000  0.52320000  1.0
  C  C54  1  0.02243000  0.53712000  0.47561000  1.0
  C  C55  1  0.51143000  0.30208000  0.49952000  1.0
  C  C56  1  0.97588000  0.46393000  0.52285000  1.0
  C  C57  1  0.49677000  0.49680000  0.36617000  1.0
  C  C58  1  0.52080000  0.49921000  0.63259000  1.0
  C  C59  1  0.50271000  0.40517000  0.25410000  1.0
  C  C60  1  0.49759000  0.58946000  0.74530000  1.0
  C  C61  1  0.50485000  0.40417000  0.18193000  1.0
  C  C62  1  0.49504000  0.59093000  0.81734000  1.0
  C  C63  1  0.49465000  0.49803000  0.14334000  1.0
  C  C64  1  0.52053000  0.49887000  0.85591000  1.0
  C  C65  1  0.47980000  0.59105000  0.17767000  1.0
  C  C66  1  0.52182000  0.18793000  0.49494000  1.0
  C  C67  1  0.55040000  0.40794000  0.82126000  1.0
  C  C68  1  0.47726000  0.59210000  0.25008000  1.0
  C  C69  1  0.55365000  0.40656000  0.74869000  1.0
  C  C70  1  0.49074000  0.49744000  0.28851000  1.0
  C  C71  1  0.52531000  0.49853000  0.71041000  1.0
  C  C72  1  0.51485000  0.49877000  0.93226000  1.0
  C  C73  1  0.50145000  0.49845000  0.06699000  1.0
  C  C74  1  0.46138000  0.69074000  0.28883000  1.0
  C  C75  1  0.46102000  0.79044000  0.24411000  1.0
  C  C76  1  0.58523000  0.30725000  0.71275000  1.0
  C  C77  1  0.46282000  0.80860000  0.51071000  1.0
  C  C78  1  0.49531000  0.23230000  0.71960000  1.0
  C  C79  1  0.81393000  0.37283000  0.57276000  1.0
  C  C80  1  0.83922000  0.26271000  0.54868000  1.0
  C  C81  1  0.18410000  0.63097000  0.42784000  1.0
  C  C82  1  0.15565000  0.74000000  0.45345000  1.0
  C  C83  1  0.77209000  0.64068000  0.38134000  1.0
  C  C84  1  0.78457000  0.59743000  0.30838000  1.0
  C  C85  1  0.22489000  0.36237000  0.61863000  1.0
  C  C86  1  0.21547000  0.41327000  0.68908000  1.0
  C  C87  1  0.36513000  0.96323000  0.55430000  1.0
  C  C88  1  0.62205000  0.03310000  0.45386000  1.0
  C  C89  1  0.37246000  0.85846000  0.54852000  1.0
  C  C90  1  0.61433000  0.13800000  0.45946000  1.0
  C  C91  1  0.54490000  0.86508000  0.48036000  1.0
  N  N92  1  0.48337000  0.58960000  0.03108000  1.0
  N  N93  1  0.53356000  0.40772000  0.96816000  1.0
  N  N94  1  0.49059000  0.58977000  0.96271000  1.0
  N  N95  1  0.52719000  0.40765000  0.03649000  1.0
  N  N96  1  0.79711000  0.50914000  0.47973000  1.0
  N  N97  1  0.20078000  0.49230000  0.51940000  1.0
  Cl  Cl98  1  0.51572000  0.28915000  0.30212000  1.0
  Cl  Cl99  1  0.46507000  0.70293000  0.69749000  1.0
  O  O100  1  0.56015000  0.65166000  0.48065000  1.0
  O  O101  1  0.41462000  0.34506000  0.50065000  1.0
  O  O102  1  0.38278000  0.65017000  0.52028000  1.0
  O  O103  1  0.59924000  0.34624000  0.50258000  1.0
  O  O104  1  0.59241000  0.48503000  0.38784000  1.0
  O  O105  1  0.43043000  0.47925000  0.61080000  1.0
  O  O106  1  0.40735000  0.51025000  0.40204000  1.0
  O  O107  1  0.60713000  0.51825000  0.59642000  1.0
