# generated using pymatgen
data_AlH5C8O9
_symmetry_space_group_name_H-M   'P 1'
_cell_length_a   6.68707000
_cell_length_b   10.24760000
_cell_length_c   18.47490000
_cell_angle_alpha   90.00020000
_cell_angle_beta   89.98220000
_cell_angle_gamma   89.99820000
_symmetry_Int_Tables_number   1
_chemical_formula_structural   AlH5C8O9
_chemical_formula_sum   'Al4 H20 C32 O36'
_cell_volume   1266.01866801
_cell_formula_units_Z   4
loop_
 _symmetry_equiv_pos_site_id
 _symmetry_equiv_pos_as_xyz
  1  'x, y, z'
loop_
 _atom_site_type_symbol
 _atom_site_label
 _atom_site_symmetry_multiplicity
 _atom_site_fract_x
 _atom_site_fract_y
 _atom_site_fract_z
 _atom_site_occupancy
  Al  Al0  1  0.76183000  0.75589000  0.74994000  1.0
  Al  Al1  1  0.23814000  0.24412000  0.24989000  1.0
  Al  Al2  1  0.26187000  0.74412000  0.74993000  1.0
  Al  Al3  1  0.73812000  0.25588000  0.24988000  1.0
  H  H4  1  0.32836000  0.52535000  0.62567000  1.0
  H  H5  1  0.67222000  0.47460000  0.37428000  1.0
  H  H6  1  0.67166000  0.47469000  0.12580000  1.0
  H  H7  1  0.32781000  0.52540000  0.87416000  1.0
  H  H8  1  0.82774000  0.97471000  0.87416000  1.0
  H  H9  1  0.17165000  0.02533000  0.12578000  1.0
  H  H10  1  0.17225000  0.02533000  0.37428000  1.0
  H  H11  1  0.82836000  0.97461000  0.62564000  1.0
  H  H12  1  0.42046000  0.35736000  0.49696000  1.0
  H  H13  1  0.57990000  0.64275000  0.50294000  1.0
  H  H14  1  0.57956000  0.64263000  0.99714000  1.0
  H  H15  1  0.42010000  0.35729000  0.00277000  1.0
  H  H16  1  0.92002000  0.14279000  0.00275000  1.0
  H  H17  1  0.07952000  0.85749000  0.99709000  1.0
  H  H18  1  0.07995000  0.85717000  0.50292000  1.0
  H  H19  1  0.92048000  0.14252000  0.49692000  1.0
  H  H20  1  0.52930000  0.57572000  0.75089000  1.0
  H  H21  1  0.47066000  0.42423000  0.25190000  1.0
  H  H22  1  0.02931000  0.92428000  0.75093000  1.0
  H  H23  1  0.97066000  0.07575000  0.25193000  1.0
  C  C24  1  0.50576000  0.88829000  0.64400000  1.0
  C  C25  1  0.49450000  0.11147000  0.35586000  1.0
  C  C26  1  0.49437000  0.11173000  0.14398000  1.0
  C  C27  1  0.50537000  0.88850000  0.85586000  1.0
  C  C28  1  0.00537000  0.61160000  0.85590000  1.0
  C  C29  1  0.99440000  0.38830000  0.14399000  1.0
  C  C30  1  0.99451000  0.38845000  0.35589000  1.0
  C  C31  1  0.00573000  0.61167000  0.64400000  1.0
  C  C32  1  0.16669000  0.48453000  0.54442000  1.0
  C  C33  1  0.83371000  0.51561000  0.45547000  1.0
  C  C34  1  0.83334000  0.51545000  0.04451000  1.0
  C  C35  1  0.16629000  0.48442000  0.95540000  1.0
  C  C36  1  0.66620000  0.01568000  0.95535000  1.0
  C  C37  1  0.33333333  0.98466000  0.04449000  1.0
  C  C38  1  0.33376000  0.98428000  0.45542000  1.0
  C  C39  1  0.66673000  0.01534000  0.54441000  1.0
  C  C40  1  0.16532000  0.42590000  0.47585000  1.0
  C  C41  1  0.83507000  0.57425000  0.52404000  1.0
  C  C42  1  0.83466000  0.57412000  0.97594000  1.0
  C  C43  1  0.16501000  0.42578000  0.02396000  1.0
  C  C44  1  0.66502000  0.07434000  0.02392000  1.0
  C  C45  1  0.33452000  0.92601000  0.97592000  1.0
  C  C46  1  0.33504000  0.92566000  0.52399000  1.0
  C  C47  1  0.66544000  0.07399000  0.47582000  1.0
  C  C48  1  0.99874000  0.44288000  0.42965000  1.0
  C  C49  1  0.00157000  0.55719000  0.57026000  1.0
  C  C50  1  0.00118000  0.55716000  0.92967000  1.0
  C  C51  1  0.99857000  0.44277000  0.07025000  1.0
  C  C52  1  0.49856000  0.05733000  0.07021000  1.0
  C  C53  1  0.50106000  0.94293000  0.92962000  1.0
  C  C54  1  0.50157000  0.94268000  0.57022000  1.0
  C  C55  1  0.49885000  0.05704000  0.42962000  1.0
  O  O56  1  0.34208000  0.85851000  0.82559000  1.0
  O  O57  1  0.65761000  0.14192000  0.17419000  1.0
  O  O58  1  0.65777000  0.14129000  0.32547000  1.0
  O  O59  1  0.34247000  0.85829000  0.67429000  1.0
  O  O60  1  0.84248000  0.64167000  0.67433000  1.0
  O  O61  1  0.15778000  0.35867000  0.32548000  1.0
  O  O62  1  0.15762000  0.35810000  0.17421000  1.0
  O  O63  1  0.84209000  0.64153000  0.82560000  1.0
  O  O64  1  0.67867000  0.87657000  0.67518000  1.0
  O  O65  1  0.32144000  0.12337000  0.32477000  1.0
  O  O66  1  0.32153000  0.12335000  0.17527000  1.0
  O  O67  1  0.67837000  0.87668000  0.82468000  1.0
  O  O68  1  0.17834000  0.62335000  0.82470000  1.0
  O  O69  1  0.82155000  0.37667000  0.17527000  1.0
  O  O70  1  0.82148000  0.37663000  0.32478000  1.0
  O  O71  1  0.17863000  0.62338000  0.67518000  1.0
  O  O72  1  0.51518000  0.66969000  0.74995000  1.0
  O  O73  1  0.48484000  0.33031000  0.24994000  1.0
  O  O74  1  0.01514000  0.83032000  0.74994000  1.0
  O  O75  1  0.98482000  0.16967000  0.24994000  1.0
  O  O76  1  0.33552000  0.46311000  0.58417000  1.0
  O  O77  1  0.66487000  0.53696000  0.41573000  1.0
  O  O78  1  0.66451000  0.53689000  0.08429000  1.0
  O  O79  1  0.33513000  0.46309000  0.91562000  1.0
  O  O80  1  0.83507000  0.03706000  0.91559000  1.0
  O  O81  1  0.16442000  0.96316000  0.08427000  1.0
  O  O82  1  0.16485000  0.96295000  0.41570000  1.0
  O  O83  1  0.83560000  0.03680000  0.58414000  1.0
  O  O84  1  0.32462000  0.35036000  0.45693000  1.0
  O  O85  1  0.67582000  0.64979000  0.54293000  1.0
  O  O86  1  0.67532000  0.64966000  0.95707000  1.0
  O  O87  1  0.32425000  0.35020000  0.04279000  1.0
  O  O88  1  0.82424000  0.14992000  0.04279000  1.0
  O  O89  1  0.17523000  0.85047000  0.95703000  1.0
  O  O90  1  0.17585000  0.85007000  0.54290000  1.0
  O  O91  1  0.82470000  0.14952000  0.45689000  1.0
