# generated using pymatgen
data_Zn2H56C57Br6N4O19
_symmetry_space_group_name_H-M   'P 1'
_cell_length_a   10.08340000
_cell_length_b   10.73660000
_cell_length_c   23.63250000
_cell_angle_alpha   89.23480000
_cell_angle_beta   88.73750000
_cell_angle_gamma   89.46090000
_symmetry_Int_Tables_number   1
_chemical_formula_structural   Zn2H56C57Br6N4O19
_chemical_formula_sum   'Zn2 H56 C57 Br6 N4 O19'
_cell_volume   2557.53278897
_cell_formula_units_Z   1
loop_
 _symmetry_equiv_pos_site_id
 _symmetry_equiv_pos_as_xyz
  1  'x, y, z'
loop_
 _atom_site_type_symbol
 _atom_site_label
 _atom_site_symmetry_multiplicity
 _atom_site_fract_x
 _atom_site_fract_y
 _atom_site_fract_z
 _atom_site_occupancy
  Zn  Zn0  1  0.35926000  0.49199000  0.50028000  1.0
  Zn  Zn1  1  0.63630000  0.49441000  0.49780000  1.0
  H  H2  1  0.30432000  0.56904000  0.32557000  1.0
  H  H3  1  0.69535000  0.40902000  0.31714000  1.0
  H  H4  1  0.47288000  0.81965000  0.94312000  1.0
  H  H5  1  0.43684000  0.19877000  0.05792000  1.0
  H  H6  1  0.29115000  0.45918000  0.66897000  1.0
  H  H7  1  0.65347000  0.56850000  0.79572000  1.0
  H  H8  1  0.30178000  0.58411000  0.21923000  1.0
  H  H9  1  0.88803000  0.20245000  0.46227000  1.0
  H  H10  1  0.89176000  0.03874000  0.44992000  1.0
  H  H11  1  0.93802000  0.11100000  0.54811000  1.0
  H  H12  1  0.77164000  0.15965000  0.55618000  1.0
  H  H13  1  0.69449000  0.94037000  0.55542000  1.0
  H  H14  1  0.83088000  0.94646000  0.60089000  1.0
  H  H15  1  0.85186000  0.88685000  0.53130000  1.0
  H  H16  1  0.25325000  0.99444000  0.56243000  1.0
  H  H17  1  0.25897000  0.14020000  0.52492000  1.0
  H  H18  1  0.36388000  0.08860000  0.64437000  1.0
  H  H19  1  0.37582000  0.23367000  0.60802000  1.0
  H  H20  1  0.12920000  0.25179000  0.60430000  1.0
  H  H21  1  0.17870000  0.23207000  0.67568000  1.0
  H  H22  1  0.11110000  0.10492000  0.63903000  1.0
  H  H23  1  0.85017000  0.84786000  0.36922000  1.0
  H  H24  1  0.75034000  0.98363000  0.35929000  1.0
  H  H25  1  0.64339000  0.71686000  0.35527000  1.0
  H  H26  1  0.55611000  0.85469000  0.33786000  1.0
  H  H27  1  0.72381000  0.89846000  0.25772000  1.0
  H  H28  1  0.63763000  0.75759000  0.24858000  1.0
  H  H29  1  0.80291000  0.75389000  0.27292000  1.0
  H  H30  1  0.21150000  0.78515000  0.43943000  1.0
  H  H31  1  0.33778000  0.78701000  0.38561000  1.0
  H  H32  1  0.13183000  0.99258000  0.40954000  1.0
  H  H33  1  0.27186000  0.01394000  0.36418000  1.0
  H  H34  1  0.19907000  0.84610000  0.30064000  1.0
  H  H35  1  0.06355000  0.95086000  0.31084000  1.0
  H  H36  1  0.06652000  0.80606000  0.34788000  1.0
  H  H37  1  0.23606000  0.30639000  0.37225000  1.0
  H  H38  1  0.13733000  0.44225000  0.36128000  1.0
  H  H39  1  0.03552000  0.17309000  0.37007000  1.0
  H  H40  1  0.93150000  0.30536000  0.36291000  1.0
  H  H41  1  0.04381000  0.35981000  0.26923000  1.0
  H  H42  1  0.97621000  0.20832000  0.26831000  1.0
  H  H43  1  0.14977000  0.22749000  0.27588000  1.0
  H  H44  1  0.24591000  0.68144000  0.57173000  1.0
  H  H45  1  0.13994000  0.56516000  0.60363000  1.0
  H  H46  1  0.06326000  0.83686000  0.57656000  1.0
  H  H47  1  0.94985000  0.72215000  0.59994000  1.0
  H  H48  1  0.07723000  0.69265000  0.69063000  1.0
  H  H49  1  0.02341000  0.84931000  0.68165000  1.0
  H  H50  1  0.19171000  0.80799000  0.66743000  1.0
  H  H51  1  0.29404000  0.08270000  0.89306000  1.0
  H  H52  1  0.22321000  0.22237000  0.92048000  1.0
  H  H53  1  0.25770000  0.97452000  0.98569000  1.0
  H  H54  1  0.20322000  0.11413000  0.01736000  1.0
  H  H55  1  0.00103000  0.12002000  0.95683000  1.0
  H  H56  1  0.01049000  0.97776000  0.99555000  1.0
  H  H57  1  0.05474000  0.98163000  0.92247000  1.0
  C  C58  1  0.50145000  0.72363000  0.47193000  1.0
  C  C59  1  0.48657000  0.73639000  0.02694000  1.0
  C  C60  1  0.46951000  0.73367000  0.96813000  1.0
  C  C61  1  0.45045000  0.62241000  0.94059000  1.0
  C  C62  1  0.44645000  0.50775000  0.97096000  1.0
  C  C63  1  0.42853000  0.39307000  0.94237000  1.0
  C  C64  1  0.42342000  0.28131000  0.97445000  1.0
  C  C65  1  0.44043000  0.28542000  0.03343000  1.0
  C  C66  1  0.43849000  0.62674000  0.87831000  1.0
  C  C67  1  0.42908000  0.39198000  0.87974000  1.0
  C  C68  1  0.34767000  0.48180000  0.75554000  1.0
  C  C69  1  0.50054000  0.51550000  0.60848000  1.0
  C  C70  1  0.36983000  0.48377000  0.69738000  1.0
  C  C71  1  0.49245000  0.51787000  0.67255000  1.0
  C  C72  1  0.59451000  0.54987000  0.70920000  1.0
  C  C73  1  0.57355000  0.54438000  0.76773000  1.0
  C  C74  1  0.45112000  0.51067000  0.79139000  1.0
  C  C75  1  0.38731000  0.54590000  0.24119000  1.0
  C  C76  1  0.38818000  0.53688000  0.29975000  1.0
  C  C77  1  0.49828000  0.48483000  0.32670000  1.0
  C  C78  1  0.61015000  0.44738000  0.29514000  1.0
  C  C79  1  0.60955000  0.45897000  0.23647000  1.0
  C  C80  1  0.50582000  0.25538000  0.50791000  1.0
  C  C81  1  0.49696000  0.50494000  0.20932000  1.0
  C  C82  1  0.60543000  0.06106000  0.46629000  1.0
  C  C83  1  0.51605000  0.11607000  0.50356000  1.0
  C  C84  1  0.60163000  0.93169000  0.45043000  1.0
  C  C85  1  0.49141000  0.85581000  0.45360000  1.0
  C  C86  1  0.07760000  0.45851000  0.46533000  1.0
  C  C87  1  0.93501000  0.49455000  0.46075000  1.0
  C  C88  1  0.49620000  0.47090000  0.38987000  1.0
  C  C89  1  0.46689000  0.39173000  0.12338000  1.0
  C  C90  1  0.49967000  0.62399000  0.12143000  1.0
  C  C91  1  0.48244000  0.62593000  0.05923000  1.0
  C  C92  1  0.46187000  0.51123000  0.03084000  1.0
  C  C93  1  0.45772000  0.39629000  0.06120000  1.0
  C  C94  1  0.83705000  0.11436000  0.47165000  1.0
  C  C95  1  0.83593000  0.08993000  0.53546000  1.0
  C  C96  1  0.80120000  0.95863000  0.55665000  1.0
  C  C97  1  0.30768000  0.08223000  0.55709000  1.0
  C  C98  1  0.31497000  0.14965000  0.61321000  1.0
  C  C99  1  0.17586000  0.18657000  0.63438000  1.0
  C  C100  1  0.74862000  0.88516000  0.37343000  1.0
  C  C101  1  0.65518000  0.81098000  0.33710000  1.0
  C  C102  1  0.70762000  0.80474000  0.27587000  1.0
  C  C103  1  0.27861000  0.84622000  0.41462000  1.0
  C  C104  1  0.20195000  0.94367000  0.38094000  1.0
  C  C105  1  0.12861000  0.88368000  0.33244000  1.0
  C  C106  1  0.13663000  0.34694000  0.37860000  1.0
  C  C107  1  0.03091000  0.26813000  0.35232000  1.0
  C  C108  1  0.05172000  0.26570000  0.28791000  1.0
  C  C109  1  0.14291000  0.65073000  0.57756000  1.0
  C  C110  1  0.05391000  0.75128000  0.60238000  1.0
  C  C111  1  0.08875000  0.77665000  0.66384000  1.0
  C  C112  1  0.27671000  0.13605000  0.93186000  1.0
  C  C113  1  0.20240000  0.06162000  0.97761000  1.0
  C  C114  1  0.05948000  0.03378000  0.96208000  1.0
  Br  Br115  1  0.51598000  0.89650000  0.05663000  1.0
  Br  Br116  1  0.76333000  0.41249000  0.19352000  1.0
  Br  Br117  1  0.88775000  0.57665000  0.39303000  1.0
  Br  Br118  1  0.90026000  0.40100000  0.56717000  1.0
  Br  Br119  1  0.17561000  0.44370000  0.78465000  1.0
  Br  Br120  1  0.76575000  0.60479000  0.68537000  1.0
  N  N121  1  0.48945000  0.50671000  0.14887000  1.0
  N  N122  1  0.43707000  0.51010000  0.85195000  1.0
  N  N123  1  0.15490000  0.52036000  0.49753000  1.0
  N  N124  1  0.84414000  0.47374000  0.49830000  1.0
  O  O125  1  0.39772000  0.67957000  0.49689000  1.0
  O  O126  1  0.52052000  0.71639000  0.14984000  1.0
  O  O127  1  0.43396000  0.72436000  0.85068000  1.0
  O  O128  1  0.42739000  0.29737000  0.85124000  1.0
  O  O129  1  0.61108000  0.66386000  0.46530000  1.0
  O  O130  1  0.39402000  0.48170000  0.58500000  1.0
  O  O131  1  0.60768000  0.54471000  0.58300000  1.0
  O  O132  1  0.39357000  0.30257000  0.49573000  1.0
  O  O133  1  0.60788000  0.31460000  0.52233000  1.0
  O  O134  1  0.38609000  0.49953000  0.41422000  1.0
  O  O135  1  0.60105000  0.43403000  0.41371000  1.0
  O  O136  1  0.45465000  0.29570000  0.15181000  1.0
  O  O137  1  0.70937000  0.13138000  0.44453000  1.0
  O  O138  1  0.43653000  0.04193000  0.53559000  1.0
  O  O139  1  0.72273000  0.88106000  0.43417000  1.0
  O  O140  1  0.36665000  0.90819000  0.45268000  1.0
  O  O141  1  0.12218000  0.35420000  0.44100000  1.0
  O  O142  1  0.09014000  0.62205000  0.52208000  1.0
  O  O143  1  0.40750000  0.16678000  0.95257000  1.0
