# generated using pymatgen
data_Zn2H16C22N2O9
_symmetry_space_group_name_H-M   'P 1'
_cell_length_a   9.70343000
_cell_length_b   11.01330000
_cell_length_c   11.87300000
_cell_angle_alpha   106.59000000
_cell_angle_beta   93.14700000
_cell_angle_gamma   109.43400000
_symmetry_Int_Tables_number   1
_chemical_formula_structural   Zn2H16C22N2O9
_chemical_formula_sum   'Zn4 H32 C44 N4 O18'
_cell_volume   1130.84683162
_cell_formula_units_Z   2
loop_
 _symmetry_equiv_pos_site_id
 _symmetry_equiv_pos_as_xyz
  1  'x, y, z'
loop_
 _atom_site_type_symbol
 _atom_site_label
 _atom_site_symmetry_multiplicity
 _atom_site_fract_x
 _atom_site_fract_y
 _atom_site_fract_z
 _atom_site_occupancy
  Zn  Zn0  1  0.97335000  0.72907000  0.19460000  1.0
  Zn  Zn1  1  0.02665000  0.27093000  0.80540000  1.0
  Zn  Zn2  1  0.79788000  0.09984000  0.06030000  1.0
  Zn  Zn3  1  0.20212000  0.90016000  0.93970000  1.0
  H  H4  1  0.75159000  0.22205000  0.90568000  1.0
  H  H5  1  0.24840000  0.77795000  0.09432000  1.0
  H  H6  1  0.60259000  0.16503000  0.96364000  1.0
  H  H7  1  0.39741000  0.83497000  0.03636000  1.0
  H  H8  1  0.41488000  0.70606000  0.19769000  1.0
  H  H9  1  0.58512000  0.29394000  0.80231000  1.0
  H  H10  1  0.59033000  0.38737000  0.11154000  1.0
  H  H11  1  0.40967000  0.61263000  0.88846000  1.0
  H  H12  1  0.05689000  0.00226000  0.17590000  1.0
  H  H13  1  0.94311000  0.99774000  0.82410000  1.0
  H  H14  1  0.23432000  0.23309000  0.28763000  1.0
  H  H15  1  0.76568000  0.76691000  0.71237000  1.0
  H  H16  1  0.27694000  0.09253000  0.58812000  1.0
  H  H17  1  0.72306000  0.90747000  0.41188000  1.0
  H  H18  1  0.10288000  0.86322000  0.46106000  1.0
  H  H19  1  0.89711000  0.13678000  0.53894000  1.0
  H  H20  1  0.37125000  0.36036000  0.59922000  1.0
  H  H21  1  0.62875000  0.63964000  0.40078000  1.0
  H  H22  1  0.40741000  0.38597000  0.46108000  1.0
  H  H23  1  0.59259000  0.61403000  0.53891000  1.0
  H  H24  1  0.63115000  0.40126000  0.58948000  1.0
  H  H25  1  0.36885000  0.59874000  0.41052000  1.0
  H  H26  1  0.54108000  0.23240000  0.58696000  1.0
  H  H27  1  0.45892000  0.76760000  0.41304000  1.0
  H  H28  1  0.80345000  0.35885000  0.21586000  1.0
  H  H29  1  0.19655000  0.64115000  0.78414000  1.0
  H  H30  1  0.71139000  0.44926000  0.40090000  1.0
  H  H31  1  0.28861000  0.55074000  0.59910000  1.0
  H  H32  1  0.51781000  0.03743000  0.40767000  1.0
  H  H33  1  0.48219000  0.96257000  0.59233000  1.0
  H  H34  1  0.61643000  0.96194000  0.22096000  1.0
  H  H35  1  0.38356000  0.03806000  0.77904000  1.0
  C  C36  1  0.39687000  0.59811000  0.16722000  1.0
  C  C37  1  0.60313000  0.40189000  0.83278000  1.0
  C  C38  1  0.25219000  0.50246000  0.13532000  1.0
  C  C39  1  0.74781000  0.49754000  0.86467000  1.0
  C  C40  1  0.22939000  0.36249000  0.09406000  1.0
  C  C41  1  0.77061000  0.63751000  0.90594000  1.0
  C  C42  1  0.35257000  0.32149000  0.08403000  1.0
  C  C43  1  0.64743000  0.67852000  0.91597000  1.0
  C  C44  1  0.49586000  0.41964000  0.11960000  1.0
  C  C45  1  0.50414000  0.58036000  0.88040000  1.0
  C  C46  1  0.51924000  0.55799000  0.16208000  1.0
  C  C47  1  0.48076000  0.44201000  0.83792000  1.0
  C  C48  1  0.67346000  0.66310000  0.19699000  1.0
  C  C49  1  0.32654000  0.33690000  0.80301000  1.0
  C  C50  1  0.12246000  0.54886000  0.14727000  1.0
  C  C51  1  0.87754000  0.45114000  0.85273000  1.0
  C  C52  1  0.07435000  0.25866000  0.05907000  1.0
  C  C53  1  0.92565000  0.74134000  0.94092000  1.0
  C  C54  1  0.33623000  0.17500000  0.03226000  1.0
  C  C55  1  0.66378000  0.82500000  0.96774000  1.0
  C  C56  1  0.10897000  0.02548000  0.26685000  1.0
  C  C57  1  0.89104000  0.97452000  0.73315000  1.0
  C  C58  1  0.20958000  0.15476000  0.33046000  1.0
  C  C59  1  0.79042000  0.84524000  0.66955000  1.0
  C  C60  1  0.27788000  0.18112000  0.44594000  1.0
  C  C61  1  0.72212000  0.81887000  0.55406000  1.0
  C  C62  1  0.23454000  0.07545000  0.49567000  1.0
  C  C63  1  0.76546000  0.92455000  0.50433000  1.0
  C  C64  1  0.13540000  0.94831000  0.42605000  1.0
  C  C65  1  0.86459000  0.05169000  0.57395000  1.0
  C  C66  1  0.39856000  0.31539000  0.51214000  1.0
  C  C67  1  0.60144000  0.68461000  0.48786000  1.0
  C  C68  1  0.55056000  0.30146000  0.53436000  1.0
  C  C69  1  0.44944000  0.69854000  0.46564000  1.0
  C  C70  1  0.73795000  0.29066000  0.26041000  1.0
  C  C71  1  0.26205000  0.70934000  0.73959000  1.0
  C  C72  1  0.68680000  0.34019000  0.36435000  1.0
  C  C73  1  0.31320000  0.65981000  0.63565000  1.0
  C  C74  1  0.60659000  0.25069000  0.42137000  1.0
  C  C75  1  0.39341000  0.74931000  0.57863000  1.0
  C  C76  1  0.58005000  0.11222000  0.36791000  1.0
  C  C77  1  0.41996000  0.88778000  0.63209000  1.0
  C  C78  1  0.63339000  0.06879000  0.26337000  1.0
  C  C79  1  0.36660000  0.93121000  0.73663000  1.0
  N  N80  1  0.07552000  0.92224000  0.31241000  1.0
  N  N81  1  0.92448000  0.07776000  0.68759000  1.0
  N  N82  1  0.71146000  0.15677000  0.21064000  1.0
  N  N83  1  0.28854000  0.84323000  0.78936000  1.0
  O  O84  1  0.69611000  0.15271000  0.94086000  1.0
  O  O85  1  0.30389000  0.84729000  0.05913000  1.0
  O  O86  1  0.77757000  0.61363000  0.20327000  1.0
  O  O87  1  0.22243000  0.38637000  0.79673000  1.0
  O  O88  1  0.69421000  0.78598000  0.21703000  1.0
  O  O89  1  0.30579000  0.21402000  0.78296000  1.0
  O  O90  1  0.15595000  0.68100000  0.18628000  1.0
  O  O91  1  0.84405000  0.31900000  0.81372000  1.0
  O  O92  1  0.99340000  0.46514000  0.12324000  1.0
  O  O93  1  0.00660000  0.53486000  0.87676000  1.0
  O  O94  1  0.01159000  0.21546000  0.13849000  1.0
  O  O95  1  0.98841000  0.78454000  0.86151000  1.0
  O  O96  1  0.00972000  0.21551000  0.95150000  1.0
  O  O97  1  0.99028000  0.78449000  0.04850000  1.0
  O  O98  1  0.20443000  0.08531000  0.01302000  1.0
  O  O99  1  0.79557000  0.91469000  0.98698000  1.0
  O  O100  1  0.44744000  0.14391000  0.00997000  1.0
  O  O101  1  0.55256000  0.85609000  0.99003000  1.0
