# generated using pymatgen
data_CuH3C5N2
_symmetry_space_group_name_H-M   'P 1'
_cell_length_a   17.95680000
_cell_length_b   18.01980000
_cell_length_c   18.03900000
_cell_angle_alpha   93.34470000
_cell_angle_beta   93.63600000
_cell_angle_gamma   93.66480000
_symmetry_Int_Tables_number   1
_chemical_formula_structural   CuH3C5N2
_chemical_formula_sum   'Cu12 H36 C60 N24'
_cell_volume   5801.94066915
_cell_formula_units_Z   12
loop_
 _symmetry_equiv_pos_site_id
 _symmetry_equiv_pos_as_xyz
  1  'x, y, z'
loop_
 _atom_site_type_symbol
 _atom_site_label
 _atom_site_symmetry_multiplicity
 _atom_site_fract_x
 _atom_site_fract_y
 _atom_site_fract_z
 _atom_site_occupancy
  Cu  Cu0  1  0.13674000  0.25742000  0.25646000  1.0
  Cu  Cu1  1  0.25538000  0.25378000  0.13322000  1.0
  Cu  Cu2  1  0.25449000  0.13320000  0.25451000  1.0
  Cu  Cu3  1  0.85120000  0.73441000  0.25769000  1.0
  Cu  Cu4  1  0.76086000  0.75904000  0.10243000  1.0
  Cu  Cu5  1  0.73294000  0.84489000  0.26078000  1.0
  Cu  Cu6  1  0.84744000  0.26001000  0.73331000  1.0
  Cu  Cu7  1  0.73357000  0.25920000  0.84822000  1.0
  Cu  Cu8  1  0.76011000  0.10242000  0.76077000  1.0
  Cu  Cu9  1  0.09945000  0.76372000  0.76229000  1.0
  Cu  Cu10  1  0.25904000  0.73452000  0.84647000  1.0
  Cu  Cu11  1  0.25757000  0.85116000  0.73491000  1.0
  H  H12  1  0.03601000  0.38269000  0.19876000  1.0
  H  H13  1  0.19653000  0.37643000  0.02981000  1.0
  H  H14  1  0.19436000  0.03139000  0.37780000  1.0
  H  H15  1  0.03497000  0.20158000  0.38191000  1.0
  H  H16  1  0.37974000  0.19543000  0.03214000  1.0
  H  H17  1  0.37803000  0.03007000  0.19680000  1.0
  H  H18  1  0.94795000  0.60734000  0.21065000  1.0
  H  H19  1  0.84462000  0.64664000  0.99418000  1.0
  H  H20  1  0.78966000  0.95370000  0.39988000  1.0
  H  H21  1  0.96464000  0.79988000  0.38933000  1.0
  H  H22  1  0.65039000  0.84605000  0.99587000  1.0
  H  H23  1  0.60442000  0.93970000  0.21350000  1.0
  H  H24  1  0.95971000  0.39481000  0.79456000  1.0
  H  H25  1  0.79398000  0.39504000  0.95851000  1.0
  H  H26  1  0.84458000  0.99568000  0.64869000  1.0
  H  H27  1  0.94159000  0.21360000  0.60422000  1.0
  H  H28  1  0.60657000  0.21134000  0.94476000  1.0
  H  H29  1  0.65020000  0.99411000  0.84779000  1.0
  H  H30  1  0.99294000  0.65211000  0.84939000  1.0
  H  H31  1  0.21289000  0.60389000  0.93895000  1.0
  H  H32  1  0.21015000  0.94614000  0.60684000  1.0
  H  H33  1  0.99139000  0.84992000  0.65098000  1.0
  H  H34  1  0.39686000  0.79279000  0.95695000  1.0
  H  H35  1  0.39372000  0.96207000  0.79655000  1.0
  H  H36  1  0.50488000  0.00635000  0.15949000  1.0
  H  H37  1  0.57180000  0.93812000  0.94052000  1.0
  H  H38  1  0.50649000  0.15744000  0.01054000  1.0
  H  H39  1  0.34939000  0.99232000  0.99261000  1.0
  H  H40  1  0.15993000  0.50587000  0.00805000  1.0
  H  H41  1  0.93893000  0.56992000  0.93841000  1.0
  H  H42  1  0.00976000  0.50454000  0.15775000  1.0
  H  H43  1  0.99407000  0.34874000  0.99285000  1.0
  H  H44  1  0.00648000  0.16055000  0.50378000  1.0
  H  H45  1  0.93622000  0.94087000  0.56950000  1.0
  H  H46  1  0.15753000  0.01188000  0.50711000  1.0
  H  H47  1  0.99322000  0.99448000  0.34885000  1.0
  C  C48  1  0.08225000  0.37329000  0.16424000  1.0
  C  C49  1  0.09926000  0.40365000  0.09720000  1.0
  C  C50  1  0.16412000  0.37008000  0.07808000  1.0
  C  C51  1  0.16234000  0.07987000  0.37085000  1.0
  C  C52  1  0.09744000  0.09970000  0.40389000  1.0
  C  C53  1  0.08103000  0.16666000  0.37297000  1.0
  C  C54  1  0.37143000  0.16178000  0.07928000  1.0
  C  C55  1  0.40342000  0.09599000  0.09794000  1.0
  C  C56  1  0.37053000  0.07748000  0.16329000  1.0
  C  C57  1  0.91492000  0.62503000  0.16321000  1.0
  C  C58  1  0.91674000  0.60312000  0.08722000  1.0
  C  C59  1  0.86292000  0.64545000  0.05258000  1.0
  C  C60  1  0.82398000  0.90711000  0.39015000  1.0
  C  C61  1  0.89799000  0.89840000  0.41623000  1.0
  C  C62  1  0.91334000  0.82854000  0.38455000  1.0
  C  C63  1  0.64755000  0.86193000  0.05451000  1.0
  C  C64  1  0.60371000  0.91379000  0.08946000  1.0
  C  C65  1  0.62378000  0.90909000  0.16565000  1.0
  C  C66  1  0.91040000  0.38773000  0.82593000  1.0
  C  C67  1  0.89820000  0.41656000  0.89774000  1.0
  C  C68  1  0.82577000  0.38782000  0.90967000  1.0
  C  C69  1  0.86133000  0.05437000  0.64616000  1.0
  C  C70  1  0.91342000  0.08958000  0.60231000  1.0
  C  C71  1  0.91015000  0.16571000  0.62321000  1.0
  C  C72  1  0.62529000  0.16365000  0.91336000  1.0
  C  C73  1  0.60475000  0.08736000  0.91722000  1.0
  C  C74  1  0.64785000  0.05269000  0.86450000  1.0
  C  C75  1  0.05210000  0.64878000  0.86425000  1.0
  C  C76  1  0.08802000  0.60377000  0.91466000  1.0
  C  C77  1  0.16441000  0.62395000  0.90937000  1.0
  C  C78  1  0.16208000  0.91492000  0.62582000  1.0
  C  C79  1  0.08566000  0.91843000  0.60472000  1.0
  C  C80  1  0.05032000  0.86645000  0.64858000  1.0
  C  C81  1  0.38902000  0.82549000  0.90875000  1.0
  C  C82  1  0.41756000  0.89807000  0.89792000  1.0
  C  C83  1  0.38734000  0.91197000  0.82683000  1.0
  C  C84  1  0.45416000  0.05125000  0.05353000  1.0
  C  C85  1  0.50549000  0.00370000  0.09911000  1.0
  C  C86  1  0.54952000  0.96199000  0.05871000  1.0
  C  C87  1  0.53668000  0.97197000  0.97434000  1.0
  C  C88  1  0.50657000  0.09697000  0.00711000  1.0
  C  C89  1  0.55043000  0.05653000  0.96523000  1.0
  C  C90  1  0.41024000  0.99536000  0.99661000  1.0
  C  C91  1  0.45234000  0.95351000  0.95485000  1.0
  C  C92  1  0.05393000  0.45361000  0.05204000  1.0
  C  C93  1  0.09919000  0.50552000  0.00468000  1.0
  C  C94  1  0.05803000  0.54898000  0.96263000  1.0
  C  C95  1  0.97339000  0.53518000  0.97240000  1.0
  C  C96  1  0.00670000  0.50499000  0.09735000  1.0
  C  C97  1  0.96442000  0.54863000  0.05671000  1.0
  C  C98  1  0.99717000  0.40939000  0.99600000  1.0
  C  C99  1  0.95471000  0.45110000  0.95396000  1.0
  C  C100  1  0.05167000  0.05484000  0.45375000  1.0
  C  C101  1  0.00359000  0.10009000  0.50431000  1.0
  C  C102  1  0.96123000  0.05932000  0.54784000  1.0
  C  C103  1  0.97081000  0.97497000  0.53497000  1.0
  C  C104  1  0.09677000  0.00814000  0.50637000  1.0
  C  C105  1  0.05550000  0.96598000  0.54965000  1.0
  C  C106  1  0.99575000  0.99802000  0.40942000  1.0
  C  C107  1  0.95317000  0.95585000  0.45094000  1.0
  N  N108  1  0.18444000  0.32308000  0.13033000  1.0
  N  N109  1  0.13366000  0.32510000  0.18383000  1.0
  N  N110  1  0.13281000  0.18554000  0.32491000  1.0
  N  N111  1  0.18325000  0.13164000  0.32356000  1.0
  N  N112  1  0.32246000  0.12898000  0.18238000  1.0
  N  N113  1  0.32301000  0.18128000  0.13027000  1.0
  N  N114  1  0.83173000  0.68898000  0.10425000  1.0
  N  N115  1  0.86429000  0.67592000  0.17284000  1.0
  N  N116  1  0.85326000  0.79833000  0.34174000  1.0
  N  N117  1  0.79761000  0.84731000  0.34503000  1.0
  N  N118  1  0.67510000  0.85872000  0.17509000  1.0
  N  N119  1  0.69021000  0.82917000  0.10612000  1.0
  N  N120  1  0.79738000  0.34399000  0.84979000  1.0
  N  N121  1  0.85009000  0.34398000  0.79761000  1.0
  N  N122  1  0.86035000  0.17489000  0.67500000  1.0
  N  N123  1  0.82978000  0.10583000  0.68962000  1.0
  N  N124  1  0.69048000  0.10459000  0.83199000  1.0
  N  N125  1  0.67612000  0.17340000  0.86263000  1.0
  N  N126  1  0.17309000  0.67649000  0.86014000  1.0
  N  N127  1  0.10338000  0.69228000  0.83181000  1.0
  N  N128  1  0.10201000  0.83475000  0.69224000  1.0
  N  N129  1  0.17135000  0.86514000  0.67770000  1.0
  N  N130  1  0.34304000  0.85244000  0.79789000  1.0
  N  N131  1  0.34403000  0.79857000  0.84895000  1.0
