# generated using pymatgen
data_GaH5C8O5
_symmetry_space_group_name_H-M   'P 1'
_cell_length_a   6.47569297
_cell_length_b   6.72524000
_cell_length_c   10.44610000
_cell_angle_alpha   77.98740000
_cell_angle_beta   71.98614643
_cell_angle_gamma   90.05503382
_symmetry_Int_Tables_number   1
_chemical_formula_structural   GaH5C8O5
_chemical_formula_sum   'Ga2 H10 C16 O10'
_cell_volume   422.11508809
_cell_formula_units_Z   2
loop_
 _symmetry_equiv_pos_site_id
 _symmetry_equiv_pos_as_xyz
  1  'x, y, z'
loop_
 _atom_site_type_symbol
 _atom_site_label
 _atom_site_symmetry_multiplicity
 _atom_site_fract_x
 _atom_site_fract_y
 _atom_site_fract_z
 _atom_site_occupancy
  Ga  Ga0  1  0.99250000  0.99758000  0.00465000  1.0
  Ga  Ga1  1  0.00295000  0.49761000  0.00461000  1.0
  H  H2  1  0.17179000  0.30309000  0.32524000  1.0
  H  H3  1  0.49604000  0.19842000  0.67936000  1.0
  H  H4  1  0.82418000  0.69791000  0.67949000  1.0
  H  H5  1  0.50317000  0.80261000  0.32532000  1.0
  H  H6  1  0.92325000  0.86128000  0.42853000  1.0
  H  H7  1  0.35044000  0.63872000  0.57695000  1.0
  H  H8  1  0.07275000  0.13895000  0.57689000  1.0
  H  H9  1  0.64817000  0.36141000  0.42835000  1.0
  H  H10  1  0.75866000  0.75787000  0.94524000  1.0
  H  H11  1  0.29611000  0.25840000  0.94518000  1.0
  C  C12  1  0.09253000  0.68207000  0.21323000  1.0
  C  C13  1  0.30766000  0.81746000  0.79286000  1.0
  C  C14  1  0.89920000  0.31720000  0.79290000  1.0
  C  C15  1  0.69457000  0.18173000  0.21320000  1.0
  C  C16  1  0.05499000  0.59207000  0.36252000  1.0
  C  C17  1  0.41542000  0.90834000  0.64315000  1.0
  C  C18  1  0.94127000  0.40817000  0.64320000  1.0
  C  C19  1  0.58266000  0.09189000  0.36246000  1.0
  C  C20  1  0.09761000  0.38837000  0.40389000  1.0
  C  C21  1  0.49878000  0.11248000  0.60136000  1.0
  C  C22  1  0.89958000  0.61216000  0.60145000  1.0
  C  C23  1  0.49863000  0.88812000  0.40388000  1.0
  C  C24  1  0.95627000  0.70371000  0.46203000  1.0
  C  C25  1  0.41613000  0.79669000  0.54347000  1.0
  C  C26  1  0.04038000  0.29678000  0.54346000  1.0
  C  C27  1  0.58157000  0.20382000  0.46192000  1.0
  O  O28  1  0.04521000  0.86599000  0.18184000  1.0
  O  O29  1  0.24028000  0.62921000  0.82625000  1.0
  O  O30  1  0.93322000  0.12904000  0.82621000  1.0
  O  O31  1  0.77333000  0.36574000  0.18174000  1.0
  O  O32  1  0.85018000  0.74529000  0.00439000  1.0
  O  O33  1  0.14561000  0.24552000  0.00438000  1.0
  O  O34  1  0.16081000  0.56717000  0.12797000  1.0
  O  O35  1  0.28339000  0.93543000  0.87715000  1.0
  O  O36  1  0.83924000  0.43493000  0.87730000  1.0
  O  O37  1  0.71146000  0.06675000  0.12797000  1.0
