# generated using pymatgen
data_CoH14C14(NO2)2
_symmetry_space_group_name_H-M   'P 1'
_cell_length_a   7.93062000
_cell_length_b   9.01047000
_cell_length_c   10.58680000
_cell_angle_alpha   109.78500000
_cell_angle_beta   99.84770000
_cell_angle_gamma   100.42600000
_symmetry_Int_Tables_number   1
_chemical_formula_structural   CoH14C14(NO2)2
_chemical_formula_sum   'Co2 H28 C28 N4 O8'
_cell_volume   677.69442301
_cell_formula_units_Z   2
loop_
 _symmetry_equiv_pos_site_id
 _symmetry_equiv_pos_as_xyz
  1  'x, y, z'
loop_
 _atom_site_type_symbol
 _atom_site_label
 _atom_site_symmetry_multiplicity
 _atom_site_fract_x
 _atom_site_fract_y
 _atom_site_fract_z
 _atom_site_occupancy
  Co  Co0  1  0.66565000  0.98311000  0.65264000  1.0
  Co  Co1  1  0.33435000  0.01689000  0.34736000  1.0
  H  H2  1  0.48624000  0.62486000  0.49593000  1.0
  H  H3  1  0.51377000  0.37514000  0.50407000  1.0
  H  H4  1  0.46650000  0.40164000  0.27624000  1.0
  H  H5  1  0.53350000  0.59836000  0.72376000  1.0
  H  H6  1  0.85925000  0.74592000  0.20209000  1.0
  H  H7  1  0.14075000  0.25408000  0.79790000  1.0
  H  H8  1  0.86178000  0.94764000  0.42128000  1.0
  H  H9  1  0.13823000  0.05235000  0.57871000  1.0
  H  H10  1  0.46319000  0.02101000  0.87377000  1.0
  H  H11  1  0.53680000  0.97899000  0.12623000  1.0
  H  H12  1  0.45262000  0.23005000  0.09383000  1.0
  H  H13  1  0.54737000  0.76995000  0.90616000  1.0
  H  H14  1  0.85379000  0.56897000  0.02407000  1.0
  H  H15  1  0.14621000  0.43102000  0.97593000  1.0
  H  H16  1  0.84524000  0.34366000  0.80793000  1.0
  H  H17  1  0.15477000  0.65633000  0.19207000  1.0
  H  H18  1  0.97846000  0.26888000  0.44403000  1.0
  H  H19  1  0.02153000  0.73110000  0.55597000  1.0
  H  H20  1  0.81516000  0.36083000  0.38685000  1.0
  H  H21  1  0.18484000  0.63917000  0.61315000  1.0
  H  H22  1  0.91489000  0.42188000  0.56854000  1.0
  H  H23  1  0.08511000  0.57811000  0.43146000  1.0
  H  H24  1  0.97305000  0.81852000  0.96489000  1.0
  H  H25  1  0.02694000  0.18149000  0.03511000  1.0
  H  H26  1  0.14726000  0.89136000  0.89577000  1.0
  H  H27  1  0.85274000  0.10866000  0.10424000  1.0
  H  H28  1  0.00120000  0.69308000  0.80432000  1.0
  H  H29  1  0.99881000  0.30694000  0.19568000  1.0
  C  C30  1  0.56613000  0.64580000  0.42661000  1.0
  C  C31  1  0.43387000  0.35420000  0.57339000  1.0
  C  C32  1  0.55631000  0.52086000  0.30287000  1.0
  C  C33  1  0.44369000  0.47913000  0.69713000  1.0
  C  C34  1  0.66084000  0.55051000  0.21478000  1.0
  C  C35  1  0.33916000  0.44948000  0.78522000  1.0
  C  C36  1  0.77204000  0.70857000  0.26080000  1.0
  C  C37  1  0.22796000  0.29142000  0.73919000  1.0
  C  C38  1  0.77406000  0.82614000  0.38646000  1.0
  C  C39  1  0.22594000  0.17386000  0.61354000  1.0
  C  C40  1  0.54902000  0.14429000  0.91270000  1.0
  C  C41  1  0.45098000  0.85571000  0.08730000  1.0
  C  C42  1  0.54403000  0.26300000  0.03571000  1.0
  C  C43  1  0.45597000  0.73700000  0.96428000  1.0
  C  C44  1  0.65602000  0.42124000  0.08252000  1.0
  C  C45  1  0.34398000  0.57876000  0.91748000  1.0
  C  C46  1  0.76525000  0.44955000  0.99722000  1.0
  C  C47  1  0.23475000  0.55044000  0.00278000  1.0
  C  C48  1  0.76238000  0.32416000  0.87600000  1.0
  C  C49  1  0.23762000  0.67583000  0.12400000  1.0
  C  C50  1  0.72544000  0.18813000  0.47608000  1.0
  C  C51  1  0.27455000  0.81186000  0.52392000  1.0
  C  C52  1  0.86625000  0.31925000  0.46801000  1.0
  C  C53  1  0.13375000  0.68074000  0.53199000  1.0
  C  C54  1  0.88464000  0.88532000  0.79299000  1.0
  C  C55  1  0.11537000  0.11469000  0.20702000  1.0
  C  C56  1  0.01032000  0.81977000  0.87013000  1.0
  C  C57  1  0.98969000  0.18025000  0.12988000  1.0
  N  N58  1  0.67154000  0.79802000  0.46937000  1.0
  N  N59  1  0.32846000  0.20198000  0.53063000  1.0
  N  N60  1  0.65735000  0.17196000  0.83333000  1.0
  N  N61  1  0.34265000  0.82804000  0.16667000  1.0
  O  O62  1  0.59216000  0.11433000  0.37214000  1.0
  O  O63  1  0.40783000  0.88566000  0.62785000  1.0
  O  O64  1  0.75087000  0.15910000  0.58626000  1.0
  O  O65  1  0.24912000  0.84089000  0.41374000  1.0
  O  O66  1  0.71826000  0.83905000  0.78027000  1.0
  O  O67  1  0.28174000  0.16096000  0.21972000  1.0
  O  O68  1  0.94218000  0.98386000  0.73807000  1.0
  O  O69  1  0.05784000  0.01615000  0.26194000  1.0
