# generated using pymatgen
data_CoH9C8O3
_symmetry_space_group_name_H-M   'P 1'
_cell_length_a   7.05154000
_cell_length_b   15.09991747
_cell_length_c   15.11230000
_cell_angle_alpha   117.56327313
_cell_angle_beta   98.96830000
_cell_angle_gamma   98.96728136
_symmetry_Int_Tables_number   1
_chemical_formula_structural   CoH9C8O3
_chemical_formula_sum   'Co6 H54 C48 O18'
_cell_volume   1360.44551251
_cell_formula_units_Z   6
loop_
 _symmetry_equiv_pos_site_id
 _symmetry_equiv_pos_as_xyz
  1  'x, y, z'
loop_
 _atom_site_type_symbol
 _atom_site_label
 _atom_site_symmetry_multiplicity
 _atom_site_fract_x
 _atom_site_fract_y
 _atom_site_fract_z
 _atom_site_occupancy
  Co  Co0  1  0.39047000  0.67410000  0.40446000  1.0
  Co  Co1  1  0.71625000  0.73070000  0.32555000  1.0
  Co  Co2  1  0.98569000  0.59505000  0.26921000  1.0
  Co  Co3  1  0.60955000  0.32593000  0.59556000  1.0
  Co  Co4  1  0.28375000  0.26934000  0.67448000  1.0
  Co  Co5  1  0.01434000  0.40499000  0.73080000  1.0
  H  H6  1  0.83874000  0.97421000  0.51402000  1.0
  H  H7  1  0.86467000  0.53987000  0.02601000  1.0
  H  H8  1  0.32483000  0.48609000  0.46031000  1.0
  H  H9  1  0.16125000  0.02582000  0.48599000  1.0
  H  H10  1  0.13531000  0.46021000  0.97401000  1.0
  H  H11  1  0.67514000  0.51390000  0.53967000  1.0
  H  H12  1  0.38153000  0.70926000  0.61440000  1.0
  H  H13  1  0.67215000  0.90548000  0.29056000  1.0
  H  H14  1  0.76807000  0.38543000  0.09462000  1.0
  H  H15  1  0.61846000  0.29059000  0.38555000  1.0
  H  H16  1  0.32781000  0.09451000  0.70944000  1.0
  H  H17  1  0.23194000  0.61462000  0.90542000  1.0
  H  H18  1  0.19254000  0.89196000  0.64670000  1.0
  H  H19  1  0.30061000  0.75478000  0.10806000  1.0
  H  H20  1  0.54679000  0.35320000  0.24504000  1.0
  H  H21  1  0.80758000  0.10795000  0.35328000  1.0
  H  H22  1  0.69936000  0.24522000  0.89196000  1.0
  H  H23  1  0.45315000  0.64680000  0.75495000  1.0
  H  H24  1  0.11038000  0.79793000  0.68142000  1.0
  H  H25  1  0.31212000  0.88345000  0.20163000  1.0
  H  H26  1  0.42987000  0.31813000  0.11633000  1.0
  H  H27  1  0.88972000  0.20200000  0.31858000  1.0
  H  H28  1  0.68783000  0.11655000  0.79840000  1.0
  H  H29  1  0.57012000  0.68191000  0.88368000  1.0
  H  H30  1  0.07309000  0.76155000  0.54989000  1.0
  H  H31  1  0.31163000  0.78847000  0.23845000  1.0
  H  H32  1  0.52383000  0.44987000  0.21108000  1.0
  H  H33  1  0.92695000  0.23838000  0.45012000  1.0
  H  H34  1  0.68835000  0.21153000  0.76156000  1.0
  H  H35  1  0.47616000  0.55015000  0.78893000  1.0
  H  H36  1  0.53854000  0.93562000  0.67268000  1.0
  H  H37  1  0.60300000  0.73732000  0.06465000  1.0
  H  H38  1  0.86673000  0.32764000  0.26299000  1.0
  H  H39  1  0.46155000  0.06423000  0.32724000  1.0
  H  H40  1  0.39696000  0.26274000  0.93534000  1.0
  H  H41  1  0.13325000  0.67235000  0.73700000  1.0
  H  H42  1  0.82004000  0.85202000  0.61193000  1.0
  H  H43  1  0.96806000  0.76027000  0.14827000  1.0
  H  H44  1  0.20918000  0.38870000  0.24060000  1.0
  H  H45  1  0.18006000  0.14782000  0.38807000  1.0
  H  H46  1  0.03195000  0.23980000  0.85170000  1.0
  H  H47  1  0.79080000  0.61131000  0.75940000  1.0
  H  H48  1  0.74523000  0.76225000  0.65314000  1.0
  H  H49  1  0.98311000  0.89123000  0.23778000  1.0
  H  H50  1  0.09386000  0.34724000  0.10963000  1.0
  H  H51  1  0.25483000  0.23759000  0.34685000  1.0
  H  H52  1  0.01682000  0.10883000  0.76222000  1.0
  H  H53  1  0.90614000  0.65280000  0.89039000  1.0
  H  H54  1  0.84674000  0.89681000  0.74489000  1.0
  H  H55  1  0.94988000  0.84843000  0.10328000  1.0
  H  H56  1  0.10342000  0.25557000  0.15263000  1.0
  H  H57  1  0.15328000  0.10304000  0.25508000  1.0
  H  H58  1  0.05003000  0.15166000  0.89673000  1.0
  H  H59  1  0.89657000  0.74445000  0.84735000  1.0
  C  C60  1  0.52812000  0.89819000  0.45969000  1.0
  C  C61  1  0.62981000  0.56166000  0.10179000  1.0
  C  C62  1  0.06821000  0.54021000  0.43833000  1.0
  C  C63  1  0.47186000  0.10184000  0.54033000  1.0
  C  C64  1  0.37016000  0.43839000  0.89822000  1.0
  C  C65  1  0.93176000  0.45977000  0.56165000  1.0
  C  C66  1  0.14925000  0.82734000  0.39651000  1.0
  C  C67  1  0.32180000  0.56939000  0.17244000  1.0
  C  C68  1  0.75244000  0.60322000  0.43043000  1.0
  C  C69  1  0.85077000  0.17271000  0.60350000  1.0
  C  C70  1  0.67821000  0.43066000  0.82757000  1.0
  C  C71  1  0.24754000  0.39677000  0.56956000  1.0
  C  C72  1  0.33217000  0.91358000  0.45173000  1.0
  C  C73  1  0.41840000  0.53830000  0.08626000  1.0
  C  C74  1  0.88020000  0.54804000  0.46158000  1.0
  C  C75  1  0.66784000  0.08646000  0.54828000  1.0
  C  C76  1  0.58158000  0.46176000  0.91375000  1.0
  C  C77  1  0.11978000  0.45197000  0.53843000  1.0
  C  C78  1  0.68973000  0.98579000  0.50758000  1.0
  C  C79  1  0.70405000  0.52180000  0.01438000  1.0
  C  C80  1  0.18218000  0.49256000  0.47830000  1.0
  C  C81  1  0.31026000  0.01425000  0.49244000  1.0
  C  C82  1  0.29594000  0.47827000  0.98563000  1.0
  C  C83  1  0.81780000  0.50743000  0.52169000  1.0
  C  C84  1  0.37637000  0.78711000  0.62941000  1.0
  C  C85  1  0.58919000  0.84256000  0.21283000  1.0
  C  C86  1  0.74785000  0.37053000  0.15749000  1.0
  C  C87  1  0.62368000  0.21274000  0.37052000  1.0
  C  C88  1  0.41077000  0.15745000  0.78717000  1.0
  C  C89  1  0.25212000  0.62949000  0.84251000  1.0
  C  C90  1  0.17859000  0.81086000  0.62629000  1.0
  C  C91  1  0.36761000  0.81551000  0.18902000  1.0
  C  C92  1  0.55309000  0.37350000  0.18428000  1.0
  C  C93  1  0.82152000  0.18905000  0.37370000  1.0
  C  C94  1  0.63235000  0.18449000  0.81100000  1.0
  C  C95  1  0.44689000  0.62652000  0.81572000  1.0
  C  C96  1  0.54716000  0.85789000  0.65654000  1.0
  C  C97  1  0.68930000  0.79898000  0.14222000  1.0
  C  C98  1  0.89164000  0.34367000  0.20139000  1.0
  C  C99  1  0.45294000  0.14196000  0.34340000  1.0
  C  C100  1  0.31064000  0.20107000  0.85777000  1.0
  C  C101  1  0.10834000  0.65635000  0.79862000  1.0
  C  C102  1  0.74956000  0.84073000  0.66721000  1.0
  C  C103  1  0.90883000  0.82685000  0.15942000  1.0
  C  C104  1  0.08368000  0.33321000  0.17398000  1.0
  C  C105  1  0.25050000  0.15910000  0.33276000  1.0
  C  C106  1  0.09110000  0.17321000  0.84056000  1.0
  C  C107  1  0.91629000  0.66680000  0.82601000  1.0
  O  O108  1  0.56796000  0.80550000  0.42621000  1.0
  O  O109  1  0.76236000  0.62090000  0.19442000  1.0
  O  O110  1  0.14149000  0.57362000  0.37909000  1.0
  O  O111  1  0.43205000  0.19454000  0.57381000  1.0
  O  O112  1  0.23765000  0.37916000  0.80560000  1.0
  O  O113  1  0.85852000  0.42639000  0.62091000  1.0
  O  O114  1  0.17421000  0.73523000  0.35467000  1.0
  O  O115  1  0.43899000  0.61975000  0.26450000  1.0
  O  O116  1  0.81920000  0.64493000  0.38000000  1.0
  O  O117  1  0.82579000  0.26481000  0.64535000  1.0
  O  O118  1  0.56101000  0.38031000  0.73552000  1.0
  O  O119  1  0.18081000  0.35510000  0.62003000  1.0
  O  O120  1  0.97805000  0.84418000  0.38768000  1.0
  O  O121  1  0.13376000  0.54371000  0.15564000  1.0
  O  O122  1  0.59005000  0.61203000  0.45605000  1.0
  O  O123  1  0.02200000  0.15589000  0.61233000  1.0
  O  O124  1  0.86623000  0.45634000  0.84435000  1.0
  O  O125  1  0.40993000  0.38795000  0.54393000  1.0
