# generated using pymatgen
data_Cu3H16C8I3BrN2
_symmetry_space_group_name_H-M   'P 1'
_cell_length_a   9.44178000
_cell_length_b   9.65115000
_cell_length_c   10.39403373
_cell_angle_alpha   117.06399352
_cell_angle_beta   107.93591350
_cell_angle_gamma   96.10070000
_symmetry_Int_Tables_number   1
_chemical_formula_structural   Cu3H16C8I3BrN2
_chemical_formula_sum   'Cu6 H32 C16 I6 Br2 N4'
_cell_volume   767.75949959
_cell_formula_units_Z   2
loop_
 _symmetry_equiv_pos_site_id
 _symmetry_equiv_pos_as_xyz
  1  'x, y, z'
loop_
 _atom_site_type_symbol
 _atom_site_label
 _atom_site_symmetry_multiplicity
 _atom_site_fract_x
 _atom_site_fract_y
 _atom_site_fract_z
 _atom_site_occupancy
  Cu  Cu0  1  0.14056000  0.03268000  0.51839000  1.0
  Cu  Cu1  1  0.85944000  0.96732000  0.48161000  1.0
  Cu  Cu2  1  0.48902000  0.12319000  0.60940000  1.0
  Cu  Cu3  1  0.51099000  0.87681000  0.39060000  1.0
  Cu  Cu4  1  0.51406000  0.62267000  0.48567000  1.0
  Cu  Cu5  1  0.48595000  0.37733000  0.51433000  1.0
  H  H6  1  0.98773000  0.44226000  0.12688000  1.0
  H  H7  1  0.01226000  0.55775000  0.87313000  1.0
  H  H8  1  0.83518000  0.52172000  0.17098000  1.0
  H  H9  1  0.16481000  0.47828000  0.82902000  1.0
  H  H10  1  0.72135000  0.44488000  0.90386000  1.0
  H  H11  1  0.27865000  0.55512000  0.09614000  1.0
  H  H12  1  0.84055000  0.31634000  0.85046000  1.0
  H  H13  1  0.15945000  0.68367000  0.14955000  1.0
  H  H14  1  0.82146000  0.03802000  0.04362000  1.0
  H  H15  1  0.17854000  0.96198000  0.95638000  1.0
  H  H16  1  0.94820000  0.15486000  0.00889000  1.0
  H  H17  1  0.05180000  0.84514000  0.99111000  1.0
  H  H18  1  0.74967000  0.02855000  0.75380000  1.0
  H  H19  1  0.25033000  0.97145000  0.24620000  1.0
  H  H20  1  0.60732000  0.96819000  0.81027000  1.0
  H  H21  1  0.39268000  0.03181000  0.18973000  1.0
  H  H22  1  0.61953000  0.14824000  0.11559000  1.0
  H  H23  1  0.38047000  0.85176000  0.88441000  1.0
  H  H24  1  0.64409000  0.36104000  0.20944000  1.0
  H  H25  1  0.35591000  0.63896000  0.79056000  1.0
  H  H26  1  0.44175000  0.14127000  0.89008000  1.0
  H  H27  1  0.55825000  0.85873000  0.10992000  1.0
  H  H28  1  0.51995000  0.35147000  0.96985000  1.0
  H  H29  1  0.48005000  0.64853000  0.03015000  1.0
  H  H30  1  0.03971000  0.31542000  0.28310000  1.0
  H  H31  1  0.96029000  0.68457000  0.71689000  1.0
  H  H32  1  0.88209000  0.22254000  0.30399000  1.0
  H  H33  1  0.11791000  0.77746000  0.69601000  1.0
  H  H34  1  0.82853000  0.49182000  0.43314000  1.0
  H  H35  1  0.17148000  0.50818000  0.56686000  1.0
  H  H36  1  0.97890000  0.58457000  0.40473000  1.0
  H  H37  1  0.02111000  0.41544000  0.59527000  1.0
  C  C38  1  0.86161000  0.41412000  0.09422000  1.0
  C  C39  1  0.13839000  0.58588000  0.90578000  1.0
  C  C40  1  0.76792000  0.35073000  0.91798000  1.0
  C  C41  1  0.23208000  0.64928000  0.08203000  1.0
  C  C42  1  0.83095000  0.12686000  0.00606000  1.0
  C  C43  1  0.16905000  0.87314000  0.99394000  1.0
  C  C44  1  0.70267000  0.07021000  0.84495000  1.0
  C  C45  1  0.29733000  0.92979000  0.15505000  1.0
  C  C46  1  0.65090000  0.25715000  0.10935000  1.0
  C  C47  1  0.34910000  0.74285000  0.89065000  1.0
  C  C48  1  0.55096000  0.23942000  0.95129000  1.0
  C  C49  1  0.44904000  0.76058000  0.04871000  1.0
  C  C50  1  0.92614000  0.32208000  0.28917000  1.0
  C  C51  1  0.07386000  0.67791000  0.71082000  1.0
  C  C52  1  0.94053000  0.48590000  0.42308000  1.0
  C  C53  1  0.05948000  0.51411000  0.57692000  1.0
  I  I54  1  0.32375000  0.82714000  0.51829000  1.0
  I  I55  1  0.67625000  0.17286000  0.48171000  1.0
  I  I56  1  0.06933000  0.11096000  0.76537000  1.0
  I  I57  1  0.93067000  0.88904000  0.23463000  1.0
  I  I58  1  0.67751000  0.65879000  0.75686000  1.0
  I  I59  1  0.32250000  0.34120000  0.24314000  1.0
  Br  Br60  1  0.32354000  0.30359000  0.63403000  1.0
  Br  Br61  1  0.67646000  0.69641000  0.36597000  1.0
  N  N62  1  0.81832000  0.28258000  0.12805000  1.0
  N  N63  1  0.18167000  0.71742000  0.87195000  1.0
  N  N64  1  0.63720000  0.20402000  0.84794000  1.0
  N  N65  1  0.36280000  0.79598000  0.15206000  1.0
