# generated using pymatgen
data_KNdH14C4(N3O)6
_symmetry_space_group_name_H-M   'P 1'
_cell_length_a   7.35000000
_cell_length_b   9.71614000
_cell_length_c   12.74180000
_cell_angle_alpha   90.00000000
_cell_angle_beta   89.99970000
_cell_angle_gamma   97.70740000
_symmetry_Int_Tables_number   1
_chemical_formula_structural   KNdH14C4(N3O)6
_chemical_formula_sum   'K2 Nd2 H28 C8 N36 O12'
_cell_volume   901.71769325
_cell_formula_units_Z   2
loop_
 _symmetry_equiv_pos_site_id
 _symmetry_equiv_pos_as_xyz
  1  'x, y, z'
loop_
 _atom_site_type_symbol
 _atom_site_label
 _atom_site_symmetry_multiplicity
 _atom_site_fract_x
 _atom_site_fract_y
 _atom_site_fract_z
 _atom_site_occupancy
  K  K0  1  0.44474000  0.49423000  0.75000000  1.0
  K  K1  1  0.55527000  0.50577000  0.25001000  1.0
  Nd  Nd2  1  0.81027000  0.22359000  0.75000000  1.0
  Nd  Nd3  1  0.18973000  0.77641000  0.25000000  1.0
  H  H4  1  0.86512000  0.19954000  0.14055000  1.0
  H  H5  1  0.13489000  0.80046000  0.64055000  1.0
  H  H6  1  0.13489000  0.80046000  0.85945000  1.0
  H  H7  1  0.86512000  0.19954000  0.35945000  1.0
  H  H8  1  0.87410000  0.53826000  0.81427000  1.0
  H  H9  1  0.12590000  0.46174000  0.31427000  1.0
  H  H10  1  0.12590000  0.46174000  0.18573000  1.0
  H  H11  1  0.87409000  0.53826000  0.68572000  1.0
  H  H12  1  0.42890000  0.06532000  0.81244000  1.0
  H  H13  1  0.57110000  0.93468000  0.31244000  1.0
  H  H14  1  0.57110000  0.93468000  0.18756000  1.0
  H  H15  1  0.42890000  0.06532000  0.68756000  1.0
  H  H16  1  0.13926000  0.07381000  0.81244000  1.0
  H  H17  1  0.86074000  0.92619000  0.31244000  1.0
  H  H18  1  0.86074000  0.92619000  0.18755000  1.0
  H  H19  1  0.13926000  0.07381000  0.68755000  1.0
  H  H20  1  0.66575000  0.39802000  0.94221000  1.0
  H  H21  1  0.33424000  0.60199000  0.44221000  1.0
  H  H22  1  0.33425000  0.60199000  0.05779000  1.0
  H  H23  1  0.66575000  0.39802000  0.55779000  1.0
  H  H24  1  0.52138000  0.26063000  0.93402000  1.0
  H  H25  1  0.47862000  0.73938000  0.43402000  1.0
  H  H26  1  0.47863000  0.73938000  0.06598000  1.0
  H  H27  1  0.52138000  0.26062000  0.56598000  1.0
  H  H28  1  0.51848000  0.81988000  0.80959000  1.0
  H  H29  1  0.48152000  0.18012000  0.30959000  1.0
  H  H30  1  0.48152000  0.18012000  0.19041000  1.0
  H  H31  1  0.51848000  0.81988000  0.69041000  1.0
  C  C32  1  0.00302000  0.28823000  0.01309000  1.0
  C  C33  1  0.99697000  0.71177000  0.51309000  1.0
  C  C34  1  0.99698000  0.71177000  0.98691000  1.0
  C  C35  1  0.00302000  0.28823000  0.48690000  1.0
  C  C36  1  0.78972000  0.07314000  0.01683000  1.0
  C  C37  1  0.21028000  0.92685000  0.51683000  1.0
  C  C38  1  0.21028000  0.92686000  0.98317000  1.0
  C  C39  1  0.78972000  0.07314000  0.48317000  1.0
  N  N40  1  0.03182000  0.30248000  0.90911000  1.0
  N  N41  1  0.96818000  0.69752000  0.40911000  1.0
  N  N42  1  0.96818000  0.69752000  0.09089000  1.0
  N  N43  1  0.03182000  0.30248000  0.59089000  1.0
  N  N44  1  0.17327000  0.40724000  0.90036000  1.0
  N  N45  1  0.82673000  0.59276000  0.40036000  1.0
  N  N46  1  0.82673000  0.59276000  0.09964000  1.0
  N  N47  1  0.17327000  0.40724000  0.59964000  1.0
  N  N48  1  0.22194000  0.45289000  0.99418000  1.0
  N  N49  1  0.77805000  0.54711000  0.49418000  1.0
  N  N50  1  0.77806000  0.54711000  0.00582000  1.0
  N  N51  1  0.22194000  0.45289000  0.50582000  1.0
  N  N52  1  0.11781000  0.38016000  0.06780000  1.0
  N  N53  1  0.88219000  0.61984000  0.56780000  1.0
  N  N54  1  0.88220000  0.61984000  0.93220000  1.0
  N  N55  1  0.11780000  0.38016000  0.43220000  1.0
  N  N56  1  0.87488000  0.19292000  0.06126000  1.0
  N  N57  1  0.12512000  0.80708000  0.56127000  1.0
  N  N58  1  0.12513000  0.80708000  0.93874000  1.0
  N  N59  1  0.87488000  0.19292000  0.43874000  1.0
  N  N60  1  0.76535000  0.04675000  0.91382000  1.0
  N  N61  1  0.23465000  0.95325000  0.41383000  1.0
  N  N62  1  0.23466000  0.95325000  0.08618000  1.0
  N  N63  1  0.76535000  0.04675000  0.58618000  1.0
  N  N64  1  0.67073000  0.91627000  0.91028000  1.0
  N  N65  1  0.32927000  0.08373000  0.41028000  1.0
  N  N66  1  0.32927000  0.08373000  0.08973000  1.0
  N  N67  1  0.67073000  0.91627000  0.58972000  1.0
  N  N68  1  0.64078000  0.86911000  0.00531000  1.0
  N  N69  1  0.35923000  0.13089000  0.50531000  1.0
  N  N70  1  0.35923000  0.13089000  0.99469000  1.0
  N  N71  1  0.64077000  0.86911000  0.49469000  1.0
  N  N72  1  0.71531000  0.96468000  0.07569000  1.0
  N  N73  1  0.28468000  0.03532000  0.57569000  1.0
  N  N74  1  0.28469000  0.03531000  0.92431000  1.0
  N  N75  1  0.71532000  0.96468000  0.42431000  1.0
  O  O76  1  0.85120000  0.47788000  0.75000000  1.0
  O  O77  1  0.14880000  0.52212000  0.25000000  1.0
  O  O78  1  0.50166000  0.10100000  0.75000000  1.0
  O  O79  1  0.49834000  0.89900000  0.25000000  1.0
  O  O80  1  0.05834000  0.07227000  0.75000000  1.0
  O  O81  1  0.94165000  0.92773000  0.25000000  1.0
  O  O82  1  0.61500000  0.32224000  0.89273000  1.0
  O  O83  1  0.38500000  0.67776000  0.39273000  1.0
  O  O84  1  0.38500000  0.67776000  0.10727000  1.0
  O  O85  1  0.61500000  0.32224000  0.60727000  1.0
  O  O86  1  0.44495000  0.77606000  0.75000000  1.0
  O  O87  1  0.55505000  0.22395000  0.25000000  1.0
