# generated using pymatgen
data_FeP2H11C10N2O7
_symmetry_space_group_name_H-M   'P 1'
_cell_length_a   6.46418000
_cell_length_b   10.46380000
_cell_length_c   10.57550000
_cell_angle_alpha   66.61600000
_cell_angle_beta   89.99970000
_cell_angle_gamma   89.99970000
_symmetry_Int_Tables_number   1
_chemical_formula_structural   FeP2H11C10N2O7
_chemical_formula_sum   'Fe2 P4 H22 C20 N4 O14'
_cell_volume   656.57270542
_cell_formula_units_Z   2
loop_
 _symmetry_equiv_pos_site_id
 _symmetry_equiv_pos_as_xyz
  1  'x, y, z'
loop_
 _atom_site_type_symbol
 _atom_site_label
 _atom_site_symmetry_multiplicity
 _atom_site_fract_x
 _atom_site_fract_y
 _atom_site_fract_z
 _atom_site_occupancy
  Fe  Fe0  1  0.25000000  0.16010000  0.31151000  1.0
  Fe  Fe1  1  0.75000000  0.83992000  0.68850000  1.0
  P  P2  1  0.25000000  0.92939000  0.63409000  1.0
  P  P3  1  0.75000000  0.07064000  0.36594000  1.0
  P  P4  1  0.25000000  0.37264000  0.48338000  1.0
  P  P5  1  0.75000000  0.62736000  0.51663000  1.0
  H  H6  1  0.25000000  0.04791000  0.66631000  1.0
  H  H7  1  0.75000000  0.95208000  0.33366000  1.0
  H  H8  1  0.93947000  0.37923000  0.57444000  1.0
  H  H9  1  0.43947000  0.62077000  0.42556000  1.0
  H  H10  1  0.06053000  0.62077000  0.42556000  1.0
  H  H11  1  0.56053000  0.37923000  0.57444000  1.0
  H  H12  1  0.25000000  0.33377000  0.77112000  1.0
  H  H13  1  0.75000000  0.66624000  0.22889000  1.0
  H  H14  1  0.25000000  0.72627000  0.17780000  1.0
  H  H15  1  0.75000000  0.27374000  0.82220000  1.0
  H  H16  1  0.25000000  0.85762000  0.33185000  1.0
  H  H17  1  0.75000000  0.14238000  0.66815000  1.0
  H  H18  1  0.25000000  0.48962000  0.15240000  1.0
  H  H19  1  0.75000000  0.51038000  0.84761000  1.0
  H  H20  1  0.25000000  0.12361000  0.83000000  1.0
  H  H21  1  0.75000000  0.87638000  0.17001000  1.0
  H  H22  1  0.25000000  0.86542000  0.91975000  1.0
  H  H23  1  0.75000000  0.13459000  0.08026000  1.0
  H  H24  1  0.25000000  0.67022000  0.90612000  1.0
  H  H25  1  0.75000000  0.32976000  0.09388000  1.0
  H  H26  1  0.25000000  0.59011000  0.71506000  1.0
  H  H27  1  0.75000000  0.40988000  0.28495000  1.0
  C  C28  1  0.25000000  0.37198000  0.85280000  1.0
  C  C29  1  0.75000000  0.62803000  0.14719000  1.0
  C  C30  1  0.25000000  0.83965000  0.13318000  1.0
  C  C31  1  0.75000000  0.16035000  0.86681000  1.0
  C  C32  1  0.25000000  0.91072000  0.22013000  1.0
  C  C33  1  0.75000000  0.08927000  0.77987000  1.0
  C  C34  1  0.25000000  0.27856000  0.99110000  1.0
  C  C35  1  0.75000000  0.72145000  0.00888000  1.0
  C  C36  1  0.25000000  0.46092000  0.06398000  1.0
  C  C37  1  0.75000000  0.53909000  0.93601000  1.0
  C  C38  1  0.25000000  0.06159000  0.94043000  1.0
  C  C39  1  0.75000000  0.93839000  0.05956000  1.0
  C  C40  1  0.25000000  0.12615000  0.03375000  1.0
  C  C41  1  0.75000000  0.87383000  0.96624000  1.0
  C  C42  1  0.25000000  0.91693000  0.99120000  1.0
  C  C43  1  0.75000000  0.08306000  0.00880000  1.0
  C  C44  1  0.25000000  0.55960000  0.92885000  1.0
  C  C45  1  0.75000000  0.44039000  0.07113000  1.0
  C  C46  1  0.25000000  0.51442000  0.82146000  1.0
  C  C47  1  0.75000000  0.48558000  0.17854000  1.0
  N  N48  1  0.25000000  0.32385000  0.09431000  1.0
  N  N49  1  0.75000000  0.67616000  0.90566000  1.0
  N  N50  1  0.25000000  0.04994000  0.17094000  1.0
  N  N51  1  0.75000000  0.95004000  0.82906000  1.0
  O  O52  1  0.25000000  0.31589000  0.37142000  1.0
  O  O53  1  0.75000000  0.68411000  0.62858000  1.0
  O  O54  1  0.25000000  0.98477000  0.47589000  1.0
  O  O55  1  0.75000000  0.01518000  0.52417000  1.0
  O  O56  1  0.05774000  0.84261000  0.70070000  1.0
  O  O57  1  0.55770000  0.15742000  0.29930000  1.0
  O  O58  1  0.94230000  0.15742000  0.29930000  1.0
  O  O59  1  0.44226000  0.84261000  0.70070000  1.0
  O  O60  1  0.25000000  0.53241000  0.42542000  1.0
  O  O61  1  0.75000000  0.46758000  0.57458000  1.0
  O  O62  1  0.05895000  0.31200000  0.58183000  1.0
  O  O63  1  0.55894000  0.68800000  0.41817000  1.0
  O  O64  1  0.94105000  0.68800000  0.41816000  1.0
  O  O65  1  0.44106000  0.31200000  0.58183000  1.0
