# generated using pymatgen
data_Zn2H12C37(BrO2)4
_symmetry_space_group_name_H-M   'P 1'
_cell_length_a   16.45820000
_cell_length_b   16.60570000
_cell_length_c   28.34560000
_cell_angle_alpha   90.93220000
_cell_angle_beta   89.74700000
_cell_angle_gamma   89.96200000
_symmetry_Int_Tables_number   1
_chemical_formula_structural   Zn2H12C37(BrO2)4
_chemical_formula_sum   'Zn4 H24 C74 Br8 O16'
_cell_volume   7745.74761913
_cell_formula_units_Z   2
loop_
 _symmetry_equiv_pos_site_id
 _symmetry_equiv_pos_as_xyz
  1  'x, y, z'
loop_
 _atom_site_type_symbol
 _atom_site_label
 _atom_site_symmetry_multiplicity
 _atom_site_fract_x
 _atom_site_fract_y
 _atom_site_fract_z
 _atom_site_occupancy
  Zn  Zn0  1  0.50105000  0.91426000  0.49977000  1.0
  Zn  Zn1  1  0.49953000  0.07676000  0.50085000  1.0
  Zn  Zn2  1  0.08491000  0.50101000  0.99826000  1.0
  Zn  Zn3  1  0.92049000  0.50353000  0.00056000  1.0
  H  H4  1  0.30774000  0.90194000  0.59162000  1.0
  H  H5  1  0.68334000  0.15792000  0.39822000  1.0
  H  H6  1  0.73927000  0.06731000  0.69729000  1.0
  H  H7  1  0.13641000  0.87602000  0.37483000  1.0
  H  H8  1  0.16089000  0.78112000  0.83043000  1.0
  H  H9  1  0.90249000  0.22754000  0.16407000  1.0
  H  H10  1  0.96973000  0.27035000  0.79104000  1.0
  H  H11  1  0.96959000  0.73554000  0.20880000  1.0
  H  H12  1  0.95758000  0.10725000  0.90824000  1.0
  H  H13  1  0.98598000  0.89849000  0.09171000  1.0
  H  H14  1  0.89934000  0.78316000  0.84029000  1.0
  H  H15  1  0.16415000  0.21450000  0.16109000  1.0
  H  H16  1  0.85225000  0.86785000  0.62279000  1.0
  H  H17  1  0.26221000  0.07687000  0.31325000  1.0
  H  H18  1  0.16566000  0.66773000  0.88727000  1.0
  H  H19  1  0.90730000  0.34029000  0.10671000  1.0
  H  H20  1  0.90515000  0.66947000  0.89689000  1.0
  H  H21  1  0.16791000  0.32721000  0.10374000  1.0
  H  H22  1  0.32580000  0.15850000  0.61207000  1.0
  H  H23  1  0.67800000  0.89906000  0.39618000  1.0
  H  H24  1  0.73479000  0.86313000  0.56752000  1.0
  H  H25  1  0.37119000  0.06288000  0.37327000  1.0
  H  H26  1  0.19255000  0.89810000  0.64929000  1.0
  H  H27  1  0.79816000  0.15506000  0.34018000  1.0
  C  C28  1  0.60736000  0.02755000  0.43651000  1.0
  C  C29  1  0.39163000  0.03042000  0.56364000  1.0
  C  C30  1  0.96194000  0.32471000  0.86051000  1.0
  C  C31  1  0.96732000  0.68156000  0.13911000  1.0
  C  C32  1  0.95860000  0.16819000  0.89472000  1.0
  C  C33  1  0.98058000  0.83769000  0.10509000  1.0
  C  C34  1  0.95535000  0.23419000  0.92552000  1.0
  C  C35  1  0.97645000  0.77200000  0.07416000  1.0
  C  C36  1  0.95738000  0.75736000  0.85051000  1.0
  C  C37  1  0.10805000  0.24243000  0.14928000  1.0
  C  C38  1  0.96053000  0.69431000  0.88188000  1.0
  C  C39  1  0.11021000  0.30516000  0.11735000  1.0
  C  C40  1  0.23320000  0.09908000  0.65296000  1.0
  C  C41  1  0.76805000  0.95345000  0.35130000  1.0
  C  C42  1  0.29678000  0.10163000  0.62050000  1.0
  C  C43  1  0.70449000  0.95479000  0.38361000  1.0
  C  C44  1  0.80223000  0.91039000  0.62676000  1.0
  C  C45  1  0.25927000  0.02950000  0.33932000  1.0
  C  C46  1  0.73688000  0.90794000  0.59598000  1.0
  C  C47  1  0.32006000  0.02132000  0.37248000  1.0
  C  C48  1  0.99988000  0.99217000  0.75229000  1.0
  C  C49  1  0.00331000  0.01414000  0.24821000  1.0
  C  C50  1  0.60938000  0.96317000  0.56220000  1.0
  C  C51  1  0.38648000  0.95991000  0.44091000  1.0
  C  C52  1  0.19434000  0.02581000  0.66390000  1.0
  C  C53  1  0.80352000  0.02566000  0.33522000  1.0
  C  C54  1  0.32370000  0.03022000  0.59857000  1.0
  C  C55  1  0.67409000  0.02858000  0.40072000  1.0
  C  C56  1  0.80438000  0.96890000  0.66329000  1.0
  C  C57  1  0.19202000  0.97698000  0.33983000  1.0
  C  C58  1  0.67277000  0.96363000  0.59970000  1.0
  C  C59  1  0.31810000  0.96036000  0.40638000  1.0
  C  C60  1  0.02976000  0.79013000  0.83211000  1.0
  C  C61  1  0.03296000  0.21331000  0.16601000  1.0
  C  C62  1  0.03562000  0.66241000  0.89570000  1.0
  C  C63  1  0.03773000  0.34005000  0.10170000  1.0
  C  C64  1  0.96499000  0.18097000  0.84585000  1.0
  C  C65  1  0.97863000  0.82476000  0.15408000  1.0
  C  C66  1  0.95785000  0.31354000  0.90939000  1.0
  C  C67  1  0.97024000  0.69280000  0.09023000  1.0
  C  C68  1  0.07137000  0.00888000  0.72225000  1.0
  C  C69  1  0.92929000  0.02230000  0.27772000  1.0
  C  C70  1  0.01394000  0.91788000  0.77917000  1.0
  C  C71  1  0.01741000  0.08813000  0.22107000  1.0
  C  C72  1  0.22246000  0.95472000  0.64111000  1.0
  C  C73  1  0.77124000  0.09929000  0.35254000  1.0
  C  C74  1  0.92849000  0.98161000  0.72125000  1.0
  C  C75  1  0.07263000  0.99879000  0.27985000  1.0
  C  C76  1  0.98527000  0.05983000  0.78584000  1.0
  C  C77  1  0.99328000  0.94584000  0.21460000  1.0
  C  C78  1  0.12849000  0.02037000  0.69596000  1.0
  C  C79  1  0.87045000  0.02448000  0.30370000  1.0
  C  C80  1  0.97402000  0.11496000  0.81376000  1.0
  C  C81  1  0.98558000  0.89053000  0.18645000  1.0
  C  C82  1  0.02433000  0.85808000  0.80252000  1.0
  C  C83  1  0.02769000  0.14652000  0.19650000  1.0
  C  C84  1  0.87130000  0.97462000  0.69456000  1.0
  C  C85  1  0.12756000  0.98723000  0.30739000  1.0
  C  C86  1  0.96234000  0.38397000  0.94331000  1.0
  C  C87  1  0.97103000  0.62213000  0.05635000  1.0
  C  C88  1  0.03621000  0.59901000  0.93214000  1.0
  C  C89  1  0.03743000  0.40371000  0.06542000  1.0
  C  C90  1  0.28622000  0.95675000  0.60914000  1.0
  C  C91  1  0.70751000  0.10094000  0.38479000  1.0
  C  C92  1  0.73897000  0.02307000  0.66856000  1.0
  C  C93  1  0.18868000  0.91603000  0.37370000  1.0
  C  C94  1  0.67441000  0.02044000  0.63709000  1.0
  C  C95  1  0.25133000  0.90759000  0.40621000  1.0
  C  C96  1  0.10501000  0.75636000  0.84496000  1.0
  C  C97  1  0.96036000  0.24992000  0.15089000  1.0
  C  C98  1  0.10772000  0.69322000  0.87658000  1.0
  C  C99  1  0.96296000  0.31242000  0.11912000  1.0
  C  C100  1  0.96541000  0.26013000  0.82877000  1.0
  C  C101  1  0.97130000  0.74586000  0.17102000  1.0
  Br  Br102  1  0.19815000  0.19606000  0.68294000  1.0
  Br  Br103  1  0.80785000  0.85240000  0.32907000  1.0
  Br  Br104  1  0.58737000  0.09352000  0.64918000  1.0
  Br  Br105  1  0.23823000  0.82565000  0.45180000  1.0
  Br  Br106  1  0.96469000  0.43112000  0.83658000  1.0
  Br  Br107  1  0.95959000  0.57534000  0.16295000  1.0
  Br  Br108  1  0.95014000  0.21574000  0.99160000  1.0
  Br  Br109  1  0.98037000  0.79065000  0.00810000  1.0
  O  O110  1  0.58204000  0.95922000  0.44973000  1.0
  O  O111  1  0.41810000  0.09904000  0.54918000  1.0
  O  O112  1  0.58635000  0.03061000  0.54692000  1.0
  O  O113  1  0.41442000  0.89202000  0.45494000  1.0
  O  O114  1  0.58437000  0.89400000  0.54675000  1.0
  O  O115  1  0.41367000  0.02859000  0.45336000  1.0
  O  O116  1  0.58009000  0.09604000  0.45195000  1.0
  O  O117  1  0.41906000  0.96246000  0.54985000  1.0
  O  O118  1  0.03270000  0.40735000  0.95456000  1.0
  O  O119  1  0.90165000  0.59458000  0.04327000  1.0
  O  O120  1  0.96800000  0.57468000  0.94744000  1.0
  O  O121  1  0.10650000  0.42711000  0.04858000  1.0
  O  O122  1  0.10565000  0.57337000  0.94695000  1.0
  O  O123  1  0.96894000  0.43058000  0.05239000  1.0
  O  O124  1  0.89475000  0.41417000  0.95796000  1.0
  O  O125  1  0.03990000  0.59587000  0.04376000  1.0
