# generated using pymatgen
data_GaPH4C5NO4
_symmetry_space_group_name_H-M   'P 1'
_cell_length_a   4.99796000
_cell_length_b   5.79652000
_cell_length_c   11.61140000
_cell_angle_alpha   79.34540000
_cell_angle_beta   87.83830000
_cell_angle_gamma   87.69710000
_symmetry_Int_Tables_number   1
_chemical_formula_structural   GaPH4C5NO4
_chemical_formula_sum   'Ga2 P2 H8 C10 N2 O8'
_cell_volume   330.16754757
_cell_formula_units_Z   2
loop_
 _symmetry_equiv_pos_site_id
 _symmetry_equiv_pos_as_xyz
  1  'x, y, z'
loop_
 _atom_site_type_symbol
 _atom_site_label
 _atom_site_symmetry_multiplicity
 _atom_site_fract_x
 _atom_site_fract_y
 _atom_site_fract_z
 _atom_site_occupancy
  Ga  Ga0  1  0.66748000  0.79371000  0.89734000  1.0
  Ga  Ga1  1  0.33251000  0.20628000  0.10266000  1.0
  P  P2  1  0.14514000  0.72320000  0.07767000  1.0
  P  P3  1  0.85485000  0.27680000  0.92233000  1.0
  H  H4  1  0.28698000  0.54932000  0.77805000  1.0
  H  H5  1  0.71302000  0.45068000  0.22195000  1.0
  H  H6  1  0.96759000  0.61802000  0.61821000  1.0
  H  H7  1  0.03241000  0.38198000  0.38179000  1.0
  H  H8  1  0.57132000  0.21938000  0.68821000  1.0
  H  H9  1  0.42869000  0.78062000  0.31179000  1.0
  H  H10  1  0.27080000  0.31995000  0.51889000  1.0
  H  H11  1  0.72921000  0.68005000  0.48111000  1.0
  C  C12  1  0.28002000  0.71564000  0.71648000  1.0
  C  C13  1  0.71998000  0.28437000  0.28352000  1.0
  C  C14  1  0.10217000  0.75711000  0.62540000  1.0
  C  C15  1  0.89784000  0.24289000  0.37460000  1.0
  C  C16  1  0.09233000  0.97561000  0.54952000  1.0
  C  C17  1  0.90768000  0.02440000  0.45048000  1.0
  C  C18  1  0.26526000  0.14539000  0.57292000  1.0
  C  C19  1  0.73475000  0.85461000  0.42708000  1.0
  C  C20  1  0.43621000  0.09207000  0.66637000  1.0
  C  C21  1  0.56379000  0.90793000  0.33363000  1.0
  N  N22  1  0.44627000  0.87970000  0.73618000  1.0
  N  N23  1  0.55373000  0.12031000  0.26382000  1.0
  O  O24  1  0.85030000  0.71541000  0.04530000  1.0
  O  O25  1  0.14970000  0.28459000  0.95470000  1.0
  O  O26  1  0.32274000  0.77550000  0.96556000  1.0
  O  O27  1  0.67725000  0.22449000  0.03443000  1.0
  O  O28  1  0.17519000  0.91350000  0.15472000  1.0
  O  O29  1  0.82480000  0.08650000  0.84528000  1.0
  O  O30  1  0.22900000  0.48599000  0.15737000  1.0
  O  O31  1  0.77099000  0.51401000  0.84263000  1.0
