# generated using pymatgen
data_MnH6(CO)5
_symmetry_space_group_name_H-M   'P 1'
_cell_length_a   7.41223000
_cell_length_b   11.40180000
_cell_length_c   14.64860000
_cell_angle_alpha   90.00000000
_cell_angle_beta   90.00000000
_cell_angle_gamma   90.00000000
_symmetry_Int_Tables_number   1
_chemical_formula_structural   MnH6(CO)5
_chemical_formula_sum   'Mn8 H48 C40 O40'
_cell_volume   1237.99367494
_cell_formula_units_Z   8
loop_
 _symmetry_equiv_pos_site_id
 _symmetry_equiv_pos_as_xyz
  1  'x, y, z'
loop_
 _atom_site_type_symbol
 _atom_site_label
 _atom_site_symmetry_multiplicity
 _atom_site_fract_x
 _atom_site_fract_y
 _atom_site_fract_z
 _atom_site_occupancy
  Mn  Mn0  1  0.94379000  0.69933000  0.55919000  1.0
  Mn  Mn1  1  0.55621000  0.19933000  0.44081000  1.0
  Mn  Mn2  1  0.05621000  0.30067000  0.05919000  1.0
  Mn  Mn3  1  0.44379000  0.80067000  0.94081000  1.0
  Mn  Mn4  1  0.05621000  0.30068000  0.44081000  1.0
  Mn  Mn5  1  0.44378000  0.80067000  0.55919000  1.0
  Mn  Mn6  1  0.94379000  0.69933000  0.94081000  1.0
  Mn  Mn7  1  0.55621000  0.19933000  0.05919000  1.0
  H  H8  1  0.07046000  0.50278000  0.62624000  1.0
  H  H9  1  0.42955000  0.00278000  0.37377000  1.0
  H  H10  1  0.92954000  0.49722000  0.12624000  1.0
  H  H11  1  0.57045000  0.99722000  0.87376000  1.0
  H  H12  1  0.92954000  0.49722000  0.37376000  1.0
  H  H13  1  0.57045000  0.99722000  0.62623000  1.0
  H  H14  1  0.07046000  0.50278000  0.87376000  1.0
  H  H15  1  0.42955000  0.00278000  0.12623000  1.0
  H  H16  1  0.23034000  0.59752000  0.64176000  1.0
  H  H17  1  0.26967000  0.09752000  0.35824000  1.0
  H  H18  1  0.76966000  0.40248000  0.14177000  1.0
  H  H19  1  0.73033000  0.90248000  0.85824000  1.0
  H  H20  1  0.76966000  0.40248000  0.35824000  1.0
  H  H21  1  0.73033000  0.90248000  0.64176000  1.0
  H  H22  1  0.23034000  0.59752000  0.85824000  1.0
  H  H23  1  0.26967000  0.09752000  0.14176000  1.0
  H  H24  1  0.13892000  0.51556000  0.25000000  1.0
  H  H25  1  0.36108000  0.01556000  0.75000000  1.0
  H  H26  1  0.86108000  0.48444000  0.75000000  1.0
  H  H27  1  0.63892000  0.98444000  0.25000000  1.0
  H  H28  1  0.04860000  0.65746000  0.25000000  1.0
  H  H29  1  0.45139000  0.15746000  0.75000000  1.0
  H  H30  1  0.95140000  0.34254000  0.75000000  1.0
  H  H31  1  0.54860000  0.84254000  0.25000000  1.0
  H  H32  1  0.33895000  0.73060000  0.32507000  1.0
  H  H33  1  0.16105000  0.23060000  0.67493000  1.0
  H  H34  1  0.66105000  0.26940000  0.82507000  1.0
  H  H35  1  0.83895000  0.76940000  0.17493000  1.0
  H  H36  1  0.66105000  0.26940000  0.67493000  1.0
  H  H37  1  0.83895000  0.76940000  0.32507000  1.0
  H  H38  1  0.33895000  0.73060000  0.17493000  1.0
  H  H39  1  0.16105000  0.23060000  0.82507000  1.0
  H  H40  1  0.54518000  0.59734000  0.39439000  1.0
  H  H41  1  0.95481000  0.09734000  0.60562000  1.0
  H  H42  1  0.45482000  0.40266000  0.89438000  1.0
  H  H43  1  0.04518000  0.90266000  0.10562000  1.0
  H  H44  1  0.45482000  0.40266000  0.60562000  1.0
  H  H45  1  0.04518000  0.90266000  0.39438000  1.0
  H  H46  1  0.54519000  0.59734000  0.10562000  1.0
  H  H47  1  0.95482000  0.09734000  0.89438000  1.0
  H  H48  1  0.63282000  0.65715000  0.25000000  1.0
  H  H49  1  0.86717000  0.15715000  0.75000000  1.0
  H  H50  1  0.36718000  0.34286000  0.75000000  1.0
  H  H51  1  0.13282000  0.84285000  0.25000000  1.0
  H  H52  1  0.67296000  0.50563000  0.25000000  1.0
  H  H53  1  0.82704000  0.00563000  0.75000000  1.0
  H  H54  1  0.32705000  0.49438000  0.75000000  1.0
  H  H55  1  0.17296000  0.99437000  0.25000000  1.0
  C  C56  1  0.17613000  0.60878000  0.25000000  1.0
  C  C57  1  0.32388000  0.10878000  0.75000000  1.0
  C  C58  1  0.82387000  0.39122000  0.75000000  1.0
  C  C59  1  0.67612000  0.89122000  0.25000000  1.0
  C  C60  1  0.28683000  0.64038000  0.33392000  1.0
  C  C61  1  0.21317000  0.14038000  0.66608000  1.0
  C  C62  1  0.71317000  0.35963000  0.83392000  1.0
  C  C63  1  0.78684000  0.85962000  0.16608000  1.0
  C  C64  1  0.71317000  0.35962000  0.66608000  1.0
  C  C65  1  0.78684000  0.85962000  0.33392000  1.0
  C  C66  1  0.28684000  0.64037000  0.16608000  1.0
  C  C67  1  0.21316000  0.14038000  0.83392000  1.0
  C  C68  1  0.45669000  0.56272000  0.33989000  1.0
  C  C69  1  0.04330000  0.06272000  0.66011000  1.0
  C  C70  1  0.54331000  0.43729000  0.83989000  1.0
  C  C71  1  0.95670000  0.93728000  0.16011000  1.0
  C  C72  1  0.54331000  0.43728000  0.66011000  1.0
  C  C73  1  0.95670000  0.93728000  0.33989000  1.0
  C  C74  1  0.45670000  0.56271000  0.16011000  1.0
  C  C75  1  0.04330000  0.06272000  0.83989000  1.0
  C  C76  1  0.56551000  0.57137000  0.25000000  1.0
  C  C77  1  0.93449000  0.07138000  0.75000000  1.0
  C  C78  1  0.43449000  0.42863000  0.75000000  1.0
  C  C79  1  0.06551000  0.92863000  0.25000000  1.0
  C  C80  1  0.17348000  0.65172000  0.41924000  1.0
  C  C81  1  0.32652000  0.15173000  0.58075000  1.0
  C  C82  1  0.82652000  0.34828000  0.91925000  1.0
  C  C83  1  0.67347000  0.84827000  0.08076000  1.0
  C  C84  1  0.82651000  0.34827000  0.58076000  1.0
  C  C85  1  0.67347000  0.84827000  0.41924000  1.0
  C  C86  1  0.17349000  0.65172000  0.08075000  1.0
  C  C87  1  0.32652000  0.15173000  0.91924000  1.0
  C  C88  1  0.41505000  0.43731000  0.37151000  1.0
  C  C89  1  0.08495000  0.93730000  0.62849000  1.0
  C  C90  1  0.58495000  0.56269000  0.87151000  1.0
  C  C91  1  0.91504000  0.06270000  0.12848000  1.0
  C  C92  1  0.58496000  0.56269000  0.62849000  1.0
  C  C93  1  0.91504000  0.06270000  0.37152000  1.0
  C  C94  1  0.41506000  0.43730000  0.12849000  1.0
  C  C95  1  0.08496000  0.93730000  0.87151000  1.0
  O  O96  1  0.00596000  0.62477000  0.41960000  1.0
  O  O97  1  0.49402000  0.12478000  0.58039000  1.0
  O  O98  1  0.99403000  0.37523000  0.91961000  1.0
  O  O99  1  0.50598000  0.87522000  0.08039000  1.0
  O  O100  1  0.99404000  0.37523000  0.58040000  1.0
  O  O101  1  0.50598000  0.87522000  0.41960000  1.0
  O  O102  1  0.00597000  0.62477000  0.08039000  1.0
  O  O103  1  0.49402000  0.12478000  0.91960000  1.0
  O  O104  1  0.24027000  0.70165000  0.48953000  1.0
  O  O105  1  0.25972000  0.20166000  0.51046000  1.0
  O  O106  1  0.75973000  0.29835000  0.98954000  1.0
  O  O107  1  0.74028000  0.79834000  0.01046000  1.0
  O  O108  1  0.75973000  0.29835000  0.51047000  1.0
  O  O109  1  0.74028000  0.79834000  0.48953000  1.0
  O  O110  1  0.24028000  0.70165000  0.01046000  1.0
  O  O111  1  0.25972000  0.20166000  0.98953000  1.0
  O  O112  1  0.26291000  0.41952000  0.40787000  1.0
  O  O113  1  0.23707000  0.91952000  0.59214000  1.0
  O  O114  1  0.73708000  0.58048000  0.90787000  1.0
  O  O115  1  0.76293000  0.08047000  0.09214000  1.0
  O  O116  1  0.73709000  0.58048000  0.59213000  1.0
  O  O117  1  0.76293000  0.08048000  0.40787000  1.0
  O  O118  1  0.26292000  0.41952000  0.09213000  1.0
  O  O119  1  0.23707000  0.91953000  0.90786000  1.0
  O  O120  1  0.53969000  0.36017000  0.36431000  1.0
  O  O121  1  0.96030000  0.86017000  0.63569000  1.0
  O  O122  1  0.46030000  0.63984000  0.86431000  1.0
  O  O123  1  0.03970000  0.13983000  0.13569000  1.0
  O  O124  1  0.46031000  0.63984000  0.63569000  1.0
  O  O125  1  0.03970000  0.13983000  0.36431000  1.0
  O  O126  1  0.53969000  0.36017000  0.13570000  1.0
  O  O127  1  0.96030000  0.86017000  0.86431000  1.0
  O  O128  1  0.09794000  0.58526000  0.64399000  1.0
  O  O129  1  0.40206000  0.08526000  0.35602000  1.0
  O  O130  1  0.90207000  0.41474000  0.14399000  1.0
  O  O131  1  0.59794000  0.91474000  0.85602000  1.0
  O  O132  1  0.90206000  0.41474000  0.35602000  1.0
  O  O133  1  0.59794000  0.91473000  0.64398000  1.0
  O  O134  1  0.09794000  0.58526000  0.85601000  1.0
  O  O135  1  0.40205000  0.08527000  0.14398000  1.0
