# generated using pymatgen
data_ZnH16C14(N2O3)2
_symmetry_space_group_name_H-M   'P 1'
_cell_length_a   8.13123000
_cell_length_b   9.86544000
_cell_length_c   10.72900000
_cell_angle_alpha   105.64200000
_cell_angle_beta   89.99980000
_cell_angle_gamma   90.00000000
_symmetry_Int_Tables_number   1
_chemical_formula_structural   ZnH16C14(N2O3)2
_chemical_formula_sum   'Zn2 H32 C28 N8 O12'
_cell_volume   828.78624386
_cell_formula_units_Z   2
loop_
 _symmetry_equiv_pos_site_id
 _symmetry_equiv_pos_as_xyz
  1  'x, y, z'
loop_
 _atom_site_type_symbol
 _atom_site_label
 _atom_site_symmetry_multiplicity
 _atom_site_fract_x
 _atom_site_fract_y
 _atom_site_fract_z
 _atom_site_occupancy
  Zn  Zn0  1  0.00000000  0.00000000  0.00000000  1.0
  Zn  Zn1  1  0.50000000  0.50000000  0.50000000  1.0
  H  H2  1  0.97731000  0.77807000  0.77627000  1.0
  H  H3  1  0.47731000  0.72193000  0.72373000  1.0
  H  H4  1  0.02269000  0.22193000  0.22373000  1.0
  H  H5  1  0.52269000  0.27807000  0.27627000  1.0
  H  H6  1  0.80281000  0.85847000  0.80669000  1.0
  H  H7  1  0.30281000  0.64153000  0.69331000  1.0
  H  H8  1  0.19719000  0.14153000  0.19331000  1.0
  H  H9  1  0.69719000  0.35847000  0.30669000  1.0
  H  H10  1  0.81139000  0.30035000  0.10350000  1.0
  H  H11  1  0.31139000  0.19965000  0.39650000  1.0
  H  H12  1  0.18861000  0.69965000  0.89650000  1.0
  H  H13  1  0.68861000  0.80035000  0.60350000  1.0
  H  H14  1  0.02976000  0.12456000  0.73961000  1.0
  H  H15  1  0.52976000  0.37544000  0.76039000  1.0
  H  H16  1  0.97024000  0.87544000  0.26039000  1.0
  H  H17  1  0.47024000  0.62456000  0.23961000  1.0
  H  H18  1  0.90107000  0.38878000  0.74495000  1.0
  H  H19  1  0.40107000  0.11122000  0.75505000  1.0
  H  H20  1  0.09893000  0.61122000  0.25505000  1.0
  H  H21  1  0.59893000  0.88878000  0.24495000  1.0
  H  H22  1  0.72027000  0.52924000  0.09198000  1.0
  H  H23  1  0.22027000  0.97076000  0.40802000  1.0
  H  H24  1  0.27972000  0.47076000  0.90802000  1.0
  H  H25  1  0.77973000  0.02924000  0.59198000  1.0
  H  H26  1  0.74211000  0.58962000  0.82175000  1.0
  H  H27  1  0.24211000  0.91038000  0.67825000  1.0
  H  H28  1  0.25789000  0.41038000  0.17825000  1.0
  H  H29  1  0.75789000  0.08962000  0.32175000  1.0
  H  H30  1  0.65456000  0.70299000  0.97504000  1.0
  H  H31  1  0.15456000  0.79701000  0.52496000  1.0
  H  H32  1  0.34544000  0.29701000  0.02496000  1.0
  H  H33  1  0.84544000  0.20299000  0.47503000  1.0
  C  C34  1  0.85311000  0.28454000  0.00487000  1.0
  C  C35  1  0.35311000  0.21546000  0.49513000  1.0
  C  C36  1  0.14689000  0.71546000  0.99513000  1.0
  C  C37  1  0.64689000  0.78454000  0.50487000  1.0
  C  C38  1  0.96478000  0.20024000  0.81575000  1.0
  C  C39  1  0.46478000  0.29976000  0.68425000  1.0
  C  C40  1  0.03522000  0.79976000  0.18425000  1.0
  C  C41  1  0.53522000  0.70024000  0.31575000  1.0
  C  C42  1  0.38177000  0.99475000  0.95986000  1.0
  C  C43  1  0.88177000  0.50525000  0.54014000  1.0
  C  C44  1  0.61823000  0.00525000  0.04014000  1.0
  C  C45  1  0.11823000  0.49475000  0.45986000  1.0
  C  C46  1  0.90251000  0.32992000  0.81673000  1.0
  C  C47  1  0.40251000  0.17008000  0.68327000  1.0
  C  C48  1  0.09749000  0.67008000  0.18327000  1.0
  C  C49  1  0.59749000  0.82992000  0.31673000  1.0
  C  C50  1  0.45430000  0.05838000  0.08899000  1.0
  C  C51  1  0.95431000  0.44162000  0.41101000  1.0
  C  C52  1  0.54570000  0.94162000  0.91100000  1.0
  C  C53  1  0.04570000  0.55838000  0.58900000  1.0
  C  C54  1  0.75098000  0.51244000  0.99004000  1.0
  C  C55  1  0.25098000  0.98756000  0.50996000  1.0
  C  C56  1  0.24902000  0.48756000  0.00996000  1.0
  C  C57  1  0.74902000  0.01244000  0.49004000  1.0
  C  C58  1  0.71518000  0.60559000  0.92427000  1.0
  C  C59  1  0.21519000  0.89441000  0.57573000  1.0
  C  C60  1  0.28482000  0.39441000  0.07573000  1.0
  C  C61  1  0.78482000  0.10559000  0.42427000  1.0
  N  N62  1  0.93310000  0.17343000  0.93368000  1.0
  N  N63  1  0.43310000  0.32657000  0.56632000  1.0
  N  N64  1  0.06690000  0.82657000  0.06632000  1.0
  N  N65  1  0.56690000  0.67343000  0.43368000  1.0
  N  N66  1  0.83144000  0.38272000  0.93798000  1.0
  N  N67  1  0.33145000  0.11728000  0.56202000  1.0
  N  N68  1  0.16856000  0.61728000  0.06202000  1.0
  N  N69  1  0.66856000  0.88272000  0.43798000  1.0
  O  O70  1  0.24235000  0.98766000  0.90745000  1.0
  O  O71  1  0.74235000  0.51234000  0.59255000  1.0
  O  O72  1  0.75765000  0.01234000  0.09255000  1.0
  O  O73  1  0.25765000  0.48766000  0.40745000  1.0
  O  O74  1  0.92494000  0.87119000  0.81165000  1.0
  O  O75  1  0.42494000  0.62881000  0.68835000  1.0
  O  O76  1  0.07506000  0.12881000  0.18835000  1.0
  O  O77  1  0.57506000  0.37119000  0.31165000  1.0
  O  O78  1  0.40165000  0.13080000  0.19732000  1.0
  O  O79  1  0.90165000  0.36920000  0.30268000  1.0
  O  O80  1  0.59835000  0.86920000  0.80268000  1.0
  O  O81  1  0.09835000  0.63080000  0.69732000  1.0
