# generated using pymatgen
data_ZnH7C26N6O14F5
_symmetry_space_group_name_H-M   'P 1'
_cell_length_a   17.23840000
_cell_length_b   18.36970000
_cell_length_c   19.50030000
_cell_angle_alpha   88.41020000
_cell_angle_beta   87.58870000
_cell_angle_gamma   84.27530000
_symmetry_Int_Tables_number   1
_chemical_formula_structural   ZnH7C26N6O14F5
_chemical_formula_sum   'Zn2 H14 C52 N12 O28 F10'
_cell_volume   6137.08788313
_cell_formula_units_Z   2
loop_
 _symmetry_equiv_pos_site_id
 _symmetry_equiv_pos_as_xyz
  1  'x, y, z'
loop_
 _atom_site_type_symbol
 _atom_site_label
 _atom_site_symmetry_multiplicity
 _atom_site_fract_x
 _atom_site_fract_y
 _atom_site_fract_z
 _atom_site_occupancy
  Zn  Zn0  1  0.49374000  0.42161000  0.51514000  1.0
  Zn  Zn1  1  0.49329000  0.57681000  0.49887000  1.0
  H  H2  1  0.27104000  0.60025000  0.40750000  1.0
  H  H3  1  0.75712000  0.37238000  0.50967000  1.0
  H  H4  1  0.98972000  0.59204000  0.42881000  1.0
  H  H5  1  0.00465000  0.42307000  0.43256000  1.0
  H  H6  1  0.89862000  0.37060000  0.47767000  1.0
  H  H7  1  0.13143000  0.61243000  0.37762000  1.0
  H  H8  1  0.45649000  0.37833000  0.29778000  1.0
  H  H9  1  0.59246000  0.54601000  0.72157000  1.0
  H  H10  1  0.60694000  0.31091000  0.46546000  1.0
  H  H11  1  0.61923000  0.66755000  0.50409000  1.0
  H  H12  1  0.62845000  0.17563000  0.44585000  1.0
  H  H13  1  0.64349000  0.79984000  0.50883000  1.0
  H  H14  1  0.53613000  0.05904000  0.60128000  1.0
  H  H15  1  0.53088000  0.93202000  0.38054000  1.0
  C  C16  1  0.47948000  0.52475000  0.63561000  1.0
  C  C17  1  0.50616000  0.48296000  0.37437000  1.0
  C  C18  1  0.64461000  0.48467000  0.49798000  1.0
  C  C19  1  0.34471000  0.50501000  0.49585000  1.0
  C  C20  1  0.72801000  0.48225000  0.47313000  1.0
  C  C21  1  0.25958000  0.51351000  0.48199000  1.0
  C  C22  1  0.75789000  0.54203000  0.43866000  1.0
  C  C23  1  0.20686000  0.47029000  0.51576000  1.0
  C  C24  1  0.83621000  0.54001000  0.41757000  1.0
  C  C25  1  0.12845000  0.47788000  0.49982000  1.0
  C  C26  1  0.88959000  0.47950000  0.43341000  1.0
  C  C27  1  0.09929000  0.52807000  0.44909000  1.0
  C  C28  1  0.85847000  0.41828000  0.46502000  1.0
  C  C29  1  0.15238000  0.57250000  0.41667000  1.0
  C  C30  1  0.77986000  0.41958000  0.48384000  1.0
  C  C31  1  0.23053000  0.56541000  0.43293000  1.0
  C  C32  1  0.97429000  0.47809000  0.42933000  1.0
  C  C33  1  0.01656000  0.53577000  0.43327000  1.0
  C  C34  1  0.52499000  0.54169000  0.25644000  1.0
  C  C35  1  0.40341000  0.50818000  0.74907000  1.0
  C  C36  1  0.51590000  0.54203000  0.18598000  1.0
  C  C37  1  0.40258000  0.50147000  0.82091000  1.0
  C  C38  1  0.48598000  0.48455000  0.15342000  1.0
  C  C39  1  0.46908000  0.50924000  0.85773000  1.0
  C  C40  1  0.46618000  0.42586000  0.19573000  1.0
  C  C41  1  0.53602000  0.52544000  0.81956000  1.0
  C  C42  1  0.47415000  0.42406000  0.26621000  1.0
  C  C43  1  0.53859000  0.53377000  0.74865000  1.0
  C  C44  1  0.50347000  0.48262000  0.29747000  1.0
  C  C45  1  0.47195000  0.52457000  0.71307000  1.0
  C  C46  1  0.52087000  0.43743000  0.03552000  1.0
  C  C47  1  0.42447000  0.54943000  0.97623000  1.0
  C  C48  1  0.51711000  0.44408000  0.96441000  1.0
  C  C49  1  0.42871000  0.54316000  0.04734000  1.0
  C  C50  1  0.46937000  0.50056000  0.93325000  1.0
  C  C51  1  0.47750000  0.48745000  0.07842000  1.0
  C  C52  1  0.56458000  0.27380000  0.48367000  1.0
  C  C53  1  0.57326000  0.71151000  0.49495000  1.0
  C  C54  1  0.57547000  0.19906000  0.47258000  1.0
  C  C55  1  0.58577000  0.78485000  0.49802000  1.0
  C  C56  1  0.51815000  0.15447000  0.49576000  1.0
  C  C57  1  0.52354000  0.83868000  0.48895000  1.0
  C  C58  1  0.45213000  0.18850000  0.53045000  1.0
  C  C59  1  0.45203000  0.81518000  0.47216000  1.0
  C  C60  1  0.44703000  0.26331000  0.54160000  1.0
  C  C61  1  0.44529000  0.74070000  0.46754000  1.0
  C  C62  1  0.53427000  0.03240000  0.55223000  1.0
  C  C63  1  0.53146000  0.95895000  0.42960000  1.0
  C  C64  1  0.53524000  0.95669000  0.55211000  1.0
  C  C65  1  0.52823000  0.03489000  0.42994000  1.0
  C  C66  1  0.53156000  0.91836000  0.49137000  1.0
  C  C67  1  0.52748000  0.07355000  0.49097000  1.0
  N  N68  1  0.50141000  0.30545000  0.51867000  1.0
  N  N69  1  0.50332000  0.68964000  0.48059000  1.0
  N  N70  1  0.38984000  0.14352000  0.55608000  1.0
  N  N71  1  0.38419000  0.86911000  0.46014000  1.0
  N  N72  1  0.37860000  0.29807000  0.58226000  1.0
  N  N73  1  0.36982000  0.71559000  0.44799000  1.0
  N  N74  1  0.53589000  0.91829000  0.62012000  1.0
  N  N75  1  0.52119000  0.07411000  0.36259000  1.0
  N  N76  1  0.07556000  0.43489000  0.54243000  1.0
  N  N77  1  0.86101000  0.60342000  0.37730000  1.0
  N  N78  1  0.56124000  0.60433000  0.28349000  1.0
  N  N79  1  0.33363000  0.49794000  0.71096000  1.0
  O  O80  1  0.49007000  0.46094000  0.61129000  1.0
  O  O81  1  0.51588000  0.54413000  0.39983000  1.0
  O  O82  1  0.48013000  0.58549000  0.60369000  1.0
  O  O83  1  0.49685000  0.42358000  0.40706000  1.0
  O  O84  1  0.61437000  0.42402000  0.50275000  1.0
  O  O85  1  0.37954000  0.56293000  0.48982000  1.0
  O  O86  1  0.61012000  0.54691000  0.51298000  1.0
  O  O87  1  0.37603000  0.44099000  0.50961000  1.0
  O  O88  1  0.38049000  0.13800000  0.61909000  1.0
  O  O89  1  0.35569000  0.11341000  0.51227000  1.0
  O  O90  1  0.34990000  0.86336000  0.40650000  1.0
  O  O91  1  0.36878000  0.91599000  0.50414000  1.0
  O  O92  1  0.31441000  0.28259000  0.56500000  1.0
  O  O93  1  0.39363000  0.33644000  0.62958000  1.0
  O  O94  1  0.31398000  0.72907000  0.48871000  1.0
  O  O95  1  0.37118000  0.68465000  0.39283000  1.0
  O  O96  1  0.51055000  0.85755000  0.62366000  1.0
  O  O97  1  0.56141000  0.95010000  0.66809000  1.0
  O  O98  1  0.48770000  0.13693000  0.36269000  1.0
  O  O99  1  0.54902000  0.04086000  0.31164000  1.0
  O  O100  1  0.07978000  0.36829000  0.53257000  1.0
  O  O101  1  0.03120000  0.46870000  0.58449000  1.0
  O  O102  1  0.88560000  0.59201000  0.31779000  1.0
  O  O103  1  0.85523000  0.66315000  0.40609000  1.0
  O  O104  1  0.63128000  0.59338000  0.29532000  1.0
  O  O105  1  0.51985000  0.66282000  0.28852000  1.0
  O  O106  1  0.32670000  0.53208000  0.65529000  1.0
  O  O107  1  0.28738000  0.45653000  0.73618000  1.0
  F  F108  1  0.71101000  0.60285000  0.42254000  1.0
  F  F109  1  0.22911000  0.42338000  0.56696000  1.0
  F  F110  1  0.56925000  0.38306000  0.06313000  1.0
  F  F111  1  0.37771000  0.60497000  0.94866000  1.0
  F  F112  1  0.56095000  0.39506000  0.92505000  1.0
  F  F113  1  0.38515000  0.59227000  0.08676000  1.0
  F  F114  1  0.53865000  0.59888000  0.14731000  1.0
  F  F115  1  0.33731000  0.48799000  0.85715000  1.0
  F  F116  1  0.43645000  0.36934000  0.16626000  1.0
  F  F117  1  0.60103000  0.53407000  0.85385000  1.0
