# generated using pymatgen
data_MgH20(C13N5)2
_symmetry_space_group_name_H-M   'P 1'
_cell_length_a   10.25960000
_cell_length_b   16.01140000
_cell_length_c   16.01390000
_cell_angle_alpha   115.57300000
_cell_angle_beta   102.35300000
_cell_angle_gamma   102.29900000
_symmetry_Int_Tables_number   1
_chemical_formula_structural   MgH20(C13N5)2
_chemical_formula_sum   'Mg3 H60 C78 N30'
_cell_volume   2174.33162749
_cell_formula_units_Z   3
loop_
 _symmetry_equiv_pos_site_id
 _symmetry_equiv_pos_as_xyz
  1  'x, y, z'
loop_
 _atom_site_type_symbol
 _atom_site_label
 _atom_site_symmetry_multiplicity
 _atom_site_fract_x
 _atom_site_fract_y
 _atom_site_fract_z
 _atom_site_occupancy
  Mg  Mg0  1  0.00000000  0.00000000  0.50000000  1.0
  Mg  Mg1  1  0.50000000  0.50000000  0.50000000  1.0
  Mg  Mg2  1  0.00000000  0.50000000  0.00000000  1.0
  H  H3  1  0.00647000  0.14249000  0.40944000  1.0
  H  H4  1  0.59754000  0.59053000  0.73302000  1.0
  H  H5  1  0.86443000  0.26701000  0.85766000  1.0
  H  H6  1  0.99352000  0.85750000  0.59055000  1.0
  H  H7  1  0.40246000  0.40947000  0.26698000  1.0
  H  H8  1  0.13557000  0.73299000  0.14234000  1.0
  H  H9  1  0.14887000  0.19908000  0.32106000  1.0
  H  H10  1  0.82847000  0.67903000  0.87794000  1.0
  H  H11  1  0.95036000  0.12201000  0.80140000  1.0
  H  H12  1  0.85112000  0.80092000  0.67893000  1.0
  H  H13  1  0.17153000  0.32098000  0.12206000  1.0
  H  H14  1  0.04964000  0.87800000  0.19860000  1.0
  H  H15  1  0.33343000  0.12502000  0.27828000  1.0
  H  H16  1  0.05561000  0.72201000  0.84658000  1.0
  H  H17  1  0.20902000  0.15334000  0.87536000  1.0
  H  H18  1  0.66657000  0.87498000  0.72172000  1.0
  H  H19  1  0.94438000  0.27799000  0.15342000  1.0
  H  H20  1  0.79098000  0.84666000  0.12464000  1.0
  H  H21  1  0.27173000  0.77557000  0.60067000  1.0
  H  H22  1  0.67047000  0.39909000  0.17452000  1.0
  H  H23  1  0.49578000  0.82534000  0.22465000  1.0
  H  H24  1  0.72827000  0.22443000  0.39933000  1.0
  H  H25  1  0.32953000  0.60091000  0.82548000  1.0
  H  H26  1  0.50422000  0.17466000  0.77535000  1.0
  H  H27  1  0.38086000  0.65601000  0.61830000  1.0
  H  H28  1  0.76214000  0.38141000  0.03744000  1.0
  H  H29  1  0.72441000  0.96249000  0.34417000  1.0
  H  H30  1  0.61913000  0.34399000  0.38170000  1.0
  H  H31  1  0.23787000  0.61860000  0.96256000  1.0
  H  H32  1  0.27559000  0.03751000  0.65583000  1.0
  H  H33  1  0.53539000  0.62378000  0.39146000  1.0
  H  H34  1  0.14338000  0.60830000  0.23228000  1.0
  H  H35  1  0.91137000  0.76775000  0.37613000  1.0
  H  H36  1  0.46461000  0.37622000  0.60854000  1.0
  H  H37  1  0.85662000  0.39171000  0.76773000  1.0
  H  H38  1  0.08863000  0.23225000  0.62387000  1.0
  H  H39  1  0.43598000  0.74477000  0.36683000  1.0
  H  H40  1  0.06852000  0.63285000  0.37779000  1.0
  H  H41  1  0.69110000  0.62216000  0.25506000  1.0
  H  H42  1  0.56403000  0.25522000  0.63317000  1.0
  H  H43  1  0.93147000  0.36715000  0.62221000  1.0
  H  H44  1  0.30890000  0.37783000  0.74494000  1.0
  H  H45  1  0.41329000  0.93486000  0.33740000  1.0
  H  H46  1  0.07600000  0.66263000  0.59729000  1.0
  H  H47  1  0.47884000  0.40272000  0.06514000  1.0
  H  H48  1  0.58670000  0.06514000  0.66259000  1.0
  H  H49  1  0.92399000  0.33737000  0.40271000  1.0
  H  H50  1  0.52116000  0.59728000  0.93486000  1.0
  H  H51  1  0.50808000  0.04688000  0.34554000  1.0
  H  H52  1  0.16266000  0.65447000  0.70120000  1.0
  H  H53  1  0.46161000  0.29879000  0.95311000  1.0
  H  H54  1  0.49191000  0.95312000  0.65445000  1.0
  H  H55  1  0.83734000  0.34553000  0.29880000  1.0
  H  H56  1  0.53839000  0.70120000  0.04689000  1.0
  H  H57  1  0.37727000  0.95086000  0.23202000  1.0
  H  H58  1  0.14539000  0.76802000  0.71871000  1.0
  H  H59  1  0.42699000  0.28134000  0.04917000  1.0
  H  H60  1  0.62273000  0.04914000  0.76798000  1.0
  H  H61  1  0.85461000  0.23199000  0.28129000  1.0
  H  H62  1  0.57300000  0.71866000  0.95083000  1.0
  C  C63  1  0.08804000  0.11258000  0.38822000  1.0
  C  C64  1  0.70024000  0.61175000  0.72427000  1.0
  C  C65  1  0.97591000  0.27572000  0.88759000  1.0
  C  C66  1  0.91195000  0.88742000  0.61177000  1.0
  C  C67  1  0.29976000  0.38825000  0.27573000  1.0
  C  C68  1  0.02408000  0.72428000  0.11241000  1.0
  C  C69  1  0.16686000  0.14349000  0.33939000  1.0
  C  C70  1  0.82796000  0.66069000  0.80401000  1.0
  C  C71  1  0.02389000  0.19596000  0.85684000  1.0
  C  C72  1  0.83313000  0.85651000  0.66060000  1.0
  C  C73  1  0.17204000  0.33931000  0.19599000  1.0
  C  C74  1  0.97611000  0.80404000  0.14316000  1.0
  C  C75  1  0.26921000  0.10205000  0.31597000  1.0
  C  C76  1  0.95360000  0.68419000  0.78593000  1.0
  C  C77  1  0.16769000  0.21402000  0.89824000  1.0
  C  C78  1  0.73078000  0.89795000  0.68402000  1.0
  C  C79  1  0.04639000  0.31582000  0.21407000  1.0
  C  C80  1  0.83230000  0.78598000  0.10176000  1.0
  C  C81  1  0.29317000  0.03115000  0.34043000  1.0
  C  C82  1  0.95291000  0.65961000  0.69052000  1.0
  C  C83  1  0.26249000  0.30943000  0.96893000  1.0
  C  C84  1  0.70683000  0.96885000  0.65956000  1.0
  C  C85  1  0.04708000  0.34039000  0.30948000  1.0
  C  C86  1  0.73751000  0.69056000  0.03107000  1.0
  C  C87  1  0.20917000  0.00443000  0.39037000  1.0
  C  C88  1  0.81890000  0.60952000  0.61387000  1.0
  C  C89  1  0.20511000  0.38610000  0.99553000  1.0
  C  C90  1  0.79083000  0.99557000  0.60963000  1.0
  C  C91  1  0.18110000  0.39048000  0.38613000  1.0
  C  C92  1  0.79489000  0.61390000  0.00447000  1.0
  C  C93  1  0.22082000  0.93410000  0.42496000  1.0
  C  C94  1  0.79570000  0.57477000  0.50891000  1.0
  C  C95  1  0.28690000  0.49105000  0.06579000  1.0
  C  C96  1  0.77918000  0.06590000  0.57504000  1.0
  C  C97  1  0.20429000  0.42523000  0.49109000  1.0
  C  C98  1  0.71310000  0.50895000  0.93422000  1.0
  C  C99  1  0.27638000  0.83510000  0.46683000  1.0
  C  C100  1  0.80905000  0.53286000  0.36798000  1.0
  C  C101  1  0.44119000  0.63193000  0.16488000  1.0
  C  C102  1  0.72362000  0.16490000  0.53317000  1.0
  C  C103  1  0.19094000  0.46714000  0.63202000  1.0
  C  C104  1  0.55882000  0.36807000  0.83512000  1.0
  C  C105  1  0.34353000  0.76865000  0.48098000  1.0
  C  C106  1  0.86196000  0.51871000  0.28739000  1.0
  C  C107  1  0.57467000  0.71252000  0.23137000  1.0
  C  C108  1  0.65647000  0.23135000  0.51902000  1.0
  C  C109  1  0.13804000  0.48129000  0.71262000  1.0
  C  C110  1  0.42533000  0.28748000  0.76863000  1.0
  C  C111  1  0.33058000  0.74387000  0.55371000  1.0
  C  C112  1  0.77633000  0.44601000  0.18984000  1.0
  C  C113  1  0.58640000  0.81006000  0.25628000  1.0
  C  C114  1  0.66941000  0.25613000  0.44629000  1.0
  C  C115  1  0.22367000  0.55399000  0.81016000  1.0
  C  C116  1  0.41360000  0.18994000  0.74372000  1.0
  C  C117  1  0.39090000  0.67750000  0.56332000  1.0
  C  C118  1  0.82712000  0.43640000  0.11392000  1.0
  C  C119  1  0.71305000  0.88601000  0.32265000  1.0
  C  C120  1  0.60910000  0.32250000  0.43668000  1.0
  C  C121  1  0.17288000  0.56360000  0.88609000  1.0
  C  C122  1  0.28696000  0.11398000  0.67735000  1.0
  C  C123  1  0.47740000  0.65980000  0.43722000  1.0
  C  C124  1  0.03965000  0.56251000  0.22245000  1.0
  C  C125  1  0.81735000  0.77752000  0.34016000  1.0
  C  C126  1  0.52260000  0.34020000  0.56278000  1.0
  C  C127  1  0.96035000  0.43750000  0.77755000  1.0
  C  C128  1  0.18266000  0.22248000  0.65984000  1.0
  C  C129  1  0.42197000  0.72662000  0.42320000  1.0
  C  C130  1  0.99819000  0.57650000  0.30322000  1.0
  C  C131  1  0.69518000  0.69673000  0.27333000  1.0
  C  C132  1  0.57804000  0.27338000  0.57679000  1.0
  C  C133  1  0.00182000  0.42351000  0.69679000  1.0
  C  C134  1  0.30482000  0.30327000  0.72667000  1.0
  C  C135  1  0.40408000  0.98789000  0.31267000  1.0
  C  C136  1  0.09155000  0.68737000  0.67504000  1.0
  C  C137  1  0.41667000  0.32495000  0.01214000  1.0
  C  C138  1  0.59591000  0.01210000  0.68732000  1.0
  C  C139  1  0.90845000  0.31264000  0.32496000  1.0
  C  C140  1  0.58333000  0.67505000  0.98786000  1.0
  N  N141  1  0.10863000  0.04516000  0.41282000  1.0
  N  N142  1  0.69601000  0.58707000  0.63222000  1.0
  N  N143  1  0.06383000  0.36779000  0.95481000  1.0
  N  N144  1  0.89137000  0.95484000  0.58717000  1.0
  N  N145  1  0.30399000  0.41293000  0.36779000  1.0
  N  N146  1  0.93617000  0.63221000  0.04519000  1.0
  N  N147  1  0.14057000  0.92119000  0.47913000  1.0
  N  N148  1  0.66122000  0.52056000  0.44188000  1.0
  N  N149  1  0.21936000  0.55807000  0.07878000  1.0
  N  N150  1  0.85944000  0.07881000  0.52087000  1.0
  N  N151  1  0.33878000  0.47944000  0.55812000  1.0
  N  N152  1  0.78064000  0.44193000  0.92123000  1.0
  N  N153  1  0.17635000  0.85853000  0.50677000  1.0
  N  N154  1  0.66912000  0.49290000  0.35153000  1.0
  N  N155  1  0.31765000  0.64840000  0.14152000  1.0
  N  N156  1  0.82365000  0.14147000  0.49322000  1.0
  N  N157  1  0.33087000  0.50710000  0.64847000  1.0
  N  N158  1  0.68236000  0.35160000  0.85848000  1.0
  N  N159  1  0.30657000  0.87993000  0.41473000  1.0
  N  N160  1  0.89151000  0.58499000  0.46489000  1.0
  N  N161  1  0.42678000  0.53502000  0.11993000  1.0
  N  N162  1  0.69343000  0.12007000  0.58527000  1.0
  N  N163  1  0.10849000  0.41502000  0.53511000  1.0
  N  N164  1  0.57322000  0.46498000  0.88007000  1.0
  N  N165  1  0.46141000  0.63383000  0.50516000  1.0
  N  N166  1  0.95581000  0.49457000  0.12851000  1.0
  N  N167  1  0.82725000  0.87145000  0.36623000  1.0
  N  N168  1  0.53859000  0.36617000  0.49484000  1.0
  N  N169  1  0.04420000  0.50543000  0.87149000  1.0
  N  N170  1  0.17276000  0.12855000  0.63377000  1.0
