# generated using pymatgen
data_AgH6C4N3
_symmetry_space_group_name_H-M   'P 1'
_cell_length_a   11.77840000
_cell_length_b   12.02350000
_cell_length_c   12.21690000
_cell_angle_alpha   106.31000000
_cell_angle_beta   105.38500000
_cell_angle_gamma   116.02700000
_symmetry_Int_Tables_number   1
_chemical_formula_structural   AgH6C4N3
_chemical_formula_sum   'Ag8 H48 C32 N24'
_cell_volume   1332.10793071
_cell_formula_units_Z   8
loop_
 _symmetry_equiv_pos_site_id
 _symmetry_equiv_pos_as_xyz
  1  'x, y, z'
loop_
 _atom_site_type_symbol
 _atom_site_label
 _atom_site_symmetry_multiplicity
 _atom_site_fract_x
 _atom_site_fract_y
 _atom_site_fract_z
 _atom_site_occupancy
  Ag  Ag0  1  0.80635000  0.63394000  0.40216000  1.0
  Ag  Ag1  1  0.09541000  0.76802000  0.40240000  1.0
  Ag  Ag2  1  0.19366000  0.36606000  0.59785000  1.0
  Ag  Ag3  1  0.90459000  0.23197000  0.59760000  1.0
  Ag  Ag4  1  0.84134000  0.39926000  0.12221000  1.0
  Ag  Ag5  1  0.78065000  0.72280000  0.12172000  1.0
  Ag  Ag6  1  0.15866000  0.60074000  0.87779000  1.0
  Ag  Ag7  1  0.21935000  0.27720000  0.87828000  1.0
  H  H8  1  0.49982000  0.24009000  0.90417000  1.0
  H  H9  1  0.90487000  0.66393000  0.90417000  1.0
  H  H10  1  0.50018000  0.75991000  0.09583000  1.0
  H  H11  1  0.09512000  0.33607000  0.09583000  1.0
  H  H12  1  0.53402000  0.63069000  0.26234000  1.0
  H  H13  1  0.22782000  0.63125000  0.26258000  1.0
  H  H14  1  0.46598000  0.36931000  0.73766000  1.0
  H  H15  1  0.77217000  0.36875000  0.73741000  1.0
  H  H16  1  0.36118000  0.50245000  0.13667000  1.0
  H  H17  1  0.27516000  0.63380000  0.13689000  1.0
  H  H18  1  0.63882000  0.49755000  0.86333000  1.0
  H  H19  1  0.72483000  0.36621000  0.86311000  1.0
  H  H20  1  0.36762000  0.51603000  0.34747000  1.0
  H  H21  1  0.47923000  0.83120000  0.34750000  1.0
  H  H22  1  0.63238000  0.48396000  0.65253000  1.0
  H  H23  1  0.52077000  0.16880000  0.65250000  1.0
  H  H24  1  0.50199000  0.48155000  0.37569000  1.0
  H  H25  1  0.37291000  0.89374000  0.37579000  1.0
  H  H26  1  0.49802000  0.51845000  0.62431000  1.0
  H  H27  1  0.62708000  0.10626000  0.62421000  1.0
  H  H28  1  0.32928000  0.35094000  0.24965000  1.0
  H  H29  1  0.41953000  0.89823000  0.24961000  1.0
  H  H30  1  0.67072000  0.64905000  0.75035000  1.0
  H  H31  1  0.58048000  0.10178000  0.75040000  1.0
  H  H32  1  0.78498000  0.01736000  0.28966000  1.0
  H  H33  1  0.00508000  0.27242000  0.28988000  1.0
  H  H34  1  0.21503000  0.98264000  0.71035000  1.0
  H  H35  1  0.99492000  0.72758000  0.71013000  1.0
  H  H36  1  0.94881000  0.04484000  0.71131000  1.0
  H  H37  1  0.26261000  0.66688000  0.71142000  1.0
  H  H38  1  0.05118000  0.95515000  0.28869000  1.0
  H  H39  1  0.73739000  0.33313000  0.28858000  1.0
  H  H40  1  0.92011000  0.87745000  0.65118000  1.0
  H  H41  1  0.23162000  0.77421000  0.65116000  1.0
  H  H42  1  0.07988000  0.12254000  0.34882000  1.0
  H  H43  1  0.76838000  0.22579000  0.34884000  1.0
  H  H44  1  0.76183000  0.88430000  0.75363000  1.0
  H  H45  1  0.49201000  0.86913000  0.75351000  1.0
  H  H46  1  0.23816000  0.11570000  0.24637000  1.0
  H  H47  1  0.50799000  0.13088000  0.24649000  1.0
  H  H48  1  0.68724000  0.93338000  0.64532000  1.0
  H  H49  1  0.45804000  0.71152000  0.64520000  1.0
  H  H50  1  0.31275000  0.06662000  0.35468000  1.0
  H  H51  1  0.54197000  0.28850000  0.35480000  1.0
  H  H52  1  0.65969000  0.76596000  0.58756000  1.0
  H  H53  1  0.42841000  0.82139000  0.58743000  1.0
  H  H54  1  0.34030000  0.23404000  0.41244000  1.0
  H  H55  1  0.57159000  0.17861000  0.41257000  1.0
  C  C56  1  0.50857000  0.44836000  0.13988000  1.0
  C  C57  1  0.13096000  0.69104000  0.13999000  1.0
  C  C58  1  0.49143000  0.55164000  0.86012000  1.0
  C  C59  1  0.86904000  0.30896000  0.86001000  1.0
  C  C60  1  0.52404000  0.31606000  0.99485000  1.0
  C  C61  1  0.97104000  0.67859000  0.99490000  1.0
  C  C62  1  0.47597000  0.68394000  0.00515000  1.0
  C  C63  1  0.02896000  0.32141000  0.00510000  1.0
  C  C64  1  0.45297000  0.51810000  0.20919000  1.0
  C  C65  1  0.25575000  0.69064000  0.20939000  1.0
  C  C66  1  0.54703000  0.48190000  0.79082000  1.0
  C  C67  1  0.74425000  0.30935000  0.79060000  1.0
  C  C68  1  0.41032000  0.46344000  0.30065000  1.0
  C  C69  1  0.38964000  0.83680000  0.30074000  1.0
  C  C70  1  0.58968000  0.53655000  0.69935000  1.0
  C  C71  1  0.61035000  0.16320000  0.69926000  1.0
  C  C72  1  0.84201000  0.92762000  0.50985000  1.0
  C  C73  1  0.16817000  0.58241000  0.50995000  1.0
  C  C74  1  0.15798000  0.07237000  0.49016000  1.0
  C  C75  1  0.83184000  0.41759000  0.49005000  1.0
  C  C76  1  0.79972000  0.96801000  0.34926000  1.0
  C  C77  1  0.04985000  0.38137000  0.34944000  1.0
  C  C78  1  0.20028000  0.03200000  0.65074000  1.0
  C  C79  1  0.95016000  0.61864000  0.65056000  1.0
  C  C80  1  0.87112000  0.93557000  0.63892000  1.0
  C  C81  1  0.26813000  0.70363000  0.63894000  1.0
  C  C82  1  0.12888000  0.06442000  0.36108000  1.0
  C  C83  1  0.73187000  0.29638000  0.36106000  1.0
  C  C84  1  0.73707000  0.87623000  0.65735000  1.0
  C  C85  1  0.42053000  0.78096000  0.65723000  1.0
  C  C86  1  0.26293000  0.12377000  0.34265000  1.0
  C  C87  1  0.57948000  0.21905000  0.34277000  1.0
  N  N88  1  0.63999000  0.47797000  0.19105000  1.0
  N  N89  1  0.05053000  0.71261000  0.19104000  1.0
  N  N90  1  0.36001000  0.52203000  0.80895000  1.0
  N  N91  1  0.94947000  0.28739000  0.80896000  1.0
  N  N92  1  0.64994000  0.39238000  0.09738000  1.0
  N  N93  1  0.94727000  0.70471000  0.09730000  1.0
  N  N94  1  0.35006000  0.60762000  0.90262000  1.0
  N  N95  1  0.05273000  0.29530000  0.90270000  1.0
  N  N96  1  0.43218000  0.34674000  0.01664000  1.0
  N  N97  1  0.08456000  0.66959000  0.01679000  1.0
  N  N98  1  0.56782000  0.65326000  0.98336000  1.0
  N  N99  1  0.91544000  0.33042000  0.98321000  1.0
  N  N100  1  0.81553000  0.82126000  0.41001000  1.0
  N  N101  1  0.09451000  0.58879000  0.41024000  1.0
  N  N102  1  0.18447000  0.17874000  0.58999000  1.0
  N  N103  1  0.90550000  0.41121000  0.58976000  1.0
  N  N104  1  0.78824000  0.84696000  0.30656000  1.0
  N  N105  1  0.01831000  0.45958000  0.30684000  1.0
  N  N106  1  0.21176000  0.15304000  0.69344000  1.0
  N  N107  1  0.98169000  0.54042000  0.69316000  1.0
  N  N108  1  0.83306000  0.02272000  0.47523000  1.0
  N  N109  1  0.14268000  0.45276000  0.47531000  1.0
  N  N110  1  0.16693000  0.97728000  0.52477000  1.0
  N  N111  1  0.85732000  0.54724000  0.52469000  1.0
