# generated using pymatgen
data_CdH12C8S2(NO5)2
_symmetry_space_group_name_H-M   'P 1'
_cell_length_a   8.35407000
_cell_length_b   8.81341000
_cell_length_c   20.48840000
_cell_angle_alpha   90.11760000
_cell_angle_beta   90.00000000
_cell_angle_gamma   90.00000000
_symmetry_Int_Tables_number   1
_chemical_formula_structural   CdH12C8S2(NO5)2
_chemical_formula_sum   'Cd4 H48 C32 S8 N8 O40'
_cell_volume   1508.51354309
_cell_formula_units_Z   4
loop_
 _symmetry_equiv_pos_site_id
 _symmetry_equiv_pos_as_xyz
  1  'x, y, z'
loop_
 _atom_site_type_symbol
 _atom_site_label
 _atom_site_symmetry_multiplicity
 _atom_site_fract_x
 _atom_site_fract_y
 _atom_site_fract_z
 _atom_site_occupancy
  Cd  Cd0  1  0.67302000  0.57761000  0.74469000  1.0
  Cd  Cd1  1  0.17302000  0.92239000  0.25532000  1.0
  Cd  Cd2  1  0.32698000  0.42239000  0.25531000  1.0
  Cd  Cd3  1  0.82698000  0.07761000  0.74469000  1.0
  H  H4  1  0.07136000  0.93507000  0.84391000  1.0
  H  H5  1  0.57136000  0.56493000  0.15610000  1.0
  H  H6  1  0.92864000  0.06493000  0.15609000  1.0
  H  H7  1  0.42864000  0.43507000  0.84391000  1.0
  H  H8  1  0.20943000  0.95326000  0.95008000  1.0
  H  H9  1  0.70943000  0.54674000  0.04992000  1.0
  H  H10  1  0.79057000  0.04674000  0.04992000  1.0
  H  H11  1  0.29057000  0.45326000  0.95008000  1.0
  H  H12  1  0.27439000  0.77066000  0.97656000  1.0
  H  H13  1  0.77439000  0.72934000  0.02344000  1.0
  H  H14  1  0.72561000  0.22935000  0.02344000  1.0
  H  H15  1  0.22561000  0.27065000  0.97656000  1.0
  H  H16  1  0.10697000  0.85435000  0.01403000  1.0
  H  H17  1  0.60697000  0.64565000  0.98598000  1.0
  H  H18  1  0.89303000  0.14565000  0.98597000  1.0
  H  H19  1  0.39303000  0.35435000  0.01402000  1.0
  H  H20  1  0.46684000  0.71524000  0.52499000  1.0
  H  H21  1  0.96684000  0.78476000  0.47501000  1.0
  H  H22  1  0.53316000  0.28476000  0.47501000  1.0
  H  H23  1  0.03315000  0.21524000  0.52499000  1.0
  H  H24  1  0.26643000  0.62799000  0.44788000  1.0
  H  H25  1  0.76643000  0.87200000  0.55212000  1.0
  H  H26  1  0.73357000  0.37201000  0.55212000  1.0
  H  H27  1  0.23357000  0.12800000  0.44788000  1.0
  H  H28  1  0.09186000  0.57579000  0.49224000  1.0
  H  H29  1  0.59186000  0.92422000  0.50776000  1.0
  H  H30  1  0.90814000  0.42421000  0.50776000  1.0
  H  H31  1  0.40814000  0.07579000  0.49224000  1.0
  H  H32  1  0.21156000  0.43262000  0.45619000  1.0
  H  H33  1  0.71156000  0.06738000  0.54381000  1.0
  H  H34  1  0.78844000  0.56738000  0.54381000  1.0
  H  H35  1  0.28844000  0.93262000  0.45619000  1.0
  H  H36  1  0.90504000  0.40713000  0.66599000  1.0
  H  H37  1  0.40504000  0.09287000  0.33401000  1.0
  H  H38  1  0.09496000  0.59287000  0.33401000  1.0
  H  H39  1  0.59496000  0.90713000  0.66599000  1.0
  H  H40  1  0.94325000  0.58331000  0.65627000  1.0
  H  H41  1  0.44324000  0.91669000  0.34373000  1.0
  H  H42  1  0.05675000  0.41669000  0.34373000  1.0
  H  H43  1  0.55675000  0.08331000  0.65627000  1.0
  H  H44  1  0.44325000  0.76774000  0.81603000  1.0
  H  H45  1  0.94325000  0.73226000  0.18396000  1.0
  H  H46  1  0.55675000  0.23226000  0.18397000  1.0
  H  H47  1  0.05675000  0.26774000  0.81603000  1.0
  H  H48  1  0.35775000  0.69336000  0.75612000  1.0
  H  H49  1  0.85775000  0.80664000  0.24388000  1.0
  H  H50  1  0.64225000  0.30664000  0.24388000  1.0
  H  H51  1  0.14225000  0.19336000  0.75612000  1.0
  C  C52  1  0.89853000  0.75700000  0.82036000  1.0
  C  C53  1  0.39853000  0.74300000  0.17964000  1.0
  C  C54  1  0.10147000  0.24300000  0.17964000  1.0
  C  C55  1  0.60147000  0.25700000  0.82036000  1.0
  C  C56  1  0.02129000  0.82712000  0.85951000  1.0
  C  C57  1  0.52129000  0.67288000  0.14049000  1.0
  C  C58  1  0.97871000  0.17287000  0.14049000  1.0
  C  C59  1  0.47871000  0.32712000  0.85951000  1.0
  C  C60  1  0.06343000  0.76967000  0.91837000  1.0
  C  C61  1  0.56344000  0.73033000  0.08163000  1.0
  C  C62  1  0.93657000  0.23032000  0.08163000  1.0
  C  C63  1  0.43657000  0.26967000  0.91837000  1.0
  C  C64  1  0.16938000  0.84221000  0.96710000  1.0
  C  C65  1  0.66938000  0.65779000  0.03290000  1.0
  C  C66  1  0.83062000  0.15779000  0.03290000  1.0
  C  C67  1  0.33062000  0.34221000  0.96710000  1.0
  C  C68  1  0.50926000  0.61799000  0.62150000  1.0
  C  C69  1  0.00926000  0.88201000  0.37850000  1.0
  C  C70  1  0.49074000  0.38201000  0.37850000  1.0
  C  C71  1  0.99074000  0.11799000  0.62150000  1.0
  C  C72  1  0.43129000  0.62700000  0.55884000  1.0
  C  C73  1  0.93128000  0.87300000  0.44116000  1.0
  C  C74  1  0.56871000  0.37300000  0.44116000  1.0
  C  C75  1  0.06871000  0.12700000  0.55884000  1.0
  C  C76  1  0.30932000  0.53401000  0.54208000  1.0
  C  C77  1  0.80931000  0.96600000  0.45792000  1.0
  C  C78  1  0.69068000  0.46600000  0.45792000  1.0
  C  C79  1  0.19068000  0.03401000  0.54208000  1.0
  C  C80  1  0.21561000  0.54328000  0.48092000  1.0
  C  C81  1  0.71561000  0.95672000  0.51908000  1.0
  C  C82  1  0.78439000  0.45672000  0.51907000  1.0
  C  C83  1  0.28438000  0.04329000  0.48092000  1.0
  S  S84  1  0.92518000  0.51307000  0.88753000  1.0
  S  S85  1  0.42519000  0.98692000  0.11247000  1.0
  S  S86  1  0.07482000  0.48692000  0.11247000  1.0
  S  S87  1  0.57482000  0.01308000  0.88753000  1.0
  S  S88  1  0.38048000  0.35579000  0.63994000  1.0
  S  S89  1  0.88048000  0.14422000  0.36006000  1.0
  S  S90  1  0.61952000  0.64421000  0.36006000  1.0
  S  S91  1  0.11952000  0.85578000  0.63994000  1.0
  N  N92  1  0.83576000  0.61979000  0.83649000  1.0
  N  N93  1  0.33576000  0.88021000  0.16351000  1.0
  N  N94  1  0.16424000  0.38021000  0.16351000  1.0
  N  N95  1  0.66424000  0.11979000  0.83649000  1.0
  N  N96  1  0.47674000  0.50097000  0.66280000  1.0
  N  N97  1  0.97673000  0.99903000  0.33720000  1.0
  N  N98  1  0.52325000  0.49903000  0.33720000  1.0
  N  N99  1  0.02326000  0.00097000  0.66280000  1.0
  O  O100  1  0.90071000  0.50823000  0.68705000  1.0
  O  O101  1  0.40071000  0.99177000  0.31295000  1.0
  O  O102  1  0.09929000  0.49177000  0.31295000  1.0
  O  O103  1  0.59928000  0.00823000  0.68705000  1.0
  O  O104  1  0.43656000  0.67244000  0.79038000  1.0
  O  O105  1  0.93656000  0.82755000  0.20962000  1.0
  O  O106  1  0.56344000  0.32756000  0.20962000  1.0
  O  O107  1  0.06344000  0.17245000  0.79038000  1.0
  O  O108  1  0.81345000  0.42350000  0.92363000  1.0
  O  O109  1  0.31345000  0.07651000  0.07637000  1.0
  O  O110  1  0.18656000  0.57650000  0.07637000  1.0
  O  O111  1  0.68656000  0.92350000  0.92363000  1.0
  O  O112  1  0.06250000  0.43663000  0.85925000  1.0
  O  O113  1  0.56250000  0.06337000  0.14075000  1.0
  O  O114  1  0.93751000  0.56336000  0.14075000  1.0
  O  O115  1  0.43751000  0.93663000  0.85925000  1.0
  O  O116  1  0.00238000  0.63394000  0.94101000  1.0
  O  O117  1  0.50239000  0.86607000  0.05899000  1.0
  O  O118  1  0.99763000  0.36606000  0.05899000  1.0
  O  O119  1  0.49762000  0.13394000  0.94101000  1.0
  O  O120  1  0.83525000  0.82043000  0.77055000  1.0
  O  O121  1  0.33525000  0.67957000  0.22945000  1.0
  O  O122  1  0.16475000  0.17957000  0.22945000  1.0
  O  O123  1  0.66475000  0.32043000  0.77055000  1.0
  O  O124  1  0.47981000  0.24563000  0.60593000  1.0
  O  O125  1  0.97980000  0.25437000  0.39408000  1.0
  O  O126  1  0.52019000  0.75437000  0.39408000  1.0
  O  O127  1  0.02019000  0.74563000  0.60592000  1.0
  O  O128  1  0.27847000  0.29913000  0.69059000  1.0
  O  O129  1  0.77846000  0.20088000  0.30942000  1.0
  O  O130  1  0.72153000  0.70088000  0.30941000  1.0
  O  O131  1  0.22154000  0.79912000  0.69058000  1.0
  O  O132  1  0.25533000  0.42060000  0.58271000  1.0
  O  O133  1  0.75532000  0.07941000  0.41730000  1.0
  O  O134  1  0.74467000  0.57940000  0.41729000  1.0
  O  O135  1  0.24467000  0.92059000  0.58270000  1.0
  O  O136  1  0.60821000  0.71729000  0.64158000  1.0
  O  O137  1  0.10821000  0.78272000  0.35842000  1.0
  O  O138  1  0.39178000  0.28271000  0.35842000  1.0
  O  O139  1  0.89178000  0.21728000  0.64158000  1.0
