# generated using pymatgen
data_RbH8C13SN2(OF)3
_symmetry_space_group_name_H-M   'P 1'
_cell_length_a   10.38110000
_cell_length_b   13.38980000
_cell_length_c   13.39200000
_cell_angle_alpha   116.01600000
_cell_angle_beta   102.05300000
_cell_angle_gamma   102.04400000
_symmetry_Int_Tables_number   1
_chemical_formula_structural   RbH8C13SN2(OF)3
_chemical_formula_sum   'Rb4 H32 C52 S4 N8 O12 F12'
_cell_volume   1537.56100356
_cell_formula_units_Z   4
loop_
 _symmetry_equiv_pos_site_id
 _symmetry_equiv_pos_as_xyz
  1  'x, y, z'
loop_
 _atom_site_type_symbol
 _atom_site_label
 _atom_site_symmetry_multiplicity
 _atom_site_fract_x
 _atom_site_fract_y
 _atom_site_fract_z
 _atom_site_occupancy
  Rb  Rb0  1  0.52919000  0.86956000  0.01686000  1.0
  Rb  Rb1  1  0.97081000  0.98314000  0.13044000  1.0
  Rb  Rb2  1  0.47081000  0.13044000  0.98314000  1.0
  Rb  Rb3  1  0.02919000  0.01686000  0.86956000  1.0
  H  H4  1  0.84329000  0.45326000  0.98719000  1.0
  H  H5  1  0.65671000  0.01281000  0.54673000  1.0
  H  H6  1  0.15671000  0.54674000  0.01281000  1.0
  H  H7  1  0.34329000  0.98719000  0.45327000  1.0
  H  H8  1  0.87828000  0.56072000  0.87404000  1.0
  H  H9  1  0.62171000  0.12597000  0.43928000  1.0
  H  H10  1  0.12172000  0.43928000  0.12596000  1.0
  H  H11  1  0.37828000  0.87403000  0.56072000  1.0
  H  H12  1  0.76493000  0.71163000  0.89504000  1.0
  H  H13  1  0.73507000  0.10496000  0.28837000  1.0
  H  H14  1  0.23507000  0.28837000  0.10496000  1.0
  H  H15  1  0.26493000  0.89504000  0.71163000  1.0
  H  H16  1  0.74177000  0.42570000  0.12611000  1.0
  H  H17  1  0.75824000  0.87389000  0.57429000  1.0
  H  H18  1  0.25823000  0.57430000  0.87389000  1.0
  H  H19  1  0.24176000  0.12611000  0.42571000  1.0
  H  H20  1  0.47585000  0.61117000  0.35504000  1.0
  H  H21  1  0.02415000  0.64495000  0.38882000  1.0
  H  H22  1  0.52415000  0.38883000  0.64496000  1.0
  H  H23  1  0.97585000  0.35505000  0.61118000  1.0
  H  H24  1  0.36777000  0.76506000  0.36487000  1.0
  H  H25  1  0.13223000  0.63512000  0.23494000  1.0
  H  H26  1  0.63223000  0.23494000  0.63513000  1.0
  H  H27  1  0.86776000  0.36488000  0.76506000  1.0
  H  H28  1  0.39268000  0.84772000  0.23178000  1.0
  H  H29  1  0.10731000  0.76822000  0.15229000  1.0
  H  H30  1  0.60732000  0.15228000  0.76822000  1.0
  H  H31  1  0.89268000  0.23178000  0.84771000  1.0
  H  H32  1  0.61051000  0.48624000  0.26537000  1.0
  H  H33  1  0.88950000  0.73463000  0.51376000  1.0
  H  H34  1  0.38949000  0.51377000  0.73463000  1.0
  H  H35  1  0.11050000  0.26538000  0.48624000  1.0
  C  C36  1  0.42011000  0.25919000  0.32920000  1.0
  C  C37  1  0.07989000  0.67080000  0.74081000  1.0
  C  C38  1  0.57989000  0.74081000  0.67080000  1.0
  C  C39  1  0.92011000  0.32920000  0.25919000  1.0
  C  C40  1  0.65634000  0.63876000  0.07517000  1.0
  C  C41  1  0.84366000  0.92483000  0.36125000  1.0
  C  C42  1  0.34366000  0.36124000  0.92483000  1.0
  C  C43  1  0.15634000  0.07517000  0.63875000  1.0
  C  C44  1  0.71590000  0.54995000  0.06788000  1.0
  C  C45  1  0.78411000  0.93212000  0.45005000  1.0
  C  C46  1  0.28410000  0.45005000  0.93213000  1.0
  C  C47  1  0.21589000  0.06788000  0.54995000  1.0
  C  C48  1  0.79650000  0.52069000  0.99321000  1.0
  C  C49  1  0.70350000  0.00680000  0.47931000  1.0
  C  C50  1  0.20350000  0.47932000  0.00679000  1.0
  C  C51  1  0.29650000  0.99320000  0.52069000  1.0
  C  C52  1  0.81500000  0.57855000  0.93096000  1.0
  C  C53  1  0.68500000  0.06904000  0.42144000  1.0
  C  C54  1  0.18500000  0.42145000  0.06904000  1.0
  C  C55  1  0.31500000  0.93096000  0.57856000  1.0
  C  C56  1  0.75116000  0.66428000  0.94307000  1.0
  C  C57  1  0.74882000  0.05694000  0.33573000  1.0
  C  C58  1  0.24884000  0.33572000  0.05693000  1.0
  C  C59  1  0.25118000  0.94306000  0.66427000  1.0
  C  C60  1  0.69662000  0.49462000  0.13643000  1.0
  C  C61  1  0.80339000  0.86357000  0.50538000  1.0
  C  C62  1  0.30338000  0.50538000  0.86357000  1.0
  C  C63  1  0.19661000  0.13643000  0.49462000  1.0
  C  C64  1  0.57472000  0.67089000  0.15309000  1.0
  C  C65  1  0.92528000  0.84691000  0.32911000  1.0
  C  C66  1  0.42528000  0.32911000  0.84691000  1.0
  C  C67  1  0.07472000  0.15309000  0.67089000  1.0
  C  C68  1  0.56150000  0.61549000  0.22213000  1.0
  C  C69  1  0.93850000  0.77787000  0.38451000  1.0
  C  C70  1  0.43850000  0.38451000  0.77787000  1.0
  C  C71  1  0.06150000  0.22213000  0.61549000  1.0
  C  C72  1  0.48587000  0.65095000  0.30003000  1.0
  C  C73  1  0.01414000  0.69996000  0.34905000  1.0
  C  C74  1  0.51413000  0.34905000  0.69997000  1.0
  C  C75  1  0.98586000  0.30004000  0.65095000  1.0
  C  C76  1  0.42626000  0.73533000  0.30547000  1.0
  C  C77  1  0.07374000  0.69453000  0.26468000  1.0
  C  C78  1  0.57374000  0.26467000  0.69453000  1.0
  C  C79  1  0.92626000  0.30548000  0.73532000  1.0
  C  C80  1  0.44109000  0.78231000  0.23116000  1.0
  C  C81  1  0.05891000  0.76884000  0.21770000  1.0
  C  C82  1  0.55891000  0.21770000  0.76884000  1.0
  C  C83  1  0.94109000  0.23116000  0.78230000  1.0
  C  C84  1  0.62348000  0.52720000  0.21180000  1.0
  C  C85  1  0.87653000  0.78819000  0.47279000  1.0
  C  C86  1  0.37652000  0.47280000  0.78820000  1.0
  C  C87  1  0.12347000  0.21181000  0.52721000  1.0
  S  S88  1  0.34722000  0.10270000  0.20406000  1.0
  S  S89  1  0.15278000  0.79594000  0.89730000  1.0
  S  S90  1  0.65278000  0.89730000  0.79594000  1.0
  S  S91  1  0.84722000  0.20406000  0.10270000  1.0
  N  N92  1  0.51315000  0.75226000  0.15798000  1.0
  N  N93  1  0.98684000  0.84203000  0.24775000  1.0
  N  N94  1  0.48685000  0.24774000  0.84202000  1.0
  N  N95  1  0.01316000  0.15797000  0.75225000  1.0
  N  N96  1  0.67437000  0.69418000  0.01239000  1.0
  N  N97  1  0.82562000  0.98761000  0.30583000  1.0
  N  N98  1  0.32563000  0.30582000  0.98761000  1.0
  N  N99  1  0.17438000  0.01239000  0.69417000  1.0
  O  O100  1  0.47155000  0.07944000  0.17927000  1.0
  O  O101  1  0.02845000  0.82073000  0.92055000  1.0
  O  O102  1  0.52845000  0.92056000  0.82073000  1.0
  O  O103  1  0.97155000  0.17927000  0.07944000  1.0
  O  O104  1  0.27913000  0.03615000  0.25166000  1.0
  O  O105  1  0.22087000  0.74834000  0.96384000  1.0
  O  O106  1  0.72087000  0.96385000  0.74834000  1.0
  O  O107  1  0.77913000  0.25166000  0.03616000  1.0
  O  O108  1  0.25152000  0.11073000  0.11289000  1.0
  O  O109  1  0.24848000  0.88711000  0.88927000  1.0
  O  O110  1  0.74848000  0.88927000  0.88711000  1.0
  O  O111  1  0.75152000  0.11289000  0.11073000  1.0
  F  F112  1  0.51476000  0.27174000  0.42503000  1.0
  F  F113  1  0.98524000  0.57496000  0.72826000  1.0
  F  F114  1  0.48524000  0.72826000  0.57497000  1.0
  F  F115  1  0.01476000  0.42504000  0.27174000  1.0
  F  F116  1  0.31686000  0.29698000  0.36381000  1.0
  F  F117  1  0.18313000  0.63619000  0.70302000  1.0
  F  F118  1  0.68314000  0.70302000  0.63619000  1.0
  F  F119  1  0.81687000  0.36381000  0.29698000  1.0
  F  F120  1  0.48649000  0.33244000  0.29631000  1.0
  F  F121  1  0.01351000  0.70369000  0.66756000  1.0
  F  F122  1  0.51351000  0.66756000  0.70369000  1.0
  F  F123  1  0.98649000  0.29631000  0.33244000  1.0
