# generated using pymatgen
data_NiP2H22(CO)10
_symmetry_space_group_name_H-M   'P 1'
_cell_length_a   4.87915000
_cell_length_b   6.92831000
_cell_length_c   11.84960000
_cell_angle_alpha   97.56530000
_cell_angle_beta   90.24680000
_cell_angle_gamma   105.26700000
_symmetry_Int_Tables_number   1
_chemical_formula_structural   NiP2H22(CO)10
_chemical_formula_sum   'Ni1 P2 H22 C10 O10'
_cell_volume   382.74871771
_cell_formula_units_Z   1
loop_
 _symmetry_equiv_pos_site_id
 _symmetry_equiv_pos_as_xyz
  1  'x, y, z'
loop_
 _atom_site_type_symbol
 _atom_site_label
 _atom_site_symmetry_multiplicity
 _atom_site_fract_x
 _atom_site_fract_y
 _atom_site_fract_z
 _atom_site_occupancy
  Ni  Ni0  1  0.00001000  0.00000000  0.00000000  1.0
  P  P1  1  0.79151000  0.28498000  0.79968000  1.0
  P  P2  1  0.20849000  0.71502000  0.20031000  1.0
  H  H3  1  0.26333000  0.41870000  0.80349000  1.0
  H  H4  1  0.73668000  0.58130000  0.19651000  1.0
  H  H5  1  0.60864000  0.15138000  0.08681000  1.0
  H  H6  1  0.39137000  0.84861000  0.91319000  1.0
  H  H7  1  0.87972000  0.26686000  0.15952000  1.0
  H  H8  1  0.12029000  0.73313000  0.84048000  1.0
  H  H9  1  0.43086000  0.28830000  0.95589000  1.0
  H  H10  1  0.56916000  0.71171000  0.04411000  1.0
  H  H11  1  0.34327000  0.36693000  0.07896000  1.0
  H  H12  1  0.65675000  0.63307000  0.92104000  1.0
  H  H13  1  0.05719000  0.36733000  0.52303000  1.0
  H  H14  1  0.94279000  0.63266000  0.47697000  1.0
  H  H15  1  0.44344000  0.08054000  0.66586000  1.0
  H  H16  1  0.55655000  0.91945000  0.33414000  1.0
  H  H17  1  0.61034000  0.31295000  0.62000000  1.0
  H  H18  1  0.38964000  0.68705000  0.38000000  1.0
  H  H19  1  0.58987000  0.58500000  0.61118000  1.0
  H  H20  1  0.41014000  0.41502000  0.38882000  1.0
  H  H21  1  0.37507000  0.75645000  0.61981000  1.0
  H  H22  1  0.62491000  0.24355000  0.38019000  1.0
  H  H23  1  0.64305000  0.78683000  0.72580000  1.0
  H  H24  1  0.35695000  0.21319000  0.27421000  1.0
  C  C25  1  0.03091000  0.20440000  0.51212000  1.0
  C  C26  1  0.96907000  0.79561000  0.48788000  1.0
  C  C27  1  0.80205000  0.87719000  0.56620000  1.0
  C  C28  1  0.19794000  0.12282000  0.43380000  1.0
  C  C29  1  0.65215000  0.18474000  0.65579000  1.0
  C  C30  1  0.34783000  0.81526000  0.34421000  1.0
  C  C31  1  0.83340000  0.08686000  0.57796000  1.0
  C  C32  1  0.16657000  0.91315000  0.42204000  1.0
  C  C33  1  0.59244000  0.74389000  0.63407000  1.0
  C  C34  1  0.40755000  0.25611000  0.36593000  1.0
  O  O35  1  0.58093000  0.40254000  0.85089000  1.0
  O  O36  1  0.41908000  0.59746000  0.14911000  1.0
  O  O37  1  0.84085000  0.12358000  0.86376000  1.0
  O  O38  1  0.15917000  0.87642000  0.13624000  1.0
  O  O39  1  0.08220000  0.45670000  0.78781000  1.0
  O  O40  1  0.91781000  0.54329000  0.21219000  1.0
  O  O41  1  0.78253000  0.12978000  0.12242000  1.0
  O  O42  1  0.21748000  0.87021000  0.87758000  1.0
  O  O43  1  0.35362000  0.23981000  0.02906000  1.0
  O  O44  1  0.64639000  0.76018000  0.97094000  1.0
