# generated using pymatgen
data_KH6C8O3
_symmetry_space_group_name_H-M   'P 1'
_cell_length_a   6.52258000
_cell_length_b   6.96342000
_cell_length_c   16.45310000
_cell_angle_alpha   89.99990000
_cell_angle_beta   84.17860000
_cell_angle_gamma   89.99980000
_symmetry_Int_Tables_number   1
_chemical_formula_structural   KH6C8O3
_chemical_formula_sum   'K4 H24 C32 O12'
_cell_volume   743.43712535
_cell_formula_units_Z   4
loop_
 _symmetry_equiv_pos_site_id
 _symmetry_equiv_pos_as_xyz
  1  'x, y, z'
loop_
 _atom_site_type_symbol
 _atom_site_label
 _atom_site_symmetry_multiplicity
 _atom_site_fract_x
 _atom_site_fract_y
 _atom_site_fract_z
 _atom_site_occupancy
  K  K0  1  0.22006000  0.48099000  0.56954000  1.0
  K  K1  1  0.27994000  0.98099000  0.43046000  1.0
  K  K2  1  0.77994000  0.51901000  0.43046000  1.0
  K  K3  1  0.72005000  0.01901000  0.56954000  1.0
  H  H4  1  0.69497000  0.51943000  0.75631000  1.0
  H  H5  1  0.80504000  0.01943000  0.24369000  1.0
  H  H6  1  0.30504000  0.48057000  0.24369000  1.0
  H  H7  1  0.19496000  0.98057000  0.75631000  1.0
  H  H8  1  0.57442000  0.72875000  0.72033000  1.0
  H  H9  1  0.92558000  0.22875000  0.27967000  1.0
  H  H10  1  0.42558000  0.27125000  0.27967000  1.0
  H  H11  1  0.07442000  0.77125000  0.72033000  1.0
  H  H12  1  0.52392000  0.64954000  0.86370000  1.0
  H  H13  1  0.97607000  0.14954000  0.13630000  1.0
  H  H14  1  0.47608000  0.35046000  0.13630000  1.0
  H  H15  1  0.02392000  0.85046000  0.86370000  1.0
  H  H16  1  0.32708000  0.64903000  0.99654000  1.0
  H  H17  1  0.17291000  0.14903000  0.00346000  1.0
  H  H18  1  0.67292000  0.35096000  0.00346000  1.0
  H  H19  1  0.82709000  0.85097000  0.99654000  1.0
  H  H20  1  0.83089000  0.34789000  0.89642000  1.0
  H  H21  1  0.66911000  0.84790000  0.10358000  1.0
  H  H22  1  0.16911000  0.65210000  0.10358000  1.0
  H  H23  1  0.33089000  0.15211000  0.89642000  1.0
  H  H24  1  0.03353000  0.34256000  0.76272000  1.0
  H  H25  1  0.46648000  0.84257000  0.23728000  1.0
  H  H26  1  0.96647000  0.65744000  0.23728000  1.0
  H  H27  1  0.53353000  0.15744000  0.76272000  1.0
  C  C28  1  0.69005000  0.52888000  0.62592000  1.0
  C  C29  1  0.80995000  0.02888000  0.37408000  1.0
  C  C30  1  0.30995000  0.47112000  0.37408000  1.0
  C  C31  1  0.19005000  0.97113000  0.62592000  1.0
  C  C32  1  0.59115000  0.57269000  0.71235000  1.0
  C  C33  1  0.90885000  0.07270000  0.28765000  1.0
  C  C34  1  0.40885000  0.42731000  0.28765000  1.0
  C  C35  1  0.09115000  0.92730000  0.71235000  1.0
  C  C36  1  0.29198000  0.49556000  0.80333000  1.0
  C  C37  1  0.20802000  0.99557000  0.19666000  1.0
  C  C38  1  0.70802000  0.50443000  0.19667000  1.0
  C  C39  1  0.79198000  0.00444000  0.80333000  1.0
  C  C40  1  0.37260000  0.58217000  0.86994000  1.0
  C  C41  1  0.12740000  0.08217000  0.13007000  1.0
  C  C42  1  0.62740000  0.41783000  0.13006000  1.0
  C  C43  1  0.87260000  0.91783000  0.86993000  1.0
  C  C44  1  0.25790000  0.58138000  0.94633000  1.0
  C  C45  1  0.24210000  0.08138000  0.05366000  1.0
  C  C46  1  0.74210000  0.41862000  0.05367000  1.0
  C  C47  1  0.75790000  0.91862000  0.94633000  1.0
  C  C48  1  0.06032000  0.49910000  0.95932000  1.0
  C  C49  1  0.43968000  0.99910000  0.04069000  1.0
  C  C50  1  0.93968000  0.50089000  0.04068000  1.0
  C  C51  1  0.56032000  0.00089000  0.95931000  1.0
  C  C52  1  0.98258000  0.41475000  0.89074000  1.0
  C  C53  1  0.51742000  0.91475000  0.10926000  1.0
  C  C54  1  0.01741000  0.58525000  0.10926000  1.0
  C  C55  1  0.48258000  0.08525000  0.89074000  1.0
  C  C56  1  0.09540000  0.41210000  0.81442000  1.0
  C  C57  1  0.40460000  0.91210000  0.18558000  1.0
  C  C58  1  0.90460000  0.58790000  0.18558000  1.0
  C  C59  1  0.59540000  0.08790000  0.81442000  1.0
  O  O60  1  0.84144000  0.63576000  0.60100000  1.0
  O  O61  1  0.65856000  0.13576000  0.39900000  1.0
  O  O62  1  0.15856000  0.36424000  0.39900000  1.0
  O  O63  1  0.34144000  0.86424000  0.60100000  1.0
  O  O64  1  0.61934000  0.39204000  0.58635000  1.0
  O  O65  1  0.88066000  0.89204000  0.41365000  1.0
  O  O66  1  0.38066000  0.60796000  0.41365000  1.0
  O  O67  1  0.11934000  0.10796000  0.58635000  1.0
  O  O68  1  0.39342000  0.48167000  0.72636000  1.0
  O  O69  1  0.10658000  0.98167000  0.27364000  1.0
  O  O70  1  0.60658000  0.51833000  0.27364000  1.0
  O  O71  1  0.89342000  0.01833000  0.72636000  1.0
