# generated using pymatgen
data_Cu3H30C30(N14O)2
_symmetry_space_group_name_H-M   'P 1'
_cell_length_a   13.25910000
_cell_length_b   15.10550000
_cell_length_c   15.54350000
_cell_angle_alpha   89.99180000
_cell_angle_beta   86.93760000
_cell_angle_gamma   89.99430000
_symmetry_Int_Tables_number   1
_chemical_formula_structural   Cu3H30C30(N14O)2
_chemical_formula_sum   'Cu6 H60 C60 N56 O4'
_cell_volume   3108.68932971
_cell_formula_units_Z   2
loop_
 _symmetry_equiv_pos_site_id
 _symmetry_equiv_pos_as_xyz
  1  'x, y, z'
loop_
 _atom_site_type_symbol
 _atom_site_label
 _atom_site_symmetry_multiplicity
 _atom_site_fract_x
 _atom_site_fract_y
 _atom_site_fract_z
 _atom_site_occupancy
  Cu  Cu0  1  0.99999000  0.00000000  0.00000000  1.0
  Cu  Cu1  1  0.50004000  0.50000000  0.49998000  1.0
  Cu  Cu2  1  0.95110000  0.81143000  0.89792000  1.0
  Cu  Cu3  1  0.55007000  0.31353000  0.60291000  1.0
  Cu  Cu4  1  0.04891000  0.18857000  0.10208000  1.0
  Cu  Cu5  1  0.44995000  0.68648000  0.39710000  1.0
  H  H6  1  0.54349000  0.61081000  0.23599000  1.0
  H  H7  1  0.95421000  0.11227000  0.26132000  1.0
  H  H8  1  0.45650000  0.38920000  0.76401000  1.0
  H  H9  1  0.04580000  0.88773000  0.73867000  1.0
  H  H10  1  0.66970000  0.66106000  0.11934000  1.0
  H  H11  1  0.82853000  0.16215000  0.37871000  1.0
  H  H12  1  0.33028000  0.33896000  0.88065000  1.0
  H  H13  1  0.17148000  0.83784000  0.62128000  1.0
  H  H14  1  0.70232000  0.90293000  0.26252000  1.0
  H  H15  1  0.79610000  0.40506000  0.23701000  1.0
  H  H16  1  0.29767000  0.09708000  0.73746000  1.0
  H  H17  1  0.20390000  0.59493000  0.76298000  1.0
  H  H18  1  0.57536000  0.84199000  0.37450000  1.0
  H  H19  1  0.92264000  0.34447000  0.12444000  1.0
  H  H20  1  0.42465000  0.15802000  0.62550000  1.0
  H  H21  1  0.07735000  0.65552000  0.87554000  1.0
  H  H22  1  0.31704000  0.66861000  0.25373000  1.0
  H  H23  1  0.18166000  0.16913000  0.24565000  1.0
  H  H24  1  0.68295000  0.33139000  0.74630000  1.0
  H  H25  1  0.81833000  0.83087000  0.75437000  1.0
  H  H26  1  0.20501000  0.76669000  0.17060000  1.0
  H  H27  1  0.29447000  0.26638000  0.32892000  1.0
  H  H28  1  0.79497000  0.23330000  0.82942000  1.0
  H  H29  1  0.70553000  0.73363000  0.67110000  1.0
  H  H30  1  0.25807000  0.97443000  0.35358000  1.0
  H  H31  1  0.24142000  0.47535000  0.14719000  1.0
  H  H32  1  0.74193000  0.02558000  0.64642000  1.0
  H  H33  1  0.75857000  0.52466000  0.85282000  1.0
  H  H34  1  0.37056000  0.86849000  0.42885000  1.0
  H  H35  1  0.12858000  0.37005000  0.07148000  1.0
  H  H36  1  0.62945000  0.13152000  0.57115000  1.0
  H  H37  1  0.87142000  0.62996000  0.92854000  1.0
  H  H38  1  0.03107000  0.75251000  0.08529000  1.0
  H  H39  1  0.46863000  0.25059000  0.41775000  1.0
  H  H40  1  0.96892000  0.24748000  0.91471000  1.0
  H  H41  1  0.53137000  0.74937000  0.58228000  1.0
  H  H42  1  0.01326000  0.66519000  0.28081000  1.0
  H  H43  1  0.48577000  0.16546000  0.22107000  1.0
  H  H44  1  0.98672000  0.33479000  0.71918000  1.0
  H  H45  1  0.51421000  0.83452000  0.77895000  1.0
  H  H46  1  0.88783000  0.69719000  0.25905000  1.0
  H  H47  1  0.61110000  0.19753000  0.24312000  1.0
  H  H48  1  0.11214000  0.30278000  0.74095000  1.0
  H  H49  1  0.38888000  0.80246000  0.75690000  1.0
  H  H50  1  0.99234000  0.76345000  0.21970000  1.0
  H  H51  1  0.50639000  0.26301000  0.28329000  1.0
  H  H52  1  0.00763000  0.23653000  0.78030000  1.0
  H  H53  1  0.49358000  0.73697000  0.71673000  1.0
  H  H54  1  0.97980000  0.51578000  0.20211000  1.0
  H  H55  1  0.51901000  0.01522000  0.29793000  1.0
  H  H56  1  0.02018000  0.48421000  0.79787000  1.0
  H  H57  1  0.48098000  0.98476000  0.70208000  1.0
  H  H58  1  0.94909000  0.52491000  0.09133000  1.0
  H  H59  1  0.54996000  0.02272000  0.40874000  1.0
  H  H60  1  0.05090000  0.47508000  0.90865000  1.0
  H  H61  1  0.45003000  0.97725000  0.59127000  1.0
  H  H62  1  0.85713000  0.55246000  0.17635000  1.0
  H  H63  1  0.64183000  0.05116000  0.32396000  1.0
  H  H64  1  0.14285000  0.44752000  0.82362000  1.0
  H  H65  1  0.35816000  0.94881000  0.67605000  1.0
  C  C66  1  0.58030000  0.67520000  0.23842000  1.0
  C  C67  1  0.91747000  0.17674000  0.25943000  1.0
  C  C68  1  0.41969000  0.32481000  0.76158000  1.0
  C  C69  1  0.08254000  0.82326000  0.74056000  1.0
  C  C70  1  0.65011000  0.70315000  0.17459000  1.0
  C  C71  1  0.84800000  0.20449000  0.32361000  1.0
  C  C72  1  0.34987000  0.29686000  0.82540000  1.0
  C  C73  1  0.15201000  0.79550000  0.67638000  1.0
  C  C74  1  0.69445000  0.78708000  0.18138000  1.0
  C  C75  1  0.80391000  0.28861000  0.31742000  1.0
  C  C76  1  0.30553000  0.21293000  0.81860000  1.0
  C  C77  1  0.19609000  0.71138000  0.68258000  1.0
  C  C78  1  0.66794000  0.83821000  0.25453000  1.0
  C  C79  1  0.83027000  0.34016000  0.24450000  1.0
  C  C80  1  0.33206000  0.16180000  0.74545000  1.0
  C  C81  1  0.16973000  0.65983000  0.75549000  1.0
  C  C82  1  0.59776000  0.80571000  0.31578000  1.0
  C  C83  1  0.90019000  0.30787000  0.18292000  1.0
  C  C84  1  0.40224000  0.19430000  0.68421000  1.0
  C  C85  1  0.09981000  0.69212000  0.81707000  1.0
  C  C86  1  0.76541000  0.82103000  0.11514000  1.0
  C  C87  1  0.73335000  0.32234000  0.38410000  1.0
  C  C88  1  0.23458000  0.17898000  0.88485000  1.0
  C  C89  1  0.26667000  0.67765000  0.61590000  1.0
  C  C90  1  0.30207000  0.73695000  0.27343000  1.0
  C  C91  1  0.19675000  0.23757000  0.22631000  1.0
  C  C92  1  0.69792000  0.26305000  0.72659000  1.0
  C  C93  1  0.80324000  0.76244000  0.77371000  1.0
  C  C94  1  0.23922000  0.79104000  0.22819000  1.0
  C  C95  1  0.25995000  0.29124000  0.27166000  1.0
  C  C96  1  0.76077000  0.20896000  0.77182000  1.0
  C  C97  1  0.74004000  0.70877000  0.72836000  1.0
  C  C98  1  0.22206000  0.87837000  0.25613000  1.0
  C  C99  1  0.27729000  0.37867000  0.24415000  1.0
  C  C100  1  0.77794000  0.12164000  0.74388000  1.0
  C  C101  1  0.72271000  0.62134000  0.75587000  1.0
  C  C102  1  0.26932000  0.90712000  0.32982000  1.0
  C  C103  1  0.23001000  0.40795000  0.17064000  1.0
  C  C104  1  0.73069000  0.09289000  0.67018000  1.0
  C  C105  1  0.76999000  0.59206000  0.82938000  1.0
  C  C106  1  0.33136000  0.84904000  0.37182000  1.0
  C  C107  1  0.16771000  0.35029000  0.12847000  1.0
  C  C108  1  0.66865000  0.15097000  0.62819000  1.0
  C  C109  1  0.83229000  0.64972000  0.87154000  1.0
  C  C110  1  0.15918000  0.93706000  0.20774000  1.0
  C  C111  1  0.34041000  0.43703000  0.29269000  1.0
  C  C112  1  0.84082000  0.06294000  0.79226000  1.0
  C  C113  1  0.65960000  0.56298000  0.70732000  1.0
  C  C114  1  0.00730000  0.68267000  0.07762000  1.0
  C  C115  1  0.49233000  0.18061000  0.42449000  1.0
  C  C116  1  0.99269000  0.31733000  0.92238000  1.0
  C  C117  1  0.50767000  0.81936000  0.57553000  1.0
  C  C118  1  0.96640000  0.69551000  0.23240000  1.0
  C  C119  1  0.53257000  0.19527000  0.26980000  1.0
  C  C120  1  0.03358000  0.30447000  0.76759000  1.0
  C  C121  1  0.46741000  0.80471000  0.73022000  1.0
  C  C122  1  0.93786000  0.55427000  0.15561000  1.0
  C  C123  1  0.56115000  0.05295000  0.34483000  1.0
  C  C124  1  0.06212000  0.44572000  0.84436000  1.0
  C  C125  1  0.43884000  0.94702000  0.65517000  1.0
  N  N126  1  0.55365000  0.72600000  0.30709000  1.0
  N  N127  1  0.94410000  0.22799000  0.19105000  1.0
  N  N128  1  0.44635000  0.27401000  0.69290000  1.0
  N  N129  1  0.05590000  0.77201000  0.80894000  1.0
  N  N130  1  0.79766000  0.77593000  0.04389000  1.0
  N  N131  1  0.70226000  0.27733000  0.45575000  1.0
  N  N132  1  0.20234000  0.22407000  0.95610000  1.0
  N  N133  1  0.29775000  0.72266000  0.54424000  1.0
  N  N134  1  0.86031000  0.83225000  0.00301000  1.0
  N  N135  1  0.63955000  0.33346000  0.49686000  1.0
  N  N136  1  0.13969000  0.16775000  0.99698000  1.0
  N  N137  1  0.36048000  0.66654000  0.50315000  1.0
  N  N138  1  0.86579000  0.90839000  0.04663000  1.0
  N  N139  1  0.63299000  0.40921000  0.45306000  1.0
  N  N140  1  0.13420000  0.09162000  0.95336000  1.0
  N  N141  1  0.36708000  0.59080000  0.54696000  1.0
  N  N142  1  0.80697000  0.90297000  0.11768000  1.0
  N  N143  1  0.69104000  0.40398000  0.38153000  1.0
  N  N144  1  0.19300000  0.09704000  0.88230000  1.0
  N  N145  1  0.30901000  0.59603000  0.61848000  1.0
  N  N146  1  0.34757000  0.76556000  0.34379000  1.0
  N  N147  1  0.15118000  0.26674000  0.15620000  1.0
  N  N148  1  0.65242000  0.23445000  0.65623000  1.0
  N  N149  1  0.84882000  0.73327000  0.84381000  1.0
  N  N150  1  0.10913000  0.91069000  0.13885000  1.0
  N  N151  1  0.39030000  0.41048000  0.36163000  1.0
  N  N152  1  0.89085000  0.08930000  0.86116000  1.0
  N  N153  1  0.60976000  0.58953000  0.63836000  1.0
  N  N154  1  0.06664000  0.98412000  0.11166000  1.0
  N  N155  1  0.43305000  0.48378000  0.38876000  1.0
  N  N156  1  0.93334000  0.01587000  0.88835000  1.0
  N  N157  1  0.56701000  0.51622000  0.61122000  1.0
  N  N158  1  0.08889000  0.05284000  0.16145000  1.0
  N  N159  1  0.41109000  0.55253000  0.33892000  1.0
  N  N160  1  0.91113000  0.94716000  0.83854000  1.0
  N  N161  1  0.58892000  0.44748000  0.66108000  1.0
  N  N162  1  0.14705000  0.02474000  0.22288000  1.0
  N  N163  1  0.35286000  0.52467000  0.27751000  1.0
  N  N164  1  0.85298000  0.97527000  0.77710000  1.0
  N  N165  1  0.64713000  0.47535000  0.72251000  1.0
  N  N166  1  0.05833000  0.88228000  0.95483000  1.0
  N  N167  1  0.44100000  0.38122000  0.54412000  1.0
  N  N168  1  0.94167000  0.11772000  0.04517000  1.0
  N  N169  1  0.55905000  0.61880000  0.45586000  1.0
  N  N170  1  0.14797000  0.86503000  0.94812000  1.0
  N  N171  1  0.35117000  0.36873000  0.55811000  1.0
  N  N172  1  0.85203000  0.13498000  0.05189000  1.0
  N  N173  1  0.64887000  0.63132000  0.44187000  1.0
  N  N174  1  0.23333000  0.84769000  0.94268000  1.0
  N  N175  1  0.26528000  0.35523000  0.56984000  1.0
  N  N176  1  0.76668000  0.15234000  0.05735000  1.0
  N  N177  1  0.73476000  0.64486000  0.43013000  1.0
  N  N178  1  0.97352000  0.64515000  0.15262000  1.0
  N  N179  1  0.52574000  0.14391000  0.34897000  1.0
  N  N180  1  0.02646000  0.35484000  0.84737000  1.0
  N  N181  1  0.47425000  0.85606000  0.65104000  1.0
  O  O182  1  0.01213000  0.64472000  0.00638000  1.0
  O  O183  1  0.48775000  0.14175000  0.49526000  1.0
  O  O184  1  0.98787000  0.35528000  0.99361000  1.0
  O  O185  1  0.51226000  0.85821000  0.50476000  1.0
