# generated using pymatgen
data_TbAg3H18(C7O8)3
_symmetry_space_group_name_H-M   'P 1'
_cell_length_a   8.82578000
_cell_length_b   10.58780000
_cell_length_c   16.57670000
_cell_angle_alpha   100.36700000
_cell_angle_beta   103.61500000
_cell_angle_gamma   96.91120000
_symmetry_Int_Tables_number   1
_chemical_formula_structural   TbAg3H18(C7O8)3
_chemical_formula_sum   'Tb2 Ag6 H36 C42 O48'
_cell_volume   1459.31414538
_cell_formula_units_Z   2
loop_
 _symmetry_equiv_pos_site_id
 _symmetry_equiv_pos_as_xyz
  1  'x, y, z'
loop_
 _atom_site_type_symbol
 _atom_site_label
 _atom_site_symmetry_multiplicity
 _atom_site_fract_x
 _atom_site_fract_y
 _atom_site_fract_z
 _atom_site_occupancy
  Tb  Tb0  1  0.33522000  0.81405000  0.57989000  1.0
  Tb  Tb1  1  0.66478000  0.18595000  0.42011000  1.0
  Ag  Ag2  1  0.39767000  0.08660000  0.95521000  1.0
  Ag  Ag3  1  0.60233000  0.91340000  0.04479000  1.0
  Ag  Ag4  1  0.60647000  0.29824000  0.06957000  1.0
  Ag  Ag5  1  0.39353000  0.70177000  0.93042000  1.0
  Ag  Ag6  1  0.38883000  0.40139000  0.94072000  1.0
  Ag  Ag7  1  0.61118000  0.59861000  0.05928000  1.0
  H  H8  1  0.03144000  0.25777000  0.94528000  1.0
  H  H9  1  0.96857000  0.74222000  0.05472000  1.0
  H  H10  1  0.06070000  0.05333000  0.69781000  1.0
  H  H11  1  0.93930000  0.94667000  0.30219000  1.0
  H  H12  1  0.94765000  0.62581000  0.31947000  1.0
  H  H13  1  0.05236000  0.37418000  0.68053000  1.0
  H  H14  1  0.96471000  0.42015000  0.06942000  1.0
  H  H15  1  0.03529000  0.57985000  0.93058000  1.0
  H  H16  1  0.10992000  0.72070000  0.69937000  1.0
  H  H17  1  0.89007000  0.27931000  0.30063000  1.0
  H  H18  1  0.03483000  0.91727000  0.93719000  1.0
  H  H19  1  0.96517000  0.08274000  0.06281000  1.0
  H  H20  1  0.41759000  0.59007000  0.46438000  1.0
  H  H21  1  0.58241000  0.40993000  0.53562000  1.0
  H  H22  1  0.53963000  0.62137000  0.55584000  1.0
  H  H23  1  0.46036000  0.37863000  0.44416000  1.0
  H  H24  1  0.30301000  0.04962000  0.50266000  1.0
  H  H25  1  0.69699000  0.95038000  0.49734000  1.0
  H  H26  1  0.46556000  0.08714000  0.57812000  1.0
  H  H27  1  0.53444000  0.91286000  0.42188000  1.0
  H  H28  1  0.35827000  0.61256000  0.67909000  1.0
  H  H29  1  0.64173000  0.38744000  0.32091000  1.0
  H  H30  1  0.47714000  0.72164000  0.75294000  1.0
  H  H31  1  0.52285000  0.27836000  0.24706000  1.0
  H  H32  1  0.02260000  0.81490000  0.48735000  1.0
  H  H33  1  0.97739000  0.18510000  0.51264000  1.0
  H  H34  1  0.97881000  0.88269000  0.57028000  1.0
  H  H35  1  0.02118000  0.11731000  0.42971000  1.0
  H  H36  1  0.31154000  0.92742000  0.76039000  1.0
  H  H37  1  0.68846000  0.07258000  0.23961000  1.0
  H  H38  1  0.39821000  0.03975000  0.72898000  1.0
  H  H39  1  0.60178000  0.96025000  0.27102000  1.0
  H  H40  1  0.06768000  0.60006000  0.57080000  1.0
  H  H41  1  0.93232000  0.39994000  0.42920000  1.0
  H  H42  1  0.16431000  0.53875000  0.50739000  1.0
  H  H43  1  0.83569000  0.46125000  0.49261000  1.0
  C  C44  1  0.82574000  0.13485000  0.86187000  1.0
  C  C45  1  0.17426000  0.86514000  0.13813000  1.0
  C  C46  1  0.98089000  0.19091000  0.88399000  1.0
  C  C47  1  0.01911000  0.80909000  0.11601000  1.0
  C  C48  1  0.07812000  0.16247000  0.82611000  1.0
  C  C49  1  0.92187000  0.83753000  0.17389000  1.0
  C  C50  1  0.99589000  0.07655000  0.74531000  1.0
  C  C51  1  0.00411000  0.92345000  0.25469000  1.0
  C  C52  1  0.84044000  0.02508000  0.72886000  1.0
  C  C53  1  0.15956000  0.97492000  0.27114000  1.0
  C  C54  1  0.71230000  0.15729000  0.91606000  1.0
  C  C55  1  0.28770000  0.84271000  0.08395000  1.0
  C  C56  1  0.74166000  0.93788000  0.64611000  1.0
  C  C57  1  0.25834000  0.06212000  0.35389000  1.0
  C  C58  1  0.16380000  0.65281000  0.28512000  1.0
  C  C59  1  0.83621000  0.34718000  0.71488000  1.0
  C  C60  1  0.00856000  0.60131000  0.27035000  1.0
  C  C61  1  0.99144000  0.39869000  0.72965000  1.0
  C  C62  1  0.92398000  0.51513000  0.19039000  1.0
  C  C63  1  0.07601000  0.48487000  0.80961000  1.0
  C  C64  1  0.01806000  0.48609000  0.13085000  1.0
  C  C65  1  0.98194000  0.51391000  0.86915000  1.0
  C  C66  1  0.17377000  0.54082000  0.15145000  1.0
  C  C67  1  0.82623000  0.45918000  0.84855000  1.0
  C  C68  1  0.26467000  0.74730000  0.36509000  1.0
  C  C69  1  0.73533000  0.25269000  0.63491000  1.0
  C  C70  1  0.28578000  0.51931000  0.09567000  1.0
  C  C71  1  0.71422000  0.48069000  0.90433000  1.0
  C  C72  1  0.87898000  0.68996000  0.71621000  1.0
  C  C73  1  0.12102000  0.31005000  0.28380000  1.0
  C  C74  1  0.03430000  0.74515000  0.74075000  1.0
  C  C75  1  0.96570000  0.25486000  0.25926000  1.0
  C  C76  1  0.10162000  0.83330000  0.82191000  1.0
  C  C77  1  0.89838000  0.16671000  0.17809000  1.0
  C  C78  1  0.99411000  0.85366000  0.87433000  1.0
  C  C79  1  0.00589000  0.14634000  0.12566000  1.0
  C  C80  1  0.83971000  0.79530000  0.84462000  1.0
  C  C81  1  0.16028000  0.20471000  0.15538000  1.0
  C  C82  1  0.71757000  0.81037000  0.89387000  1.0
  C  C83  1  0.28243000  0.18963000  0.10613000  1.0
  C  C84  1  0.79962000  0.59494000  0.63260000  1.0
  C  C85  1  0.20038000  0.40506000  0.36741000  1.0
  O  O86  1  0.57438000  0.09106000  0.88515000  1.0
  O  O87  1  0.42562000  0.90894000  0.11485000  1.0
  O  O88  1  0.76783000  0.23907000  0.98594000  1.0
  O  O89  1  0.23217000  0.76093000  0.01406000  1.0
  O  O90  1  0.75572000  0.05085000  0.78647000  1.0
  O  O91  1  0.24428000  0.94916000  0.21353000  1.0
  O  O92  1  0.22367000  0.20822000  0.84265000  1.0
  O  O93  1  0.77634000  0.79179000  0.15736000  1.0
  O  O94  1  0.60030000  0.89582000  0.64313000  1.0
  O  O95  1  0.39970000  0.10418000  0.35687000  1.0
  O  O96  1  0.80884000  0.91658000  0.58658000  1.0
  O  O97  1  0.19116000  0.08343000  0.41342000  1.0
  O  O98  1  0.39174000  0.80604000  0.35906000  1.0
  O  O99  1  0.60825000  0.19395000  0.64094000  1.0
  O  O100  1  0.20813000  0.75681000  0.42975000  1.0
  O  O101  1  0.79187000  0.24318000  0.57025000  1.0
  O  O102  1  0.24580000  0.62475000  0.22652000  1.0
  O  O103  1  0.75419000  0.37525000  0.77348000  1.0
  O  O104  1  0.77844000  0.46921000  0.17596000  1.0
  O  O105  1  0.22156000  0.53079000  0.82404000  1.0
  O  O106  1  0.42153000  0.58827000  0.12430000  1.0
  O  O107  1  0.57847000  0.41172000  0.87570000  1.0
  O  O108  1  0.22953000  0.43462000  0.02655000  1.0
  O  O109  1  0.77047000  0.56538000  0.97344000  1.0
  O  O110  1  0.88437000  0.57489000  0.58141000  1.0
  O  O111  1  0.11564000  0.42511000  0.41859000  1.0
  O  O112  1  0.65713000  0.54318000  0.62108000  1.0
  O  O113  1  0.34288000  0.45683000  0.37892000  1.0
  O  O114  1  0.78077000  0.71487000  0.76674000  1.0
  O  O115  1  0.21923000  0.28513000  0.23326000  1.0
  O  O116  1  0.24555000  0.88840000  0.84435000  1.0
  O  O117  1  0.75446000  0.11160000  0.15565000  1.0
  O  O118  1  0.57992000  0.74571000  0.85894000  1.0
  O  O119  1  0.42008000  0.25429000  0.14106000  1.0
  O  O120  1  0.76757000  0.88586000  0.96665000  1.0
  O  O121  1  0.23242000  0.11414000  0.03335000  1.0
  O  O122  1  0.46754000  0.66067000  0.51583000  1.0
  O  O123  1  0.53246000  0.33933000  0.48417000  1.0
  O  O124  1  0.36992000  0.01800000  0.54942000  1.0
  O  O125  1  0.63008000  0.98199000  0.45058000  1.0
  O  O126  1  0.39727000  0.70588000  0.69733000  1.0
  O  O127  1  0.60273000  0.29412000  0.30267000  1.0
  O  O128  1  0.06667000  0.85242000  0.54779000  1.0
  O  O129  1  0.93332000  0.14757000  0.45221000  1.0
  O  O130  1  0.32109000  0.95934000  0.70844000  1.0
  O  O131  1  0.67892000  0.04066000  0.29156000  1.0
  O  O132  1  0.17516000  0.60322000  0.56147000  1.0
  O  O133  1  0.82485000  0.39678000  0.43853000  1.0
