# generated using pymatgen
data_Rb2H6C12N18O
_symmetry_space_group_name_H-M   'P 1'
_cell_length_a   4.96867000
_cell_length_b   10.37832278
_cell_length_c   21.07415767
_cell_angle_alpha   82.89204947
_cell_angle_beta   83.23622056
_cell_angle_gamma   76.18794594
_symmetry_Int_Tables_number   1
_chemical_formula_structural   Rb2H6C12N18O
_chemical_formula_sum   'Rb4 H12 C24 N36 O2'
_cell_volume   1042.78681081
_cell_formula_units_Z   2
loop_
 _symmetry_equiv_pos_site_id
 _symmetry_equiv_pos_as_xyz
  1  'x, y, z'
loop_
 _atom_site_type_symbol
 _atom_site_label
 _atom_site_symmetry_multiplicity
 _atom_site_fract_x
 _atom_site_fract_y
 _atom_site_fract_z
 _atom_site_occupancy
  Rb  Rb0  1  0.24742000  0.53196000  0.28619000  1.0
  Rb  Rb1  1  0.06532000  0.96769000  0.21392000  1.0
  Rb  Rb2  1  0.75259000  0.46804000  0.71381000  1.0
  Rb  Rb3  1  0.93467000  0.03231000  0.78609000  1.0
  H  H4  1  0.91937000  0.64768000  0.56163000  1.0
  H  H5  1  0.12881000  0.85252000  0.93839000  1.0
  H  H6  1  0.08062000  0.35232000  0.43837000  1.0
  H  H7  1  0.87119000  0.14748000  0.06161000  1.0
  H  H8  1  0.44270000  0.89906000  0.48720000  1.0
  H  H9  1  0.82839000  0.60099000  0.01290000  1.0
  H  H10  1  0.55730000  0.10094000  0.51280000  1.0
  H  H11  1  0.17161000  0.39901000  0.98710000  1.0
  H  H12  1  0.61251000  0.76515000  0.28567000  1.0
  H  H13  1  0.66317000  0.73486000  0.21437000  1.0
  H  H14  1  0.38748000  0.23486000  0.71433000  1.0
  H  H15  1  0.33683000  0.26514000  0.78563000  1.0
  C  C16  1  0.19906000  0.76208000  0.51665000  1.0
  C  C17  1  0.47763000  0.73819000  0.98341000  1.0
  C  C18  1  0.80093000  0.23792000  0.48335000  1.0
  C  C19  1  0.52238000  0.26180000  0.01660000  1.0
  C  C20  1  0.90190000  0.81103000  0.61289000  1.0
  C  C21  1  0.32583000  0.68933000  0.88709000  1.0
  C  C22  1  0.09809000  0.18897000  0.38711000  1.0
  C  C23  1  0.67417000  0.31067000  0.11291000  1.0
  C  C24  1  0.19034000  0.95052000  0.57257000  1.0
  C  C25  1  0.71319000  0.54990000  0.92742000  1.0
  C  C26  1  0.80966000  0.04948000  0.42743000  1.0
  C  C27  1  0.28682000  0.45010000  0.07258000  1.0
  C  C28  1  0.25388000  0.58714000  0.45367000  1.0
  C  C29  1  0.29442000  0.91296000  0.04644000  1.0
  C  C30  1  0.74611000  0.41286000  0.54633000  1.0
  C  C31  1  0.70560000  0.08703000  0.95356000  1.0
  C  C32  1  0.60996000  0.83994000  0.70333000  1.0
  C  C33  1  0.15323000  0.66054000  0.79662000  1.0
  C  C34  1  0.39004000  0.16006000  0.29667000  1.0
  C  C35  1  0.84677000  0.33947000  0.20338000  1.0
  C  C36  1  0.21778000  0.13696000  0.61701000  1.0
  C  C37  1  0.97144000  0.36368000  0.88289000  1.0
  C  C38  1  0.78222000  0.86304000  0.38299000  1.0
  C  C39  1  0.02857000  0.63632000  0.11711000  1.0
  N  N40  1  0.00227000  0.73188000  0.56282000  1.0
  N  N41  1  0.29698000  0.76836000  0.93723000  1.0
  N  N42  1  0.99771000  0.26812000  0.43719000  1.0
  N  N43  1  0.70302000  0.23164000  0.06277000  1.0
  N  N44  1  0.99885000  0.91966000  0.61781000  1.0
  N  N45  1  0.53628000  0.58079000  0.88213000  1.0
  N  N46  1  0.00114000  0.08034000  0.38219000  1.0
  N  N47  1  0.46371000  0.41922000  0.11787000  1.0
  N  N48  1  0.28999000  0.87369000  0.52239000  1.0
  N  N49  1  0.68577000  0.62663000  0.97766000  1.0
  N  N50  1  0.71000000  0.12631000  0.47761000  1.0
  N  N51  1  0.31424000  0.37337000  0.02234000  1.0
  N  N52  1  0.30835000  0.69624000  0.46702000  1.0
  N  N53  1  0.47142000  0.80401000  0.03305000  1.0
  N  N54  1  0.69164000  0.30375000  0.53298000  1.0
  N  N55  1  0.52858000  0.19599000  0.96695000  1.0
  N  N56  1  0.70578000  0.77219000  0.65377000  1.0
  N  N57  1  0.13180000  0.72823000  0.84621000  1.0
  N  N58  1  0.29422000  0.22781000  0.34623000  1.0
  N  N59  1  0.86820000  0.27178000  0.15379000  1.0
  N  N60  1  0.29816000  0.05791000  0.57110000  1.0
  N  N61  1  0.92680000  0.44255000  0.92888000  1.0
  N  N62  1  0.70185000  0.94208000  0.42890000  1.0
  N  N63  1  0.07320000  0.55745000  0.07112000  1.0
  N  N64  1  0.22870000  0.48851000  0.43497000  1.0
  N  N65  1  0.15188000  0.01150000  0.06515000  1.0
  N  N66  1  0.77128000  0.51149000  0.56504000  1.0
  N  N67  1  0.84811000  0.98850000  0.93485000  1.0
  N  N68  1  0.51239000  0.89273000  0.74986000  1.0
  N  N69  1  0.15499000  0.60777000  0.75007000  1.0
  N  N70  1  0.48762000  0.10727000  0.25014000  1.0
  N  N71  1  0.84501000  0.39225000  0.24992000  1.0
  N  N72  1  0.15999000  0.21520000  0.65525000  1.0
  N  N73  1  0.03043000  0.28548000  0.84463000  1.0
  N  N74  1  0.84002000  0.78480000  0.34475000  1.0
  N  N75  1  0.96958000  0.71452000  0.15537000  1.0
  O  O76  1  0.51434000  0.75015000  0.25000000  1.0
  O  O77  1  0.48567000  0.24985000  0.74999000  1.0
