# generated using pymatgen
data_Zn2H45C47N7O23
_symmetry_space_group_name_H-M   'P 1'
_cell_length_a   9.86698000
_cell_length_b   11.03780000
_cell_length_c   17.66000000
_cell_angle_alpha   88.86770000
_cell_angle_beta   87.79940000
_cell_angle_gamma   84.56310000
_symmetry_Int_Tables_number   1
_chemical_formula_structural   Zn2H45C47N7O23
_chemical_formula_sum   'Zn2 H45 C47 N7 O23'
_cell_volume   1913.02999711
_cell_formula_units_Z   1
loop_
 _symmetry_equiv_pos_site_id
 _symmetry_equiv_pos_as_xyz
  1  'x, y, z'
loop_
 _atom_site_type_symbol
 _atom_site_label
 _atom_site_symmetry_multiplicity
 _atom_site_fract_x
 _atom_site_fract_y
 _atom_site_fract_z
 _atom_site_occupancy
  Zn  Zn0  1  0.64677000  0.49579000  0.49342000  1.0
  Zn  Zn1  1  0.35569000  0.50211000  0.50062000  1.0
  H  H2  1  0.69515000  0.33984000  0.12352000  1.0
  H  H3  1  0.29032000  0.52983000  0.12101000  1.0
  H  H4  1  0.68237000  0.34152000  0.87824000  1.0
  H  H5  1  0.35934000  0.90824000  0.39685000  1.0
  H  H6  1  0.73223000  0.81461000  0.60384000  1.0
  H  H7  1  0.80681000  0.01445000  0.55464000  1.0
  H  H8  1  0.12767000  0.66912000  0.45237000  1.0
  H  H9  1  0.87335000  0.68115000  0.44210000  1.0
  H  H10  1  0.85594000  0.29881000  0.61299000  1.0
  H  H11  1  0.86080000  0.23217000  0.52122000  1.0
  H  H12  1  0.61623000  0.71658000  0.70253000  1.0
  H  H13  1  0.44567000  0.78625000  0.70174000  1.0
  H  H14  1  0.65969000  0.82385000  0.81911000  1.0
  H  H15  1  0.50405000  0.91469000  0.81344000  1.0
  H  H16  1  0.37553000  0.73035000  0.84246000  1.0
  H  H17  1  0.48850000  0.75694000  0.91512000  1.0
  H  H18  1  0.53243000  0.63911000  0.84981000  1.0
  H  H19  1  0.86780000  0.16345000  0.71683000  1.0
  H  H20  1  0.93842000  0.07503000  0.63917000  1.0
  H  H21  1  0.79457000  0.97542000  0.78089000  1.0
  H  H22  1  0.85988000  0.88682000  0.70354000  1.0
  H  H23  1  0.09624000  0.94593000  0.72363000  1.0
  H  H24  1  0.03021000  0.87209000  0.80466000  1.0
  H  H25  1  0.03351000  0.03269000  0.80344000  1.0
  H  H26  1  0.30453000  0.30322000  0.62771000  1.0
  H  H27  1  0.29987000  0.14608000  0.60613000  1.0
  H  H28  1  0.22956000  0.26581000  0.75895000  1.0
  H  H29  1  0.20644000  0.11269000  0.73999000  1.0
  H  H30  1  0.45590000  0.06263000  0.71709000  1.0
  H  H31  1  0.42854000  0.13533000  0.80585000  1.0
  H  H32  1  0.48653000  0.21581000  0.72511000  1.0
  H  H33  1  0.94249000  0.39773000  0.74226000  1.0
  H  H34  1  0.85603000  0.39188000  0.83203000  1.0
  H  H35  1  0.86284000  0.60881000  0.72196000  1.0
  H  H36  1  0.72507000  0.59935000  0.78788000  1.0
  H  H37  1  0.88137000  0.58665000  0.89597000  1.0
  H  H38  1  0.89532000  0.72133000  0.84121000  1.0
  H  H39  1  0.02379000  0.59867000  0.83214000  1.0
  H  H40  1  0.07601000  0.47966000  0.95306000  1.0
  H  H41  1  0.23143000  0.40431000  0.98513000  1.0
  H  H42  1  0.08107000  0.32087000  0.84973000  1.0
  H  H43  1  0.22047000  0.23945000  0.89337000  1.0
  H  H44  1  0.07460000  0.22011000  0.01445000  1.0
  H  H45  1  0.00237000  0.15564000  0.93594000  1.0
  H  H46  1  0.93533000  0.30091000  0.96907000  1.0
  C  C47  1  0.52953000  0.26184000  0.48589000  1.0
  C  C48  1  0.50797000  0.47824000  0.64337000  1.0
  C  C49  1  0.46940000  0.73496000  0.50055000  1.0
  C  C50  1  0.50948000  0.50508000  0.35155000  1.0
  C  C51  1  0.60910000  0.39146000  0.15204000  1.0
  C  C52  1  0.61509000  0.42063000  0.22787000  1.0
  C  C53  1  0.50828000  0.48690000  0.26765000  1.0
  C  C54  1  0.39403000  0.52625000  0.22568000  1.0
  C  C55  1  0.38191000  0.49751000  0.15058000  1.0
  C  C56  1  0.49094000  0.42910000  0.11249000  1.0
  C  C57  1  0.48269000  0.40656000  0.03447000  1.0
  C  C58  1  0.47083000  0.39932000  0.96622000  1.0
  C  C59  1  0.59586000  0.37992000  0.84637000  1.0
  C  C60  1  0.61354000  0.40711000  0.76945000  1.0
  C  C61  1  0.50013000  0.45612000  0.72774000  1.0
  C  C62  1  0.37503000  0.47815000  0.76853000  1.0
  C  C63  1  0.35614000  0.45488000  0.84633000  1.0
  C  C64  1  0.47115000  0.40598000  0.88637000  1.0
  C  C65  1  0.59048000  0.04629000  0.53727000  1.0
  C  C66  1  0.52792000  0.12510000  0.48308000  1.0
  C  C67  1  0.44816000  0.06653000  0.43253000  1.0
  C  C68  1  0.42138000  0.94439000  0.43922000  1.0
  C  C69  1  0.47886000  0.86958000  0.49679000  1.0
  C  C70  1  0.56311000  0.92437000  0.54467000  1.0
  C  C71  1  0.65863000  0.89597000  0.60953000  1.0
  C  C72  1  0.71124000  0.02630000  0.59002000  1.0
  C  C73  1  0.07059000  0.40645000  0.52587000  1.0
  C  C74  1  0.07067000  0.59406000  0.47240000  1.0
  C  C75  1  0.92893000  0.60120000  0.46714000  1.0
  C  C76  1  0.92925000  0.41601000  0.52179000  1.0
  C  C77  1  0.90838000  0.29494000  0.55703000  1.0
  C  C78  1  0.06875000  0.27536000  0.56095000  1.0
  C  C79  1  0.54971000  0.79862000  0.71911000  1.0
  C  C80  1  0.55267000  0.82209000  0.80402000  1.0
  C  C81  1  0.48324000  0.73213000  0.85542000  1.0
  C  C82  1  0.85709000  0.08141000  0.68411000  1.0
  C  C83  1  0.87442000  0.96864000  0.73564000  1.0
  C  C84  1  0.01609000  0.95430000  0.76875000  1.0
  C  C85  1  0.25649000  0.22012000  0.64302000  1.0
  C  C86  1  0.27045000  0.18673000  0.72587000  1.0
  C  C87  1  0.41790000  0.14807000  0.74440000  1.0
  C  C88  1  0.85017000  0.43215000  0.77448000  1.0
  C  C89  1  0.83382000  0.57076000  0.77762000  1.0
  C  C90  1  0.91371000  0.62171000  0.84001000  1.0
  C  C91  1  0.16717000  0.42038000  0.93585000  1.0
  C  C92  1  0.12827000  0.30167000  0.90457000  1.0
  C  C93  1  0.02999000  0.24124000  0.95909000  1.0
  N  N94  1  0.14527000  0.49533000  0.50205000  1.0
  N  N95  1  0.85483000  0.51029000  0.49250000  1.0
  N  N96  1  0.74305000  0.37644000  0.26560000  1.0
  N  N97  1  0.11878000  0.17949000  0.49841000  1.0
  N  N98  1  0.28284000  0.60931000  0.26030000  1.0
  N  N99  1  0.25226000  0.54086000  0.73293000  1.0
  N  N100  1  0.40133000  0.13198000  0.36272000  1.0
  O  O101  1  0.64156000  0.30879000  0.47773000  1.0
  O  O102  1  0.41374000  0.31711000  0.50320000  1.0
  O  O103  1  0.62277000  0.46478000  0.60866000  1.0
  O  O104  1  0.39364000  0.50686000  0.61309000  1.0
  O  O105  1  0.58350000  0.67395000  0.51189000  1.0
  O  O106  1  0.35634000  0.69196000  0.49193000  1.0
  O  O107  1  0.62305000  0.52108000  0.37912000  1.0
  O  O108  1  0.39600000  0.49829000  0.38652000  1.0
  O  O109  1  0.59799000  0.90454000  0.68293000  1.0
  O  O110  1  0.72665000  0.10464000  0.64963000  1.0
  O  O111  1  0.11062000  0.24130000  0.63065000  1.0
  O  O112  1  0.74080000  0.28618000  0.30757000  1.0
  O  O113  1  0.84300000  0.43229000  0.24849000  1.0
  O  O114  1  0.13337000  0.07206000  0.51933000  1.0
  O  O115  1  0.13216000  0.21905000  0.43315000  1.0
  O  O116  1  0.31681000  0.70168000  0.29022000  1.0
  O  O117  1  0.16505000  0.58262000  0.25388000  1.0
  O  O118  1  0.73964000  0.38641000  0.73480000  1.0
  O  O119  1  0.16225000  0.47773000  0.71471000  1.0
  O  O120  1  0.24466000  0.65302000  0.72984000  1.0
  O  O121  1  0.23325000  0.49450000  0.87900000  1.0
  O  O122  1  0.33040000  0.07979000  0.31980000  1.0
  O  O123  1  0.44164000  0.23379000  0.34993000  1.0
