# generated using pymatgen
data_Co2H22C22N2O11
_symmetry_space_group_name_H-M   'P 1'
_cell_length_a   12.96240000
_cell_length_b   14.28730000
_cell_length_c   17.44160000
_cell_angle_alpha   82.81370000
_cell_angle_beta   89.99890000
_cell_angle_gamma   89.99880000
_symmetry_Int_Tables_number   1
_chemical_formula_structural   Co2H22C22N2O11
_chemical_formula_sum   'Co8 H88 C88 N8 O44'
_cell_volume   3204.77021919
_cell_formula_units_Z   4
loop_
 _symmetry_equiv_pos_site_id
 _symmetry_equiv_pos_as_xyz
  1  'x, y, z'
loop_
 _atom_site_type_symbol
 _atom_site_label
 _atom_site_symmetry_multiplicity
 _atom_site_fract_x
 _atom_site_fract_y
 _atom_site_fract_z
 _atom_site_occupancy
  Co  Co0  1  0.93019000  0.00830000  0.77790000  1.0
  Co  Co1  1  0.73616000  0.56713000  0.14521000  1.0
  Co  Co2  1  0.43019000  0.49170000  0.72210000  1.0
  Co  Co3  1  0.23616000  0.93287000  0.35478000  1.0
  Co  Co4  1  0.06981000  0.99169000  0.22210000  1.0
  Co  Co5  1  0.26384000  0.43286000  0.85480000  1.0
  Co  Co6  1  0.56980000  0.50829000  0.27790000  1.0
  Co  Co7  1  0.76384000  0.06713000  0.64522000  1.0
  H  H8  1  0.40321000  0.76147000  0.22769000  1.0
  H  H9  1  0.45816000  0.68445000  0.00077000  1.0
  H  H10  1  0.19829000  0.86126000  0.04396000  1.0
  H  H11  1  0.17896000  0.88908000  0.93355000  1.0
  H  H12  1  0.17905000  0.77157000  0.71985000  1.0
  H  H13  1  0.37707000  0.65239000  0.90367000  1.0
  H  H14  1  0.71045000  0.76733000  0.04439000  1.0
  H  H15  1  0.83532000  0.97358000  0.03607000  1.0
  H  H16  1  0.84857000  0.93336000  0.94328000  1.0
  H  H17  1  0.73095000  0.91343000  0.99570000  1.0
  H  H18  1  0.98338000  0.75459000  0.08689000  1.0
  H  H19  1  0.00846000  0.83568000  0.00130000  1.0
  H  H20  1  0.98502000  0.87925000  0.09133000  1.0
  H  H21  1  0.90199000  0.45612000  0.05597000  1.0
  H  H22  1  0.02260000  0.28835000  0.23639000  1.0
  H  H23  1  0.10777000  0.38700000  0.22721000  1.0
  H  H24  1  0.97597000  0.40170000  0.25540000  1.0
  H  H25  1  0.02203000  0.36102000  0.02470000  1.0
  H  H26  1  0.13671000  0.37661000  0.07811000  1.0
  H  H27  1  0.06499000  0.26988000  0.09802000  1.0
  H  H28  1  0.65144000  0.55939000  0.01884000  1.0
  H  H29  1  0.68967000  0.45540000  0.02607000  1.0
  H  H30  1  0.90321000  0.73856000  0.27230000  1.0
  H  H31  1  0.95817000  0.81555000  0.49922000  1.0
  H  H32  1  0.69830000  0.63875000  0.45604000  1.0
  H  H33  1  0.67896000  0.61095000  0.56646000  1.0
  H  H34  1  0.67906000  0.72845000  0.78016000  1.0
  H  H35  1  0.87708000  0.84762000  0.59634000  1.0
  H  H36  1  0.21047000  0.73267000  0.45560000  1.0
  H  H37  1  0.33534000  0.52642000  0.46391000  1.0
  H  H38  1  0.34858000  0.56663000  0.55671000  1.0
  H  H39  1  0.23097000  0.58657000  0.50429000  1.0
  H  H40  1  0.48338000  0.74542000  0.41310000  1.0
  H  H41  1  0.50848000  0.66434000  0.49869000  1.0
  H  H42  1  0.48505000  0.62077000  0.40865000  1.0
  H  H43  1  0.40199000  0.04388000  0.44402000  1.0
  H  H44  1  0.52262000  0.21166000  0.26360000  1.0
  H  H45  1  0.60779000  0.11300000  0.27279000  1.0
  H  H46  1  0.47599000  0.09831000  0.24459000  1.0
  H  H47  1  0.52201000  0.13897000  0.47530000  1.0
  H  H48  1  0.63671000  0.12339000  0.42190000  1.0
  H  H49  1  0.56497000  0.23012000  0.40199000  1.0
  H  H50  1  0.15145000  0.94062000  0.48116000  1.0
  H  H51  1  0.18967000  0.04460000  0.47393000  1.0
  H  H52  1  0.59679000  0.23855000  0.77232000  1.0
  H  H53  1  0.54183000  0.31555000  0.99924000  1.0
  H  H54  1  0.80171000  0.13873000  0.95604000  1.0
  H  H55  1  0.82104000  0.11091000  0.06645000  1.0
  H  H56  1  0.82096000  0.22843000  0.28015000  1.0
  H  H57  1  0.62293000  0.34761000  0.09633000  1.0
  H  H58  1  0.28954000  0.23267000  0.95561000  1.0
  H  H59  1  0.16468000  0.02642000  0.96393000  1.0
  H  H60  1  0.15143000  0.06665000  0.05673000  1.0
  H  H61  1  0.26905000  0.08657000  0.00431000  1.0
  H  H62  1  0.01661000  0.24541000  0.91311000  1.0
  H  H63  1  0.99154000  0.16432000  0.99871000  1.0
  H  H64  1  0.01498000  0.12075000  0.90867000  1.0
  H  H65  1  0.09800000  0.54387000  0.94403000  1.0
  H  H66  1  0.97741000  0.71164000  0.76360000  1.0
  H  H67  1  0.89223000  0.61299000  0.77278000  1.0
  H  H68  1  0.02404000  0.59829000  0.74460000  1.0
  H  H69  1  0.97796000  0.63897000  0.97529000  1.0
  H  H70  1  0.86328000  0.62339000  0.92188000  1.0
  H  H71  1  0.93501000  0.73012000  0.90197000  1.0
  H  H72  1  0.34856000  0.44060000  0.98116000  1.0
  H  H73  1  0.31032000  0.54459000  0.97394000  1.0
  H  H74  1  0.09679000  0.26143000  0.72771000  1.0
  H  H75  1  0.04183000  0.18444000  0.50078000  1.0
  H  H76  1  0.30169000  0.36126000  0.54396000  1.0
  H  H77  1  0.32103000  0.38905000  0.43354000  1.0
  H  H78  1  0.32093000  0.27155000  0.21984000  1.0
  H  H79  1  0.12291000  0.15238000  0.40366000  1.0
  H  H80  1  0.78954000  0.26733000  0.54438000  1.0
  H  H81  1  0.66468000  0.47359000  0.53605000  1.0
  H  H82  1  0.65143000  0.43335000  0.44326000  1.0
  H  H83  1  0.76905000  0.41342000  0.49567000  1.0
  H  H84  1  0.51664000  0.25459000  0.58691000  1.0
  H  H85  1  0.49153000  0.33567000  0.50131000  1.0
  H  H86  1  0.51498000  0.37925000  0.59134000  1.0
  H  H87  1  0.59802000  0.95611000  0.55598000  1.0
  H  H88  1  0.47737000  0.78834000  0.73639000  1.0
  H  H89  1  0.39220000  0.88701000  0.72720000  1.0
  H  H90  1  0.52399000  0.90169000  0.75541000  1.0
  H  H91  1  0.47800000  0.86104000  0.52470000  1.0
  H  H92  1  0.36330000  0.87662000  0.57809000  1.0
  H  H93  1  0.43503000  0.76988000  0.59800000  1.0
  H  H94  1  0.84856000  0.05939000  0.51885000  1.0
  H  H95  1  0.81033000  0.95541000  0.52606000  1.0
  C  C96  1  0.38215000  0.76594000  0.16696000  1.0
  C  C97  1  0.52331000  0.65282000  0.14958000  1.0
  C  C98  1  0.43868000  0.71659000  0.11661000  1.0
  C  C99  1  0.41069000  0.72170000  0.03875000  1.0
  C  C100  1  0.28449000  0.77136000  0.93074000  1.0
  C  C101  1  0.29800000  0.82060000  0.13892000  1.0
  C  C102  1  0.32235000  0.77203000  0.01076000  1.0
  C  C103  1  0.26751000  0.82156000  0.06205000  1.0
  C  C104  1  0.20937000  0.83615000  0.89999000  1.0
  C  C105  1  0.08759000  0.90378000  0.79649000  1.0
  C  C106  1  0.28000000  0.70362000  0.80889000  1.0
  C  C107  1  0.31900000  0.63204000  0.76095000  1.0
  C  C108  1  0.20784000  0.77084000  0.77859000  1.0
  C  C109  1  0.31828000  0.70448000  0.88385000  1.0
  C  C110  1  0.17083000  0.83610000  0.82531000  1.0
  C  C111  1  0.23821000  0.87654000  0.19062000  1.0
  C  C112  1  0.79301000  0.75354000  0.05652000  1.0
  C  C113  1  0.81506000  0.91729000  0.00123000  1.0
  C  C114  1  0.96472000  0.82378000  0.05570000  1.0
  C  C115  1  0.91796000  0.44467000  0.11863000  1.0
  C  C116  1  0.02758000  0.36491000  0.21958000  1.0
  C  C117  1  0.05854000  0.34643000  0.08161000  1.0
  C  C118  1  0.88215000  0.73408000  0.33303000  1.0
  C  C119  1  0.02329000  0.84719000  0.35041000  1.0
  C  C120  1  0.93866000  0.78343000  0.38338000  1.0
  C  C121  1  0.91069000  0.77830000  0.46124000  1.0
  C  C122  1  0.78450000  0.72864000  0.56926000  1.0
  C  C123  1  0.79801000  0.67940000  0.36107000  1.0
  C  C124  1  0.82235000  0.72798000  0.48923000  1.0
  C  C125  1  0.76752000  0.67845000  0.43794000  1.0
  C  C126  1  0.70937000  0.66386000  0.60003000  1.0
  C  C127  1  0.58759000  0.59625000  0.70353000  1.0
  C  C128  1  0.78002000  0.79639000  0.69112000  1.0
  C  C129  1  0.81904000  0.86797000  0.73906000  1.0
  C  C130  1  0.70786000  0.72918000  0.72142000  1.0
  C  C131  1  0.81830000  0.79552000  0.61616000  1.0
  C  C132  1  0.67085000  0.66391000  0.67472000  1.0
  C  C133  1  0.73821000  0.62347000  0.30938000  1.0
  C  C134  1  0.29303000  0.74647000  0.44347000  1.0
  C  C135  1  0.31509000  0.58271000  0.49876000  1.0
  C  C136  1  0.46474000  0.67623000  0.44429000  1.0
  C  C137  1  0.41796000  0.05535000  0.38136000  1.0
  C  C138  1  0.52760000  0.13510000  0.28042000  1.0
  C  C139  1  0.55853000  0.15357000  0.41840000  1.0
  C  C140  1  0.61785000  0.23407000  0.83305000  1.0
  C  C141  1  0.47670000  0.34718000  0.85043000  1.0
  C  C142  1  0.56133000  0.28342000  0.88340000  1.0
  C  C143  1  0.58931000  0.27830000  0.96126000  1.0
  C  C144  1  0.71551000  0.22863000  0.06927000  1.0
  C  C145  1  0.70199000  0.17940000  0.86109000  1.0
  C  C146  1  0.67765000  0.22797000  0.98924000  1.0
  C  C147  1  0.73249000  0.17844000  0.93795000  1.0
  C  C148  1  0.79064000  0.16384000  0.10002000  1.0
  C  C149  1  0.91241000  0.09623000  0.20352000  1.0
  C  C150  1  0.72000000  0.29638000  0.19112000  1.0
  C  C151  1  0.68099000  0.36796000  0.23906000  1.0
  C  C152  1  0.79216000  0.22916000  0.22141000  1.0
  C  C153  1  0.68171000  0.29552000  0.11616000  1.0
  C  C154  1  0.82917000  0.16390000  0.17470000  1.0
  C  C155  1  0.76179000  0.12345000  0.80938000  1.0
  C  C156  1  0.20699000  0.24647000  0.94348000  1.0
  C  C157  1  0.18494000  0.08271000  0.99878000  1.0
  C  C158  1  0.03527000  0.17622000  0.94430000  1.0
  C  C159  1  0.08203000  0.55533000  0.88137000  1.0
  C  C160  1  0.97242000  0.63509000  0.78041000  1.0
  C  C161  1  0.94145000  0.65357000  0.91839000  1.0
  C  C162  1  0.11786000  0.26592000  0.66697000  1.0
  C  C163  1  0.97671000  0.15281000  0.64959000  1.0
  C  C164  1  0.06134000  0.21657000  0.61662000  1.0
  C  C165  1  0.08931000  0.22170000  0.53876000  1.0
  C  C166  1  0.21550000  0.27135000  0.43074000  1.0
  C  C167  1  0.20199000  0.32059000  0.63893000  1.0
  C  C168  1  0.17765000  0.27202000  0.51077000  1.0
  C  C169  1  0.23248000  0.32155000  0.56206000  1.0
  C  C170  1  0.29062000  0.33613000  0.39997000  1.0
  C  C171  1  0.41240000  0.40375000  0.29647000  1.0
  C  C172  1  0.21997000  0.20361000  0.30888000  1.0
  C  C173  1  0.18094000  0.13203000  0.26094000  1.0
  C  C174  1  0.29214000  0.27082000  0.27858000  1.0
  C  C175  1  0.18169000  0.20448000  0.38384000  1.0
  C  C176  1  0.32914000  0.33609000  0.32528000  1.0
  C  C177  1  0.26179000  0.37653000  0.69063000  1.0
  C  C178  1  0.70699000  0.25353000  0.55652000  1.0
  C  C179  1  0.68493000  0.41729000  0.50121000  1.0
  C  C180  1  0.53528000  0.32378000  0.55571000  1.0
  C  C181  1  0.58204000  0.94466000  0.61864000  1.0
  C  C182  1  0.47240000  0.86490000  0.71958000  1.0
  C  C183  1  0.44147000  0.84643000  0.58160000  1.0
  N  N184  1  0.85456000  0.82799000  0.03924000  1.0
  N  N185  1  0.99739000  0.38748000  0.13895000  1.0
  N  N186  1  0.35458000  0.67202000  0.46075000  1.0
  N  N187  1  0.49739000  0.11253000  0.36105000  1.0
  N  N188  1  0.14544000  0.17201000  0.96077000  1.0
  N  N189  1  0.00261000  0.61252000  0.86105000  1.0
  N  N190  1  0.64544000  0.32799000  0.53924000  1.0
  N  N191  1  0.50261000  0.88747000  0.63895000  1.0
  O  O192  1  0.06071000  0.91346000  0.72664000  1.0
  O  O193  1  0.04144000  0.94925000  0.84673000  1.0
  O  O194  1  0.51275000  0.62259000  0.22077000  1.0
  O  O195  1  0.59753000  0.63182000  0.10610000  1.0
  O  O196  1  0.16698000  0.92999000  0.15865000  1.0
  O  O197  1  0.26153000  0.86687000  0.26193000  1.0
  O  O198  1  0.34599000  0.55003000  0.79844000  1.0
  O  O199  1  0.33136000  0.65051000  0.68977000  1.0
  O  O200  1  0.82416000  0.67306000  0.08442000  1.0
  O  O201  1  0.86424000  0.48272000  0.16604000  1.0
  O  O202  1  0.71368000  0.52022000  0.02498000  1.0
  O  O203  1  0.56069000  0.58660000  0.77338000  1.0
  O  O204  1  0.54145000  0.55076000  0.65329000  1.0
  O  O205  1  0.01274000  0.87739000  0.27922000  1.0
  O  O206  1  0.09752000  0.86821000  0.39389000  1.0
  O  O207  1  0.66698000  0.57000000  0.34132000  1.0
  O  O208  1  0.76156000  0.63315000  0.23807000  1.0
  O  O209  1  0.84600000  0.94998000  0.70156000  1.0
  O  O210  1  0.83142000  0.84949000  0.81023000  1.0
  O  O211  1  0.32414000  0.82695000  0.41556000  1.0
  O  O212  1  0.36422000  0.01730000  0.33395000  1.0
  O  O213  1  0.21369000  0.97979000  0.47501000  1.0
  O  O214  1  0.93929000  0.08655000  0.27338000  1.0
  O  O215  1  0.95855000  0.05076000  0.15327000  1.0
  O  O216  1  0.48725000  0.37741000  0.77924000  1.0
  O  O217  1  0.40247000  0.36819000  0.89390000  1.0
  O  O218  1  0.83302000  0.07000000  0.84134000  1.0
  O  O219  1  0.73847000  0.13313000  0.73808000  1.0
  O  O220  1  0.65401000  0.44997000  0.20155000  1.0
  O  O221  1  0.66863000  0.34949000  0.31023000  1.0
  O  O222  1  0.17584000  0.32694000  0.91558000  1.0
  O  O223  1  0.13576000  0.51727000  0.83396000  1.0
  O  O224  1  0.28632000  0.47977000  0.97502000  1.0
  O  O225  1  0.43930000  0.41340000  0.22662000  1.0
  O  O226  1  0.45853000  0.44924000  0.34671000  1.0
  O  O227  1  0.98726000  0.12259000  0.72078000  1.0
  O  O228  1  0.90248000  0.13178000  0.60612000  1.0
  O  O229  1  0.33301000  0.43000000  0.65868000  1.0
  O  O230  1  0.23845000  0.36685000  0.76193000  1.0
  O  O231  1  0.15400000  0.05002000  0.29845000  1.0
  O  O232  1  0.16858000  0.15051000  0.18976000  1.0
  O  O233  1  0.67588000  0.17306000  0.58444000  1.0
  O  O234  1  0.63578000  0.98271000  0.66605000  1.0
  O  O235  1  0.78632000  0.02022000  0.52500000  1.0
