# generated using pymatgen
data_Ag2H22C11S2(N2O3)2
_symmetry_space_group_name_H-M   'P 1'
_cell_length_a   6.77403000
_cell_length_b   16.22990000
_cell_length_c   16.23084865
_cell_angle_alpha   87.51449015
_cell_angle_beta   77.94519684
_cell_angle_gamma   77.95780000
_symmetry_Int_Tables_number   1
_chemical_formula_structural   Ag2H22C11S2(N2O3)2
_chemical_formula_sum   'Ag8 H88 C44 S8 N16 O24'
_cell_volume   1706.69669781
_cell_formula_units_Z   4
loop_
 _symmetry_equiv_pos_site_id
 _symmetry_equiv_pos_as_xyz
  1  'x, y, z'
loop_
 _atom_site_type_symbol
 _atom_site_label
 _atom_site_symmetry_multiplicity
 _atom_site_fract_x
 _atom_site_fract_y
 _atom_site_fract_z
 _atom_site_occupancy
  Ag  Ag0  1  0.08875000  0.10748000  0.61761000  1.0
  Ag  Ag1  1  0.70599000  0.88229000  0.10749000  1.0
  Ag  Ag2  1  0.69587000  0.61764000  0.39250000  1.0
  Ag  Ag3  1  0.18619000  0.60744000  0.11765000  1.0
  Ag  Ag4  1  0.30412000  0.38236000  0.60750000  1.0
  Ag  Ag5  1  0.91124000  0.89252000  0.38239000  1.0
  Ag  Ag6  1  0.29401000  0.11771000  0.89251000  1.0
  Ag  Ag7  1  0.81381000  0.39255000  0.88235000  1.0
  H  H8  1  0.29513000  0.22248000  0.34983000  1.0
  H  H9  1  0.64494000  0.15002000  0.22261000  1.0
  H  H10  1  0.01776000  0.34988000  0.27743000  1.0
  H  H11  1  0.13278000  0.72271000  0.84998000  1.0
  H  H12  1  0.98225000  0.65011000  0.72257000  1.0
  H  H13  1  0.70487000  0.77752000  0.65016000  1.0
  H  H14  1  0.35507000  0.84999000  0.77739000  1.0
  H  H15  1  0.86722000  0.27728000  0.15002000  1.0
  H  H16  1  0.41921000  0.12381000  0.38452000  1.0
  H  H17  1  0.80369000  0.11531000  0.12391000  1.0
  H  H18  1  0.04315000  0.38454000  0.37612000  1.0
  H  H19  1  0.07261000  0.62400000  0.88450000  1.0
  H  H20  1  0.95686000  0.61546000  0.62387000  1.0
  H  H21  1  0.58077000  0.87619000  0.61549000  1.0
  H  H22  1  0.19630000  0.88469000  0.87609000  1.0
  H  H23  1  0.92739000  0.37600000  0.11551000  1.0
  H  H24  1  0.05427000  0.13390000  0.35651000  1.0
  H  H25  1  0.41068000  0.14338000  0.13406000  1.0
  H  H26  1  0.68832000  0.35650000  0.36603000  1.0
  H  H27  1  0.45547000  0.63396000  0.85653000  1.0
  H  H28  1  0.31169000  0.64349000  0.63397000  1.0
  H  H29  1  0.94571000  0.86610000  0.64349000  1.0
  H  H30  1  0.58931000  0.85662000  0.86594000  1.0
  H  H31  1  0.54453000  0.36604000  0.14348000  1.0
  H  H32  1  0.95730000  0.20585000  0.44178000  1.0
  H  H33  1  0.39901000  0.05809000  0.20594000  1.0
  H  H34  1  0.66332000  0.44176000  0.29411000  1.0
  H  H35  1  0.39541000  0.70586000  0.94182000  1.0
  H  H36  1  0.33669000  0.55823000  0.70589000  1.0
  H  H37  1  0.04269000  0.79415000  0.55822000  1.0
  H  H38  1  0.60099000  0.94192000  0.79406000  1.0
  H  H39  1  0.60460000  0.29414000  0.05818000  1.0
  H  H40  1  0.35948000  0.00954000  0.44625000  1.0
  H  H41  1  0.80556000  0.05381000  0.00961000  1.0
  H  H42  1  0.86899000  0.44624000  0.49043000  1.0
  H  H43  1  0.18500000  0.50955000  0.94611000  1.0
  H  H44  1  0.13101000  0.55376000  0.50957000  1.0
  H  H45  1  0.64051000  0.99046000  0.55375000  1.0
  H  H46  1  0.19444000  0.94619000  0.99039000  1.0
  H  H47  1  0.81501000  0.49044000  0.05389000  1.0
  H  H48  1  0.18476000  0.98426000  0.38755000  1.0
  H  H49  1  0.57200000  0.11248000  0.98444000  1.0
  H  H50  1  0.66895000  0.38755000  0.51568000  1.0
  H  H51  1  0.44386000  0.48432000  0.88750000  1.0
  H  H52  1  0.33106000  0.61245000  0.48431000  1.0
  H  H53  1  0.81522000  0.01574000  0.61245000  1.0
  H  H54  1  0.42800000  0.88752000  0.01556000  1.0
  H  H55  1  0.55615000  0.51568000  0.11250000  1.0
  H  H56  1  0.81941000  0.05006000  0.42389000  1.0
  H  H57  1  0.24328000  0.07603000  0.05010000  1.0
  H  H58  1  0.36946000  0.42387000  0.44993000  1.0
  H  H59  1  0.70678000  0.55004000  0.92397000  1.0
  H  H60  1  0.63055000  0.57612000  0.55006000  1.0
  H  H61  1  0.18059000  0.94994000  0.57611000  1.0
  H  H62  1  0.75673000  0.92396000  0.94990000  1.0
  H  H63  1  0.29323000  0.44996000  0.07603000  1.0
  H  H64  1  0.73221000  0.12589000  0.50548000  1.0
  H  H65  1  0.23763000  0.99440000  0.12586000  1.0
  H  H66  1  0.35811000  0.50546000  0.37413000  1.0
  H  H67  1  0.63647000  0.62587000  0.00557000  1.0
  H  H68  1  0.64190000  0.49453000  0.62587000  1.0
  H  H69  1  0.26778000  0.87411000  0.49452000  1.0
  H  H70  1  0.76237000  0.00560000  0.87414000  1.0
  H  H71  1  0.36354000  0.37413000  0.99443000  1.0
  H  H72  1  0.77993000  0.28216000  0.60149000  1.0
  H  H73  1  0.38118000  0.89843000  0.28219000  1.0
  H  H74  1  0.56187000  0.60151000  0.21782000  1.0
  H  H75  1  0.33625000  0.78212000  0.10157000  1.0
  H  H76  1  0.43812000  0.39849000  0.78219000  1.0
  H  H77  1  0.22007000  0.71784000  0.39851000  1.0
  H  H78  1  0.61880000  0.10158000  0.71781000  1.0
  H  H79  1  0.66376000  0.21788000  0.89843000  1.0
  H  H80  1  0.62688000  0.20328000  0.60542000  1.0
  H  H81  1  0.23204000  0.89455000  0.20333000  1.0
  H  H82  1  0.33001000  0.60535000  0.29671000  1.0
  H  H83  1  0.56428000  0.70324000  0.10540000  1.0
  H  H84  1  0.67000000  0.39465000  0.70329000  1.0
  H  H85  1  0.37311000  0.79672000  0.39458000  1.0
  H  H86  1  0.76795000  0.10545000  0.79667000  1.0
  H  H87  1  0.43572000  0.29675000  0.89461000  1.0
  H  H88  1  0.96952000  0.28816000  0.70740000  1.0
  H  H89  1  0.67672000  0.79247000  0.28805000  1.0
  H  H90  1  0.75728000  0.70746000  0.21190000  1.0
  H  H91  1  0.03482000  0.78799000  0.20759000  1.0
  H  H92  1  0.24273000  0.29255000  0.78810000  1.0
  H  H93  1  0.03048000  0.71184000  0.29260000  1.0
  H  H94  1  0.32327000  0.20754000  0.71195000  1.0
  H  H95  1  0.96518000  0.21200000  0.79241000  1.0
  C  C96  1  0.28858000  0.17704000  0.40207000  1.0
  C  C97  1  0.69060000  0.09779000  0.17715000  1.0
  C  C98  1  0.96575000  0.40209000  0.32292000  1.0
  C  C99  1  0.13250000  0.67717000  0.90214000  1.0
  C  C100  1  0.03426000  0.59791000  0.67708000  1.0
  C  C101  1  0.71141000  0.82296000  0.59793000  1.0
  C  C102  1  0.30941000  0.90221000  0.82285000  1.0
  C  C103  1  0.86751000  0.32282000  0.09786000  1.0
  C  C104  1  0.08002000  0.15148000  0.41788000  1.0
  C  C105  1  0.49781000  0.08202000  0.15158000  1.0
  C  C106  1  0.73160000  0.41788000  0.34849000  1.0
  C  C107  1  0.35084000  0.65153000  0.91790000  1.0
  C  C108  1  0.26840000  0.58212000  0.65151000  1.0
  C  C109  1  0.91997000  0.84852000  0.58212000  1.0
  C  C110  1  0.50219000  0.91798000  0.84842000  1.0
  C  C111  1  0.64917000  0.34846000  0.08210000  1.0
  C  C112  1  0.20038000  0.00194000  0.45088000  1.0
  C  C113  1  0.65113000  0.04914000  0.00201000  1.0
  C  C114  1  0.70230000  0.45087000  0.49804000  1.0
  C  C115  1  0.34699000  0.50198000  0.95081000  1.0
  C  C116  1  0.29772000  0.54913000  0.50195000  1.0
  C  C117  1  0.79962000  0.99806000  0.54912000  1.0
  C  C118  1  0.34887000  0.95086000  0.99800000  1.0
  C  C119  1  0.65302000  0.49802000  0.04920000  1.0
  C  C120  1  0.84230000  0.06716000  0.48621000  1.0
  C  C121  1  0.32846000  0.01372000  0.06718000  1.0
  C  C122  1  0.40951000  0.48620000  0.43283000  1.0
  C  C123  1  0.60437000  0.56715000  0.98627000  1.0
  C  C124  1  0.59050000  0.51380000  0.56716000  1.0
  C  C125  1  0.15769000  0.93284000  0.51379000  1.0
  C  C126  1  0.67154000  0.98628000  0.93282000  1.0
  C  C127  1  0.39564000  0.43285000  0.01373000  1.0
  C  C128  1  0.68274000  0.24451000  0.64282000  1.0
  C  C129  1  0.32531000  0.85711000  0.24452000  1.0
  C  C130  1  0.42699000  0.64280000  0.25551000  1.0
  C  C131  1  0.42982000  0.74444000  0.14286000  1.0
  C  C132  1  0.57301000  0.35720000  0.74449000  1.0
  C  C133  1  0.31726000  0.75549000  0.35718000  1.0
  C  C134  1  0.67468000  0.14289000  0.75548000  1.0
  C  C135  1  0.57018000  0.25556000  0.85714000  1.0
  C  C136  1  0.87583000  0.25007000  0.74993000  1.0
  C  C137  1  0.62542000  0.74996000  0.24999000  1.0
  C  C138  1  0.12417000  0.74993000  0.25007000  1.0
  C  C139  1  0.37457000  0.25004000  0.75002000  1.0
  S  S140  1  0.34440000  0.23069000  0.48668000  1.0
  S  S141  1  0.83092000  0.01315000  0.23077000  1.0
  S  S142  1  0.07505000  0.48677000  0.26934000  1.0
  S  S143  1  0.93838000  0.73072000  0.98681000  1.0
  S  S144  1  0.92495000  0.51323000  0.73066000  1.0
  S  S145  1  0.65560000  0.76931000  0.51331000  1.0
  S  S146  1  0.16908000  0.98685000  0.76923000  1.0
  S  S147  1  0.06163000  0.26928000  0.01319000  1.0
  N  N148  1  0.05406000  0.08142000  0.47809000  1.0
  N  N149  1  0.53210000  0.02184000  0.08146000  1.0
  N  N150  1  0.63551000  0.47808000  0.41857000  1.0
  N  N151  1  0.38651000  0.58144000  0.97809000  1.0
  N  N152  1  0.36451000  0.52192000  0.58142000  1.0
  N  N153  1  0.94593000  0.91859000  0.52191000  1.0
  N  N154  1  0.46790000  0.97816000  0.91854000  1.0
  N  N155  1  0.61350000  0.41856000  0.02191000  1.0
  N  N156  1  0.80652000  0.19276000  0.69870000  1.0
  N  N157  1  0.50490000  0.80121000  0.19273000  1.0
  N  N158  1  0.49892000  0.69871000  0.30729000  1.0
  N  N159  1  0.30199000  0.69266000  0.19878000  1.0
  N  N160  1  0.50107000  0.30130000  0.69272000  1.0
  N  N161  1  0.19347000  0.80724000  0.30130000  1.0
  N  N162  1  0.49509000  0.19879000  0.80727000  1.0
  N  N163  1  0.69800000  0.30734000  0.80123000  1.0
  O  O164  1  0.37710000  0.16737000  0.55409000  1.0
  O  O165  1  0.93103000  0.94570000  0.16746000  1.0
  O  O166  1  0.04435000  0.55414000  0.33274000  1.0
  O  O167  1  0.90152000  0.66731000  0.05412000  1.0
  O  O168  1  0.95565000  0.44586000  0.66726000  1.0
  O  O169  1  0.62289000  0.83264000  0.44591000  1.0
  O  O170  1  0.06898000  0.05430000  0.83253000  1.0
  O  O171  1  0.09848000  0.33269000  0.94588000  1.0
  O  O172  1  0.53328000  0.26114000  0.45099000  1.0
  O  O173  1  0.98411000  0.04882000  0.26122000  1.0
  O  O174  1  0.29443000  0.45114000  0.23885000  1.0
  O  O175  1  0.75477000  0.76124000  0.95112000  1.0
  O  O176  1  0.70557000  0.54887000  0.76115000  1.0
  O  O177  1  0.46671000  0.73886000  0.54901000  1.0
  O  O178  1  0.01589000  0.95118000  0.73878000  1.0
  O  O179  1  0.24524000  0.23876000  0.04888000  1.0
  O  O180  1  0.16192000  0.29914000  0.51468000  1.0
  O  O181  1  0.67630000  0.98522000  0.29919000  1.0
  O  O182  1  0.96088000  0.51476000  0.20096000  1.0
  O  O183  1  0.02445000  0.79910000  0.01491000  1.0
  O  O184  1  0.03912000  0.48524000  0.79904000  1.0
  O  O185  1  0.83808000  0.70087000  0.48531000  1.0
  O  O186  1  0.32370000  0.01478000  0.70081000  1.0
  O  O187  1  0.97557000  0.20089000  0.98509000  1.0
