# generated using pymatgen
data_CdH11C17N3O4
_symmetry_space_group_name_H-M   'P 1'
_cell_length_a   13.65410000
_cell_length_b   17.68420000
_cell_length_c   17.68467728
_cell_angle_alpha   113.59984643
_cell_angle_beta   104.86849266
_cell_angle_gamma   104.90700000
_symmetry_Int_Tables_number   1
_chemical_formula_structural   CdH11C17N3O4
_chemical_formula_sum   'Cd6 H66 C102 N18 O24'
_cell_volume   3455.53412976
_cell_formula_units_Z   6
loop_
 _symmetry_equiv_pos_site_id
 _symmetry_equiv_pos_as_xyz
  1  'x, y, z'
loop_
 _atom_site_type_symbol
 _atom_site_label
 _atom_site_symmetry_multiplicity
 _atom_site_fract_x
 _atom_site_fract_y
 _atom_site_fract_z
 _atom_site_occupancy
  Cd  Cd0  1  0.07255000  0.63240000  0.22010000  1.0
  Cd  Cd1  1  0.85227000  0.78012000  0.41214000  1.0
  Cd  Cd2  1  0.43983000  0.58785000  0.36772000  1.0
  Cd  Cd3  1  0.92746000  0.36760000  0.77991000  1.0
  Cd  Cd4  1  0.14773000  0.21988000  0.58786000  1.0
  Cd  Cd5  1  0.56018000  0.41214000  0.63228000  1.0
  H  H6  1  0.20819000  0.97295000  0.48062000  1.0
  H  H7  1  0.44145000  0.93956000  0.35685000  1.0
  H  H8  1  0.32040000  0.77450000  0.26627000  1.0
  H  H9  1  0.45918000  0.08385000  0.38216000  1.0
  H  H10  1  0.36011000  0.08632000  0.59833000  1.0
  H  H11  1  0.45531000  0.25271000  0.67887000  1.0
  H  H12  1  0.92681000  0.73733000  0.18187000  1.0
  H  H13  1  0.84494000  0.77830000  0.06728000  1.0
  H  H14  1  0.87677000  0.72323000  0.92422000  1.0
  H  H15  1  0.98964000  0.62888000  0.90310000  1.0
  H  H16  1  0.06473000  0.59547000  0.02374000  1.0
  H  H17  1  0.72696000  0.51942000  0.49228000  1.0
  H  H18  1  0.08364000  0.64221000  0.58172000  1.0
  H  H19  1  0.05334000  0.73286000  0.50714000  1.0
  H  H20  1  0.07596000  0.61742000  0.70114000  1.0
  H  H21  1  0.76120000  0.40127000  0.48773000  1.0
  H  H22  1  0.77590000  0.32068000  0.57365000  1.0
  H  H23  1  0.74480000  0.81805000  0.55513000  1.0
  H  H24  1  0.77678000  0.93245000  0.71046000  1.0
  H  H25  1  0.95126000  0.07564000  0.79858000  1.0
  H  H26  1  0.08562000  0.09705000  0.72570000  1.0
  H  H27  1  0.04086000  0.97655000  0.57185000  1.0
  H  H28  1  0.23502000  0.50750000  0.02703000  1.0
  H  H29  1  0.50185000  0.41746000  0.06015000  1.0
  H  H30  1  0.54579000  0.49176000  0.22525000  1.0
  H  H31  1  0.37495000  0.29817000  0.91607000  1.0
  H  H32  1  0.27349000  0.51184000  0.91345000  1.0
  H  H33  1  0.20217000  0.42590000  0.74704000  1.0
  H  H34  1  0.18971000  0.44438000  0.26305000  1.0
  H  H35  1  0.06747000  0.28866000  0.22209000  1.0
  H  H36  1  0.15488000  0.20087000  0.27709000  1.0
  H  H37  1  0.36192000  0.27453000  0.37151000  1.0
  H  H38  1  0.46982000  0.42868000  0.40488000  1.0
  H  H39  1  0.79182000  0.02706000  0.51939000  1.0
  H  H40  1  0.55855000  0.06044000  0.64315000  1.0
  H  H41  1  0.67959000  0.22550000  0.73373000  1.0
  H  H42  1  0.54083000  0.91615000  0.61784000  1.0
  H  H43  1  0.63990000  0.91369000  0.40167000  1.0
  H  H44  1  0.54470000  0.74731000  0.32113000  1.0
  H  H45  1  0.07321000  0.26268000  0.81814000  1.0
  H  H46  1  0.15507000  0.22171000  0.93272000  1.0
  H  H47  1  0.12323000  0.27676000  0.07578000  1.0
  H  H48  1  0.01037000  0.37113000  0.09691000  1.0
  H  H49  1  0.93527000  0.40453000  0.97626000  1.0
  H  H50  1  0.27304000  0.48058000  0.50772000  1.0
  H  H51  1  0.91635000  0.35777000  0.41827000  1.0
  H  H52  1  0.94667000  0.26714000  0.49287000  1.0
  H  H53  1  0.92404000  0.38256000  0.29884000  1.0
  H  H54  1  0.23878000  0.59872000  0.51226000  1.0
  H  H55  1  0.22409000  0.67932000  0.42635000  1.0
  H  H56  1  0.25521000  0.18195000  0.44487000  1.0
  H  H57  1  0.22322000  0.06755000  0.28953000  1.0
  H  H58  1  0.04873000  0.92437000  0.20141000  1.0
  H  H59  1  0.91439000  0.90296000  0.27430000  1.0
  H  H60  1  0.95916000  0.02345000  0.42816000  1.0
  H  H61  1  0.76499000  0.49251000  0.97298000  1.0
  H  H62  1  0.49815000  0.58255000  0.93986000  1.0
  H  H63  1  0.45421000  0.50824000  0.77475000  1.0
  H  H64  1  0.62506000  0.70183000  0.08393000  1.0
  H  H65  1  0.72649000  0.48815000  0.08655000  1.0
  H  H66  1  0.79782000  0.57409000  0.25296000  1.0
  H  H67  1  0.81030000  0.55564000  0.73697000  1.0
  H  H68  1  0.93253000  0.71134000  0.77792000  1.0
  H  H69  1  0.84513000  0.79913000  0.72291000  1.0
  H  H70  1  0.63808000  0.72546000  0.62848000  1.0
  H  H71  1  0.53018000  0.57130000  0.59510000  1.0
  C  C72  1  0.17269000  0.84030000  0.37854000  1.0
  C  C73  1  0.23764000  0.93235000  0.43467000  1.0
  C  C74  1  0.33570000  0.97107000  0.42742000  1.0
  C  C75  1  0.36587000  0.91362000  0.36516000  1.0
  C  C76  1  0.29856000  0.82153000  0.31413000  1.0
  C  C77  1  0.06034000  0.79889000  0.37786000  1.0
  C  C78  1  0.50418000  0.21161000  0.49679000  1.0
  C  C79  1  0.45598000  0.11732000  0.44778000  1.0
  C  C80  1  0.40009000  0.06966000  0.48178000  1.0
  C  C81  1  0.40130000  0.11874000  0.56738000  1.0
  C  C82  1  0.45409000  0.21222000  0.61296000  1.0
  C  C83  1  0.55748000  0.26651000  0.45828000  1.0
  C  C84  1  0.93852000  0.71564000  0.11898000  1.0
  C  C85  1  0.89365000  0.73810000  0.05511000  1.0
  C  C86  1  0.91129000  0.70718000  0.97580000  1.0
  C  C87  1  0.97306000  0.65499000  0.96340000  1.0
  C  C88  1  0.01533000  0.63550000  0.03065000  1.0
  C  C89  1  0.79360000  0.62133000  0.46144000  1.0
  C  C90  1  0.80231000  0.56519000  0.49745000  1.0
  C  C91  1  0.90747000  0.57218000  0.54319000  1.0
  C  C92  1  0.99985000  0.63415000  0.54767000  1.0
  C  C93  1  0.98368000  0.68521000  0.50655000  1.0
  C  C94  1  0.68209000  0.62218000  0.42077000  1.0
  C  C95  1  0.00652000  0.50277000  0.71436000  1.0
  C  C96  1  0.00726000  0.55180000  0.66906000  1.0
  C  C97  1  0.91750000  0.51782000  0.58749000  1.0
  C  C98  1  0.83325000  0.43222000  0.55107000  1.0
  C  C99  1  0.84051000  0.38662000  0.59901000  1.0
  C  C100  1  0.09826000  0.54128000  0.80765000  1.0
  C  C101  1  0.81923000  0.88097000  0.59638000  1.0
  C  C102  1  0.83782000  0.94474000  0.68259000  1.0
  C  C103  1  0.93456000  0.02414000  0.73106000  1.0
  C  C104  1  0.00891000  0.03666000  0.69145000  1.0
  C  C105  1  0.98435000  0.96950000  0.60482000  1.0
  C  C106  1  0.33236000  0.53827000  0.15966000  1.0
  C  C107  1  0.30513000  0.50226000  0.06758000  1.0
  C  C108  1  0.36445000  0.45633000  0.02879000  1.0
  C  C109  1  0.45217000  0.45163000  0.08618000  1.0
  C  C110  1  0.47696000  0.49267000  0.17830000  1.0
  C  C111  1  0.26156000  0.57911000  0.20112000  1.0
  C  C112  1  0.29211000  0.28499000  0.78832000  1.0
  C  C113  1  0.33827000  0.33031000  0.88259000  1.0
  C  C114  1  0.33011000  0.41197000  0.93017000  1.0
  C  C115  1  0.28216000  0.44844000  0.88105000  1.0
  C  C116  1  0.24142000  0.40050000  0.78758000  1.0
  C  C117  1  0.29057000  0.19164000  0.73355000  1.0
  C  C118  1  0.22332000  0.40327000  0.28472000  1.0
  C  C119  1  0.15636000  0.31687000  0.26228000  1.0
  C  C120  1  0.20519000  0.26858000  0.29318000  1.0
  C  C121  1  0.31902000  0.30856000  0.34536000  1.0
  C  C122  1  0.38042000  0.39539000  0.36484000  1.0
  C  C123  1  0.82731000  0.15970000  0.62147000  1.0
  C  C124  1  0.76236000  0.06765000  0.56533000  1.0
  C  C125  1  0.66430000  0.02894000  0.57258000  1.0
  C  C126  1  0.63413000  0.08638000  0.63484000  1.0
  C  C127  1  0.70143000  0.17847000  0.68587000  1.0
  C  C128  1  0.93966000  0.20112000  0.62216000  1.0
  C  C129  1  0.49583000  0.78840000  0.50321000  1.0
  C  C130  1  0.54403000  0.88269000  0.55222000  1.0
  C  C131  1  0.59990000  0.93033000  0.51821000  1.0
  C  C132  1  0.59871000  0.88126000  0.43262000  1.0
  C  C133  1  0.54592000  0.78779000  0.38704000  1.0
  C  C134  1  0.44252000  0.73349000  0.54171000  1.0
  C  C135  1  0.06150000  0.28438000  0.88103000  1.0
  C  C136  1  0.10637000  0.26192000  0.94490000  1.0
  C  C137  1  0.08871000  0.29282000  0.02420000  1.0
  C  C138  1  0.02695000  0.34501000  0.03660000  1.0
  C  C139  1  0.98469000  0.36451000  0.96936000  1.0
  C  C140  1  0.20640000  0.37867000  0.53856000  1.0
  C  C141  1  0.19768000  0.43480000  0.50254000  1.0
  C  C142  1  0.09253000  0.42782000  0.45681000  1.0
  C  C143  1  0.00014000  0.36583000  0.45232000  1.0
  C  C144  1  0.01632000  0.31479000  0.49345000  1.0
  C  C145  1  0.31792000  0.37783000  0.57924000  1.0
  C  C146  1  0.99346000  0.49722000  0.28563000  1.0
  C  C147  1  0.99273000  0.44819000  0.33093000  1.0
  C  C148  1  0.08249000  0.48217000  0.41250000  1.0
  C  C149  1  0.16674000  0.56777000  0.44893000  1.0
  C  C150  1  0.15948000  0.61338000  0.40099000  1.0
  C  C151  1  0.90173000  0.45871000  0.19233000  1.0
  C  C152  1  0.18078000  0.11903000  0.40362000  1.0
  C  C153  1  0.16217000  0.05526000  0.31740000  1.0
  C  C154  1  0.06544000  0.97587000  0.26893000  1.0
  C  C155  1  0.99108000  0.96334000  0.30854000  1.0
  C  C156  1  0.01565000  0.03050000  0.39518000  1.0
  C  C157  1  0.66765000  0.46174000  0.84035000  1.0
  C  C158  1  0.69488000  0.49775000  0.93243000  1.0
  C  C159  1  0.63554000  0.54367000  0.97121000  1.0
  C  C160  1  0.54782000  0.54837000  0.91382000  1.0
  C  C161  1  0.52304000  0.50735000  0.82171000  1.0
  C  C162  1  0.73844000  0.42089000  0.79888000  1.0
  C  C163  1  0.70788000  0.71501000  0.21168000  1.0
  C  C164  1  0.66173000  0.66969000  0.11741000  1.0
  C  C165  1  0.66988000  0.58803000  0.06983000  1.0
  C  C166  1  0.71782000  0.55155000  0.11895000  1.0
  C  C167  1  0.75857000  0.59950000  0.21242000  1.0
  C  C168  1  0.70942000  0.80834000  0.26644000  1.0
  C  C169  1  0.77668000  0.59672000  0.71528000  1.0
  C  C170  1  0.84365000  0.68314000  0.73773000  1.0
  C  C171  1  0.79483000  0.73143000  0.70683000  1.0
  C  C172  1  0.68098000  0.69142000  0.65463000  1.0
  C  C173  1  0.61958000  0.60460000  0.63515000  1.0
  N  N174  1  0.20315000  0.78561000  0.31959000  1.0
  N  N175  1  0.50151000  0.25722000  0.57737000  1.0
  N  N176  1  0.99834000  0.66544000  0.10708000  1.0
  N  N177  1  0.88295000  0.68004000  0.46541000  1.0
  N  N178  1  0.92342000  0.42217000  0.67951000  1.0
  N  N179  1  0.89112000  0.89299000  0.55824000  1.0
  N  N180  1  0.41750000  0.53404000  0.21431000  1.0
  N  N181  1  0.24383000  0.31993000  0.74267000  1.0
  N  N182  1  0.33326000  0.44177000  0.33490000  1.0
  N  N183  1  0.79685000  0.21440000  0.68042000  1.0
  N  N184  1  0.49849000  0.74278000  0.42262000  1.0
  N  N185  1  0.00167000  0.33456000  0.89292000  1.0
  N  N186  1  0.11705000  0.31995000  0.53459000  1.0
  N  N187  1  0.07657000  0.57783000  0.32049000  1.0
  N  N188  1  0.10889000  0.10700000  0.44176000  1.0
  N  N189  1  0.58250000  0.46598000  0.78570000  1.0
  N  N190  1  0.75617000  0.68008000  0.25734000  1.0
  N  N191  1  0.66675000  0.55823000  0.66510000  1.0
  O  O192  1  0.99471000  0.72027000  0.31377000  1.0
  O  O193  1  0.03902000  0.84794000  0.44165000  1.0
  O  O194  1  0.57163000  0.35010000  0.49472000  1.0
  O  O195  1  0.58178000  0.22590000  0.39480000  1.0
  O  O196  1  0.68054000  0.68624000  0.40609000  1.0
  O  O197  1  0.59702000  0.55847000  0.40619000  1.0
  O  O198  1  0.07603000  0.50503000  0.85500000  1.0
  O  O199  1  0.18596000  0.60465000  0.83031000  1.0
  O  O200  1  0.27459000  0.59388000  0.27986000  1.0
  O  O201  1  0.19117000  0.59375000  0.15201000  1.0
  O  O202  1  0.22112000  0.14443000  0.65004000  1.0
  O  O203  1  0.35553000  0.16886000  0.77419000  1.0
  O  O204  1  0.00530000  0.27973000  0.68625000  1.0
  O  O205  1  0.96099000  0.15206000  0.55837000  1.0
  O  O206  1  0.42837000  0.64990000  0.50527000  1.0
  O  O207  1  0.41821000  0.77410000  0.60518000  1.0
  O  O208  1  0.31947000  0.31377000  0.59393000  1.0
  O  O209  1  0.40299000  0.44154000  0.59382000  1.0
  O  O210  1  0.92397000  0.49498000  0.14500000  1.0
  O  O211  1  0.81403000  0.39533000  0.16966000  1.0
  O  O212  1  0.72539000  0.40611000  0.72014000  1.0
  O  O213  1  0.80886000  0.40628000  0.84801000  1.0
  O  O214  1  0.77887000  0.85557000  0.34995000  1.0
  O  O215  1  0.64445000  0.83113000  0.22580000  1.0
