# generated using pymatgen
data_ZnH4CSeNO3
_symmetry_space_group_name_H-M   'P 1'
_cell_length_a   4.76852000
_cell_length_b   6.51649000
_cell_length_c   15.14050000
_cell_angle_alpha   90.00000000
_cell_angle_beta   89.99990000
_cell_angle_gamma   91.54740000
_symmetry_Int_Tables_number   1
_chemical_formula_structural   ZnH4CSeNO3
_chemical_formula_sum   'Zn4 H16 C4 Se4 N4 O12'
_cell_volume   470.30452234
_cell_formula_units_Z   4
loop_
 _symmetry_equiv_pos_site_id
 _symmetry_equiv_pos_as_xyz
  1  'x, y, z'
loop_
 _atom_site_type_symbol
 _atom_site_label
 _atom_site_symmetry_multiplicity
 _atom_site_fract_x
 _atom_site_fract_y
 _atom_site_fract_z
 _atom_site_occupancy
  Zn  Zn0  1  0.52255000  0.18476000  0.69627000  1.0
  Zn  Zn1  1  0.02255000  0.68476000  0.80373000  1.0
  Zn  Zn2  1  0.47745000  0.81523000  0.30373000  1.0
  Zn  Zn3  1  0.97745000  0.31524000  0.19627000  1.0
  H  H4  1  0.62042000  0.55390000  0.64813000  1.0
  H  H5  1  0.12042000  0.05389000  0.85188000  1.0
  H  H6  1  0.37958000  0.44610000  0.35188000  1.0
  H  H7  1  0.87959000  0.94611000  0.14812000  1.0
  H  H8  1  0.28387000  0.50112000  0.63371000  1.0
  H  H9  1  0.78386000  0.00112000  0.86629000  1.0
  H  H10  1  0.71614000  0.49888000  0.36629000  1.0
  H  H11  1  0.21615000  0.99888000  0.13371000  1.0
  H  H12  1  0.76468000  0.38170000  0.52309000  1.0
  H  H13  1  0.26470000  0.88169000  0.97691000  1.0
  H  H14  1  0.23530000  0.61831000  0.47691000  1.0
  H  H15  1  0.73532000  0.11831000  0.02308000  1.0
  H  H16  1  0.42990000  0.26814000  0.50700000  1.0
  H  H17  1  0.92992000  0.76814000  0.99300000  1.0
  H  H18  1  0.57008000  0.73186000  0.49300000  1.0
  H  H19  1  0.07010000  0.23186000  0.00700000  1.0
  C  C20  1  0.53862000  0.40960000  0.52921000  1.0
  C  C21  1  0.03862000  0.90959000  0.97079000  1.0
  C  C22  1  0.46137000  0.59041000  0.47079000  1.0
  C  C23  1  0.96140000  0.09041000  0.02921000  1.0
  Se  Se24  1  0.02256000  0.91792000  0.61579000  1.0
  Se  Se25  1  0.52256000  0.41792000  0.88421000  1.0
  Se  Se26  1  0.97744000  0.08208000  0.38421000  1.0
  Se  Se27  1  0.47744000  0.58208000  0.11579000  1.0
  N  N28  1  0.48037000  0.44353000  0.62386000  1.0
  N  N29  1  0.98043000  0.94354000  0.87614000  1.0
  N  N30  1  0.51958000  0.55646000  0.37615000  1.0
  N  N31  1  0.01959000  0.05646000  0.12386000  1.0
  O  O32  1  0.38066000  0.95140000  0.62213000  1.0
  O  O33  1  0.88066000  0.45140000  0.87787000  1.0
  O  O34  1  0.61934000  0.04860000  0.37787000  1.0
  O  O35  1  0.11934000  0.54860000  0.12212000  1.0
  O  O36  1  0.93074000  0.11251000  0.68588000  1.0
  O  O37  1  0.43074000  0.61251000  0.81412000  1.0
  O  O38  1  0.06926000  0.88748000  0.31412000  1.0
  O  O39  1  0.56926000  0.38748000  0.18587000  1.0
  O  O40  1  0.96347000  0.69069000  0.67542000  1.0
  O  O41  1  0.46347000  0.19069000  0.82458000  1.0
  O  O42  1  0.03653000  0.30930000  0.32458000  1.0
  O  O43  1  0.53654000  0.80930000  0.17542000  1.0
