# generated using pymatgen
data_CaH10C10(NO2)4
_symmetry_space_group_name_H-M   'P 1'
_cell_length_a   3.74802000
_cell_length_b   10.12461598
_cell_length_c   18.39570000
_cell_angle_alpha   98.91337193
_cell_angle_beta   95.80010000
_cell_angle_gamma   100.65755284
_symmetry_Int_Tables_number   1
_chemical_formula_structural   CaH10C10(NO2)4
_chemical_formula_sum   'Ca2 H20 C20 N8 O16'
_cell_volume   671.66428503
_cell_formula_units_Z   2
loop_
 _symmetry_equiv_pos_site_id
 _symmetry_equiv_pos_as_xyz
  1  'x, y, z'
loop_
 _atom_site_type_symbol
 _atom_site_label
 _atom_site_symmetry_multiplicity
 _atom_site_fract_x
 _atom_site_fract_y
 _atom_site_fract_z
 _atom_site_occupancy
  Ca  Ca0  1  0.31822000  0.25014000  0.24996000  1.0
  Ca  Ca1  1  0.68177000  0.74986000  0.75004000  1.0
  H  H2  1  0.20177000  0.87755000  0.44016000  1.0
  H  H3  1  0.38288000  0.62270000  0.06002000  1.0
  H  H4  1  0.79824000  0.12246000  0.55984000  1.0
  H  H5  1  0.61713000  0.37730000  0.93998000  1.0
  H  H6  1  0.38631000  0.84143000  0.32500000  1.0
  H  H7  1  0.72188000  0.65902000  0.17480000  1.0
  H  H8  1  0.61369000  0.15857000  0.67500000  1.0
  H  H9  1  0.27812000  0.34098000  0.82520000  1.0
  H  H10  1  0.25872000  0.60137000  0.24968000  1.0
  H  H11  1  0.91108000  0.89911000  0.24994000  1.0
  H  H12  1  0.74129000  0.39864000  0.75032000  1.0
  H  H13  1  0.08892000  0.10089000  0.75006000  1.0
  H  H14  1  0.74372000  0.46161000  0.43170000  1.0
  H  H15  1  0.35171000  0.03879000  0.06835000  1.0
  H  H16  1  0.25628000  0.53839000  0.56830000  1.0
  H  H17  1  0.64828000  0.96121000  0.93165000  1.0
  H  H18  1  0.89922000  0.70500000  0.49990000  1.0
  H  H19  1  0.19337000  0.79531000  0.00036000  1.0
  H  H20  1  0.10078000  0.29500000  0.50010000  1.0
  H  H21  1  0.80664000  0.20469000  0.99964000  1.0
  C  C22  1  0.24819000  0.75194000  0.34463000  1.0
  C  C23  1  0.65345000  0.74847000  0.15520000  1.0
  C  C24  1  0.75181000  0.24806000  0.65537000  1.0
  C  C25  1  0.34655000  0.25152000  0.84480000  1.0
  C  C26  1  0.17494000  0.62182000  0.30451000  1.0
  C  C27  1  0.75135000  0.87865000  0.19522000  1.0
  C  C28  1  0.82506000  0.37818000  0.69549000  1.0
  C  C29  1  0.24865000  0.12135000  0.80478000  1.0
  C  C30  1  0.98571000  0.51053000  0.33403000  1.0
  C  C31  1  0.64334000  0.98993000  0.16582000  1.0
  C  C32  1  0.01429000  0.48948000  0.66597000  1.0
  C  C33  1  0.35664000  0.01006000  0.83418000  1.0
  C  C34  1  0.88809000  0.54301000  0.40679000  1.0
  C  C35  1  0.43991000  0.95742000  0.09320000  1.0
  C  C36  1  0.11190000  0.45699000  0.59321000  1.0
  C  C37  1  0.56008000  0.04258000  0.90680000  1.0
  C  C38  1  0.97159000  0.67524000  0.44465000  1.0
  C  C39  1  0.35203000  0.82512000  0.05545000  1.0
  C  C40  1  0.02842000  0.32477000  0.55535000  1.0
  C  C41  1  0.64798000  0.17488000  0.94455000  1.0
  N  N42  1  0.31310000  0.12821000  0.39054000  1.0
  N  N43  1  0.29171000  0.37174000  0.10920000  1.0
  N  N44  1  0.68690000  0.87179000  0.60946000  1.0
  N  N45  1  0.70829000  0.62826000  0.89080000  1.0
  N  N46  1  0.14557000  0.77724000  0.41318000  1.0
  N  N47  1  0.45565000  0.72309000  0.08684000  1.0
  N  N48  1  0.85443000  0.22277000  0.58682000  1.0
  N  N49  1  0.54436000  0.27691000  0.91316000  1.0
  O  O50  1  0.90708000  0.38707000  0.29640000  1.0
  O  O51  1  0.72555000  0.11338000  0.20346000  1.0
  O  O52  1  0.09291000  0.61293000  0.70360000  1.0
  O  O53  1  0.27444000  0.88661000  0.79654000  1.0
  O  O54  1  0.35813000  0.06168000  0.32855000  1.0
  O  O55  1  0.46301000  0.43864000  0.17129000  1.0
  O  O56  1  0.64187000  0.93833000  0.67145000  1.0
  O  O57  1  0.53699000  0.56136000  0.82871000  1.0
  O  O58  1  0.29505000  0.25303000  0.39364000  1.0
  O  O59  1  0.15165000  0.24633000  0.10581000  1.0
  O  O60  1  0.70495000  0.74697000  0.60636000  1.0
  O  O61  1  0.84834000  0.75367000  0.89419000  1.0
  O  O62  1  0.28633000  0.07245000  0.44696000  1.0
  O  O63  1  0.26081000  0.42783000  0.05295000  1.0
  O  O64  1  0.71367000  0.92755000  0.55304000  1.0
  O  O65  1  0.73919000  0.57217000  0.94705000  1.0
