# generated using pymatgen
data_CdHC2SN3
_symmetry_space_group_name_H-M   'P 1'
_cell_length_a   6.78664000
_cell_length_b   6.78653000
_cell_length_c   11.36490000
_cell_angle_alpha   99.00950000
_cell_angle_beta   99.00710000
_cell_angle_gamma   117.31400000
_symmetry_Int_Tables_number   1
_chemical_formula_structural   CdHC2SN3
_chemical_formula_sum   'Cd4 H4 C8 S4 N12'
_cell_volume   443.50938035
_cell_formula_units_Z   4
loop_
 _symmetry_equiv_pos_site_id
 _symmetry_equiv_pos_as_xyz
  1  'x, y, z'
loop_
 _atom_site_type_symbol
 _atom_site_label
 _atom_site_symmetry_multiplicity
 _atom_site_fract_x
 _atom_site_fract_y
 _atom_site_fract_z
 _atom_site_occupancy
  Cd  Cd0  1  0.55477000  0.79122000  0.61024000  1.0
  Cd  Cd1  1  0.20876000  0.44523000  0.88975000  1.0
  Cd  Cd2  1  0.44525000  0.20873000  0.38977000  1.0
  Cd  Cd3  1  0.79123000  0.55475000  0.11022000  1.0
  H  H4  1  0.39495000  0.03519000  0.83559000  1.0
  H  H5  1  0.96478000  0.60500000  0.66437000  1.0
  H  H6  1  0.60503000  0.96485000  0.16436000  1.0
  H  H7  1  0.03530000  0.39509000  0.33562000  1.0
  C  C8  1  0.27007000  0.25768000  0.62792000  1.0
  C  C9  1  0.36720000  0.09472000  0.75477000  1.0
  C  C10  1  0.74230000  0.72993000  0.87209000  1.0
  C  C11  1  0.90528000  0.63276000  0.74522000  1.0
  C  C12  1  0.72994000  0.74228000  0.37211000  1.0
  C  C13  1  0.63278000  0.90539000  0.24523000  1.0
  C  C14  1  0.25775000  0.27006000  0.12791000  1.0
  C  C15  1  0.09469000  0.36726000  0.25476000  1.0
  S  S16  1  0.17136000  0.41844000  0.56281000  1.0
  S  S17  1  0.58153000  0.82864000  0.93719000  1.0
  S  S18  1  0.82869000  0.58139000  0.43722000  1.0
  S  S19  1  0.41857000  0.17131000  0.06278000  1.0
  N  N20  1  0.36580000  0.14841000  0.57149000  1.0
  N  N21  1  0.43007000  0.04654000  0.65383000  1.0
  N  N22  1  0.26678000  0.22557000  0.74369000  1.0
  N  N23  1  0.85158000  0.63418000  0.92854000  1.0
  N  N24  1  0.95343000  0.56992000  0.84618000  1.0
  N  N25  1  0.77441000  0.73316000  0.75631000  1.0
  N  N26  1  0.63417000  0.85158000  0.42852000  1.0
  N  N27  1  0.56989000  0.95349000  0.34619000  1.0
  N  N28  1  0.73316000  0.77448000  0.25635000  1.0
  N  N29  1  0.14842000  0.36582000  0.07148000  1.0
  N  N30  1  0.04651000  0.43012000  0.15383000  1.0
  N  N31  1  0.22557000  0.26684000  0.24367000  1.0
