# generated using pymatgen
data_AlH3C6ClO5
_symmetry_space_group_name_H-M   'P 1'
_cell_length_a   6.64770000
_cell_length_b   8.93984000
_cell_length_c   10.98388634
_cell_angle_alpha   67.73990206
_cell_angle_beta   73.69806732
_cell_angle_gamma   74.17460000
_symmetry_Int_Tables_number   1
_chemical_formula_structural   AlH3C6ClO5
_chemical_formula_sum   'Al2 H6 C12 Cl2 O10'
_cell_volume   569.56760482
_cell_formula_units_Z   2
loop_
 _symmetry_equiv_pos_site_id
 _symmetry_equiv_pos_as_xyz
  1  'x, y, z'
loop_
 _atom_site_type_symbol
 _atom_site_label
 _atom_site_symmetry_multiplicity
 _atom_site_fract_x
 _atom_site_fract_y
 _atom_site_fract_z
 _atom_site_occupancy
  Al  Al0  1  0.49999000  0.49999000  0.50000000  1.0
  Al  Al1  1  1.00000000  0.50000000  0.50000000  1.0
  H  H2  1  0.72997000  0.70235000  0.38665000  1.0
  H  H3  1  0.27007000  0.29759000  0.61328000  1.0
  H  H4  1  0.14650000  0.43014000  0.13084000  1.0
  H  H5  1  0.85354000  0.56991000  0.86914000  1.0
  H  H6  1  0.28453000  0.40719000  0.89927000  1.0
  H  H7  1  0.71546000  0.59285000  0.10073000  1.0
  C  C8  1  0.15997000  0.78682000  0.48029000  1.0
  C  C9  1  0.34360000  0.52408000  0.26652000  1.0
  C  C10  1  0.84003000  0.21316000  0.51972000  1.0
  C  C11  1  0.65639000  0.47595000  0.73348000  1.0
  C  C12  1  0.42335000  0.51311000  0.12836000  1.0
  C  C13  1  0.57663000  0.48691000  0.87160000  1.0
  C  C14  1  0.30051000  0.46087000  0.07239000  1.0
  C  C15  1  0.69945000  0.53917000  0.92760000  1.0
  C  C16  1  0.37689000  0.44788000  0.94457000  1.0
  C  C17  1  0.62306000  0.55216000  0.05545000  1.0
  C  C18  1  0.09651000  0.96507000  0.47145000  1.0
  C  C19  1  0.90349000  0.03490000  0.52857000  1.0
  Cl  Cl20  1  0.29524000  0.07596000  0.37981000  1.0
  Cl  Cl21  1  0.70478000  0.92401000  0.62024000  1.0
  O  O22  1  0.34524000  0.71592000  0.50254000  1.0
  O  O23  1  0.15261000  0.50440000  0.32268000  1.0
  O  O24  1  0.97404000  0.27626000  0.53752000  1.0
  O  O25  1  0.52737000  0.44763000  0.68149000  1.0
  O  O26  1  0.65474000  0.28407000  0.49748000  1.0
  O  O27  1  0.84737000  0.49562000  0.67731000  1.0
  O  O28  1  0.02593000  0.72373000  0.46249000  1.0
  O  O29  1  0.47266000  0.55237000  0.31852000  1.0
  O  O30  1  0.74947000  0.58481000  0.43360000  1.0
  O  O31  1  0.25054000  0.41517000  0.56640000  1.0
