# generated using pymatgen
data_AgPH19C19NCl
_symmetry_space_group_name_H-M   'P 1'
_cell_length_a   9.19830000
_cell_length_b   9.72334000
_cell_length_c   11.38840000
_cell_angle_alpha   75.20830000
_cell_angle_beta   66.57620000
_cell_angle_gamma   72.71290000
_symmetry_Int_Tables_number   1
_chemical_formula_structural   AgPH19C19NCl
_chemical_formula_sum   'Ag2 P2 H38 C38 N2 Cl2'
_cell_volume   881.39347452
_cell_formula_units_Z   2
loop_
 _symmetry_equiv_pos_site_id
 _symmetry_equiv_pos_as_xyz
  1  'x, y, z'
loop_
 _atom_site_type_symbol
 _atom_site_label
 _atom_site_symmetry_multiplicity
 _atom_site_fract_x
 _atom_site_fract_y
 _atom_site_fract_z
 _atom_site_occupancy
  Ag  Ag0  1  0.66321000  0.84669000  0.99821000  1.0
  Ag  Ag1  1  0.33679000  0.15331000  0.00179000  1.0
  P  P2  1  0.75880000  0.65655000  0.87429000  1.0
  P  P3  1  0.24120000  0.34345000  0.12571000  1.0
  H  H4  1  0.96176000  0.88119000  0.05986000  1.0
  H  H5  1  0.03825000  0.11882000  0.94014000  1.0
  H  H6  1  0.04972000  0.85283000  0.24620000  1.0
  H  H7  1  0.95028000  0.14717000  0.75381000  1.0
  H  H8  1  0.84679000  0.81073000  0.47379000  1.0
  H  H9  1  0.15320000  0.18927000  0.52621000  1.0
  H  H10  1  0.56263000  0.80863000  0.49943000  1.0
  H  H11  1  0.43737000  0.19136000  0.50056000  1.0
  H  H12  1  0.49515000  0.84376000  0.29852000  1.0
  H  H13  1  0.50486000  0.15623000  0.70148000  1.0
  H  H14  1  0.71652000  0.43173000  0.01470000  1.0
  H  H15  1  0.28348000  0.56827000  0.98530000  1.0
  H  H16  1  0.89986000  0.39931000  0.88207000  1.0
  H  H17  1  0.10014000  0.60069000  0.11793000  1.0
  H  H18  1  0.84303000  0.54160000  0.11323000  1.0
  H  H19  1  0.15697000  0.45840000  0.88676000  1.0
  H  H20  1  0.94859000  0.36173000  0.08944000  1.0
  H  H21  1  0.05142000  0.63827000  0.91056000  1.0
  H  H22  1  0.91030000  0.90234000  0.73723000  1.0
  H  H23  1  0.08970000  0.09766000  0.26277000  1.0
  H  H24  1  0.13314000  0.94344000  0.52580000  1.0
  H  H25  1  0.86685000  0.05657000  0.47420000  1.0
  H  H26  1  0.27083000  0.74845000  0.38803000  1.0
  H  H27  1  0.72917000  0.25155000  0.61197000  1.0
  H  H28  1  0.19667000  0.50617000  0.46734000  1.0
  H  H29  1  0.80333000  0.49383000  0.53266000  1.0
  H  H30  1  0.97622000  0.46428000  0.67613000  1.0
  H  H31  1  0.02378000  0.53572000  0.32387000  1.0
  H  H32  1  0.68261000  0.40106000  0.82120000  1.0
  H  H33  1  0.31740000  0.59895000  0.17879000  1.0
  H  H34  1  0.48527000  0.39157000  0.73078000  1.0
  H  H35  1  0.51474000  0.60843000  0.26922000  1.0
  H  H36  1  0.29736000  0.61845000  0.67158000  1.0
  H  H37  1  0.70265000  0.38155000  0.32842000  1.0
  H  H38  1  0.29983000  0.85570000  0.71516000  1.0
  H  H39  1  0.70018000  0.14430000  0.28484000  1.0
  H  H40  1  0.49736000  0.86667000  0.81007000  1.0
  H  H41  1  0.50264000  0.13333000  0.18993000  1.0
  C  C42  1  0.87665000  0.86496000  0.15900000  1.0
  C  C43  1  0.12335000  0.13504000  0.84100000  1.0
  C  C44  1  0.92507000  0.84882000  0.26418000  1.0
  C  C45  1  0.07493000  0.15118000  0.73581000  1.0
  C  C46  1  0.81226000  0.82674000  0.38917000  1.0
  C  C47  1  0.18774000  0.17326000  0.61084000  1.0
  C  C48  1  0.65478000  0.82484000  0.40376000  1.0
  C  C49  1  0.34522000  0.17515000  0.59624000  1.0
  C  C50  1  0.61676000  0.84270000  0.29314000  1.0
  C  C51  1  0.38325000  0.15730000  0.70686000  1.0
  C  C52  1  0.82703000  0.47248000  0.95421000  1.0
  C  C53  1  0.17297000  0.52752000  0.04578000  1.0
  C  C54  1  0.92163000  0.47328000  0.03794000  1.0
  C  C55  1  0.07837000  0.52672000  0.96206000  1.0
  C  C56  1  0.92802000  0.68113000  0.72073000  1.0
  C  C57  1  0.07198000  0.31887000  0.27927000  1.0
  C  C58  1  0.97402000  0.81568000  0.67763000  1.0
  C  C59  1  0.02598000  0.18433000  0.32237000  1.0
  C  C60  1  0.09830000  0.83861000  0.55887000  1.0
  C  C61  1  0.90170000  0.16139000  0.44113000  1.0
  C  C62  1  0.17731000  0.72836000  0.48228000  1.0
  C  C63  1  0.82269000  0.27164000  0.51772000  1.0
  C  C64  1  0.13385000  0.59318000  0.52601000  1.0
  C  C65  1  0.86615000  0.40682000  0.47399000  1.0
  C  C66  1  0.00969000  0.56984000  0.64428000  1.0
  C  C67  1  0.99031000  0.43016000  0.35572000  1.0
  C  C68  1  0.60828000  0.63676000  0.81655000  1.0
  C  C69  1  0.39171000  0.36324000  0.18346000  1.0
  C  C70  1  0.60242000  0.50250000  0.79610000  1.0
  C  C71  1  0.39758000  0.49750000  0.20390000  1.0
  C  C72  1  0.49034000  0.49680000  0.74427000  1.0
  C  C73  1  0.50966000  0.50320000  0.25573000  1.0
  C  C74  1  0.38392000  0.62373000  0.71250000  1.0
  C  C75  1  0.61608000  0.37627000  0.28751000  1.0
  C  C76  1  0.38602000  0.75702000  0.73646000  1.0
  C  C77  1  0.61398000  0.24298000  0.26354000  1.0
  C  C78  1  0.49723000  0.76353000  0.78876000  1.0
  C  C79  1  0.50277000  0.23647000  0.21124000  1.0
  N  N80  1  0.72577000  0.86080000  0.17239000  1.0
  N  N81  1  0.27423000  0.13920000  0.82761000  1.0
  Cl  Cl82  1  0.66049000  0.11384000  0.87135000  1.0
  Cl  Cl83  1  0.33951000  0.88616000  0.12865000  1.0
