# generated using pymatgen
data_ZnH7C6N7O
_symmetry_space_group_name_H-M   'P 1'
_cell_length_a   6.01950000
_cell_length_b   7.82721000
_cell_length_c   20.36780000
_cell_angle_alpha   89.99940000
_cell_angle_beta   96.83420000
_cell_angle_gamma   89.99940000
_symmetry_Int_Tables_number   1
_chemical_formula_structural   ZnH7C6N7O
_chemical_formula_sum   'Zn4 H28 C24 N28 O4'
_cell_volume   952.82841363
_cell_formula_units_Z   4
loop_
 _symmetry_equiv_pos_site_id
 _symmetry_equiv_pos_as_xyz
  1  'x, y, z'
loop_
 _atom_site_type_symbol
 _atom_site_label
 _atom_site_symmetry_multiplicity
 _atom_site_fract_x
 _atom_site_fract_y
 _atom_site_fract_z
 _atom_site_occupancy
  Zn  Zn0  1  0.11326000  0.82146000  0.74819000  1.0
  Zn  Zn1  1  0.88673000  0.32142000  0.25182000  1.0
  Zn  Zn2  1  0.62317000  0.96242000  0.77389000  1.0
  Zn  Zn3  1  0.37682000  0.46242000  0.22611000  1.0
  H  H4  1  0.53135000  0.44249000  0.55283000  1.0
  H  H5  1  0.46868000  0.94247000  0.44718000  1.0
  H  H6  1  0.72054000  0.56058000  0.46075000  1.0
  H  H7  1  0.27946000  0.06057000  0.53925000  1.0
  H  H8  1  0.10218000  0.69339000  0.48633000  1.0
  H  H9  1  0.89784000  0.19339000  0.51368000  1.0
  H  H10  1  0.27155000  0.70750000  0.60640000  1.0
  H  H11  1  0.72846000  0.20750000  0.39360000  1.0
  H  H12  1  0.79626000  0.34571000  0.71139000  1.0
  H  H13  1  0.20377000  0.84570000  0.28861000  1.0
  H  H14  1  0.52592000  0.39240000  0.66872000  1.0
  H  H15  1  0.47411000  0.89239000  0.33128000  1.0
  H  H16  1  0.67231000  0.54722000  0.72172000  1.0
  H  H17  1  0.32770000  0.04721000  0.27829000  1.0
  H  H18  1  0.23630000  0.21674000  0.99428000  1.0
  H  H19  1  0.76368000  0.71673000  0.00572000  1.0
  H  H20  1  0.94071000  0.40486000  0.93468000  1.0
  H  H21  1  0.05929000  0.90486000  0.06532000  1.0
  H  H22  1  0.96310000  0.47123000  0.81454000  1.0
  H  H23  1  0.03689000  0.97122000  0.18546000  1.0
  H  H24  1  0.28869000  0.35925000  0.76166000  1.0
  H  H25  1  0.71128000  0.85925000  0.23833000  1.0
  H  H26  1  0.59191000  0.95175000  0.92372000  1.0
  H  H27  1  0.40806000  0.45172000  0.07628000  1.0
  H  H28  1  0.58249000  0.07202000  0.99741000  1.0
  H  H29  1  0.41748000  0.57200000  0.00258000  1.0
  H  H30  1  0.76463000  0.13365000  0.93810000  1.0
  H  H31  1  0.23536000  0.63365000  0.06189000  1.0
  C  C32  1  0.79440000  0.51205000  0.62808000  1.0
  C  C33  1  0.20561000  0.01205000  0.37192000  1.0
  C  C34  1  0.69538000  0.50242000  0.56273000  1.0
  C  C35  1  0.30465000  0.00242000  0.43727000  1.0
  C  C36  1  0.80205000  0.56760000  0.51124000  1.0
  C  C37  1  0.19798000  0.06761000  0.48876000  1.0
  C  C38  1  0.01284000  0.64222000  0.52534000  1.0
  C  C39  1  0.98717000  0.14224000  0.47466000  1.0
  C  C40  1  0.10902000  0.65112000  0.59025000  1.0
  C  C41  1  0.89101000  0.15114000  0.40975000  1.0
  C  C42  1  0.69118000  0.44541000  0.68561000  1.0
  C  C43  1  0.30885000  0.94540000  0.31440000  1.0
  C  C44  1  0.41814000  0.18927000  0.91132000  1.0
  C  C45  1  0.58186000  0.68924000  0.08867000  1.0
  C  C46  1  0.24058000  0.25114000  0.94263000  1.0
  C  C47  1  0.75941000  0.75113000  0.05737000  1.0
  C  C48  1  0.07594000  0.35418000  0.90938000  1.0
  C  C49  1  0.92403000  0.85419000  0.09061000  1.0
  C  C50  1  0.08834000  0.39229000  0.84299000  1.0
  C  C51  1  0.91165000  0.89228000  0.15701000  1.0
  C  C52  1  0.26494000  0.33038000  0.81249000  1.0
  C  C53  1  0.73505000  0.83034000  0.18750000  1.0
  C  C54  1  0.60001000  0.08122000  0.94470000  1.0
  C  C55  1  0.39999000  0.58121000  0.05530000  1.0
  N  N56  1  0.79805000  0.92539000  0.69577000  1.0
  N  N57  1  0.20194000  0.42539000  0.30423000  1.0
  N  N58  1  0.71990000  0.93647000  0.63834000  1.0
  N  N59  1  0.28010000  0.43647000  0.36167000  1.0
  N  N60  1  0.64589000  0.94651000  0.58314000  1.0
  N  N61  1  0.35413000  0.44650000  0.41686000  1.0
  N  N62  1  0.93757000  0.86868000  0.82435000  1.0
  N  N63  1  0.06241000  0.36867000  0.17565000  1.0
  N  N64  1  0.01463000  0.85602000  0.88201000  1.0
  N  N65  1  0.98535000  0.35601000  0.11800000  1.0
  N  N66  1  0.08785000  0.84393000  0.93702000  1.0
  N  N67  1  0.91212000  0.34393000  0.06297000  1.0
  N  N68  1  0.30510000  0.99428000  0.70712000  1.0
  N  N69  1  0.69490000  0.49428000  0.29288000  1.0
  N  N70  1  0.23685000  0.11146000  0.67175000  1.0
  N  N71  1  0.76314000  0.61146000  0.32826000  1.0
  N  N72  1  0.17520000  0.22496000  0.63750000  1.0
  N  N73  1  0.82482000  0.72494000  0.36250000  1.0
  N  N74  1  0.43195000  0.77327000  0.80715000  1.0
  N  N75  1  0.56804000  0.27326000  0.19285000  1.0
  N  N76  1  0.50828000  0.68106000  0.85202000  1.0
  N  N77  1  0.49169000  0.18105000  0.14798000  1.0
  N  N78  1  0.58511000  0.59386000  0.89489000  1.0
  N  N79  1  0.41486000  0.09386000  0.10511000  1.0
  N  N80  1  0.99992000  0.58810000  0.63983000  1.0
  N  N81  1  0.00009000  0.08808000  0.36017000  1.0
  N  N82  1  0.42647000  0.23302000  0.84661000  1.0
  N  N83  1  0.57352000  0.73299000  0.15338000  1.0
  O  O84  1  0.10082000  0.59470000  0.70195000  1.0
  O  O85  1  0.89920000  0.09467000  0.29805000  1.0
  O  O86  1  0.60576000  0.18926000  0.81703000  1.0
  O  O87  1  0.39423000  0.68924000  0.18298000  1.0
