# generated using pymatgen
data_Zn6H33C62Cl3O26
_symmetry_space_group_name_H-M   'P 1'
_cell_length_a   18.40620000
_cell_length_b   18.65950000
_cell_length_c   18.79220000
_cell_angle_alpha   109.47300000
_cell_angle_beta   108.74000000
_cell_angle_gamma   108.79800000
_symmetry_Int_Tables_number   1
_chemical_formula_structural   Zn6H33C62Cl3O26
_chemical_formula_sum   'Zn6 H33 C62 Cl3 O26'
_cell_volume   5052.42173493
_cell_formula_units_Z   1
loop_
 _symmetry_equiv_pos_site_id
 _symmetry_equiv_pos_as_xyz
  1  'x, y, z'
loop_
 _atom_site_type_symbol
 _atom_site_label
 _atom_site_symmetry_multiplicity
 _atom_site_fract_x
 _atom_site_fract_y
 _atom_site_fract_z
 _atom_site_occupancy
  Zn  Zn0  1  0.94232000  0.50506000  0.94877000  1.0
  Zn  Zn1  1  0.07211000  0.50465000  0.06696000  1.0
  Zn  Zn2  1  0.48879000  0.05766000  0.05928000  1.0
  Zn  Zn3  1  0.50603000  0.94121000  0.94254000  1.0
  Zn  Zn4  1  0.06849000  0.06473000  0.50644000  1.0
  Zn  Zn5  1  0.93878000  0.93472000  0.49699000  1.0
  H  H6  1  0.10079000  0.75808000  0.98444000  1.0
  H  H7  1  0.84168000  0.17185000  0.57144000  1.0
  H  H8  1  0.91844000  0.36411000  0.70172000  1.0
  H  H9  1  0.83394000  0.27458000  0.69214000  1.0
  H  H10  1  0.75017000  0.14506000  0.01011000  1.0
  H  H11  1  0.55491000  0.30628000  0.98858000  1.0
  H  H12  1  0.62357000  0.36226000  0.10244000  1.0
  H  H13  1  0.66585000  0.41640000  0.97634000  1.0
  H  H14  1  0.73390000  0.47113000  0.09030000  1.0
  H  H15  1  0.19351000  0.77523000  0.30460000  1.0
  H  H16  1  0.19304000  0.90252000  0.40269000  1.0
  H  H17  1  0.84265000  0.73240000  0.23510000  1.0
  H  H18  1  0.86170000  0.79051000  0.17849000  1.0
  H  H19  1  0.84392000  0.60835000  0.12818000  1.0
  H  H20  1  0.86582000  0.66775000  0.07367000  1.0
  H  H21  1  0.62189000  0.83718000  0.11148000  1.0
  H  H22  1  0.72444000  0.83860000  0.23569000  1.0
  H  H23  1  0.86485000  0.18191000  0.42289000  1.0
  H  H24  1  0.92860000  0.17992000  0.36868000  1.0
  H  H25  1  0.75139000  0.17929000  0.30225000  1.0
  H  H26  1  0.32539000  0.53560000  0.93529000  1.0
  H  H27  1  0.81652000  0.18052000  0.24941000  1.0
  H  H28  1  0.35457000  0.95865000  0.70625000  1.0
  H  H29  1  0.23469000  0.96405000  0.60365000  1.0
  H  H30  1  0.08399000  0.97756000  0.80423000  1.0
  H  H31  1  0.03275000  0.86197000  0.74072000  1.0
  H  H32  1  0.15813000  0.86302000  0.84738000  1.0
  H  H33  1  0.45784000  0.81286000  0.05061000  1.0
  H  H34  1  0.22934000  0.89083000  0.01895000  1.0
  H  H35  1  0.11725000  0.29668000  0.92059000  1.0
  H  H36  1  0.92623000  0.26178000  0.58114000  1.0
  H  H37  1  0.92378000  0.31051000  0.02548000  1.0
  H  H38  1  0.47464000  0.62209000  0.01017000  1.0
  C  C39  1  0.01747000  0.37868000  0.91029000  1.0
  C  C40  1  0.23902000  0.67397000  0.96999000  1.0
  C  C41  1  0.16197000  0.67849000  0.96706000  1.0
  C  C42  1  0.15953000  0.75576000  0.98557000  1.0
  C  C43  1  0.23288000  0.83123000  0.00851000  1.0
  C  C44  1  0.31007000  0.83036000  0.01754000  1.0
  C  C45  1  0.96588000  0.28778000  0.75337000  1.0
  C  C46  1  0.01787000  0.31325000  0.83916000  1.0
  C  C47  1  0.07474000  0.27808000  0.85459000  1.0
  C  C48  1  0.07816000  0.22081000  0.78689000  1.0
  C  C49  1  0.02611000  0.19572000  0.70012000  1.0
  C  C50  1  0.09181000  0.60881000  0.96606000  1.0
  C  C51  1  0.97047000  0.23108000  0.68648000  1.0
  C  C52  1  0.90227000  0.23371000  0.61720000  1.0
  C  C53  1  0.89739000  0.29829000  0.69322000  1.0
  C  C54  1  0.73303000  0.34823000  0.02212000  1.0
  C  C55  1  0.80339000  0.34091000  0.01406000  1.0
  C  C56  1  0.81046000  0.26725000  0.01513000  1.0
  C  C57  1  0.74479000  0.20279000  0.01507000  1.0
  C  C58  1  0.67469000  0.21202000  0.02324000  1.0
  C  C59  1  0.67217000  0.28784000  0.02970000  1.0
  C  C60  1  0.62264000  0.33833000  0.04006000  1.0
  C  C61  1  0.05112000  0.63350000  0.14988000  1.0
  C  C62  1  0.69213000  0.40722000  0.03201000  1.0
  C  C63  1  0.97984000  0.71717000  0.19841000  1.0
  C  C64  1  0.05576000  0.70972000  0.21409000  1.0
  C  C65  1  0.13253000  0.77811000  0.28991000  1.0
  C  C66  1  0.13215000  0.84985000  0.34554000  1.0
  C  C67  1  0.05407000  0.85444000  0.33072000  1.0
  C  C68  1  0.97854000  0.78592000  0.25618000  1.0
  C  C69  1  0.88085000  0.75030000  0.20353000  1.0
  C  C70  1  0.88255000  0.67260000  0.13728000  1.0
  C  C71  1  0.61522000  0.97808000  0.09793000  1.0
  C  C72  1  0.86852000  0.40322000  0.00502000  1.0
  C  C73  1  0.38148000  0.90589000  0.02733000  1.0
  C  C74  1  0.37434000  0.95965000  0.85697000  1.0
  C  C75  1  0.60690000  0.14093000  0.02205000  1.0
  C  C76  1  0.08649000  0.95568000  0.60429000  1.0
  C  C77  1  0.02615000  0.13147000  0.62659000  1.0
  C  C78  1  0.86826000  0.97967000  0.38307000  1.0
  C  C79  1  0.04706000  0.92248000  0.39299000  1.0
  C  C80  1  0.74837000  0.05355000  0.24194000  1.0
  C  C81  1  0.68002000  0.97679000  0.16871000  1.0
  C  C82  1  0.67428000  0.89906000  0.16738000  1.0
  C  C83  1  0.24475000  0.59591000  0.94057000  1.0
  C  C84  1  0.73265000  0.89977000  0.23738000  1.0
  C  C85  1  0.80331000  0.97790000  0.31007000  1.0
  C  C86  1  0.80996000  0.05411000  0.30915000  1.0
  C  C87  1  0.86196000  0.15231000  0.36009000  1.0
  C  C88  1  0.79131000  0.15166000  0.28437000  1.0
  C  C89  1  0.22032000  0.93786000  0.79358000  1.0
  C  C90  1  0.29601000  0.94734000  0.78733000  1.0
  C  C91  1  0.29733000  0.95246000  0.71464000  1.0
  C  C92  1  0.22916000  0.95417000  0.65607000  1.0
  C  C93  1  0.15311000  0.94485000  0.66319000  1.0
  C  C94  1  0.32396000  0.59681000  0.95886000  1.0
  C  C95  1  0.14967000  0.93379000  0.73194000  1.0
  C  C96  1  0.09498000  0.92265000  0.77689000  1.0
  C  C97  1  0.17329000  0.92379000  0.84489000  1.0
  C  C98  1  0.40177000  0.67672000  0.00431000  1.0
  C  C99  1  0.39800000  0.75302000  0.02252000  1.0
  C  C100  1  0.31708000  0.75281000  0.00361000  1.0
  Cl  Cl101  1  0.15167000  0.49615000  0.87171000  1.0
  Cl  Cl102  1  0.22089000  0.00779000  0.95314000  1.0
  Cl  Cl103  1  0.14897000  0.17899000  0.81034000  1.0
  O  O104  1  0.96222000  0.40473000  0.88834000  1.0
  O  O105  1  0.58998000  0.92373000  0.01978000  1.0
  O  O106  1  0.40266000  0.98386000  0.07883000  1.0
  O  O107  1  0.41500000  0.88713000  0.97903000  1.0
  O  O108  1  0.39697000  0.01333000  0.93274000  1.0
  O  O109  1  0.41351000  0.91668000  0.83598000  1.0
  O  O110  1  0.56976000  0.16157000  0.06733000  1.0
  O  O111  1  0.59038000  0.06420000  0.97590000  1.0
  O  O112  1  0.11541000  0.01443000  0.58570000  1.0
  O  O113  1  0.00475000  0.90599000  0.57651000  1.0
  O  O114  1  0.08120000  0.16075000  0.60210000  1.0
  O  O115  1  0.07356000  0.40624000  0.98841000  1.0
  O  O116  1  0.96942000  0.05321000  0.59319000  1.0
  O  O117  1  0.94702000  0.03945000  0.42023000  1.0
  O  O118  1  0.84066000  0.92126000  0.40428000  1.0
  O  O119  1  0.10161000  0.00326000  0.42658000  1.0
  O  O120  1  0.98449000  0.89428000  0.40844000  1.0
  O  O121  1  0.01078000  0.58542000  0.92035000  1.0
  O  O122  1  0.11933000  0.58234000  0.01786000  1.0
  O  O123  1  0.99151000  0.60044000  0.07315000  1.0
  O  O124  1  0.10366000  0.60376000  0.17279000  1.0
  O  O125  1  0.84298000  0.43615000  0.95831000  1.0
  O  O126  1  0.94787000  0.41832000  0.04302000  1.0
  O  O127  1  0.58951000  0.03333000  0.12003000  1.0
  O  O128  1  0.87886000  0.25497000  0.01343000  1.0
  O  O129  1  0.48208000  0.68037000  0.02715000  1.0
