# generated using pymatgen
data_Zn3H28C42(N5O7)2
_symmetry_space_group_name_H-M   'P 1'
_cell_length_a   10.85160000
_cell_length_b   14.01082567
_cell_length_c   17.97460000
_cell_angle_alpha   89.42484323
_cell_angle_beta   88.48910000
_cell_angle_gamma   67.23535284
_symmetry_Int_Tables_number   1
_chemical_formula_structural   Zn3H28C42(N5O7)2
_chemical_formula_sum   'Zn6 H56 C84 N20 O28'
_cell_volume   2519.09599805
_cell_formula_units_Z   2
loop_
 _symmetry_equiv_pos_site_id
 _symmetry_equiv_pos_as_xyz
  1  'x, y, z'
loop_
 _atom_site_type_symbol
 _atom_site_label
 _atom_site_symmetry_multiplicity
 _atom_site_fract_x
 _atom_site_fract_y
 _atom_site_fract_z
 _atom_site_occupancy
  Zn  Zn0  1  0.13242000  0.44827000  0.63574000  1.0
  Zn  Zn1  1  0.41939000  0.44850000  0.86449000  1.0
  Zn  Zn2  1  0.86757000  0.55174000  0.36427000  1.0
  Zn  Zn3  1  0.58062000  0.55149000  0.13551000  1.0
  Zn  Zn4  1  0.41443000  0.17143000  0.75007000  1.0
  Zn  Zn5  1  0.58558000  0.82857000  0.24993000  1.0
  H  H6  1  0.40444000  0.15552000  0.91353000  1.0
  H  H7  1  0.69459000  0.99719000  0.75551000  1.0
  H  H8  1  0.56155000  0.09077000  0.01653000  1.0
  H  H9  1  0.86678000  0.92135000  0.85324000  1.0
  H  H10  1  0.53457000  0.26304000  0.51415000  1.0
  H  H11  1  0.90380000  0.56728000  0.67533000  1.0
  H  H12  1  0.87698000  0.55198000  0.58714000  1.0
  H  H13  1  0.66056000  0.34208000  0.43407000  1.0
  H  H14  1  0.66503000  0.53636000  0.61684000  1.0
  H  H15  1  0.42104000  0.63325000  0.99301000  1.0
  H  H16  1  0.36263000  0.71936000  0.21538000  1.0
  H  H17  1  0.73559000  0.05521000  0.09637000  1.0
  H  H18  1  0.19086000  0.75446000  0.96185000  1.0
  H  H19  1  0.12984000  0.84548000  0.19320000  1.0
  H  H20  1  0.43912000  0.15627000  0.58673000  1.0
  H  H21  1  0.30888000  0.99652000  0.74449000  1.0
  H  H22  1  0.34651000  0.09177000  0.48369000  1.0
  H  H23  1  0.21222000  0.92093000  0.64667000  1.0
  H  H24  1  0.20270000  0.26301000  0.98590000  1.0
  H  H25  1  0.52988000  0.56698000  0.82480000  1.0
  H  H26  1  0.57152000  0.55198000  0.91302000  1.0
  H  H27  1  0.99754000  0.34167000  0.06587000  1.0
  H  H28  1  0.79938000  0.53662000  0.88337000  1.0
  H  H29  1  0.94592000  0.63324000  0.50661000  1.0
  H  H30  1  0.91727000  0.71991000  0.28436000  1.0
  H  H31  1  0.20899000  0.05573000  0.40368000  1.0
  H  H32  1  0.05505000  0.75445000  0.53775000  1.0
  H  H33  1  0.02392000  0.84614000  0.30655000  1.0
  H  H34  1  0.59556000  0.84449000  0.08648000  1.0
  H  H35  1  0.30541000  0.00282000  0.24450000  1.0
  H  H36  1  0.43844000  0.90924000  0.98347000  1.0
  H  H37  1  0.13321000  0.07866000  0.14677000  1.0
  H  H38  1  0.46544000  0.73695000  0.48585000  1.0
  H  H39  1  0.09617000  0.43269000  0.32467000  1.0
  H  H40  1  0.12302000  0.44802000  0.41285000  1.0
  H  H41  1  0.33945000  0.65791000  0.56593000  1.0
  H  H42  1  0.33497000  0.46365000  0.38315000  1.0
  H  H43  1  0.57896000  0.36673000  0.00700000  1.0
  H  H44  1  0.63738000  0.28063000  0.78463000  1.0
  H  H45  1  0.26441000  0.94481000  0.90364000  1.0
  H  H46  1  0.80913000  0.24552000  0.03816000  1.0
  H  H47  1  0.87017000  0.15451000  0.80680000  1.0
  H  H48  1  0.56090000  0.84373000  0.41327000  1.0
  H  H49  1  0.69111000  0.00347000  0.25549000  1.0
  H  H50  1  0.65351000  0.90824000  0.51631000  1.0
  H  H51  1  0.78777000  0.07907000  0.35331000  1.0
  H  H52  1  0.79732000  0.73699000  0.01409000  1.0
  H  H53  1  0.47015000  0.43300000  0.17520000  1.0
  H  H54  1  0.42851000  0.44800000  0.08699000  1.0
  H  H55  1  0.00250000  0.65833000  0.93413000  1.0
  H  H56  1  0.20061000  0.46336000  0.11664000  1.0
  H  H57  1  0.05409000  0.36678000  0.49340000  1.0
  H  H58  1  0.08273000  0.28008000  0.71564000  1.0
  H  H59  1  0.79098000  0.94431000  0.59631000  1.0
  H  H60  1  0.94494000  0.24559000  0.46225000  1.0
  H  H61  1  0.97607000  0.15386000  0.69343000  1.0
  C  C62  1  0.46267000  0.29899000  0.65749000  1.0
  C  C63  1  0.50723000  0.10288000  0.90248000  1.0
  C  C64  1  0.66939000  0.01358000  0.81437000  1.0
  C  C65  1  0.53049000  0.35467000  0.61092000  1.0
  C  C66  1  0.59661000  0.06649000  0.95978000  1.0
  C  C67  1  0.76484000  0.97248000  0.86828000  1.0
  C  C68  1  0.56458000  0.32243000  0.53700000  1.0
  C  C69  1  0.56504000  0.43408000  0.63910000  1.0
  C  C70  1  0.72924000  0.00084000  0.94297000  1.0
  C  C71  1  0.75300000  0.48893000  0.47454000  1.0
  C  C72  1  0.63515000  0.36614000  0.49184000  1.0
  C  C73  1  0.63831000  0.47556000  0.59394000  1.0
  C  C74  1  0.52316000  0.47720000  0.71609000  1.0
  C  C75  1  0.82963000  0.96334000  0.99979000  1.0
  C  C76  1  0.35372000  0.68150000  0.03579000  1.0
  C  C77  1  0.32018000  0.72931000  0.16018000  1.0
  C  C78  1  0.67502000  0.44181000  0.52083000  1.0
  C  C79  1  0.22570000  0.75005000  0.01854000  1.0
  C  C80  1  0.19128000  0.79957000  0.14750000  1.0
  C  C81  1  0.00652000  0.88256000  0.05926000  1.0
  C  C82  1  0.14167000  0.81035000  0.07541000  1.0
  C  C83  1  0.23898000  0.29926000  0.84273000  1.0
  C  C84  1  0.38933000  0.10333000  0.59767000  1.0
  C  C85  1  0.31727000  0.01332000  0.68566000  1.0
  C  C86  1  0.11547000  0.35491000  0.88928000  1.0
  C  C87  1  0.33610000  0.06711000  0.54037000  1.0
  C  C88  1  0.26271000  0.97236000  0.63174000  1.0
  C  C89  1  0.11335000  0.32246000  0.96312000  1.0
  C  C90  1  0.00164000  0.43440000  0.86113000  1.0
  C  C91  1  0.26957000  0.00110000  0.55710000  1.0
  C  C92  1  0.75845000  0.48870000  0.02551000  1.0
  C  C93  1  0.99898000  0.36592000  0.00819000  1.0
  C  C94  1  0.88683000  0.47576000  0.90625000  1.0
  C  C95  1  0.00051000  0.47762000  0.78419000  1.0
  C  C96  1  0.20673000  0.96370000  0.50018000  1.0
  C  C97  1  0.96488000  0.68159000  0.46384000  1.0
  C  C98  1  0.95004000  0.72977000  0.33953000  1.0
  C  C99  1  0.88360000  0.44178000  0.97927000  1.0
  C  C100  1  0.02446000  0.75011000  0.48109000  1.0
  C  C101  1  0.00867000  0.80009000  0.35224000  1.0
  C  C102  1  0.11083000  0.88288000  0.44052000  1.0
  C  C103  1  0.04788000  0.81064000  0.42428000  1.0
  C  C104  1  0.53733000  0.70102000  0.34251000  1.0
  C  C105  1  0.49277000  0.89712000  0.09753000  1.0
  C  C106  1  0.33060000  0.98643000  0.18564000  1.0
  C  C107  1  0.46952000  0.64533000  0.38908000  1.0
  C  C108  1  0.40340000  0.93351000  0.04023000  1.0
  C  C109  1  0.23515000  0.02753000  0.13172000  1.0
  C  C110  1  0.43542000  0.67757000  0.46300000  1.0
  C  C111  1  0.43496000  0.56593000  0.36090000  1.0
  C  C112  1  0.27076000  0.99917000  0.05704000  1.0
  C  C113  1  0.24700000  0.51107000  0.52546000  1.0
  C  C114  1  0.36485000  0.63387000  0.50816000  1.0
  C  C115  1  0.36168000  0.52445000  0.40606000  1.0
  C  C116  1  0.47685000  0.52280000  0.28391000  1.0
  C  C117  1  0.17037000  0.03666000  0.00022000  1.0
  C  C118  1  0.64627000  0.31849000  0.96421000  1.0
  C  C119  1  0.67982000  0.27067000  0.83983000  1.0
  C  C120  1  0.32499000  0.55819000  0.47917000  1.0
  C  C121  1  0.77430000  0.24993000  0.98147000  1.0
  C  C122  1  0.80872000  0.20041000  0.85251000  1.0
  C  C123  1  0.99349000  0.11742000  0.94075000  1.0
  C  C124  1  0.85832000  0.18964000  0.92459000  1.0
  C  C125  1  0.76102000  0.70073000  0.15726000  1.0
  C  C126  1  0.61068000  0.89667000  0.40234000  1.0
  C  C127  1  0.68273000  0.98667000  0.31432000  1.0
  C  C128  1  0.88453000  0.64509000  0.11072000  1.0
  C  C129  1  0.66390000  0.93291000  0.45962000  1.0
  C  C130  1  0.73728000  0.02765000  0.36825000  1.0
  C  C131  1  0.88666000  0.67754000  0.03688000  1.0
  C  C132  1  0.99835000  0.56559000  0.13888000  1.0
  C  C133  1  0.73043000  0.99891000  0.44289000  1.0
  C  C134  1  0.24156000  0.51130000  0.97450000  1.0
  C  C135  1  0.00104000  0.63407000  0.99181000  1.0
  C  C136  1  0.11317000  0.52423000  0.09376000  1.0
  C  C137  1  0.99946000  0.52235000  0.21581000  1.0
  C  C138  1  0.79325000  0.03633000  0.49981000  1.0
  C  C139  1  0.03512000  0.31843000  0.53615000  1.0
  C  C140  1  0.04997000  0.27023000  0.66046000  1.0
  C  C141  1  0.11640000  0.55822000  0.02074000  1.0
  C  C142  1  0.97554000  0.24991000  0.51890000  1.0
  C  C143  1  0.99132000  0.19993000  0.64775000  1.0
  C  C144  1  0.88916000  0.11715000  0.55946000  1.0
  C  C145  1  0.95211000  0.18938000  0.57571000  1.0
  N  N146  1  0.54265000  0.07819000  0.83062000  1.0
  N  N147  1  0.40023000  0.67065000  0.10539000  1.0
  N  N148  1  0.81319000  0.99665000  0.07189000  1.0
  N  N149  1  0.95225000  0.89111000  0.99062000  1.0
  N  N150  1  0.92419000  0.94715000  0.11059000  1.0
  N  N151  1  0.37909000  0.07821000  0.66948000  1.0
  N  N152  1  0.92886000  0.67094000  0.39427000  1.0
  N  N153  1  0.18991000  0.99713000  0.42810000  1.0
  N  N154  1  0.15641000  0.89138000  0.50920000  1.0
  N  N155  1  0.12857000  0.94756000  0.38928000  1.0
  N  N156  1  0.45734000  0.92182000  0.16939000  1.0
  N  N157  1  0.59977000  0.32934000  0.89462000  1.0
  N  N158  1  0.18682000  0.00335000  0.92812000  1.0
  N  N159  1  0.04774000  0.10888000  0.00939000  1.0
  N  N160  1  0.07582000  0.05284000  0.88942000  1.0
  N  N161  1  0.62091000  0.92178000  0.33052000  1.0
  N  N162  1  0.07114000  0.32907000  0.60572000  1.0
  N  N163  1  0.81008000  0.00289000  0.57189000  1.0
  N  N164  1  0.84359000  0.10863000  0.49078000  1.0
  N  N165  1  0.87141000  0.05247000  0.61070000  1.0
  O  O166  1  0.54174000  0.22018000  0.69491000  1.0
  O  O167  1  0.33992000  0.31729000  0.65382000  1.0
  O  O168  1  0.93787000  0.56587000  0.62190000  1.0
  O  O169  1  0.45447000  0.43569000  0.75416000  1.0
  O  O170  1  0.77017000  0.46611000  0.40490000  1.0
  O  O171  1  0.79907000  0.54960000  0.50418000  1.0
  O  O172  1  0.55749000  0.54840000  0.73758000  1.0
  O  O173  1  0.23863000  0.22040000  0.80536000  1.0
  O  O174  1  0.34339000  0.31762000  0.84635000  1.0
  O  O175  1  0.49681000  0.56593000  0.87820000  1.0
  O  O176  1  0.11052000  0.43568000  0.74601000  1.0
  O  O177  1  0.76384000  0.46555000  0.09507000  1.0
  O  O178  1  0.65183000  0.54953000  0.99590000  1.0
  O  O179  1  0.89529000  0.54910000  0.76280000  1.0
  O  O180  1  0.45826000  0.77982000  0.30510000  1.0
  O  O181  1  0.66009000  0.68272000  0.34618000  1.0
  O  O182  1  0.06211000  0.43413000  0.37809000  1.0
  O  O183  1  0.54554000  0.56431000  0.24584000  1.0
  O  O184  1  0.22983000  0.53388000  0.59509000  1.0
  O  O185  1  0.20094000  0.45039000  0.49580000  1.0
  O  O186  1  0.44251000  0.45161000  0.26242000  1.0
  O  O187  1  0.76135000  0.77960000  0.19463000  1.0
  O  O188  1  0.65660000  0.68238000  0.15364000  1.0
  O  O189  1  0.50323000  0.43405000  0.12181000  1.0
  O  O190  1  0.88947000  0.56433000  0.25399000  1.0
  O  O191  1  0.23618000  0.53444000  0.90494000  1.0
  O  O192  1  0.34819000  0.45046000  0.00412000  1.0
  O  O193  1  0.10466000  0.45083000  0.23719000  1.0
