# generated using pymatgen
data_LuH6(C2N3)3
_symmetry_space_group_name_H-M   'P 1'
_cell_length_a   9.15255000
_cell_length_b   9.15253000
_cell_length_c   12.45650000
_cell_angle_alpha   91.33180000
_cell_angle_beta   91.33230000
_cell_angle_gamma   118.67700000
_symmetry_Int_Tables_number   1
_chemical_formula_structural   LuH6(C2N3)3
_chemical_formula_sum   'Lu4 H24 C24 N36'
_cell_volume   914.52373364
_cell_formula_units_Z   4
loop_
 _symmetry_equiv_pos_site_id
 _symmetry_equiv_pos_as_xyz
  1  'x, y, z'
loop_
 _atom_site_type_symbol
 _atom_site_label
 _atom_site_symmetry_multiplicity
 _atom_site_fract_x
 _atom_site_fract_y
 _atom_site_fract_z
 _atom_site_occupancy
  Lu  Lu0  1  0.74139000  0.47989000  0.57217000  1.0
  Lu  Lu1  1  0.52011000  0.25861000  0.92783000  1.0
  Lu  Lu2  1  0.25861000  0.52011000  0.42783000  1.0
  Lu  Lu3  1  0.47989000  0.74139000  0.07217000  1.0
  H  H4  1  0.70737000  0.78105000  0.76187000  1.0
  H  H5  1  0.21894000  0.29263000  0.73813000  1.0
  H  H6  1  0.29263000  0.21894000  0.23813000  1.0
  H  H7  1  0.78105000  0.70737000  0.26187000  1.0
  H  H8  1  0.45897000  0.87100000  0.72567000  1.0
  H  H9  1  0.12900000  0.54103000  0.77434000  1.0
  H  H10  1  0.54104000  0.12900000  0.27434000  1.0
  H  H11  1  0.87100000  0.45897000  0.22567000  1.0
  H  H12  1  0.74183000  0.09987000  0.66374000  1.0
  H  H13  1  0.90013000  0.25817000  0.83626000  1.0
  H  H14  1  0.25817000  0.90013000  0.33626000  1.0
  H  H15  1  0.09986000  0.74183000  0.16374000  1.0
  H  H16  1  0.98948000  0.02332000  0.60096000  1.0
  H  H17  1  0.97668000  0.01052000  0.89904000  1.0
  H  H18  1  0.01052000  0.97668000  0.39904000  1.0
  H  H19  1  0.02332000  0.98948000  0.10096000  1.0
  H  H20  1  0.10454000  0.84759000  0.83977000  1.0
  H  H21  1  0.15242000  0.89546000  0.66023000  1.0
  H  H22  1  0.89546000  0.15242000  0.16023000  1.0
  H  H23  1  0.84758000  0.10455000  0.33977000  1.0
  H  H24  1  0.90476000  0.64222000  0.99701000  1.0
  H  H25  1  0.35779000  0.09524000  0.50298000  1.0
  H  H26  1  0.09523000  0.35779000  0.00298000  1.0
  H  H27  1  0.64222000  0.90477000  0.49702000  1.0
  C  C28  1  0.60799000  0.73707000  0.70062000  1.0
  C  C29  1  0.26292000  0.39201000  0.79938000  1.0
  C  C30  1  0.39201000  0.26292000  0.29938000  1.0
  C  C31  1  0.73707000  0.60799000  0.20062000  1.0
  C  C32  1  0.48466000  0.78237000  0.68233000  1.0
  C  C33  1  0.21763000  0.51534000  0.81767000  1.0
  C  C34  1  0.51534000  0.21763000  0.31767000  1.0
  C  C35  1  0.78237000  0.48466000  0.18233000  1.0
  C  C36  1  0.85156000  0.16983000  0.61797000  1.0
  C  C37  1  0.83017000  0.14844000  0.88203000  1.0
  C  C38  1  0.14844000  0.83017000  0.38203000  1.0
  C  C39  1  0.16982000  0.85155000  0.11797000  1.0
  C  C40  1  0.97495000  0.13203000  0.58676000  1.0
  C  C41  1  0.86797000  0.02505000  0.91324000  1.0
  C  C42  1  0.02505000  0.86797000  0.41324000  1.0
  C  C43  1  0.13202000  0.97495000  0.08676000  1.0
  C  C44  1  0.99169000  0.72826000  0.83191000  1.0
  C  C45  1  0.27174000  0.00831000  0.66809000  1.0
  C  C46  1  0.00831000  0.27174000  0.16809000  1.0
  C  C47  1  0.72826000  0.99170000  0.33191000  1.0
  C  C48  1  0.89346000  0.62494000  0.91052000  1.0
  C  C49  1  0.37506000  0.10654000  0.58948000  1.0
  C  C50  1  0.10654000  0.37506000  0.08948000  1.0
  C  C51  1  0.62494000  0.89346000  0.41052000  1.0
  N  N52  1  0.58478000  0.61720000  0.62573000  1.0
  N  N53  1  0.38280000  0.41523000  0.87427000  1.0
  N  N54  1  0.41523000  0.38280000  0.37427000  1.0
  N  N55  1  0.61720000  0.58478000  0.12573000  1.0
  N  N56  1  0.45089000  0.58975000  0.56548000  1.0
  N  N57  1  0.41025000  0.54911000  0.93452000  1.0
  N  N58  1  0.54912000  0.41025000  0.43452000  1.0
  N  N59  1  0.58976000  0.45089000  0.06548000  1.0
  N  N60  1  0.38847000  0.68773000  0.59717000  1.0
  N  N61  1  0.31227000  0.61153000  0.90283000  1.0
  N  N62  1  0.61153000  0.31227000  0.40283000  1.0
  N  N63  1  0.68774000  0.38847000  0.09717000  1.0
  N  N64  1  0.88752000  0.31979000  0.57895000  1.0
  N  N65  1  0.68021000  0.11249000  0.92105000  1.0
  N  N66  1  0.11249000  0.68021000  0.42105000  1.0
  N  N67  1  0.31979000  0.88751000  0.07895000  1.0
  N  N68  1  0.02804000  0.37090000  0.52608000  1.0
  N  N69  1  0.62910000  0.97196000  0.97392000  1.0
  N  N70  1  0.97197000  0.62910000  0.47392000  1.0
  N  N71  1  0.37090000  0.02804000  0.02608000  1.0
  N  N72  1  0.08346000  0.26053000  0.52914000  1.0
  N  N73  1  0.73947000  0.91654000  0.97086000  1.0
  N  N74  1  0.91654000  0.73948000  0.47086000  1.0
  N  N75  1  0.26052000  0.08346000  0.02914000  1.0
  N  N76  1  0.92450000  0.64974000  0.73540000  1.0
  N  N77  1  0.35026000  0.07551000  0.76460000  1.0
  N  N78  1  0.07551000  0.35026000  0.26460000  1.0
  N  N79  1  0.64973000  0.92450000  0.23540000  1.0
  N  N80  1  0.79179000  0.50483000  0.75518000  1.0
  N  N81  1  0.49518000  0.20822000  0.74482000  1.0
  N  N82  1  0.20822000  0.49517000  0.24482000  1.0
  N  N83  1  0.50482000  0.79179000  0.25518000  1.0
  N  N84  1  0.76903000  0.48633000  0.86067000  1.0
  N  N85  1  0.51368000  0.23097000  0.63933000  1.0
  N  N86  1  0.23097000  0.51367000  0.13933000  1.0
  N  N87  1  0.48633000  0.76903000  0.36067000  1.0
