# generated using pymatgen
data_CdH44C42(N6Cl)2
_symmetry_space_group_name_H-M   'P 1'
_cell_length_a   7.87246000
_cell_length_b   12.51780000
_cell_length_c   24.61360000
_cell_angle_alpha   103.07700000
_cell_angle_beta   90.00000000
_cell_angle_gamma   90.00000000
_symmetry_Int_Tables_number   1
_chemical_formula_structural   CdH44C42(N6Cl)2
_chemical_formula_sum   'Cd2 H88 C84 N24 Cl4'
_cell_volume   2362.66627999
_cell_formula_units_Z   2
loop_
 _symmetry_equiv_pos_site_id
 _symmetry_equiv_pos_as_xyz
  1  'x, y, z'
loop_
 _atom_site_type_symbol
 _atom_site_label
 _atom_site_symmetry_multiplicity
 _atom_site_fract_x
 _atom_site_fract_y
 _atom_site_fract_z
 _atom_site_occupancy
  Cd  Cd0  1  0.00000000  0.00000000  0.00000000  1.0
  Cd  Cd1  1  0.00000000  0.50000000  0.50000000  1.0
  H  H2  1  0.18273000  0.58456000  0.00054000  1.0
  H  H3  1  0.18273000  0.91543000  0.49945000  1.0
  H  H4  1  0.81727000  0.41544000  0.99945000  1.0
  H  H5  1  0.81727000  0.08456000  0.50055000  1.0
  H  H6  1  0.01952000  0.73883000  0.97638000  1.0
  H  H7  1  0.01952000  0.76117000  0.52362000  1.0
  H  H8  1  0.98048000  0.26117000  0.02362000  1.0
  H  H9  1  0.98049000  0.23883000  0.47638000  1.0
  H  H10  1  0.32984000  0.97127000  0.07345000  1.0
  H  H11  1  0.32984000  0.52873000  0.42655000  1.0
  H  H12  1  0.67016000  0.02873000  0.92655000  1.0
  H  H13  1  0.67016000  0.47127000  0.57345000  1.0
  H  H14  1  0.50181000  0.82890000  0.10519000  1.0
  H  H15  1  0.50181000  0.67110000  0.39481000  1.0
  H  H16  1  0.49819000  0.17110000  0.89481000  1.0
  H  H17  1  0.49819000  0.32890000  0.60519000  1.0
  H  H18  1  0.20325000  0.41208000  0.11042000  1.0
  H  H19  1  0.20325000  0.08792000  0.38958000  1.0
  H  H20  1  0.79675000  0.58792000  0.88958000  1.0
  H  H21  1  0.79675000  0.91208000  0.61042000  1.0
  H  H22  1  0.18826000  0.40615000  0.03790000  1.0
  H  H23  1  0.18826000  0.09385000  0.46210000  1.0
  H  H24  1  0.81174000  0.59385000  0.96210000  1.0
  H  H25  1  0.81173000  0.90615000  0.53790000  1.0
  H  H26  1  0.12627000  0.52721000  0.08663000  1.0
  H  H27  1  0.12627000  0.97279000  0.41337000  1.0
  H  H28  1  0.87373000  0.47280000  0.91337000  1.0
  H  H29  1  0.87373000  0.02721000  0.58663000  1.0
  H  H30  1  0.89064000  0.65291000  0.07539000  1.0
  H  H31  1  0.89064000  0.84709000  0.42461000  1.0
  H  H32  1  0.10937000  0.34709000  0.92461000  1.0
  H  H33  1  0.10937000  0.15292000  0.57539000  1.0
  H  H34  1  0.76410000  0.75758000  0.11658000  1.0
  H  H35  1  0.76410000  0.74242000  0.38342000  1.0
  H  H36  1  0.23590000  0.24242000  0.88342000  1.0
  H  H37  1  0.23590000  0.25758000  0.61658000  1.0
  H  H38  1  0.74220000  0.72742000  0.04328000  1.0
  H  H39  1  0.74220000  0.77258000  0.45672000  1.0
  H  H40  1  0.25780000  0.27258000  0.95672000  1.0
  H  H41  1  0.25780000  0.22742000  0.54328000  1.0
  H  H42  1  0.43242000  0.29459000  0.08856000  1.0
  H  H43  1  0.43242000  0.20541000  0.41144000  1.0
  H  H44  1  0.56758000  0.70541000  0.91144000  1.0
  H  H45  1  0.56758000  0.79459000  0.58856000  1.0
  H  H46  1  0.65944000  0.30614000  0.09220000  1.0
  H  H47  1  0.65943000  0.19386000  0.40780000  1.0
  H  H48  1  0.34057000  0.69386000  0.90780000  1.0
  H  H49  1  0.34056000  0.80614000  0.59220000  1.0
  H  H50  1  0.89414000  0.43321000  0.17451000  1.0
  H  H51  1  0.89414000  0.06679000  0.32549000  1.0
  H  H52  1  0.10586000  0.56679000  0.82549000  1.0
  H  H53  1  0.10586000  0.93321000  0.67451000  1.0
  H  H54  1  0.85836000  0.29076000  0.15101000  1.0
  H  H55  1  0.85835000  0.20924000  0.34899000  1.0
  H  H56  1  0.14164000  0.70924000  0.84899000  1.0
  H  H57  1  0.14164000  0.79076000  0.65101000  1.0
  H  H58  1  0.92122000  0.34345000  0.22077000  1.0
  H  H59  1  0.92122000  0.15655000  0.27923000  1.0
  H  H60  1  0.07878000  0.65655000  0.77923000  1.0
  H  H61  1  0.07878000  0.84345000  0.72077000  1.0
  H  H62  1  0.24668000  0.34894000  0.30961000  1.0
  H  H63  1  0.24668000  0.15106000  0.19039000  1.0
  H  H64  1  0.75332000  0.65106000  0.69039000  1.0
  H  H65  1  0.75332000  0.84894000  0.80961000  1.0
  H  H66  1  0.14523000  0.42079000  0.26405000  1.0
  H  H67  1  0.14522000  0.07921000  0.23595000  1.0
  H  H68  1  0.85477000  0.57921000  0.73595000  1.0
  H  H69  1  0.85477000  0.92079000  0.76405000  1.0
  H  H70  1  0.27956000  0.49184000  0.31871000  1.0
  H  H71  1  0.27956000  0.00816000  0.18129000  1.0
  H  H72  1  0.72044000  0.50816000  0.68129000  1.0
  H  H73  1  0.72044000  0.99184000  0.81871000  1.0
  H  H74  1  0.47202000  0.36875000  0.35950000  1.0
  H  H75  1  0.47202000  0.13125000  0.14050000  1.0
  H  H76  1  0.52798000  0.63125000  0.64050000  1.0
  H  H77  1  0.52798000  0.86875000  0.85950000  1.0
  H  H78  1  0.89006000  0.50673000  0.28365000  1.0
  H  H79  1  0.89006000  0.99327000  0.21635000  1.0
  H  H80  1  0.10994000  0.49328000  0.71635000  1.0
  H  H81  1  0.10994000  0.00672000  0.78365000  1.0
  H  H82  1  0.62522000  0.41989000  0.44854000  1.0
  H  H83  1  0.62521000  0.08011000  0.05146000  1.0
  H  H84  1  0.37479000  0.58011000  0.55146000  1.0
  H  H85  1  0.37479000  0.91989000  0.94854000  1.0
  H  H86  1  0.03277000  0.54314000  0.37571000  1.0
  H  H87  1  0.03277000  0.95686000  0.12429000  1.0
  H  H88  1  0.96723000  0.45686000  0.62429000  1.0
  H  H89  1  0.96723000  0.04314000  0.87571000  1.0
  C  C90  1  0.35606000  0.69249000  0.05645000  1.0
  C  C91  1  0.35606000  0.80751000  0.44355000  1.0
  C  C92  1  0.64394000  0.30751000  0.94355000  1.0
  C  C93  1  0.64394000  0.19249000  0.55646000  1.0
  C  C94  1  0.21698000  0.66887000  0.01966000  1.0
  C  C95  1  0.21698000  0.83113000  0.48034000  1.0
  C  C96  1  0.78302000  0.33113000  0.98034000  1.0
  C  C97  1  0.78303000  0.16887000  0.51966000  1.0
  C  C98  1  0.12779000  0.75367000  0.00493000  1.0
  C  C99  1  0.12779000  0.74633000  0.49507000  1.0
  C  C100  1  0.87221000  0.24633000  0.99507000  1.0
  C  C101  1  0.87221000  0.25367000  0.50493000  1.0
  C  C102  1  0.30161000  0.88393000  0.05937000  1.0
  C  C103  1  0.30161000  0.61607000  0.44063000  1.0
  C  C104  1  0.69839000  0.11607000  0.94063000  1.0
  C  C105  1  0.69839000  0.38393000  0.55937000  1.0
  C  C106  1  0.39700000  0.80407000  0.07624000  1.0
  C  C107  1  0.39700000  0.69593000  0.42376000  1.0
  C  C108  1  0.60301000  0.19593000  0.92376000  1.0
  C  C109  1  0.60301000  0.30407000  0.57624000  1.0
  C  C110  1  0.45451000  0.60625000  0.07239000  1.0
  C  C111  1  0.45451000  0.89375000  0.42761000  1.0
  C  C112  1  0.54549000  0.39375000  0.92761000  1.0
  C  C113  1  0.54549000  0.10625000  0.57239000  1.0
  C  C114  1  0.39436000  0.50494000  0.07959000  1.0
  C  C115  1  0.39435000  0.99505000  0.42041000  1.0
  C  C116  1  0.60565000  0.49506000  0.92041000  1.0
  C  C117  1  0.60564000  0.00494000  0.57959000  1.0
  C  C118  1  0.21891000  0.46003000  0.07854000  1.0
  C  C119  1  0.21891000  0.03997000  0.42146000  1.0
  C  C120  1  0.78109000  0.53998000  0.92146000  1.0
  C  C121  1  0.78109000  0.96003000  0.57854000  1.0
  C  C122  1  0.63345000  0.60517000  0.08252000  1.0
  C  C123  1  0.63345000  0.89482000  0.41748000  1.0
  C  C124  1  0.36655000  0.39482000  0.91748000  1.0
  C  C125  1  0.36655000  0.10518000  0.58252000  1.0
  C  C126  1  0.76380000  0.69009000  0.07911000  1.0
  C  C127  1  0.76380000  0.80991000  0.42089000  1.0
  C  C128  1  0.23621000  0.30991000  0.92089000  1.0
  C  C129  1  0.23621000  0.19009000  0.57911000  1.0
  C  C130  1  0.53958000  0.34592000  0.10765000  1.0
  C  C131  1  0.53958000  0.15408000  0.39235000  1.0
  C  C132  1  0.46042000  0.65408000  0.89235000  1.0
  C  C133  1  0.46042000  0.84592000  0.60765000  1.0
  C  C134  1  0.66207000  0.37548000  0.20468000  1.0
  C  C135  1  0.66207000  0.12452000  0.29532000  1.0
  C  C136  1  0.33793000  0.62452000  0.79532000  1.0
  C  C137  1  0.33793000  0.87548000  0.70468000  1.0
  C  C138  1  0.84304000  0.36045000  0.18690000  1.0
  C  C139  1  0.84304000  0.13955000  0.31310000  1.0
  C  C140  1  0.15696000  0.63956000  0.81310000  1.0
  C  C141  1  0.15695000  0.86044000  0.68690000  1.0
  C  C142  1  0.58578000  0.40034000  0.25764000  1.0
  C  C143  1  0.58578000  0.09966000  0.24236000  1.0
  C  C144  1  0.41422000  0.59966000  0.74236000  1.0
  C  C145  1  0.41421000  0.90034000  0.75764000  1.0
  C  C146  1  0.40681000  0.39502000  0.24707000  1.0
  C  C147  1  0.40680000  0.10498000  0.25293000  1.0
  C  C148  1  0.59319000  0.60498000  0.75293000  1.0
  C  C149  1  0.59319000  0.89502000  0.74707000  1.0
  C  C150  1  0.26235000  0.41499000  0.28717000  1.0
  C  C151  1  0.26235000  0.08501000  0.21283000  1.0
  C  C152  1  0.73765000  0.58501000  0.71283000  1.0
  C  C153  1  0.73765000  0.91499000  0.78717000  1.0
  C  C154  1  0.66969000  0.42896000  0.31162000  1.0
  C  C155  1  0.66968000  0.07104000  0.18838000  1.0
  C  C156  1  0.33031000  0.57104000  0.68838000  1.0
  C  C157  1  0.33031000  0.92896000  0.81162000  1.0
  C  C158  1  0.59569000  0.40782000  0.36028000  1.0
  C  C159  1  0.59569000  0.09218000  0.13972000  1.0
  C  C160  1  0.40431000  0.59218000  0.63972000  1.0
  C  C161  1  0.40431000  0.90782000  0.86028000  1.0
  C  C162  1  0.82876000  0.48191000  0.31845000  1.0
  C  C163  1  0.82876000  0.01809000  0.18155000  1.0
  C  C164  1  0.17123000  0.51809000  0.68155000  1.0
  C  C165  1  0.17123000  0.98191000  0.81845000  1.0
  C  C166  1  0.68234000  0.43545000  0.41067000  1.0
  C  C167  1  0.68234000  0.06456000  0.08933000  1.0
  C  C168  1  0.31766000  0.56456000  0.58932000  1.0
  C  C169  1  0.31766000  0.93544000  0.91067000  1.0
  C  C170  1  0.90798000  0.50440000  0.37017000  1.0
  C  C171  1  0.90798000  0.99560000  0.12983000  1.0
  C  C172  1  0.09202000  0.49560000  0.62983000  1.0
  C  C173  1  0.09202000  0.00440000  0.87017000  1.0
  N  N174  1  0.16827000  0.85987000  0.02445000  1.0
  N  N175  1  0.16827000  0.64013000  0.47555000  1.0
  N  N176  1  0.83173000  0.14013000  0.97555000  1.0
  N  N177  1  0.83173000  0.35987000  0.52446000  1.0
  N  N178  1  0.53392000  0.45077000  0.09209000  1.0
  N  N179  1  0.53391000  0.04923000  0.40791000  1.0
  N  N180  1  0.46608000  0.54923000  0.90791000  1.0
  N  N181  1  0.46608000  0.95077000  0.59209000  1.0
  N  N182  1  0.68023000  0.51019000  0.09414000  1.0
  N  N183  1  0.68023000  0.98981000  0.40586000  1.0
  N  N184  1  0.31977000  0.48981000  0.90586000  1.0
  N  N185  1  0.31977000  0.01019000  0.59414000  1.0
  N  N186  1  0.53109000  0.35843000  0.16750000  1.0
  N  N187  1  0.53109000  0.14157000  0.33250000  1.0
  N  N188  1  0.46891000  0.64157000  0.83250000  1.0
  N  N189  1  0.46891000  0.85843000  0.66750000  1.0
  N  N190  1  0.37535000  0.37135000  0.19242000  1.0
  N  N191  1  0.37535000  0.12865000  0.30758000  1.0
  N  N192  1  0.62465000  0.62865000  0.80758000  1.0
  N  N193  1  0.62465000  0.87135000  0.69242000  1.0
  N  N194  1  0.83804000  0.48089000  0.41584000  1.0
  N  N195  1  0.83804000  0.01911000  0.08416000  1.0
  N  N196  1  0.16196000  0.51911000  0.58416000  1.0
  N  N197  1  0.16196000  0.98089000  0.91584000  1.0
  Cl  Cl198  1  0.22388000  0.14743000  0.05220000  1.0
  Cl  Cl199  1  0.22388000  0.35257000  0.44780000  1.0
  Cl  Cl200  1  0.77612000  0.85257000  0.94780000  1.0
  Cl  Cl201  1  0.77612000  0.64743000  0.55220000  1.0
