# generated using pymatgen
data_Cu3P2H12(CO2)6
_symmetry_space_group_name_H-M   'P 1'
_cell_length_a   5.01070000
_cell_length_b   12.24480000
_cell_length_c   16.12990000
_cell_angle_alpha   89.99920000
_cell_angle_beta   92.58570000
_cell_angle_gamma   89.99990000
_symmetry_Int_Tables_number   1
_chemical_formula_structural   Cu3P2H12(CO2)6
_chemical_formula_sum   'Cu6 P4 H24 C12 O24'
_cell_volume   988.64272455
_cell_formula_units_Z   2
loop_
 _symmetry_equiv_pos_site_id
 _symmetry_equiv_pos_as_xyz
  1  'x, y, z'
loop_
 _atom_site_type_symbol
 _atom_site_label
 _atom_site_symmetry_multiplicity
 _atom_site_fract_x
 _atom_site_fract_y
 _atom_site_fract_z
 _atom_site_occupancy
  Cu  Cu0  1  0.00001000  0.00000000  0.00000000  1.0
  Cu  Cu1  1  0.50000000  0.50000000  0.50000000  1.0
  Cu  Cu2  1  0.49880000  0.86366000  0.11287000  1.0
  Cu  Cu3  1  0.00119000  0.36366000  0.38713000  1.0
  Cu  Cu4  1  0.50120000  0.13635000  0.88713000  1.0
  Cu  Cu5  1  0.99880000  0.63634000  0.61287000  1.0
  P  P6  1  0.51142000  0.10692000  0.07611000  1.0
  P  P7  1  0.98859000  0.60692000  0.42389000  1.0
  P  P8  1  0.48859000  0.89309000  0.92388000  1.0
  P  P9  1  0.01141000  0.39308000  0.57611000  1.0
  H  H10  1  0.56529000  0.29941000  0.08570000  1.0
  H  H11  1  0.93472000  0.79941000  0.41430000  1.0
  H  H12  1  0.43472000  0.70060000  0.91430000  1.0
  H  H13  1  0.06529000  0.20059000  0.58571000  1.0
  H  H14  1  0.82415000  0.22708000  0.13982000  1.0
  H  H15  1  0.67587000  0.72708000  0.36018000  1.0
  H  H16  1  0.17586000  0.77292000  0.86019000  1.0
  H  H17  1  0.32413000  0.27292000  0.63982000  1.0
  H  H18  1  0.29462000  0.30130000  0.20401000  1.0
  H  H19  1  0.20538000  0.80131000  0.29598000  1.0
  H  H20  1  0.70537000  0.69870000  0.79599000  1.0
  H  H21  1  0.79461000  0.19869000  0.70401000  1.0
  H  H22  1  0.37187000  0.16579000  0.22877000  1.0
  H  H23  1  0.12816000  0.66580000  0.27123000  1.0
  H  H24  1  0.62814000  0.83420000  0.77123000  1.0
  H  H25  1  0.87183000  0.33420000  0.72877000  1.0
  H  H26  1  0.20154000  0.71736000  0.11450000  1.0
  H  H27  1  0.29846000  0.21736000  0.38550000  1.0
  H  H28  1  0.79845000  0.28264000  0.88550000  1.0
  H  H29  1  0.70152000  0.78264000  0.61451000  1.0
  H  H30  1  0.49378000  0.66048000  0.12705000  1.0
  H  H31  1  0.00623000  0.16048000  0.37295000  1.0
  H  H32  1  0.50622000  0.33953000  0.87295000  1.0
  H  H33  1  0.99377000  0.83951000  0.62705000  1.0
  C  C34  1  0.60639000  0.23155000  0.12891000  1.0
  C  C35  1  0.89363000  0.73155000  0.37109000  1.0
  C  C36  1  0.39362000  0.76846000  0.87110000  1.0
  C  C37  1  0.10637000  0.26845000  0.62891000  1.0
  C  C38  1  0.46251000  0.24346000  0.21040000  1.0
  C  C39  1  0.03751000  0.74347000  0.28959000  1.0
  C  C40  1  0.53749000  0.75654000  0.78960000  1.0
  C  C41  1  0.96248000  0.25653000  0.71041000  1.0
  C  C42  1  0.63531000  0.28040000  0.28441000  1.0
  C  C43  1  0.86469000  0.78040000  0.21559000  1.0
  C  C44  1  0.36468000  0.71960000  0.71559000  1.0
  C  C45  1  0.13529000  0.21960000  0.78442000  1.0
  O  O46  1  0.21167000  0.11510000  0.05145000  1.0
  O  O47  1  0.28835000  0.61509000  0.44855000  1.0
  O  O48  1  0.78835000  0.88491000  0.94855000  1.0
  O  O49  1  0.71166000  0.38490000  0.55145000  1.0
  O  O50  1  0.31927000  0.90063000  0.00432000  1.0
  O  O51  1  0.18074000  0.40062000  0.49567000  1.0
  O  O52  1  0.68074000  0.09938000  0.99567000  1.0
  O  O53  1  0.81926000  0.59937000  0.50432000  1.0
  O  O54  1  0.59406000  0.01323000  0.13579000  1.0
  O  O55  1  0.90595000  0.51323000  0.36421000  1.0
  O  O56  1  0.40596000  0.98677000  0.86421000  1.0
  O  O57  1  0.09406000  0.48677000  0.63579000  1.0
  O  O58  1  0.86402000  0.32342000  0.27299000  1.0
  O  O59  1  0.63597000  0.82341000  0.22701000  1.0
  O  O60  1  0.13597000  0.67658000  0.72702000  1.0
  O  O61  1  0.36403000  0.17659000  0.77299000  1.0
  O  O62  1  0.55377000  0.26815000  0.35737000  1.0
  O  O63  1  0.94622000  0.76815000  0.14263000  1.0
  O  O64  1  0.44620000  0.73186000  0.64263000  1.0
  O  O65  1  0.05375000  0.23183000  0.85737000  1.0
  O  O66  1  0.38762000  0.70820000  0.09025000  1.0
  O  O67  1  0.11238000  0.20820000  0.40974000  1.0
  O  O68  1  0.61237000  0.29181000  0.90975000  1.0
  O  O69  1  0.88761000  0.79179000  0.59026000  1.0
