# generated using pymatgen
data_Cu3H8C12I2N5
_symmetry_space_group_name_H-M   'P 1'
_cell_length_a   9.84832000
_cell_length_b   12.18060000
_cell_length_c   12.85700000
_cell_angle_alpha   90.00000000
_cell_angle_beta   90.00000000
_cell_angle_gamma   94.53960000
_symmetry_Int_Tables_number   1
_chemical_formula_structural   Cu3H8C12I2N5
_chemical_formula_sum   'Cu12 H32 C48 I8 N20'
_cell_volume   1537.46733204
_cell_formula_units_Z   4
loop_
 _symmetry_equiv_pos_site_id
 _symmetry_equiv_pos_as_xyz
  1  'x, y, z'
loop_
 _atom_site_type_symbol
 _atom_site_label
 _atom_site_symmetry_multiplicity
 _atom_site_fract_x
 _atom_site_fract_y
 _atom_site_fract_z
 _atom_site_occupancy
  Cu  Cu0  1  0.17894000  0.25234000  0.53103000  1.0
  Cu  Cu1  1  0.32106000  0.24766000  0.03103000  1.0
  Cu  Cu2  1  0.82106000  0.74766000  0.46897000  1.0
  Cu  Cu3  1  0.67894000  0.75234000  0.96897000  1.0
  Cu  Cu4  1  0.46459000  0.16208000  0.63400000  1.0
  Cu  Cu5  1  0.03541000  0.33792000  0.13400000  1.0
  Cu  Cu6  1  0.53541000  0.83792000  0.36600000  1.0
  Cu  Cu7  1  0.96459000  0.66208000  0.86600000  1.0
  Cu  Cu8  1  0.98686000  0.12438000  0.18886000  1.0
  Cu  Cu9  1  0.51314000  0.37562000  0.68886000  1.0
  Cu  Cu10  1  0.01315000  0.87562000  0.81114000  1.0
  Cu  Cu11  1  0.48685000  0.62438000  0.31114000  1.0
  H  H12  1  0.25595000  0.96163000  0.92157000  1.0
  H  H13  1  0.24406000  0.53837000  0.42157000  1.0
  H  H14  1  0.74406000  0.03837000  0.07843000  1.0
  H  H15  1  0.75594000  0.46163000  0.57843000  1.0
  H  H16  1  0.43656000  0.87462000  0.02263000  1.0
  H  H17  1  0.06344000  0.62538000  0.52263000  1.0
  H  H18  1  0.56344000  0.12538000  0.97737000  1.0
  H  H19  1  0.93656000  0.37462000  0.47737000  1.0
  H  H20  1  0.65867000  0.82321000  0.75523000  1.0
  H  H21  1  0.84132000  0.67678000  0.25524000  1.0
  H  H22  1  0.34133000  0.17679000  0.24477000  1.0
  H  H23  1  0.15867000  0.32322000  0.74476000  1.0
  H  H24  1  0.48927000  0.90715000  0.64347000  1.0
  H  H25  1  0.01072000  0.59285000  0.14347000  1.0
  H  H26  1  0.51073000  0.09285000  0.35654000  1.0
  H  H27  1  0.98927000  0.40715000  0.85653000  1.0
  H  H28  1  0.93192000  0.11695000  0.48842000  1.0
  H  H29  1  0.56807000  0.38304000  0.98841000  1.0
  H  H30  1  0.06808000  0.88304000  0.51159000  1.0
  H  H31  1  0.43193000  0.61696000  0.01159000  1.0
  H  H32  1  0.68849000  0.15780000  0.48496000  1.0
  H  H33  1  0.81151000  0.34219000  0.98496000  1.0
  H  H34  1  0.31151000  0.84219000  0.51504000  1.0
  H  H35  1  0.18849000  0.65780000  0.01504000  1.0
  H  H36  1  0.64589000  0.10443000  0.80198000  1.0
  H  H37  1  0.85410000  0.39556000  0.30197000  1.0
  H  H38  1  0.35411000  0.89556000  0.19803000  1.0
  H  H39  1  0.14589000  0.60444000  0.69803000  1.0
  H  H40  1  0.88713000  0.05847000  0.81934000  1.0
  H  H41  1  0.61287000  0.44154000  0.31933000  1.0
  H  H42  1  0.11287000  0.94154000  0.18067000  1.0
  H  H43  1  0.38713000  0.55847000  0.68066000  1.0
  C  C44  1  0.25785000  0.99655000  0.71380000  1.0
  C  C45  1  0.24215000  0.50345000  0.21380000  1.0
  C  C46  1  0.74215000  0.00345000  0.28621000  1.0
  C  C47  1  0.75785000  0.49655000  0.78620000  1.0
  C  C48  1  0.07288000  0.06028000  0.66245000  1.0
  C  C49  1  0.42712000  0.43972000  0.16244000  1.0
  C  C50  1  0.92712000  0.93972000  0.33756000  1.0
  C  C51  1  0.57288000  0.56028000  0.83755000  1.0
  C  C52  1  0.35740000  0.94106000  0.77364000  1.0
  C  C53  1  0.14260000  0.55894000  0.27364000  1.0
  C  C54  1  0.64260000  0.05894000  0.22637000  1.0
  C  C55  1  0.85739000  0.44106000  0.72636000  1.0
  C  C56  1  0.34282000  0.93029000  0.88187000  1.0
  C  C57  1  0.15718000  0.56971000  0.38187000  1.0
  C  C58  1  0.65719000  0.06971000  0.11813000  1.0
  C  C59  1  0.84282000  0.43029000  0.61812000  1.0
  C  C60  1  0.44334000  0.88350000  0.93825000  1.0
  C  C61  1  0.05667000  0.61650000  0.43826000  1.0
  C  C62  1  0.55667000  0.11650000  0.06174000  1.0
  C  C63  1  0.94333000  0.38351000  0.56174000  1.0
  C  C64  1  0.56809000  0.85503000  0.78924000  1.0
  C  C65  1  0.93191000  0.64497000  0.28925000  1.0
  C  C66  1  0.43191000  0.14497000  0.21076000  1.0
  C  C67  1  0.06809000  0.35504000  0.71075000  1.0
  C  C68  1  0.47279000  0.90163000  0.72717000  1.0
  C  C69  1  0.02721000  0.59836000  0.22717000  1.0
  C  C70  1  0.52721000  0.09837000  0.27283000  1.0
  C  C71  1  0.97279000  0.40164000  0.77283000  1.0
  C  C72  1  0.93028000  0.08264000  0.65452000  1.0
  C  C73  1  0.56972000  0.41737000  0.15452000  1.0
  C  C74  1  0.06972000  0.91737000  0.34548000  1.0
  C  C75  1  0.43028000  0.58264000  0.84548000  1.0
  C  C76  1  0.87205000  0.11170000  0.55980000  1.0
  C  C77  1  0.62795000  0.38830000  0.05979000  1.0
  C  C78  1  0.12795000  0.88830000  0.44021000  1.0
  C  C79  1  0.37205000  0.61170000  0.94021000  1.0
  C  C80  1  0.73652000  0.13482000  0.55736000  1.0
  C  C81  1  0.76348000  0.36517000  0.05736000  1.0
  C  C82  1  0.26349000  0.86517000  0.44264000  1.0
  C  C83  1  0.23651000  0.63483000  0.94264000  1.0
  C  C84  1  0.71263000  0.10415000  0.73434000  1.0
  C  C85  1  0.78737000  0.39584000  0.23433000  1.0
  C  C86  1  0.28737000  0.89584000  0.26566000  1.0
  C  C87  1  0.21263000  0.60416000  0.76567000  1.0
  C  C88  1  0.84665000  0.07843000  0.74324000  1.0
  C  C89  1  0.65335000  0.42158000  0.24323000  1.0
  C  C90  1  0.15335000  0.92158000  0.25677000  1.0
  C  C91  1  0.34665000  0.57843000  0.75676000  1.0
  I  I92  1  0.43569000  0.33289000  0.50569000  1.0
  I  I93  1  0.06431000  0.16711000  0.00569000  1.0
  I  I94  1  0.56431000  0.66711000  0.49431000  1.0
  I  I95  1  0.93570000  0.83289000  0.99431000  1.0
  I  I96  1  0.09998000  0.25177000  0.33360000  1.0
  I  I97  1  0.40002000  0.24823000  0.83360000  1.0
  I  I98  1  0.90002000  0.74823000  0.66640000  1.0
  I  I99  1  0.59998000  0.75177000  0.16640000  1.0
  N  N100  1  0.17408000  0.10925000  0.60377000  1.0
  N  N101  1  0.32592000  0.39075000  0.10376000  1.0
  N  N102  1  0.82592000  0.89075000  0.39623000  1.0
  N  N103  1  0.67408000  0.60925000  0.89623000  1.0
  N  N104  1  0.29212000  0.06873000  0.63666000  1.0
  N  N105  1  0.20788000  0.43127000  0.13666000  1.0
  N  N106  1  0.70788000  0.93127000  0.36334000  1.0
  N  N107  1  0.79212000  0.56872000  0.86334000  1.0
  N  N108  1  0.12207000  0.98957000  0.73294000  1.0
  N  N109  1  0.37793000  0.51043000  0.23294000  1.0
  N  N110  1  0.87793000  0.01043000  0.26706000  1.0
  N  N111  1  0.62207000  0.48957000  0.76706000  1.0
  N  N112  1  0.55530000  0.84622000  0.89381000  1.0
  N  N113  1  0.94471000  0.65378000  0.39381000  1.0
  N  N114  1  0.44471000  0.15379000  0.10619000  1.0
  N  N115  1  0.05529000  0.34622000  0.60619000  1.0
  N  N116  1  0.65629000  0.13174000  0.64290000  1.0
  N  N117  1  0.84371000  0.36826000  0.14290000  1.0
  N  N118  1  0.34371000  0.86826000  0.35710000  1.0
  N  N119  1  0.15629000  0.63174000  0.85710000  1.0
