# generated using pymatgen
data_Zr3H19C26BrN5O16
_symmetry_space_group_name_H-M   'P 1'
_cell_length_a   14.77700000
_cell_length_b   14.78990000
_cell_length_c   14.78300000
_cell_angle_alpha   60.05340000
_cell_angle_beta   60.10630000
_cell_angle_gamma   60.17650000
_symmetry_Int_Tables_number   1
_chemical_formula_structural   Zr3H19C26BrN5O16
_chemical_formula_sum   'Zr6 H38 C52 Br2 N10 O32'
_cell_volume   2290.33691872
_cell_formula_units_Z   2
loop_
 _symmetry_equiv_pos_site_id
 _symmetry_equiv_pos_as_xyz
  1  'x, y, z'
loop_
 _atom_site_type_symbol
 _atom_site_label
 _atom_site_symmetry_multiplicity
 _atom_site_fract_x
 _atom_site_fract_y
 _atom_site_fract_z
 _atom_site_occupancy
  Zr  Zr0  1  0.11568000  0.12292000  0.38230000  1.0
  Zr  Zr1  1  0.88331000  0.87983000  0.61593000  1.0
  Zr  Zr2  1  0.12166000  0.88381000  0.37629000  1.0
  Zr  Zr3  1  0.87872000  0.11950000  0.61931000  1.0
  Zr  Zr4  1  0.11908000  0.88154000  0.61722000  1.0
  Zr  Zr5  1  0.88044000  0.11931000  0.37987000  1.0
  H  H6  1  0.28242000  0.90851000  0.40446000  1.0
  H  H7  1  0.90691000  0.90191000  0.78104000  1.0
  H  H8  1  0.90870000  0.90578000  0.40256000  1.0
  H  H9  1  0.90264000  0.28292000  0.40736000  1.0
  H  H10  1  0.42619000  0.84472000  0.61791000  1.0
  H  H11  1  0.56718000  0.15958000  0.38886000  1.0
  H  H12  1  0.85705000  0.41255000  0.09137000  1.0
  H  H13  1  0.14652000  0.58427000  0.90218000  1.0
  H  H14  1  0.87398000  0.15183000  0.89506000  1.0
  H  H15  1  0.13709000  0.85820000  0.09258000  1.0
  H  H16  1  0.58636000  0.40534000  0.64153000  1.0
  H  H17  1  0.40790000  0.59055000  0.35828000  1.0
  H  H18  1  0.42479000  0.00608000  0.25968000  1.0
  H  H19  1  0.59738000  0.98438000  0.26597000  1.0
  H  H20  1  0.76476000  0.99163000  0.92817000  1.0
  H  H21  1  0.76858000  0.97741000  0.09869000  1.0
  H  H22  1  0.13761000  0.40877000  0.35990000  1.0
  H  H23  1  0.86654000  0.59021000  0.64086000  1.0
  H  H24  1  0.66067000  0.81292000  0.66216000  1.0
  H  H25  1  0.56311000  0.75656000  0.70079000  1.0
  H  H26  1  0.30722000  0.20784000  0.37719000  1.0
  H  H27  1  0.39537000  0.26757000  0.35282000  1.0
  H  H28  1  0.83158000  0.64561000  0.84104000  1.0
  H  H29  1  0.78006000  0.53973000  0.94887000  1.0
  H  H30  1  0.18681000  0.33503000  0.13578000  1.0
  H  H31  1  0.24394000  0.43190000  0.02238000  1.0
  H  H32  1  0.85611000  0.19782000  0.12259000  1.0
  H  H33  1  0.81886000  0.25529000  0.00661000  1.0
  H  H34  1  0.18107000  0.83252000  0.84226000  1.0
  H  H35  1  0.23104000  0.78390000  0.94793000  1.0
  H  H36  1  0.33803000  0.63830000  0.68301000  1.0
  H  H37  1  0.43885000  0.52755000  0.73692000  1.0
  H  H38  1  0.63748000  0.33781000  0.33624000  1.0
  H  H39  1  0.52915000  0.44145000  0.28832000  1.0
  H  H40  1  0.18513000  0.64167000  0.32911000  1.0
  H  H41  1  0.23222000  0.53519000  0.27993000  1.0
  H  H42  1  0.83265000  0.34390000  0.68401000  1.0
  H  H43  1  0.78933000  0.44622000  0.73683000  1.0
  C  C44  1  0.29902000  0.00681000  0.50345000  1.0
  C  C45  1  0.00292000  0.69127000  0.79914000  1.0
  C  C46  1  0.69411000  0.99790000  0.50369000  1.0
  C  C47  1  0.00125000  0.30462000  0.19310000  1.0
  C  C48  1  0.29475000  0.01682000  0.18734000  1.0
  C  C49  1  0.99816000  0.30316000  0.50691000  1.0
  C  C50  1  0.69035000  0.00674000  0.79630000  1.0
  C  C51  1  0.00926000  0.69239000  0.49760000  1.0
  C  C52  1  0.30383000  0.69495000  0.50002000  1.0
  C  C53  1  0.00406000  0.00706000  0.18891000  1.0
  C  C54  1  0.69000000  0.30070000  0.50062000  1.0
  C  C55  1  0.00495000  0.00130000  0.80055000  1.0
  C  C56  1  0.59245000  0.99702000  0.50748000  1.0
  C  C57  1  0.39905000  0.00872000  0.50189000  1.0
  C  C58  1  0.55333000  0.90479000  0.57567000  1.0
  C  C59  1  0.43670000  0.10192000  0.43549000  1.0
  C  C60  1  0.45759000  0.91411000  0.56911000  1.0
  C  C61  1  0.53399000  0.09147000  0.43997000  1.0
  C  C62  1  0.99999000  0.59179000  0.89947000  1.0
  C  C63  1  0.00539000  0.40329000  0.09188000  1.0
  C  C64  1  0.91477000  0.54406000  0.95244000  1.0
  C  C65  1  0.09056000  0.45102000  0.03922000  1.0
  C  C66  1  0.92114000  0.45065000  0.04761000  1.0
  C  C67  1  0.08407000  0.54445000  0.94413000  1.0
  C  C68  1  0.00262000  0.01008000  0.08794000  1.0
  C  C69  1  0.00941000  0.00062000  0.89876000  1.0
  C  C70  1  0.92625000  0.09740000  0.03177000  1.0
  C  C71  1  0.08774000  0.91496000  0.95313000  1.0
  C  C72  1  0.93220000  0.08833000  0.93904000  1.0
  C  C73  1  0.08021000  0.92274000  0.04740000  1.0
  C  C74  1  0.40258000  0.59377000  0.50344000  1.0
  C  C75  1  0.59052000  0.40121000  0.49751000  1.0
  C  C76  1  0.45236000  0.54208000  0.58666000  1.0
  C  C77  1  0.54068000  0.45274000  0.41434000  1.0
  C  C78  1  0.54540000  0.44694000  0.58010000  1.0
  C  C79  1  0.44786000  0.54808000  0.42066000  1.0
  C  C80  1  0.39399000  0.02268000  0.08366000  1.0
  C  C81  1  0.49407000  0.00803000  0.09012000  1.0
  C  C82  1  0.38952000  0.04052000  0.98444000  1.0
  C  C83  1  0.49945000  0.99913000  0.18782000  1.0
  C  C84  1  0.59615000  0.98819000  0.19095000  1.0
  C  C85  1  0.58651000  0.01450000  0.89538000  1.0
  C  C86  1  0.48655000  0.03622000  0.88962000  1.0
  C  C87  1  0.59201000  0.00387000  0.99436000  1.0
  C  C88  1  0.69065000  0.99121000  0.00107000  1.0
  C  C89  1  0.69258000  0.98422000  0.09671000  1.0
  C  C90  1  0.00959000  0.59289000  0.49615000  1.0
  C  C91  1  0.99677000  0.40371000  0.50703000  1.0
  C  C92  1  0.08890000  0.54303000  0.41286000  1.0
  C  C93  1  0.91593000  0.45512000  0.58876000  1.0
  C  C94  1  0.07936000  0.44904000  0.42212000  1.0
  C  C95  1  0.92632000  0.54829000  0.58025000  1.0
  Br  Br96  1  0.47900000  0.06504000  0.75261000  1.0
  Br  Br97  1  0.25192000  0.07457000  0.97497000  1.0
  N  N98  1  0.60754000  0.80753000  0.64203000  1.0
  N  N99  1  0.38425000  0.19890000  0.36665000  1.0
  N  N100  1  0.82670000  0.58727000  0.91711000  1.0
  N  N101  1  0.17497000  0.41227000  0.07897000  1.0
  N  N102  1  0.84618000  0.18649000  0.06618000  1.0
  N  N103  1  0.16598000  0.82484000  0.92024000  1.0
  N  N104  1  0.41602000  0.58315000  0.66944000  1.0
  N  N105  1  0.58185000  0.41547000  0.32767000  1.0
  N  N106  1  0.16983000  0.58498000  0.32401000  1.0
  N  N107  1  0.82810000  0.41994000  0.67118000  1.0
  O  O108  1  0.25626000  0.08454000  0.42810000  1.0
  O  O109  1  0.92635000  0.73377000  0.75696000  1.0
  O  O110  1  0.73810000  0.91994000  0.57816000  1.0
  O  O111  1  0.07520000  0.26464000  0.23746000  1.0
  O  O112  1  0.26221000  0.93526000  0.22707000  1.0
  O  O113  1  0.92189000  0.26091000  0.58325000  1.0
  O  O114  1  0.73119000  0.08269000  0.75632000  1.0
  O  O115  1  0.08561000  0.73448000  0.42117000  1.0
  O  O116  1  0.26081000  0.73607000  0.57728000  1.0
  O  O117  1  0.92752000  0.08290000  0.23115000  1.0
  O  O118  1  0.73166000  0.25762000  0.42505000  1.0
  O  O119  1  0.08060000  0.92496000  0.75864000  1.0
  O  O120  1  0.07953000  0.92919000  0.22999000  1.0
  O  O121  1  0.73083000  0.26245000  0.57622000  1.0
  O  O122  1  0.92589000  0.07615000  0.76310000  1.0
  O  O123  1  0.26638000  0.73749000  0.42064000  1.0
  O  O124  1  0.25491000  0.09137000  0.22945000  1.0
  O  O125  1  0.93220000  0.73256000  0.57402000  1.0
  O  O126  1  0.73068000  0.92593000  0.76302000  1.0
  O  O127  1  0.07491000  0.26306000  0.43029000  1.0
  O  O128  1  0.92449000  0.26446000  0.23266000  1.0
  O  O129  1  0.26152000  0.92768000  0.57754000  1.0
  O  O130  1  0.07943000  0.73178000  0.75932000  1.0
  O  O131  1  0.73361000  0.07487000  0.42681000  1.0
  O  O132  1  0.92996000  0.20275000  0.43392000  1.0
  O  O133  1  0.93511000  0.93288000  0.42946000  1.0
  O  O134  1  0.93212000  0.93188000  0.70083000  1.0
  O  O135  1  0.20222000  0.93668000  0.42966000  1.0
  O  O136  1  0.05139000  0.85256000  0.54569000  1.0
  O  O137  1  0.04753000  0.05012000  0.55012000  1.0
  O  O138  1  0.85137000  0.04859000  0.54861000  1.0
  O  O139  1  0.04903000  0.05176000  0.35053000  1.0
