# generated using pymatgen
data_MgH8C6N2O7
_symmetry_space_group_name_H-M   'P 1'
_cell_length_a   7.30333000
_cell_length_b   7.75628867
_cell_length_c   9.81610879
_cell_angle_alpha   103.90992320
_cell_angle_beta   102.00326145
_cell_angle_gamma   114.54995579
_symmetry_Int_Tables_number   1
_chemical_formula_structural   MgH8C6N2O7
_chemical_formula_sum   'Mg2 H16 C12 N4 O14'
_cell_volume   460.14184310
_cell_formula_units_Z   2
loop_
 _symmetry_equiv_pos_site_id
 _symmetry_equiv_pos_as_xyz
  1  'x, y, z'
loop_
 _atom_site_type_symbol
 _atom_site_label
 _atom_site_symmetry_multiplicity
 _atom_site_fract_x
 _atom_site_fract_y
 _atom_site_fract_z
 _atom_site_occupancy
  Mg  Mg0  1  0.11709000  0.15344000  0.21997000  1.0
  Mg  Mg1  1  0.39724000  0.93360000  0.78006000  1.0
  H  H2  1  0.54228000  0.54316000  0.20037000  1.0
  H  H3  1  0.84189000  0.34275000  0.79961000  1.0
  H  H4  1  0.89047000  0.84312000  0.39264000  1.0
  H  H5  1  0.99780000  0.45045000  0.60724000  1.0
  H  H6  1  0.84703000  0.26557000  0.29971000  1.0
  H  H7  1  0.04742000  0.96593000  0.70033000  1.0
  H  H8  1  0.00818000  0.45069000  0.26288000  1.0
  H  H9  1  0.24513000  0.18793000  0.73713000  1.0
  H  H10  1  0.16852000  0.16405000  0.93963000  1.0
  H  H11  1  0.72909000  0.22464000  0.06050000  1.0
  H  H12  1  0.10646000  0.32847000  0.01117000  1.0
  H  H13  1  0.59555000  0.31756000  0.98888000  1.0
  H  H14  1  0.70659000  0.86218000  0.13630000  1.0
  H  H15  1  0.07048000  0.72599000  0.86369000  1.0
  H  H16  1  0.83201000  0.79513000  0.03850000  1.0
  H  H17  1  0.29366000  0.75680000  0.96160000  1.0
  C  C18  1  0.57774000  0.57436000  0.31969000  1.0
  C  C19  1  0.75797000  0.25473000  0.68029000  1.0
  C  C20  1  0.76783000  0.74164000  0.42586000  1.0
  C  C21  1  0.84184000  0.31581000  0.57407000  1.0
  C  C22  1  0.65391000  0.66236000  0.61594000  1.0
  C  C23  1  0.53774000  0.04649000  0.38401000  1.0
  C  C24  1  0.46834000  0.48841000  0.50884000  1.0
  C  C25  1  0.45932000  0.97966000  0.49114000  1.0
  C  C26  1  0.30631000  0.33191000  0.54975000  1.0
  C  C27  1  0.25654000  0.78212000  0.45024000  1.0
  C  C28  1  0.69444000  0.73087000  0.78251000  1.0
  C  C29  1  0.41181000  0.94846000  0.21742000  1.0
  N  N30  1  0.43083000  0.44764000  0.36171000  1.0
  N  N31  1  0.56900000  0.08597000  0.63825000  1.0
  N  N32  1  0.80382000  0.78535000  0.57278000  1.0
  N  N33  1  0.73084000  0.21262000  0.42718000  1.0
  O  O34  1  0.92119000  0.29399000  0.22436000  1.0
  O  O35  1  0.19687000  0.06981000  0.77571000  1.0
  O  O36  1  0.15621000  0.23699000  0.03410000  1.0
  O  O37  1  0.62229000  0.20310000  0.96601000  1.0
  O  O38  1  0.84857000  0.87354000  0.14209000  1.0
  O  O39  1  0.20677000  0.73173000  0.85799000  1.0
  O  O40  1  0.34138000  0.36779000  0.68770000  1.0
  O  O41  1  0.15394000  0.67984000  0.31226000  1.0
  O  O42  1  0.15297000  0.17487000  0.44116000  1.0
  O  O43  1  0.21169000  0.73379000  0.55883000  1.0
  O  O44  1  0.61032000  0.83482000  0.82895000  1.0
  O  O45  1  0.28124000  0.00593000  0.17085000  1.0
  O  O46  1  0.82007000  0.69276000  0.86426000  1.0
  O  O47  1  0.45570000  0.82854000  0.13579000  1.0
