# generated using pymatgen
data_PrH31C48(N2O5)2
_symmetry_space_group_name_H-M   'P 1'
_cell_length_a   9.60001000
_cell_length_b   13.93050000
_cell_length_c   17.32880000
_cell_angle_alpha   98.17390000
_cell_angle_beta   90.36510000
_cell_angle_gamma   90.90860000
_symmetry_Int_Tables_number   1
_chemical_formula_structural   PrH31C48(N2O5)2
_chemical_formula_sum   'Pr2 H62 C96 N8 O20'
_cell_volume   2293.51325032
_cell_formula_units_Z   2
loop_
 _symmetry_equiv_pos_site_id
 _symmetry_equiv_pos_as_xyz
  1  'x, y, z'
loop_
 _atom_site_type_symbol
 _atom_site_label
 _atom_site_symmetry_multiplicity
 _atom_site_fract_x
 _atom_site_fract_y
 _atom_site_fract_z
 _atom_site_occupancy
  Pr  Pr0  1  0.26178000  0.40628000  0.50850000  1.0
  Pr  Pr1  1  0.73822000  0.59372000  0.49149000  1.0
  H  H2  1  0.10064000  0.26910000  0.04552000  1.0
  H  H3  1  0.23569000  0.25580000  0.90956000  1.0
  H  H4  1  0.53794000  0.98097000  0.74202000  1.0
  H  H5  1  0.58693000  0.79345000  0.75129000  1.0
  H  H6  1  0.43556000  0.54437000  0.94358000  1.0
  H  H7  1  0.25458000  0.54954000  0.06266000  1.0
  H  H8  1  0.96829000  0.83094000  0.23291000  1.0
  H  H9  1  0.95808000  0.02461000  0.23839000  1.0
  H  H10  1  0.33627000  0.90747000  0.94333000  1.0
  H  H11  1  0.22279000  0.91300000  0.05286000  1.0
  H  H12  1  0.51760000  0.23562000  0.89443000  1.0
  H  H13  1  0.55142000  0.36017000  0.80602000  1.0
  H  H14  1  0.43827000  0.33638000  0.67454000  1.0
  H  H15  1  0.27343000  0.05926000  0.71801000  1.0
  H  H16  1  0.18423000  0.09903000  0.53549000  1.0
  H  H17  1  0.69852000  0.64692000  0.92290000  1.0
  H  H18  1  0.84785000  0.53397000  0.83526000  1.0
  H  H19  1  0.76730000  0.47519000  0.69877000  1.0
  H  H20  1  0.39217000  0.63748000  0.73961000  1.0
  H  H21  1  0.95960000  0.60359000  0.04783000  1.0
  H  H22  1  0.79873000  0.50818000  0.12021000  1.0
  H  H23  1  0.81287000  0.52615000  0.26615000  1.0
  H  H24  1  0.16892000  0.71581000  0.26342000  1.0
  H  H25  1  0.88464000  0.20321000  0.08735000  1.0
  H  H26  1  0.79116000  0.34129000  0.17519000  1.0
  H  H27  1  0.89773000  0.39096000  0.30750000  1.0
  H  H28  1  0.19390000  0.16287000  0.26122000  1.0
  H  H29  1  0.15835000  0.60332000  0.47110000  1.0
  H  H30  1  0.09123000  0.58753000  0.55208000  1.0
  H  H31  1  0.57198000  0.39105000  0.51519000  1.0
  H  H32  1  0.53742000  0.27874000  0.50365000  1.0
  H  H33  1  0.89936000  0.73090000  0.95448000  1.0
  H  H34  1  0.76431000  0.74420000  0.09044000  1.0
  H  H35  1  0.46206000  0.01903000  0.25798000  1.0
  H  H36  1  0.41307000  0.20655000  0.24871000  1.0
  H  H37  1  0.56444000  0.45563000  0.05642000  1.0
  H  H38  1  0.74542000  0.45046000  0.93734000  1.0
  H  H39  1  0.03171000  0.16906000  0.76709000  1.0
  H  H40  1  0.04192000  0.97539000  0.76161000  1.0
  H  H41  1  0.66372000  0.09253000  0.05667000  1.0
  H  H42  1  0.77721000  0.08700000  0.94714000  1.0
  H  H43  1  0.48240000  0.76438000  0.10557000  1.0
  H  H44  1  0.44858000  0.63984000  0.19398000  1.0
  H  H45  1  0.56172000  0.66362000  0.32546000  1.0
  H  H46  1  0.72657000  0.94075000  0.28199000  1.0
  H  H47  1  0.81577000  0.90097000  0.46451000  1.0
  H  H48  1  0.30148000  0.35308000  0.07710000  1.0
  H  H49  1  0.15215000  0.46603000  0.16474000  1.0
  H  H50  1  0.23270000  0.52481000  0.30123000  1.0
  H  H51  1  0.60783000  0.36252000  0.26039000  1.0
  H  H52  1  0.04040000  0.39641000  0.95217000  1.0
  H  H53  1  0.20128000  0.49182000  0.87979000  1.0
  H  H54  1  0.18714000  0.47384000  0.73386000  1.0
  H  H55  1  0.83108000  0.28419000  0.73658000  1.0
  H  H56  1  0.11536000  0.79679000  0.91265000  1.0
  H  H57  1  0.20884000  0.65871000  0.82481000  1.0
  H  H58  1  0.10227000  0.60904000  0.69249000  1.0
  H  H59  1  0.80610000  0.83713000  0.73878000  1.0
  H  H60  1  0.84165000  0.39668000  0.52891000  1.0
  H  H61  1  0.90877000  0.41247000  0.44792000  1.0
  H  H62  1  0.42802000  0.60895000  0.48481000  1.0
  H  H63  1  0.46258000  0.72126000  0.49635000  1.0
  C  C64  1  0.16990000  0.11402000  0.04401000  1.0
  C  C65  1  0.15744000  0.20778000  0.01666000  1.0
  C  C66  1  0.22616000  0.20093000  0.94787000  1.0
  C  C67  1  0.28259000  0.10348000  0.93418000  1.0
  C  C68  1  0.36288000  0.06987000  0.86823000  1.0
  C  C69  1  0.41452000  0.97580000  0.85038000  1.0
  C  C70  1  0.50031000  0.93881000  0.78583000  1.0
  C  C71  1  0.52635000  0.84323000  0.79100000  1.0
  C  C72  1  0.45777000  0.81867000  0.85918000  1.0
  C  C73  1  0.45761000  0.72805000  0.88584000  1.0
  C  C74  1  0.38492000  0.70391000  0.95113000  1.0
  C  C75  1  0.37820000  0.60614000  0.97164000  1.0
  C  C76  1  0.28597000  0.60857000  0.03155000  1.0
  C  C77  1  0.23951000  0.70816000  0.04834000  1.0
  C  C78  1  0.14811000  0.74089000  0.10961000  1.0
  C  C79  1  0.11561000  0.83842000  0.13432000  1.0
  C  C80  1  0.02451000  0.87526000  0.19661000  1.0
  C  C81  1  0.01903000  0.97410000  0.19948000  1.0
  C  C82  1  0.10314000  0.00088000  0.13768000  1.0
  C  C83  1  0.11034000  0.09305000  0.11404000  1.0
  C  C84  1  0.39191000  0.13978000  0.81258000  1.0
  C  C85  1  0.47110000  0.22480000  0.83624000  1.0
  C  C86  1  0.48986000  0.29459000  0.78662000  1.0
  C  C87  1  0.42875000  0.28105000  0.71277000  1.0
  C  C88  1  0.35180000  0.19551000  0.68770000  1.0
  C  C89  1  0.33478000  0.12478000  0.73731000  1.0
  C  C90  1  0.28685000  0.18390000  0.60976000  1.0
  C  C91  1  0.53738000  0.65129000  0.83695000  1.0
  C  C92  1  0.66411000  0.61903000  0.86386000  1.0
  C  C93  1  0.74727000  0.55615000  0.81478000  1.0
  C  C94  1  0.70380000  0.52347000  0.73851000  1.0
  C  C95  1  0.57402000  0.55109000  0.71262000  1.0
  C  C96  1  0.49108000  0.61462000  0.76163000  1.0
  C  C97  1  0.52389000  0.51137000  0.63264000  1.0
  C  C98  1  0.07154000  0.66999000  0.15087000  1.0
  C  C99  1  0.97005000  0.60750000  0.11095000  1.0
  C  C100  1  0.87874000  0.55470000  0.15193000  1.0
  C  C101  1  0.88786000  0.56302000  0.23306000  1.0
  C  C102  1  0.99545000  0.61903000  0.27285000  1.0
  C  C103  1  0.08682000  0.67165000  0.23146000  1.0
  C  C104  1  0.01514000  0.62277000  0.35952000  1.0
  C  C105  1  0.04721000  0.17350000  0.16750000  1.0
  C  C106  1  0.93263000  0.22441000  0.14454000  1.0
  C  C107  1  0.87887000  0.30205000  0.19462000  1.0
  C  C108  1  0.93755000  0.32978000  0.26820000  1.0
  C  C109  1  0.05157000  0.27938000  0.29193000  1.0
  C  C110  1  0.10481000  0.20099000  0.24200000  1.0
  C  C111  1  0.12071000  0.31397000  0.36820000  1.0
  C  C112  1  0.83010000  0.88598000  0.95599000  1.0
  C  C113  1  0.84256000  0.79222000  0.98334000  1.0
  C  C114  1  0.77385000  0.79907000  0.05213000  1.0
  C  C115  1  0.71741000  0.89652000  0.06582000  1.0
  C  C116  1  0.63712000  0.93013000  0.13177000  1.0
  C  C117  1  0.58548000  0.02420000  0.14962000  1.0
  C  C118  1  0.49969000  0.06119000  0.21417000  1.0
  C  C119  1  0.47365000  0.15677000  0.20900000  1.0
  C  C120  1  0.54223000  0.18133000  0.14082000  1.0
  C  C121  1  0.54239000  0.27195000  0.11416000  1.0
  C  C122  1  0.61508000  0.29609000  0.04887000  1.0
  C  C123  1  0.62180000  0.39386000  0.02836000  1.0
  C  C124  1  0.71403000  0.39144000  0.96845000  1.0
  C  C125  1  0.76049000  0.29184000  0.95166000  1.0
  C  C126  1  0.85189000  0.25911000  0.89039000  1.0
  C  C127  1  0.88439000  0.16158000  0.86568000  1.0
  C  C128  1  0.97549000  0.12474000  0.80339000  1.0
  C  C129  1  0.98097000  0.02590000  0.80052000  1.0
  C  C130  1  0.89686000  0.99912000  0.86232000  1.0
  C  C131  1  0.88966000  0.90695000  0.88596000  1.0
  C  C132  1  0.60809000  0.86022000  0.18742000  1.0
  C  C133  1  0.52890000  0.77520000  0.16376000  1.0
  C  C134  1  0.51014000  0.70541000  0.21338000  1.0
  C  C135  1  0.57125000  0.71895000  0.28723000  1.0
  C  C136  1  0.64820000  0.80449000  0.31230000  1.0
  C  C137  1  0.66522000  0.87522000  0.26269000  1.0
  C  C138  1  0.71315000  0.81610000  0.39024000  1.0
  C  C139  1  0.46262000  0.34871000  0.16305000  1.0
  C  C140  1  0.33589000  0.38097000  0.13614000  1.0
  C  C141  1  0.25273000  0.44386000  0.18522000  1.0
  C  C142  1  0.29620000  0.47653000  0.26149000  1.0
  C  C143  1  0.42598000  0.44891000  0.28738000  1.0
  C  C144  1  0.50892000  0.38538000  0.23837000  1.0
  C  C145  1  0.47610000  0.48863000  0.36736000  1.0
  C  C146  1  0.92846000  0.33001000  0.84913000  1.0
  C  C147  1  0.02995000  0.39250000  0.88905000  1.0
  C  C148  1  0.12126000  0.44530000  0.84807000  1.0
  C  C149  1  0.11215000  0.43697000  0.76694000  1.0
  C  C150  1  0.00455000  0.38096000  0.72715000  1.0
  C  C151  1  0.91319000  0.32835000  0.76854000  1.0
  C  C152  1  0.98486000  0.37722000  0.64049000  1.0
  C  C153  1  0.95279000  0.82650000  0.83250000  1.0
  C  C154  1  0.06737000  0.77559000  0.85546000  1.0
  C  C155  1  0.12113000  0.69795000  0.80539000  1.0
  C  C156  1  0.06246000  0.67022000  0.73180000  1.0
  C  C157  1  0.94843000  0.72062000  0.70806000  1.0
  C  C158  1  0.89519000  0.79901000  0.75800000  1.0
  C  C159  1  0.87929000  0.68603000  0.63180000  1.0
  N  N160  1  0.24534000  0.05147000  0.99261000  1.0
  N  N161  1  0.39204000  0.90100000  0.89299000  1.0
  N  N162  1  0.30191000  0.76508000  0.99945000  1.0
  N  N163  1  0.16124000  0.91714000  0.10095000  1.0
  N  N164  1  0.75467000  0.94853000  0.00739000  1.0
  N  N165  1  0.60796000  0.09900000  0.10701000  1.0
  N  N166  1  0.69809000  0.23492000  0.00055000  1.0
  N  N167  1  0.83876000  0.08286000  0.89905000  1.0
  O  O168  1  0.22240000  0.09696000  0.58783000  1.0
  O  O169  1  0.28864000  0.24590000  0.56538000  1.0
  O  O170  1  0.39626000  0.48837000  0.62280000  1.0
  O  O171  1  0.61459000  0.49899000  0.57796000  1.0
  O  O172  1  0.90996000  0.59721000  0.39757000  1.0
  O  O173  1  0.13222000  0.64910000  0.38927000  1.0
  O  O174  1  0.06814000  0.38704000  0.41196000  1.0
  O  O175  1  0.23174000  0.27536000  0.38897000  1.0
  O  O176  1  0.17547000  0.57270000  0.51970000  1.0
  O  O177  1  0.50799000  0.33972000  0.48840000  1.0
  O  O178  1  0.77760000  0.90304000  0.41217000  1.0
  O  O179  1  0.71136000  0.75410000  0.43462000  1.0
  O  O180  1  0.60374000  0.51163000  0.37720000  1.0
  O  O181  1  0.38541000  0.50101000  0.42204000  1.0
  O  O182  1  0.09005000  0.40279000  0.60243000  1.0
  O  O183  1  0.86779000  0.35090000  0.61074000  1.0
  O  O184  1  0.93186000  0.61296000  0.58804000  1.0
  O  O185  1  0.76826000  0.72465000  0.61103000  1.0
  O  O186  1  0.82453000  0.42730000  0.48030000  1.0
  O  O187  1  0.49201000  0.66028000  0.51160000  1.0
