# generated using pymatgen
data_NdH14C6(ClO)3
_symmetry_space_group_name_H-M   'P 1'
_cell_length_a   8.28022000
_cell_length_b   8.68529000
_cell_length_c   16.34670000
_cell_angle_alpha   89.99990000
_cell_angle_beta   94.86200000
_cell_angle_gamma   90.00000000
_symmetry_Int_Tables_number   1
_chemical_formula_structural   NdH14C6(ClO)3
_chemical_formula_sum   'Nd4 H56 C24 Cl12 O12'
_cell_volume   1171.36101053
_cell_formula_units_Z   4
loop_
 _symmetry_equiv_pos_site_id
 _symmetry_equiv_pos_as_xyz
  1  'x, y, z'
loop_
 _atom_site_type_symbol
 _atom_site_label
 _atom_site_symmetry_multiplicity
 _atom_site_fract_x
 _atom_site_fract_y
 _atom_site_fract_z
 _atom_site_occupancy
  Nd  Nd0  1  0.31305000  0.37200000  0.22423000  1.0
  Nd  Nd1  1  0.18696000  0.87201000  0.27577000  1.0
  Nd  Nd2  1  0.68695000  0.62799000  0.77577000  1.0
  Nd  Nd3  1  0.81305000  0.12799000  0.72423000  1.0
  H  H4  1  0.50720000  0.35364000  0.97062000  1.0
  H  H5  1  0.99279000  0.85364000  0.52938000  1.0
  H  H6  1  0.49279000  0.64636000  0.02938000  1.0
  H  H7  1  0.00720000  0.14636000  0.47062000  1.0
  H  H8  1  0.30908000  0.33911000  0.00808000  1.0
  H  H9  1  0.19092000  0.83911000  0.49192000  1.0
  H  H10  1  0.69092000  0.66089000  0.99192000  1.0
  H  H11  1  0.80908000  0.16089000  0.50808000  1.0
  H  H12  1  0.44895000  0.18133000  0.02243000  1.0
  H  H13  1  0.05105000  0.68133000  0.47757000  1.0
  H  H14  1  0.55105000  0.81867000  0.97757000  1.0
  H  H15  1  0.94895000  0.31867000  0.52243000  1.0
  H  H16  1  0.73124000  0.39578000  0.06607000  1.0
  H  H17  1  0.76876000  0.89577000  0.43393000  1.0
  H  H18  1  0.26876000  0.60423000  0.93394000  1.0
  H  H19  1  0.23124000  0.10423000  0.56606000  1.0
  H  H20  1  0.68316000  0.22065000  0.11687000  1.0
  H  H21  1  0.81684000  0.72064000  0.38313000  1.0
  H  H22  1  0.31684000  0.77936000  0.88313000  1.0
  H  H23  1  0.18316000  0.27935000  0.61687000  1.0
  H  H24  1  0.84902000  0.38657000  0.21085000  1.0
  H  H25  1  0.65098000  0.88657000  0.28914000  1.0
  H  H26  1  0.15098000  0.61343000  0.78914000  1.0
  H  H27  1  0.34902000  0.11343000  0.71085000  1.0
  H  H28  1  0.71098000  0.54463000  0.19374000  1.0
  H  H29  1  0.78902000  0.04463000  0.30626000  1.0
  H  H30  1  0.28902000  0.45537000  0.80626000  1.0
  H  H31  1  0.21098000  0.95537000  0.69374000  1.0
  H  H32  1  0.67477000  0.52398000  0.34667000  1.0
  H  H33  1  0.82523000  0.02398000  0.15333000  1.0
  H  H34  1  0.32523000  0.47602000  0.65333000  1.0
  H  H35  1  0.17477000  0.97602000  0.84667000  1.0
  H  H36  1  0.81198000  0.36333000  0.34877000  1.0
  H  H37  1  0.68802000  0.86333000  0.15123000  1.0
  H  H38  1  0.18802000  0.63667000  0.65123000  1.0
  H  H39  1  0.31198000  0.13667000  0.84877000  1.0
  H  H40  1  0.59036000  0.18820000  0.38982000  1.0
  H  H41  1  0.90965000  0.68820000  0.11018000  1.0
  H  H42  1  0.40964000  0.81180000  0.61018000  1.0
  H  H43  1  0.09036000  0.31180000  0.88982000  1.0
  H  H44  1  0.62165000  0.34494000  0.46032000  1.0
  H  H45  1  0.87835000  0.84494000  0.03968000  1.0
  H  H46  1  0.37835000  0.65506000  0.53968000  1.0
  H  H47  1  0.12165000  0.15506000  0.96032000  1.0
  H  H48  1  0.31605000  0.19708000  0.45123000  1.0
  H  H49  1  0.18395000  0.69708000  0.04877000  1.0
  H  H50  1  0.68395000  0.80292000  0.54877000  1.0
  H  H51  1  0.81605000  0.30292000  0.95123000  1.0
  H  H52  1  0.19783000  0.36819000  0.42697000  1.0
  H  H53  1  0.30217000  0.86819000  0.07303000  1.0
  H  H54  1  0.80217000  0.63181000  0.57303000  1.0
  H  H55  1  0.69783000  0.13181000  0.92697000  1.0
  H  H56  1  0.37236000  0.37588000  0.50098000  1.0
  H  H57  1  0.12764000  0.87588000  0.99902000  1.0
  H  H58  1  0.62764000  0.62412000  0.49902000  1.0
  H  H59  1  0.87236000  0.12412000  0.00098000  1.0
  C  C60  1  0.43690000  0.30769000  0.01926000  1.0
  C  C61  1  0.06310000  0.80769000  0.48074000  1.0
  C  C62  1  0.56310000  0.69231000  0.98074000  1.0
  C  C63  1  0.93690000  0.19231000  0.51926000  1.0
  C  C64  1  0.66333000  0.34624000  0.11478000  1.0
  C  C65  1  0.83667000  0.84624000  0.38522000  1.0
  C  C66  1  0.33667000  0.65376000  0.88522000  1.0
  C  C67  1  0.16333000  0.15376000  0.61478000  1.0
  C  C68  1  0.72166000  0.41828000  0.19530000  1.0
  C  C69  1  0.77834000  0.91828000  0.30470000  1.0
  C  C70  1  0.27834000  0.58172000  0.80471000  1.0
  C  C71  1  0.22166000  0.08172000  0.69530000  1.0
  C  C72  1  0.68389000  0.39813000  0.33879000  1.0
  C  C73  1  0.81611000  0.89813000  0.16121000  1.0
  C  C74  1  0.31611000  0.60186000  0.66121000  1.0
  C  C75  1  0.18389000  0.10186000  0.83879000  1.0
  C  C76  1  0.58252000  0.31431000  0.39631000  1.0
  C  C77  1  0.91748000  0.81431000  0.10369000  1.0
  C  C78  1  0.41748000  0.68569000  0.60369000  1.0
  C  C79  1  0.08252000  0.18569000  0.89631000  1.0
  C  C80  1  0.31908000  0.32271000  0.44379000  1.0
  C  C81  1  0.18092000  0.82271000  0.05621000  1.0
  C  C82  1  0.68091000  0.67729000  0.55621000  1.0
  C  C83  1  0.81908000  0.17729000  0.94379000  1.0
  Cl  Cl84  1  0.42451000  0.67673000  0.21163000  1.0
  Cl  Cl85  1  0.07549000  0.17673000  0.28837000  1.0
  Cl  Cl86  1  0.57549000  0.32327000  0.78837000  1.0
  Cl  Cl87  1  0.92451000  0.82327000  0.71163000  1.0
  Cl  Cl88  1  0.09964000  0.56712000  0.30769000  1.0
  Cl  Cl89  1  0.40036000  0.06712000  0.19231000  1.0
  Cl  Cl90  1  0.90036000  0.43288000  0.69231000  1.0
  Cl  Cl91  1  0.59964000  0.93288000  0.80769000  1.0
  Cl  Cl92  1  0.08809000  0.40410000  0.09812000  1.0
  Cl  Cl93  1  0.41191000  0.90410000  0.40188000  1.0
  Cl  Cl94  1  0.91191000  0.59590000  0.90188000  1.0
  Cl  Cl95  1  0.58809000  0.09590000  0.59812000  1.0
  O  O96  1  0.49244000  0.37481000  0.09713000  1.0
  O  O97  1  0.00756000  0.87481000  0.40287000  1.0
  O  O98  1  0.50756000  0.62519000  0.90287000  1.0
  O  O99  1  0.99244000  0.12520000  0.59713000  1.0
  O  O100  1  0.62267000  0.35817000  0.25655000  1.0
  O  O101  1  0.87733000  0.85817000  0.24345000  1.0
  O  O102  1  0.37733000  0.64183000  0.74345000  1.0
  O  O103  1  0.12267000  0.14183000  0.75655000  1.0
  O  O104  1  0.41638000  0.36169000  0.37776000  1.0
  O  O105  1  0.08362000  0.86169000  0.12224000  1.0
  O  O106  1  0.58362000  0.63831000  0.62224000  1.0
  O  O107  1  0.91637000  0.13831000  0.87776000  1.0
