# generated using pymatgen
data_CdH11C9N4
_symmetry_space_group_name_H-M   'P 1'
_cell_length_a   8.08284000
_cell_length_b   8.08284000
_cell_length_c   16.05440000
_cell_angle_alpha   91.12850000
_cell_angle_beta   91.12860000
_cell_angle_gamma   95.74030000
_symmetry_Int_Tables_number   1
_chemical_formula_structural   CdH11C9N4
_chemical_formula_sum   'Cd4 H44 C36 N16'
_cell_volume   1043.16139293
_cell_formula_units_Z   4
loop_
 _symmetry_equiv_pos_site_id
 _symmetry_equiv_pos_as_xyz
  1  'x, y, z'
loop_
 _atom_site_type_symbol
 _atom_site_label
 _atom_site_symmetry_multiplicity
 _atom_site_fract_x
 _atom_site_fract_y
 _atom_site_fract_z
 _atom_site_occupancy
  Cd  Cd0  1  0.50322000  0.48808000  0.25051000  1.0
  Cd  Cd1  1  0.48807000  0.50321000  0.75051000  1.0
  Cd  Cd2  1  0.99516000  0.50123000  0.00021000  1.0
  Cd  Cd3  1  0.50123000  0.99516000  0.50021000  1.0
  H  H4  1  0.18658000  0.81291000  0.03970000  1.0
  H  H5  1  0.81291000  0.18658000  0.53970000  1.0
  H  H6  1  0.02756000  0.79414000  0.10201000  1.0
  H  H7  1  0.79414000  0.02756000  0.60201000  1.0
  H  H8  1  0.84432000  0.87179000  0.98875000  1.0
  H  H9  1  0.87179000  0.84432000  0.48875000  1.0
  H  H10  1  0.02220000  0.89911000  0.92672000  1.0
  H  H11  1  0.89911000  0.02220000  0.42672000  1.0
  H  H12  1  0.96513000  0.10059000  0.08602000  1.0
  H  H13  1  0.10059000  0.96513000  0.58602000  1.0
  H  H14  1  0.14753000  0.12559000  0.02686000  1.0
  H  H15  1  0.12559000  0.14753000  0.52686000  1.0
  H  H16  1  0.96369000  0.19266000  0.90892000  1.0
  H  H17  1  0.19266000  0.96369000  0.40892000  1.0
  H  H18  1  0.80795000  0.18640000  0.97271000  1.0
  H  H19  1  0.18640000  0.80795000  0.47271000  1.0
  H  H20  1  0.27507000  0.35624000  0.41208000  1.0
  H  H21  1  0.35624000  0.27507000  0.91208000  1.0
  H  H22  1  0.09394000  0.32797000  0.35133000  1.0
  H  H23  1  0.32798000  0.09394000  0.85133000  1.0
  H  H24  1  0.28640000  0.51849000  0.54436000  1.0
  H  H25  1  0.51849000  0.28640000  0.04436000  1.0
  H  H26  1  0.12536000  0.62960000  0.65807000  1.0
  H  H27  1  0.62959000  0.12536000  0.15807000  1.0
  H  H28  1  0.81732000  0.63090000  0.64416000  1.0
  H  H29  1  0.63090000  0.81732000  0.14416000  1.0
  H  H30  1  0.67188000  0.51194000  0.51416000  1.0
  H  H31  1  0.51194000  0.67188000  0.01417000  1.0
  H  H32  1  0.83167000  0.39684000  0.40084000  1.0
  H  H33  1  0.39684000  0.83167000  0.90084000  1.0
  H  H34  1  0.01489000  0.31240000  0.20418000  1.0
  H  H35  1  0.31240000  0.01489000  0.70418000  1.0
  H  H36  1  0.83201000  0.24731000  0.24610000  1.0
  H  H37  1  0.24731000  0.83202000  0.74610000  1.0
  H  H38  1  0.25529000  0.14559000  0.21377000  1.0
  H  H39  1  0.14559000  0.25528000  0.71377000  1.0
  H  H40  1  0.34523000  0.86572000  0.23182000  1.0
  H  H41  1  0.86571000  0.34523000  0.73182000  1.0
  H  H42  1  0.14477000  0.63319000  0.28149000  1.0
  H  H43  1  0.63318000  0.14477000  0.78149000  1.0
  H  H44  1  0.85228000  0.68660000  0.30778000  1.0
  H  H45  1  0.68660000  0.85228000  0.80779000  1.0
  H  H46  1  0.76045000  0.96592000  0.28834000  1.0
  H  H47  1  0.96592000  0.76045000  0.78835000  1.0
  C  C48  1  0.71268000  0.49722000  0.16313000  1.0
  C  C49  1  0.49720000  0.71267000  0.66313000  1.0
  C  C50  1  0.26999000  0.51960000  0.83246000  1.0
  C  C51  1  0.51961000  0.26998000  0.33246000  1.0
  C  C52  1  0.52145000  0.68830000  0.34589000  1.0
  C  C53  1  0.68829000  0.52144000  0.84589000  1.0
  C  C54  1  0.29575000  0.46233000  0.15820000  1.0
  C  C55  1  0.46232000  0.29574000  0.65820000  1.0
  C  C56  1  0.97895000  0.90883000  0.99087000  1.0
  C  C57  1  0.90882000  0.97895000  0.49087000  1.0
  C  C58  1  0.01295000  0.08905000  0.02284000  1.0
  C  C59  1  0.08905000  0.01294000  0.52284000  1.0
  C  C60  1  0.07092000  0.44954000  0.46399000  1.0
  C  C61  1  0.44954000  0.07093000  0.96399000  1.0
  C  C62  1  0.15174000  0.51670000  0.53767000  1.0
  C  C63  1  0.51670000  0.15174000  0.03767000  1.0
  C  C64  1  0.05999000  0.57924000  0.60164000  1.0
  C  C65  1  0.57924000  0.06000000  0.10164000  1.0
  C  C66  1  0.88724000  0.57864000  0.59448000  1.0
  C  C67  1  0.57864000  0.88724000  0.09448000  1.0
  C  C68  1  0.80644000  0.51293000  0.52143000  1.0
  C  C69  1  0.51293000  0.80644000  0.02143000  1.0
  C  C70  1  0.89621000  0.44912000  0.45708000  1.0
  C  C71  1  0.44912000  0.89622000  0.95709000  1.0
  C  C72  1  0.00223000  0.07622000  0.25076000  1.0
  C  C73  1  0.07622000  0.00223000  0.75077000  1.0
  C  C74  1  0.16679000  0.04496000  0.23445000  1.0
  C  C75  1  0.04496000  0.16678000  0.73445000  1.0
  C  C76  1  0.21686000  0.88642000  0.24460000  1.0
  C  C77  1  0.88642000  0.21686000  0.74460000  1.0
  C  C78  1  0.10484000  0.75608000  0.27141000  1.0
  C  C79  1  0.75608000  0.10484000  0.77141000  1.0
  C  C80  1  0.94077000  0.78638000  0.28632000  1.0
  C  C81  1  0.78638000  0.94076000  0.78632000  1.0
  C  C82  1  0.88872000  0.94406000  0.27556000  1.0
  C  C83  1  0.94406000  0.88871000  0.77556000  1.0
  N  N84  1  0.80734000  0.48995000  0.10947000  1.0
  N  N85  1  0.48994000  0.80734000  0.60947000  1.0
  N  N86  1  0.17946000  0.52448000  0.88820000  1.0
  N  N87  1  0.52448000  0.17946000  0.38820000  1.0
  N  N88  1  0.53720000  0.78299000  0.40209000  1.0
  N  N89  1  0.78299000  0.53720000  0.90208000  1.0
  N  N90  1  0.20109000  0.44614000  0.10186000  1.0
  N  N91  1  0.44614000  0.20110000  0.60186000  1.0
  N  N92  1  0.05981000  0.78686000  0.04073000  1.0
  N  N93  1  0.78686000  0.05981000  0.54073000  1.0
  N  N94  1  0.93490000  0.20904000  0.97026000  1.0
  N  N95  1  0.20904000  0.93490000  0.47026000  1.0
  N  N96  1  0.15931000  0.38861000  0.39994000  1.0
  N  N97  1  0.38861000  0.15931000  0.89994000  1.0
  N  N98  1  0.95643000  0.23822000  0.24743000  1.0
  N  N99  1  0.23822000  0.95643000  0.74743000  1.0
