# generated using pymatgen
data_Cd3H28C48N6(O3F2)4
_symmetry_space_group_name_H-M   'P 1'
_cell_length_a   10.52440000
_cell_length_b   14.08420000
_cell_length_c   18.63900000
_cell_angle_alpha   89.99940000
_cell_angle_beta   89.99960000
_cell_angle_gamma   77.07700000
_symmetry_Int_Tables_number   1
_chemical_formula_structural   Cd3H28C48N6(O3F2)4
_chemical_formula_sum   'Cd6 H56 C96 N12 O24 F16'
_cell_volume   2692.83909484
_cell_formula_units_Z   2
loop_
 _symmetry_equiv_pos_site_id
 _symmetry_equiv_pos_as_xyz
  1  'x, y, z'
loop_
 _atom_site_type_symbol
 _atom_site_label
 _atom_site_symmetry_multiplicity
 _atom_site_fract_x
 _atom_site_fract_y
 _atom_site_fract_z
 _atom_site_occupancy
  Cd  Cd0  1  0.67097000  0.32793000  0.00919000  1.0
  Cd  Cd1  1  0.32904000  0.17208000  0.50918000  1.0
  Cd  Cd2  1  0.32903000  0.67207000  0.99082000  1.0
  Cd  Cd3  1  0.67097000  0.82793000  0.49081000  1.0
  Cd  Cd4  1  0.00000000  0.00000000  0.00000000  1.0
  Cd  Cd5  1  0.00001000  0.49999000  0.49999000  1.0
  H  H6  1  0.72654000  0.03435000  0.81684000  1.0
  H  H7  1  0.12975000  0.13266000  0.12476000  1.0
  H  H8  1  0.53052000  0.19652000  0.89538000  1.0
  H  H9  1  0.89948000  0.25499000  0.21024000  1.0
  H  H10  1  0.60432000  0.10717000  0.31842000  1.0
  H  H11  1  0.09237000  0.91309000  0.15880000  1.0
  H  H12  1  0.82420000  0.93740000  0.37021000  1.0
  H  H13  1  0.63115000  0.05672000  0.20778000  1.0
  H  H14  1  0.26522000  0.18714000  0.21968000  1.0
  H  H15  1  0.72782000  0.05804000  0.08597000  1.0
  H  H16  1  0.38366000  0.16667000  0.33784000  1.0
  H  H17  1  0.61209000  0.07048000  0.57269000  1.0
  H  H18  1  0.29171000  0.24965000  0.67292000  1.0
  H  H19  1  0.04031000  0.18013000  0.45037000  1.0
  H  H20  1  0.27344000  0.46566000  0.31683000  1.0
  H  H21  1  0.87025000  0.36734000  0.62476000  1.0
  H  H22  1  0.46948000  0.30351000  0.39538000  1.0
  H  H23  1  0.10053000  0.24499000  0.71023000  1.0
  H  H24  1  0.39568000  0.39284000  0.81841000  1.0
  H  H25  1  0.90764000  0.58691000  0.65878000  1.0
  H  H26  1  0.17578000  0.56261000  0.87020000  1.0
  H  H27  1  0.36885000  0.44331000  0.70777000  1.0
  H  H28  1  0.73479000  0.31287000  0.71969000  1.0
  H  H29  1  0.27220000  0.44198000  0.58596000  1.0
  H  H30  1  0.61636000  0.33333333  0.83785000  1.0
  H  H31  1  0.38790000  0.42952000  0.07268000  1.0
  H  H32  1  0.70828000  0.25037000  0.17292000  1.0
  H  H33  1  0.95973000  0.31984000  0.95036000  1.0
  H  H34  1  0.27345000  0.96566000  0.18317000  1.0
  H  H35  1  0.87024000  0.86733000  0.87523000  1.0
  H  H36  1  0.46948000  0.80350000  0.10462000  1.0
  H  H37  1  0.10053000  0.74500000  0.78977000  1.0
  H  H38  1  0.39569000  0.89283000  0.68158000  1.0
  H  H39  1  0.90763000  0.08690000  0.84122000  1.0
  H  H40  1  0.17579000  0.06261000  0.62979000  1.0
  H  H41  1  0.36884000  0.94328000  0.79223000  1.0
  H  H42  1  0.73480000  0.81286000  0.78030000  1.0
  H  H43  1  0.27219000  0.94195000  0.91403000  1.0
  H  H44  1  0.61636000  0.83332000  0.66215000  1.0
  H  H45  1  0.38791000  0.92952000  0.42731000  1.0
  H  H46  1  0.70829000  0.75037000  0.32707000  1.0
  H  H47  1  0.95973000  0.81985000  0.54964000  1.0
  H  H48  1  0.72656000  0.53434000  0.68317000  1.0
  H  H49  1  0.12976000  0.63267000  0.37524000  1.0
  H  H50  1  0.53051000  0.69649000  0.60462000  1.0
  H  H51  1  0.89948000  0.75500000  0.28976000  1.0
  H  H52  1  0.60429000  0.60717000  0.18159000  1.0
  H  H53  1  0.09236000  0.41309000  0.34120000  1.0
  H  H54  1  0.82418000  0.43741000  0.12980000  1.0
  H  H55  1  0.63114000  0.55671000  0.29224000  1.0
  H  H56  1  0.26521000  0.68712000  0.28031000  1.0
  H  H57  1  0.72781000  0.55803000  0.41404000  1.0
  H  H58  1  0.38366000  0.66666667  0.16215000  1.0
  H  H59  1  0.61210000  0.57048000  0.92731000  1.0
  H  H60  1  0.29171000  0.74963000  0.82707000  1.0
  H  H61  1  0.04030000  0.68013000  0.04964000  1.0
  C  C62  1  0.70307000  0.10611000  0.94791000  1.0
  C  C63  1  0.07682000  0.19254000  0.26812000  1.0
  C  C64  1  0.60859000  0.06013000  0.43004000  1.0
  C  C65  1  0.57043000  0.12012000  0.75384000  1.0
  C  C66  1  0.94867000  0.21270000  0.07311000  1.0
  C  C67  1  0.63962000  0.09327000  0.82081000  1.0
  C  C68  1  0.94394000  0.94644000  0.24103000  1.0
  C  C69  1  0.03596000  0.18183000  0.13632000  1.0
  C  C70  1  0.61264000  0.13541000  0.88563000  1.0
  C  C71  1  0.99811000  0.21096000  0.20317000  1.0
  C  C72  1  0.65893000  0.05240000  0.35493000  1.0
  C  C73  1  0.99059000  0.94481000  0.17122000  1.0
  C  C74  1  0.76689000  0.98910000  0.33243000  1.0
  C  C75  1  0.62793000  0.08392000  0.68824000  1.0
  C  C76  1  0.73474000  0.02574000  0.19983000  1.0
  C  C77  1  0.81363000  0.98723000  0.25858000  1.0
  C  C78  1  0.21261000  0.18349000  0.26964000  1.0
  C  C79  1  0.44624000  0.18160000  0.74509000  1.0
  C  C80  1  0.78661000  0.02428000  0.13130000  1.0
  C  C81  1  0.27867000  0.17342000  0.33465000  1.0
  C  C82  1  0.56670000  0.10373000  0.62232000  1.0
  C  C83  1  0.38828000  0.20231000  0.67837000  1.0
  C  C84  1  0.01800000  0.19020000  0.33539000  1.0
  C  C85  1  0.08877000  0.17969000  0.39878000  1.0
  C  C86  1  0.29691000  0.39390000  0.44790000  1.0
  C  C87  1  0.92319000  0.30745000  0.76812000  1.0
  C  C88  1  0.39140000  0.43988000  0.93004000  1.0
  C  C89  1  0.42957000  0.37989000  0.25383000  1.0
  C  C90  1  0.05132000  0.28730000  0.57310000  1.0
  C  C91  1  0.36037000  0.40675000  0.32081000  1.0
  C  C92  1  0.05605000  0.55356000  0.74102000  1.0
  C  C93  1  0.96404000  0.31816000  0.63631000  1.0
  C  C94  1  0.38736000  0.36461000  0.38563000  1.0
  C  C95  1  0.00190000  0.28903000  0.70316000  1.0
  C  C96  1  0.34106000  0.44760000  0.85492000  1.0
  C  C97  1  0.00941000  0.55519000  0.67121000  1.0
  C  C98  1  0.23310000  0.51091000  0.83242000  1.0
  C  C99  1  0.37207000  0.41608000  0.18824000  1.0
  C  C100  1  0.26525000  0.47428000  0.69982000  1.0
  C  C101  1  0.18637000  0.51279000  0.75857000  1.0
  C  C102  1  0.78740000  0.31651000  0.76965000  1.0
  C  C103  1  0.55376000  0.31841000  0.24509000  1.0
  C  C104  1  0.21340000  0.47573000  0.63129000  1.0
  C  C105  1  0.72135000  0.32658000  0.83466000  1.0
  C  C106  1  0.43329000  0.39627000  0.12232000  1.0
  C  C107  1  0.61171000  0.29770000  0.17837000  1.0
  C  C108  1  0.98203000  0.30979000  0.83539000  1.0
  C  C109  1  0.91126000  0.32028000  0.89878000  1.0
  C  C110  1  0.29692000  0.89390000  0.05210000  1.0
  C  C111  1  0.92319000  0.80745000  0.73187000  1.0
  C  C112  1  0.39141000  0.93988000  0.56996000  1.0
  C  C113  1  0.42957000  0.87989000  0.24616000  1.0
  C  C114  1  0.05131000  0.78730000  0.92689000  1.0
  C  C115  1  0.36037000  0.90675000  0.17919000  1.0
  C  C116  1  0.05606000  0.05356000  0.75898000  1.0
  C  C117  1  0.96403000  0.81816000  0.86368000  1.0
  C  C118  1  0.38735000  0.86461000  0.11437000  1.0
  C  C119  1  0.00190000  0.78904000  0.79683000  1.0
  C  C120  1  0.34106000  0.94760000  0.64508000  1.0
  C  C121  1  0.00941000  0.05518000  0.82879000  1.0
  C  C122  1  0.23311000  0.01091000  0.66758000  1.0
  C  C123  1  0.37208000  0.91609000  0.31175000  1.0
  C  C124  1  0.26525000  0.97426000  0.80017000  1.0
  C  C125  1  0.18637000  0.01278000  0.74143000  1.0
  C  C126  1  0.78740000  0.81651000  0.73035000  1.0
  C  C127  1  0.55375000  0.81841000  0.25491000  1.0
  C  C128  1  0.21339000  0.97572000  0.86871000  1.0
  C  C129  1  0.72135000  0.82658000  0.66533000  1.0
  C  C130  1  0.43330000  0.89627000  0.37768000  1.0
  C  C131  1  0.61172000  0.79770000  0.32163000  1.0
  C  C132  1  0.98202000  0.80979000  0.66461000  1.0
  C  C133  1  0.91126000  0.82029000  0.60122000  1.0
  C  C134  1  0.70308000  0.60611000  0.55210000  1.0
  C  C135  1  0.07681000  0.69254000  0.23188000  1.0
  C  C136  1  0.60859000  0.56013000  0.06996000  1.0
  C  C137  1  0.57044000  0.62010000  0.74616000  1.0
  C  C138  1  0.94869000  0.71270000  0.42689000  1.0
  C  C139  1  0.63963000  0.59325000  0.67919000  1.0
  C  C140  1  0.94393000  0.44644000  0.25898000  1.0
  C  C141  1  0.03597000  0.68184000  0.36368000  1.0
  C  C142  1  0.61265000  0.63539000  0.61437000  1.0
  C  C143  1  0.99810000  0.71096000  0.29683000  1.0
  C  C144  1  0.65891000  0.55240000  0.14508000  1.0
  C  C145  1  0.99059000  0.44481000  0.32878000  1.0
  C  C146  1  0.76687000  0.48910000  0.16759000  1.0
  C  C147  1  0.62794000  0.58392000  0.81176000  1.0
  C  C148  1  0.73473000  0.52574000  0.30018000  1.0
  C  C149  1  0.81361000  0.48723000  0.24144000  1.0
  C  C150  1  0.21261000  0.68348000  0.23035000  1.0
  C  C151  1  0.44624000  0.68158000  0.75491000  1.0
  C  C152  1  0.78660000  0.52427000  0.36871000  1.0
  C  C153  1  0.27866000  0.67341000  0.16534000  1.0
  C  C154  1  0.56671000  0.60373000  0.87768000  1.0
  C  C155  1  0.38828000  0.70230000  0.82163000  1.0
  C  C156  1  0.01798000  0.69020000  0.16461000  1.0
  C  C157  1  0.08876000  0.67970000  0.10122000  1.0
  N  N158  1  0.91283000  0.98456000  0.11698000  1.0
  N  N159  1  0.44765000  0.16274000  0.61824000  1.0
  N  N160  1  0.21815000  0.17195000  0.39823000  1.0
  N  N161  1  0.08718000  0.51544000  0.61697000  1.0
  N  N162  1  0.55234000  0.33728000  0.11824000  1.0
  N  N163  1  0.78187000  0.32803000  0.89823000  1.0
  N  N164  1  0.08717000  0.01543000  0.88303000  1.0
  N  N165  1  0.55235000  0.83727000  0.38176000  1.0
  N  N166  1  0.78187000  0.82804000  0.60176000  1.0
  N  N167  1  0.91282000  0.48456000  0.38302000  1.0
  N  N168  1  0.44765000  0.66272000  0.88176000  1.0
  N  N169  1  0.21814000  0.67194000  0.10176000  1.0
  O  O170  1  0.68100000  0.16029000  0.00332000  1.0
  O  O171  1  0.65696000  0.99673000  0.47685000  1.0
  O  O172  1  0.97517000  0.16575000  0.01486000  1.0
  O  O173  1  0.85432000  0.28689000  0.08134000  1.0
  O  O174  1  0.79543000  0.03068000  0.94149000  1.0
  O  O175  1  0.51776000  0.13580000  0.44138000  1.0
  O  O176  1  0.31897000  0.33972000  0.50331000  1.0
  O  O177  1  0.34303000  0.50328000  0.97685000  1.0
  O  O178  1  0.02480000  0.33425000  0.51485000  1.0
  O  O179  1  0.14566000  0.21310000  0.58132000  1.0
  O  O180  1  0.20456000  0.46934000  0.44148000  1.0
  O  O181  1  0.48225000  0.36422000  0.94137000  1.0
  O  O182  1  0.31897000  0.83971000  0.99668000  1.0
  O  O183  1  0.34304000  0.00329000  0.52314000  1.0
  O  O184  1  0.02480000  0.83425000  0.98515000  1.0
  O  O185  1  0.14566000  0.71310000  0.91867000  1.0
  O  O186  1  0.20456000  0.96933000  0.05851000  1.0
  O  O187  1  0.48225000  0.86422000  0.55863000  1.0
  O  O188  1  0.68100000  0.66029000  0.49668000  1.0
  O  O189  1  0.65695000  0.49672000  0.02315000  1.0
  O  O190  1  0.97520000  0.66575000  0.48515000  1.0
  O  O191  1  0.85434000  0.78690000  0.41867000  1.0
  O  O192  1  0.79544000  0.53068000  0.55851000  1.0
  O  O193  1  0.51776000  0.63579000  0.05862000  1.0
  F  F194  1  0.02907000  0.90897000  0.29399000  1.0
  F  F195  1  0.37835000  0.22145000  0.80369000  1.0
  F  F196  1  0.88711000  0.19884000  0.33920000  1.0
  F  F197  1  0.74998000  0.02693000  0.68942000  1.0
  F  F198  1  0.97092000  0.59103000  0.79397000  1.0
  F  F199  1  0.62165000  0.27858000  0.30369000  1.0
  F  F200  1  0.11292000  0.30115000  0.83919000  1.0
  F  F201  1  0.25001000  0.47307000  0.18942000  1.0
  F  F202  1  0.97093000  0.09104000  0.70602000  1.0
  F  F203  1  0.62165000  0.77857000  0.19631000  1.0
  F  F204  1  0.11291000  0.80116000  0.66081000  1.0
  F  F205  1  0.25001000  0.97308000  0.31058000  1.0
  F  F206  1  0.02904000  0.40898000  0.20602000  1.0
  F  F207  1  0.37836000  0.72141000  0.69631000  1.0
  F  F208  1  0.88709000  0.69884000  0.16080000  1.0
  F  F209  1  0.74999000  0.52693000  0.81058000  1.0
