# generated using pymatgen
data_CuH13C14N2O5
_symmetry_space_group_name_H-M   'P 1'
_cell_length_a   7.56037000
_cell_length_b   9.12431000
_cell_length_c   10.31240000
_cell_angle_alpha   76.35330000
_cell_angle_beta   77.55710000
_cell_angle_gamma   85.74920000
_symmetry_Int_Tables_number   1
_chemical_formula_structural   CuH13C14N2O5
_chemical_formula_sum   'Cu2 H26 C28 N4 O10'
_cell_volume   674.85787448
_cell_formula_units_Z   2
loop_
 _symmetry_equiv_pos_site_id
 _symmetry_equiv_pos_as_xyz
  1  'x, y, z'
loop_
 _atom_site_type_symbol
 _atom_site_label
 _atom_site_symmetry_multiplicity
 _atom_site_fract_x
 _atom_site_fract_y
 _atom_site_fract_z
 _atom_site_occupancy
  Cu  Cu0  1  0.25177000  0.24151000  0.73008000  1.0
  Cu  Cu1  1  0.74821000  0.75848000  0.26992000  1.0
  H  H2  1  0.75774000  0.16818000  0.46439000  1.0
  H  H3  1  0.24228000  0.83184000  0.53560000  1.0
  H  H4  1  0.69113000  0.98222000  0.49378000  1.0
  H  H5  1  0.30889000  0.01781000  0.50621000  1.0
  H  H6  1  0.93014000  0.90284000  0.64287000  1.0
  H  H7  1  0.06987000  0.09714000  0.35713000  1.0
  H  H8  1  0.64139000  0.36001000  0.60440000  1.0
  H  H9  1  0.35863000  0.63999000  0.39560000  1.0
  H  H10  1  0.79364000  0.60049000  0.58224000  1.0
  H  H11  1  0.20635000  0.39951000  0.41778000  1.0
  H  H12  1  0.61202000  0.80548000  0.67963000  1.0
  H  H13  1  0.38797000  0.19451000  0.32037000  1.0
  H  H14  1  0.28386000  0.77154000  0.77794000  1.0
  H  H15  1  0.71613000  0.22847000  0.22206000  1.0
  H  H16  1  0.00221000  0.72803000  0.84338000  1.0
  H  H17  1  0.99780000  0.27196000  0.15665000  1.0
  H  H18  1  0.69218000  0.64276000  0.95185000  1.0
  H  H19  1  0.30782000  0.35723000  0.04819000  1.0
  H  H20  1  0.61382000  0.37186000  0.96339000  1.0
  H  H21  1  0.38619000  0.62814000  0.03663000  1.0
  H  H22  1  0.85729000  0.20366000  0.86708000  1.0
  H  H23  1  0.14268000  0.79633000  0.13291000  1.0
  H  H24  1  0.47022000  0.11721000  0.89941000  1.0
  H  H25  1  0.52977000  0.88281000  0.10060000  1.0
  H  H26  1  0.33931000  0.08607000  0.04459000  1.0
  H  H27  1  0.66068000  0.91395000  0.95542000  1.0
  C  C28  1  0.60484000  0.08686000  0.66223000  1.0
  C  C29  1  0.39516000  0.91315000  0.33779000  1.0
  C  C30  1  0.74655000  0.06051000  0.54029000  1.0
  C  C31  1  0.25345000  0.93951000  0.45968000  1.0
  C  C32  1  0.93445000  0.01046000  0.56700000  1.0
  C  C33  1  0.06556000  0.98953000  0.43301000  1.0
  C  C34  1  0.01233000  0.13061000  0.61926000  1.0
  C  C35  1  0.98768000  0.86937000  0.38073000  1.0
  C  C36  1  0.56595000  0.45294000  0.64200000  1.0
  C  C37  1  0.43403000  0.54706000  0.35798000  1.0
  C  C38  1  0.65081000  0.58676000  0.63067000  1.0
  C  C39  1  0.34919000  0.41323000  0.36931000  1.0
  C  C40  1  0.54886000  0.70138000  0.68232000  1.0
  C  C41  1  0.45115000  0.29861000  0.31767000  1.0
  C  C42  1  0.36542000  0.68156000  0.73921000  1.0
  C  C43  1  0.63458000  0.31844000  0.26078000  1.0
  C  C44  1  0.28836000  0.54480000  0.74551000  1.0
  C  C45  1  0.71163000  0.45521000  0.25448000  1.0
  C  C46  1  0.09674000  0.50988000  0.80340000  1.0
  C  C47  1  0.90327000  0.49012000  0.19660000  1.0
  C  C48  1  0.96662000  0.61240000  0.85082000  1.0
  C  C49  1  0.03339000  0.38758000  0.14918000  1.0
  C  C50  1  0.79167000  0.56368000  0.91092000  1.0
  C  C51  1  0.20832000  0.43631000  0.08911000  1.0
  C  C52  1  0.74929000  0.41497000  0.91923000  1.0
  C  C53  1  0.25070000  0.58503000  0.08079000  1.0
  C  C54  1  0.88352000  0.31959000  0.86684000  1.0
  C  C55  1  0.11647000  0.68041000  0.13316000  1.0
  N  N56  1  0.39018000  0.43169000  0.69945000  1.0
  N  N57  1  0.60980000  0.56831000  0.30054000  1.0
  N  N58  1  0.05285000  0.36633000  0.81149000  1.0
  N  N59  1  0.94715000  0.63367000  0.18850000  1.0
  O  O60  1  0.45461000  0.14210000  0.62936000  1.0
  O  O61  1  0.54540000  0.85788000  0.37062000  1.0
  O  O62  1  0.63773000  0.05842000  0.78081000  1.0
  O  O63  1  0.36225000  0.94160000  0.21921000  1.0
  O  O64  1  0.99753000  0.26654000  0.56118000  1.0
  O  O65  1  0.00251000  0.73345000  0.43881000  1.0
  O  O66  1  0.09676000  0.08036000  0.71894000  1.0
  O  O67  1  0.90325000  0.91964000  0.28106000  1.0
  O  O68  1  0.36875000  0.16194000  0.95878000  1.0
  O  O69  1  0.63125000  0.83807000  0.04123000  1.0
