# generated using pymatgen
data_MnH20C23N4O5
_symmetry_space_group_name_H-M   'P 1'
_cell_length_a   9.48258000
_cell_length_b   9.97492000
_cell_length_c   12.85040000
_cell_angle_alpha   80.50850000
_cell_angle_beta   81.87230000
_cell_angle_gamma   63.05400000
_symmetry_Int_Tables_number   1
_chemical_formula_structural   MnH20C23N4O5
_chemical_formula_sum   'Mn2 H40 C46 N8 O10'
_cell_volume   1065.62318109
_cell_formula_units_Z   2
loop_
 _symmetry_equiv_pos_site_id
 _symmetry_equiv_pos_as_xyz
  1  'x, y, z'
loop_
 _atom_site_type_symbol
 _atom_site_label
 _atom_site_symmetry_multiplicity
 _atom_site_fract_x
 _atom_site_fract_y
 _atom_site_fract_z
 _atom_site_occupancy
  Mn  Mn0  1  0.33685000  0.17311000  0.09683000  1.0
  Mn  Mn1  1  0.66315000  0.82689000  0.90317000  1.0
  H  H2  1  0.91347000  0.66476000  0.07100000  1.0
  H  H3  1  0.08653000  0.33524000  0.92900000  1.0
  H  H4  1  0.68337000  0.93823000  0.32595000  1.0
  H  H5  1  0.31663000  0.06177000  0.67405000  1.0
  H  H6  1  0.07040000  0.49153000  0.38604000  1.0
  H  H7  1  0.92961000  0.50847000  0.61397000  1.0
  H  H8  1  0.79825000  0.95260000  0.47789000  1.0
  H  H9  1  0.20175000  0.04740000  0.52211000  1.0
  H  H10  1  0.78221000  0.84253000  0.60109000  1.0
  H  H11  1  0.21779000  0.15747000  0.39892000  1.0
  H  H12  1  0.64138000  0.89542000  0.50476000  1.0
  H  H13  1  0.35863000  0.10458000  0.49525000  1.0
  H  H14  1  0.65855000  0.18652000  0.95148000  1.0
  H  H15  1  0.34144000  0.81348000  0.04852000  1.0
  H  H16  1  0.64367000  0.45661000  0.83456000  1.0
  H  H17  1  0.35633000  0.54338000  0.16544000  1.0
  H  H18  1  0.18230000  0.52005000  0.95653000  1.0
  H  H19  1  0.81770000  0.47995000  0.04347000  1.0
  H  H20  1  0.40394000  0.73918000  0.84569000  1.0
  H  H21  1  0.59606000  0.26082000  0.15430000  1.0
  H  H22  1  0.21204000  0.74623000  0.86669000  1.0
  H  H23  1  0.78796000  0.25377000  0.13331000  1.0
  H  H24  1  0.14302000  0.61879000  0.72827000  1.0
  H  H25  1  0.85698000  0.38121000  0.27173000  1.0
  H  H26  1  0.14623000  0.61223000  0.53573000  1.0
  H  H27  1  0.85377000  0.38777000  0.46427000  1.0
  H  H28  1  0.52733000  0.74363000  0.47805000  1.0
  H  H29  1  0.47267000  0.25636000  0.52195000  1.0
  H  H30  1  0.52106000  0.75381000  0.67146000  1.0
  H  H31  1  0.47895000  0.24618000  0.32854000  1.0
  H  H32  1  0.46724000  0.60788000  0.34603000  1.0
  H  H33  1  0.53275000  0.39213000  0.65396000  1.0
  H  H34  1  0.27944000  0.60671000  0.36286000  1.0
  H  H35  1  0.72055000  0.39330000  0.63714000  1.0
  H  H36  1  0.48635000  0.85240000  0.27111000  1.0
  H  H37  1  0.51364000  0.14761000  0.72888000  1.0
  H  H38  1  0.01476000  0.12628000  0.19497000  1.0
  H  H39  1  0.98523000  0.87372000  0.80504000  1.0
  H  H40  1  0.03101000  0.86333000  0.31954000  1.0
  H  H41  1  0.96898000  0.13668000  0.68046000  1.0
  C  C42  1  0.12496000  0.41781000  0.18434000  1.0
  C  C43  1  0.87504000  0.58219000  0.81567000  1.0
  C  C44  1  0.00425000  0.56308000  0.22440000  1.0
  C  C45  1  0.99575000  0.43692000  0.77560000  1.0
  C  C46  1  0.90335000  0.67915000  0.15428000  1.0
  C  C47  1  0.09665000  0.32085000  0.84573000  1.0
  C  C48  1  0.78946000  0.81356000  0.19170000  1.0
  C  C49  1  0.21054000  0.18644000  0.80830000  1.0
  C  C50  1  0.77334000  0.83172000  0.29977000  1.0
  C  C51  1  0.22666000  0.16828000  0.70023000  1.0
  C  C52  1  0.87426000  0.71494000  0.36926000  1.0
  C  C53  1  0.12575000  0.28505000  0.63074000  1.0
  C  C54  1  0.99169000  0.58137000  0.33127000  1.0
  C  C55  1  0.00831000  0.41863000  0.66873000  1.0
  C  C56  1  0.68023000  0.93773000  0.11709000  1.0
  C  C57  1  0.31977000  0.06227000  0.88292000  1.0
  C  C58  1  0.76639000  0.86195000  0.51631000  1.0
  C  C59  1  0.23361000  0.13805000  0.48369000  1.0
  C  C60  1  0.55814000  0.29576000  0.93563000  1.0
  C  C61  1  0.44186000  0.70424000  0.06437000  1.0
  C  C62  1  0.55316000  0.42585000  0.87679000  1.0
  C  C63  1  0.44684000  0.57414000  0.12321000  1.0
  C  C64  1  0.31050000  0.46328000  0.94173000  1.0
  C  C65  1  0.68950000  0.53672000  0.05827000  1.0
  C  C66  1  0.33197000  0.68579000  0.82942000  1.0
  C  C67  1  0.66804000  0.31421000  0.17058000  1.0
  C  C68  1  0.32968000  0.68959000  0.71177000  1.0
  C  C69  1  0.67032000  0.31041000  0.28823000  1.0
  C  C70  1  0.22557000  0.64871000  0.67309000  1.0
  C  C71  1  0.77444000  0.35129000  0.32690000  1.0
  C  C72  1  0.22841000  0.64359000  0.56505000  1.0
  C  C73  1  0.77159000  0.35641000  0.43495000  1.0
  C  C74  1  0.33645000  0.67852000  0.49407000  1.0
  C  C75  1  0.66355000  0.32148000  0.50592000  1.0
  C  C76  1  0.44034000  0.71969000  0.53292000  1.0
  C  C77  1  0.55966000  0.28030000  0.46708000  1.0
  C  C78  1  0.43703000  0.72608000  0.64088000  1.0
  C  C79  1  0.56297000  0.27392000  0.35911000  1.0
  C  C80  1  0.34374000  0.66881000  0.37735000  1.0
  C  C81  1  0.65626000  0.33120000  0.62264000  1.0
  C  C82  1  0.35963000  0.89483000  0.26745000  1.0
  C  C83  1  0.64036000  0.10518000  0.73255000  1.0
  C  C84  1  0.11476000  0.03098000  0.23018000  1.0
  C  C85  1  0.88524000  0.96903000  0.76982000  1.0
  C  C86  1  0.12067000  0.90251000  0.29206000  1.0
  C  C87  1  0.87932000  0.09750000  0.70794000  1.0
  N  N88  1  0.40615000  0.32056000  0.97644000  1.0
  N  N89  1  0.59385000  0.67944000  0.02356000  1.0
  N  N90  1  0.39547000  0.53057000  0.88183000  1.0
  N  N91  1  0.60453000  0.46942000  0.11817000  1.0
  N  N92  1  0.27711000  0.81718000  0.31472000  1.0
  N  N93  1  0.72288000  0.18282000  0.68527000  1.0
  N  N94  1  0.26427000  0.02523000  0.21548000  1.0
  N  N95  1  0.73572000  0.97478000  0.78452000  1.0
  O  O96  1  0.08682000  0.36723000  0.11281000  1.0
  O  O97  1  0.91319000  0.63277000  0.88718000  1.0
  O  O98  1  0.26092000  0.35026000  0.22116000  1.0
  O  O99  1  0.73908000  0.64974000  0.77884000  1.0
  O  O100  1  0.70728000  0.92733000  0.01819000  1.0
  O  O101  1  0.29272000  0.07267000  0.98182000  1.0
  O  O102  1  0.56385000  0.04877000  0.15782000  1.0
  O  O103  1  0.43615000  0.95123000  0.84219000  1.0
  O  O104  1  0.86921000  0.72100000  0.47569000  1.0
  O  O105  1  0.13079000  0.27900000  0.52431000  1.0
