# generated using pymatgen
data_CaH14C16O7
_symmetry_space_group_name_H-M   'P 1'
_cell_length_a   6.63311000
_cell_length_b   9.72787000
_cell_length_c   25.44600000
_cell_angle_alpha   90.00000000
_cell_angle_beta   95.79350000
_cell_angle_gamma   89.99980000
_symmetry_Int_Tables_number   1
_chemical_formula_structural   CaH14C16O7
_chemical_formula_sum   'Ca4 H56 C64 O28'
_cell_volume   1633.54270319
_cell_formula_units_Z   4
loop_
 _symmetry_equiv_pos_site_id
 _symmetry_equiv_pos_as_xyz
  1  'x, y, z'
loop_
 _atom_site_type_symbol
 _atom_site_label
 _atom_site_symmetry_multiplicity
 _atom_site_fract_x
 _atom_site_fract_y
 _atom_site_fract_z
 _atom_site_occupancy
  Ca  Ca0  1  0.73350000  0.04803000  0.96319000  1.0
  Ca  Ca1  1  0.76649000  0.54804000  0.53681000  1.0
  Ca  Ca2  1  0.26649000  0.95196000  0.03681000  1.0
  Ca  Ca3  1  0.23350000  0.45196000  0.46319000  1.0
  H  H4  1  0.82132000  0.00393000  0.78148000  1.0
  H  H5  1  0.67868000  0.50393000  0.71852000  1.0
  H  H6  1  0.17869000  0.99608000  0.21852000  1.0
  H  H7  1  0.32132000  0.49607000  0.28148000  1.0
  H  H8  1  0.52940000  0.98267000  0.71632000  1.0
  H  H9  1  0.97059000  0.48268000  0.78368000  1.0
  H  H10  1  0.47061000  0.01733000  0.28368000  1.0
  H  H11  1  0.02940000  0.51733000  0.21632000  1.0
  H  H12  1  0.02926000  0.35201000  0.69612000  1.0
  H  H13  1  0.47073000  0.85202000  0.80388000  1.0
  H  H14  1  0.97075000  0.64799000  0.30388000  1.0
  H  H15  1  0.52926000  0.14798000  0.19612000  1.0
  H  H16  1  0.97228000  0.09955000  0.84743000  1.0
  H  H17  1  0.52772000  0.59955000  0.65257000  1.0
  H  H18  1  0.02772000  0.90045000  0.15257000  1.0
  H  H19  1  0.47228000  0.40045000  0.34743000  1.0
  H  H20  1  0.59619000  0.34178000  0.80784000  1.0
  H  H21  1  0.90380000  0.84178000  0.69216000  1.0
  H  H22  1  0.40381000  0.65822000  0.19216000  1.0
  H  H23  1  0.09619000  0.15821000  0.30784000  1.0
  H  H24  1  0.32587000  0.30398000  0.73717000  1.0
  H  H25  1  0.17412000  0.80398000  0.76282000  1.0
  H  H26  1  0.67414000  0.69603000  0.26283000  1.0
  H  H27  1  0.82587000  0.19602000  0.23717000  1.0
  H  H28  1  0.17752000  0.06412000  0.60528000  1.0
  H  H29  1  0.32247000  0.56412000  0.89472000  1.0
  H  H30  1  0.82248000  0.93588000  0.39472000  1.0
  H  H31  1  0.67753000  0.43588000  0.10528000  1.0
  H  H32  1  0.22902000  0.06532000  0.67573000  1.0
  H  H33  1  0.27097000  0.56532000  0.82427000  1.0
  H  H34  1  0.77099000  0.93468000  0.32427000  1.0
  H  H35  1  0.72902000  0.43468000  0.17573000  1.0
  H  H36  1  0.35411000  0.94404000  0.63683000  1.0
  H  H37  1  0.14589000  0.44404000  0.86317000  1.0
  H  H38  1  0.64590000  0.05596000  0.36317000  1.0
  H  H39  1  0.85411000  0.55596000  0.13683000  1.0
  H  H40  1  0.82919000  0.37137000  0.94142000  1.0
  H  H41  1  0.67080000  0.87137000  0.55858000  1.0
  H  H42  1  0.17081000  0.62863000  0.05858000  1.0
  H  H43  1  0.32920000  0.12863000  0.44142000  1.0
  H  H44  1  0.66919000  0.46267000  0.89175000  1.0
  H  H45  1  0.83081000  0.96267000  0.60825000  1.0
  H  H46  1  0.33082000  0.53734000  0.10826000  1.0
  H  H47  1  0.16919000  0.03733000  0.39175000  1.0
  H  H48  1  0.84013000  0.33233000  0.87279000  1.0
  H  H49  1  0.65986000  0.83233000  0.62721000  1.0
  H  H50  1  0.15987000  0.66767000  0.12721000  1.0
  H  H51  1  0.34013000  0.16766000  0.37279000  1.0
  H  H52  1  0.95896000  0.22863000  0.04379000  1.0
  H  H53  1  0.54104000  0.72864000  0.45622000  1.0
  H  H54  1  0.04103000  0.77136000  0.95621000  1.0
  H  H55  1  0.45897000  0.27136000  0.54378000  1.0
  H  H56  1  0.73107000  0.25074000  0.05227000  1.0
  H  H57  1  0.76892000  0.75074000  0.44773000  1.0
  H  H58  1  0.26892000  0.74926000  0.94773000  1.0
  H  H59  1  0.23109000  0.24926000  0.55227000  1.0
  C  C60  1  0.95374000  0.17892000  0.74459000  1.0
  C  C61  1  0.54626000  0.67892000  0.75541000  1.0
  C  C62  1  0.04627000  0.82108000  0.25541000  1.0
  C  C63  1  0.45374000  0.32108000  0.24459000  1.0
  C  C64  1  0.80798000  0.07533000  0.74833000  1.0
  C  C65  1  0.69201000  0.57533000  0.75167000  1.0
  C  C66  1  0.19202000  0.92468000  0.25167000  1.0
  C  C67  1  0.30798000  0.42467000  0.24833000  1.0
  C  C68  1  0.64050000  0.06248000  0.71102000  1.0
  C  C69  1  0.85950000  0.56248000  0.78898000  1.0
  C  C70  1  0.35951000  0.93752000  0.28898000  1.0
  C  C71  1  0.14050000  0.43752000  0.21102000  1.0
  C  C72  1  0.61421000  0.15205000  0.66767000  1.0
  C  C73  1  0.88579000  0.65205000  0.83232000  1.0
  C  C74  1  0.38580000  0.84795000  0.33233000  1.0
  C  C75  1  0.11421000  0.34795000  0.16767000  1.0
  C  C76  1  0.76164000  0.25427000  0.66194000  1.0
  C  C77  1  0.73836000  0.75427000  0.83806000  1.0
  C  C78  1  0.23837000  0.74573000  0.33806000  1.0
  C  C79  1  0.26163000  0.24573000  0.16194000  1.0
  C  C80  1  0.92516000  0.26708000  0.70086000  1.0
  C  C81  1  0.57483000  0.76708000  0.79914000  1.0
  C  C82  1  0.07485000  0.73292000  0.29914000  1.0
  C  C83  1  0.42517000  0.23292000  0.20086000  1.0
  C  C84  1  0.12477000  0.19790000  0.78600000  1.0
  C  C85  1  0.37522000  0.69790000  0.71400000  1.0
  C  C86  1  0.87523000  0.80211000  0.21401000  1.0
  C  C87  1  0.62477000  0.30210000  0.28599000  1.0
  C  C88  1  0.10995000  0.15069000  0.83760000  1.0
  C  C89  1  0.39005000  0.65069000  0.66240000  1.0
  C  C90  1  0.89006000  0.84932000  0.16240000  1.0
  C  C91  1  0.60995000  0.34931000  0.33760000  1.0
  C  C92  1  0.26492000  0.16823000  0.87851000  1.0
  C  C93  1  0.23507000  0.66823000  0.62149000  1.0
  C  C94  1  0.73508000  0.83177000  0.12149000  1.0
  C  C95  1  0.76492000  0.33177000  0.37851000  1.0
  C  C96  1  0.44287000  0.23897000  0.86798000  1.0
  C  C97  1  0.05712000  0.73897000  0.63201000  1.0
  C  C98  1  0.55713000  0.76103000  0.13202000  1.0
  C  C99  1  0.94287000  0.26102000  0.36798000  1.0
  C  C100  1  0.46027000  0.28765000  0.81687000  1.0
  C  C101  1  0.03972000  0.78765000  0.68312000  1.0
  C  C102  1  0.53973000  0.71236000  0.18313000  1.0
  C  C103  1  0.96027000  0.21235000  0.31687000  1.0
  C  C104  1  0.30456000  0.26638000  0.77665000  1.0
  C  C105  1  0.19543000  0.76638000  0.72335000  1.0
  C  C106  1  0.69545000  0.73362000  0.22335000  1.0
  C  C107  1  0.80456000  0.23361000  0.27665000  1.0
  C  C108  1  0.29505000  0.04932000  0.63830000  1.0
  C  C109  1  0.20495000  0.54932000  0.86170000  1.0
  C  C110  1  0.70496000  0.95068000  0.36171000  1.0
  C  C111  1  0.79505000  0.45068000  0.13829000  1.0
  C  C112  1  0.74117000  0.36367000  0.90278000  1.0
  C  C113  1  0.75882000  0.86367000  0.59722000  1.0
  C  C114  1  0.25883000  0.63633000  0.09723000  1.0
  C  C115  1  0.24118000  0.13633000  0.40278000  1.0
  C  C116  1  0.75413000  0.35373000  0.61675000  1.0
  C  C117  1  0.74587000  0.85373000  0.88325000  1.0
  C  C118  1  0.24588000  0.64627000  0.38325000  1.0
  C  C119  1  0.25412000  0.14627000  0.11675000  1.0
  C  C120  1  0.23254000  0.10987000  0.93138000  1.0
  C  C121  1  0.26746000  0.60988000  0.56862000  1.0
  C  C122  1  0.76746000  0.89012000  0.06862000  1.0
  C  C123  1  0.73254000  0.39012000  0.43138000  1.0
  O  O124  1  0.44891000  0.14905000  0.63114000  1.0
  O  O125  1  0.05109000  0.64905000  0.86886000  1.0
  O  O126  1  0.55110000  0.85095000  0.36886000  1.0
  O  O127  1  0.94891000  0.35095000  0.13114000  1.0
  O  O128  1  0.58961000  0.26047000  0.90924000  1.0
  O  O129  1  0.91038000  0.76047000  0.59076000  1.0
  O  O130  1  0.41039000  0.73953000  0.09076000  1.0
  O  O131  1  0.08962000  0.23953000  0.40924000  1.0
  O  O132  1  0.69278000  0.31522000  0.56956000  1.0
  O  O133  1  0.80722000  0.81523000  0.93044000  1.0
  O  O134  1  0.30723000  0.68477000  0.43044000  1.0
  O  O135  1  0.19277000  0.18477000  0.06956000  1.0
  O  O136  1  0.82012000  0.47446000  0.62701000  1.0
  O  O137  1  0.67989000  0.97447000  0.87298000  1.0
  O  O138  1  0.17989000  0.52553000  0.37298000  1.0
  O  O139  1  0.32011000  0.02553000  0.12701000  1.0
  O  O140  1  0.38518000  0.06684000  0.96161000  1.0
  O  O141  1  0.11481000  0.56685000  0.53839000  1.0
  O  O142  1  0.61481000  0.93315000  0.03839000  1.0
  O  O143  1  0.88518000  0.43315000  0.46161000  1.0
  O  O144  1  0.05419000  0.09966000  0.94448000  1.0
  O  O145  1  0.44581000  0.59965000  0.55552000  1.0
  O  O146  1  0.94581000  0.90034000  0.05552000  1.0
  O  O147  1  0.55419000  0.40033000  0.44448000  1.0
  O  O148  1  0.81894000  0.23271000  0.02478000  1.0
  O  O149  1  0.68106000  0.73271000  0.47522000  1.0
  O  O150  1  0.18105000  0.76729000  0.97522000  1.0
  O  O151  1  0.31895000  0.26729000  0.52478000  1.0
