# generated using pymatgen
data_MnH6(CO)4
_symmetry_space_group_name_H-M   'P 1'
_cell_length_a   4.92731000
_cell_length_b   6.05097000
_cell_length_c   9.69711000
_cell_angle_alpha   77.19900000
_cell_angle_beta   89.99970000
_cell_angle_gamma   89.99990000
_symmetry_Int_Tables_number   1
_chemical_formula_structural   MnH6(CO)4
_chemical_formula_sum   'Mn2 H12 C8 O8'
_cell_volume   281.93346169
_cell_formula_units_Z   2
loop_
 _symmetry_equiv_pos_site_id
 _symmetry_equiv_pos_as_xyz
  1  'x, y, z'
loop_
 _atom_site_type_symbol
 _atom_site_label
 _atom_site_symmetry_multiplicity
 _atom_site_fract_x
 _atom_site_fract_y
 _atom_site_fract_z
 _atom_site_occupancy
  Mn  Mn0  1  0.81250000  0.75000000  0.50000000  1.0
  Mn  Mn1  1  0.18750000  0.24999000  0.50000000  1.0
  H  H2  1  0.27642000  0.75367000  0.12972000  1.0
  H  H3  1  0.27641000  0.74633000  0.87027000  1.0
  H  H4  1  0.72359000  0.24634000  0.87028000  1.0
  H  H5  1  0.72358000  0.25367000  0.12972000  1.0
  H  H6  1  0.26620000  0.05465000  0.08265000  1.0
  H  H7  1  0.26618000  0.44536000  0.91735000  1.0
  H  H8  1  0.73382000  0.94535000  0.91736000  1.0
  H  H9  1  0.73381000  0.55465000  0.08265000  1.0
  H  H10  1  0.97765000  0.90203000  0.16534000  1.0
  H  H11  1  0.97765000  0.59798000  0.83466000  1.0
  H  H12  1  0.02237000  0.09798000  0.83466000  1.0
  H  H13  1  0.02235000  0.40202000  0.16535000  1.0
  C  C14  1  0.31675000  0.91655000  0.30316000  1.0
  C  C15  1  0.31674000  0.58344000  0.69685000  1.0
  C  C16  1  0.68326000  0.08345000  0.69684000  1.0
  C  C17  1  0.68325000  0.41654000  0.30315000  1.0
  C  C18  1  0.19938000  0.90470000  0.16155000  1.0
  C  C19  1  0.19938000  0.59530000  0.83844000  1.0
  C  C20  1  0.80063000  0.09530000  0.83845000  1.0
  C  C21  1  0.80062000  0.40470000  0.16155000  1.0
  O  O22  1  0.15526000  0.96115000  0.39811000  1.0
  O  O23  1  0.15525000  0.53885000  0.60189000  1.0
  O  O24  1  0.84476000  0.03884000  0.60189000  1.0
  O  O25  1  0.84474000  0.46114000  0.39812000  1.0
  O  O26  1  0.56913000  0.88612000  0.32173000  1.0
  O  O27  1  0.56910000  0.61388000  0.67826000  1.0
  O  O28  1  0.43088000  0.11388000  0.67827000  1.0
  O  O29  1  0.43087000  0.38612000  0.32173000  1.0
