# generated using pymatgen
data_PrH4(C3O4)2
_symmetry_space_group_name_H-M   'P 1'
_cell_length_a   6.99640000
_cell_length_b   7.10612000
_cell_length_c   16.87680000
_cell_angle_alpha   90.00010000
_cell_angle_beta   90.00020000
_cell_angle_gamma   79.21500000
_symmetry_Int_Tables_number   1
_chemical_formula_structural   PrH4(C3O4)2
_chemical_formula_sum   'Pr4 H16 C24 O32'
_cell_volume   824.24714763
_cell_formula_units_Z   4
loop_
 _symmetry_equiv_pos_site_id
 _symmetry_equiv_pos_as_xyz
  1  'x, y, z'
loop_
 _atom_site_type_symbol
 _atom_site_label
 _atom_site_symmetry_multiplicity
 _atom_site_fract_x
 _atom_site_fract_y
 _atom_site_fract_z
 _atom_site_occupancy
  Pr  Pr0  1  0.49105000  0.75801000  0.41963000  1.0
  Pr  Pr1  1  0.00895000  0.24199000  0.91963000  1.0
  Pr  Pr2  1  0.50895000  0.24199000  0.58037000  1.0
  Pr  Pr3  1  0.99105000  0.75802000  0.08037000  1.0
  H  H4  1  0.15239000  0.09487000  0.38173000  1.0
  H  H5  1  0.34761000  0.90513000  0.88173000  1.0
  H  H6  1  0.84761000  0.90513000  0.61827000  1.0
  H  H7  1  0.65239000  0.09487000  0.11827000  1.0
  H  H8  1  0.22523000  0.51310000  0.32106000  1.0
  H  H9  1  0.27477000  0.48690000  0.82106000  1.0
  H  H10  1  0.77477000  0.48691000  0.67894000  1.0
  H  H11  1  0.72523000  0.51310000  0.17894000  1.0
  H  H12  1  0.18795000  0.72403000  0.28445000  1.0
  H  H13  1  0.31205000  0.27598000  0.78445000  1.0
  H  H14  1  0.81205000  0.27598000  0.71555000  1.0
  H  H15  1  0.68795000  0.72402000  0.21555000  1.0
  H  H16  1  0.05062000  0.92055000  0.41251000  1.0
  H  H17  1  0.44939000  0.07945000  0.91251000  1.0
  H  H18  1  0.94938000  0.07945000  0.58749000  1.0
  H  H19  1  0.55062000  0.92055000  0.08749000  1.0
  C  C20  1  0.59336000  0.16758000  0.37059000  1.0
  C  C21  1  0.90664000  0.83242000  0.87058000  1.0
  C  C22  1  0.40664000  0.83242000  0.62941000  1.0
  C  C23  1  0.09336000  0.16758000  0.12942000  1.0
  C  C24  1  0.64743000  0.33120000  0.32902000  1.0
  C  C25  1  0.85256000  0.66881000  0.82902000  1.0
  C  C26  1  0.35256000  0.66880000  0.67098000  1.0
  C  C27  1  0.14743000  0.33119000  0.17098000  1.0
  C  C28  1  0.64482000  0.22719000  0.25273000  1.0
  C  C29  1  0.85518000  0.77281000  0.75274000  1.0
  C  C30  1  0.35518000  0.77281000  0.74727000  1.0
  C  C31  1  0.14482000  0.22719000  0.24726000  1.0
  C  C32  1  0.94698000  0.62362000  0.46715000  1.0
  C  C33  1  0.55302000  0.37637000  0.96715000  1.0
  C  C34  1  0.05302000  0.37638000  0.53285000  1.0
  C  C35  1  0.44698000  0.62363000  0.03285000  1.0
  C  C36  1  0.13963000  0.51866000  0.49050000  1.0
  C  C37  1  0.36036000  0.48134000  0.99050000  1.0
  C  C38  1  0.86037000  0.48134000  0.50950000  1.0
  C  C39  1  0.63964000  0.51866000  0.00950000  1.0
  C  C40  1  0.59718000  0.06216000  0.29684000  1.0
  C  C41  1  0.90282000  0.93783000  0.79684000  1.0
  C  C42  1  0.40282000  0.93783000  0.70316000  1.0
  C  C43  1  0.09718000  0.06218000  0.20315000  1.0
  O  O44  1  0.16899000  0.97814000  0.41624000  1.0
  O  O45  1  0.33100000  0.02186000  0.91624000  1.0
  O  O46  1  0.83101000  0.02186000  0.58376000  1.0
  O  O47  1  0.66900000  0.97814000  0.08376000  1.0
  O  O48  1  0.86727000  0.77043000  0.42920000  1.0
  O  O49  1  0.63273000  0.22957000  0.92921000  1.0
  O  O50  1  0.13273000  0.22957000  0.57080000  1.0
  O  O51  1  0.36727000  0.77043000  0.07079000  1.0
  O  O52  1  0.31863000  0.52481000  0.48341000  1.0
  O  O53  1  0.18137000  0.47520000  0.98341000  1.0
  O  O54  1  0.68137000  0.47519000  0.51659000  1.0
  O  O55  1  0.81863000  0.52480000  0.01659000  1.0
  O  O56  1  0.67720000  0.49491000  0.34586000  1.0
  O  O57  1  0.82279000  0.50507000  0.84586000  1.0
  O  O58  1  0.32280000  0.50508000  0.65414000  1.0
  O  O59  1  0.17721000  0.49493000  0.15414000  1.0
  O  O60  1  0.66394000  0.27395000  0.18176000  1.0
  O  O61  1  0.83606000  0.72605000  0.68176000  1.0
  O  O62  1  0.33606000  0.72605000  0.81824000  1.0
  O  O63  1  0.16393000  0.27395000  0.31824000  1.0
  O  O64  1  0.26406000  0.63996000  0.32443000  1.0
  O  O65  1  0.23594000  0.36004000  0.82443000  1.0
  O  O66  1  0.73594000  0.36004000  0.67557000  1.0
  O  O67  1  0.76406000  0.63996000  0.17557000  1.0
  O  O68  1  0.54668000  0.11711000  0.43952000  1.0
  O  O69  1  0.95332000  0.88289000  0.93952000  1.0
  O  O70  1  0.45332000  0.88289000  0.56048000  1.0
  O  O71  1  0.04668000  0.11711000  0.06048000  1.0
  O  O72  1  0.55817000  0.89717000  0.28468000  1.0
  O  O73  1  0.94183000  0.10284000  0.78468000  1.0
  O  O74  1  0.44183000  0.10283000  0.71532000  1.0
  O  O75  1  0.05817000  0.89717000  0.21532000  1.0
