# generated using pymatgen
data_MgH7C13(NO)3
_symmetry_space_group_name_H-M   'P 1'
_cell_length_a   6.84228000
_cell_length_b   41.33000000
_cell_length_c   41.33060000
_cell_angle_alpha   119.69600000
_cell_angle_beta   93.16460000
_cell_angle_gamma   93.16300000
_symmetry_Int_Tables_number   1
_chemical_formula_structural   MgH7C13(NO)3
_chemical_formula_sum   'Mg6 H42 C78 N18 O18'
_cell_volume   10091.44311855
_cell_formula_units_Z   6
loop_
 _symmetry_equiv_pos_site_id
 _symmetry_equiv_pos_as_xyz
  1  'x, y, z'
loop_
 _atom_site_type_symbol
 _atom_site_label
 _atom_site_symmetry_multiplicity
 _atom_site_fract_x
 _atom_site_fract_y
 _atom_site_fract_z
 _atom_site_occupancy
  Mg  Mg0  1  0.11276000  0.68701000  0.32525000  1.0
  Mg  Mg1  1  0.42568000  0.63822000  0.31298000  1.0
  Mg  Mg2  1  0.78744000  0.67474000  0.36175000  1.0
  Mg  Mg3  1  0.28958000  0.30960000  0.66982000  1.0
  Mg  Mg4  1  0.97996000  0.36021000  0.69040000  1.0
  Mg  Mg5  1  0.61981000  0.33017000  0.63978000  1.0
  H  H6  1  0.65678000  0.57091000  0.20842000  1.0
  H  H7  1  0.08583000  0.63753000  0.42911000  1.0
  H  H8  1  0.44840000  0.79159000  0.36250000  1.0
  H  H9  1  0.83851000  0.54093000  0.15112000  1.0
  H  H10  1  0.29754000  0.61020000  0.45908000  1.0
  H  H11  1  0.68750000  0.84888000  0.38982000  1.0
  H  H12  1  0.36803000  0.60772000  0.21762000  1.0
  H  H13  1  0.76024000  0.60989000  0.39228000  1.0
  H  H14  1  0.15052000  0.78237000  0.39009000  1.0
  H  H15  1  0.54490000  0.55519000  0.12588000  1.0
  H  H16  1  0.98972000  0.57068000  0.44482000  1.0
  H  H17  1  0.41909000  0.87414000  0.42931000  1.0
  H  H18  1  0.75748000  0.52739000  0.07265000  1.0
  H  H19  1  0.23006000  0.54524000  0.47261000  1.0
  H  H20  1  0.68486000  0.92737000  0.45474000  1.0
  H  H21  1  0.24848000  0.46249000  0.99681000  1.0
  H  H22  1  0.78597000  0.53429000  0.53751000  1.0
  H  H23  1  0.25155000  0.00320000  0.46568000  1.0
  H  H24  1  0.03601000  0.49041000  0.05003000  1.0
  H  H25  1  0.54560000  0.55961000  0.50957000  1.0
  H  H26  1  0.98588000  0.94995000  0.44038000  1.0
  H  H27  1  0.47244000  0.40212000  0.90552000  1.0
  H  H28  1  0.07024000  0.50341000  0.59790000  1.0
  H  H29  1  0.56682000  0.09447000  0.49659000  1.0
  H  H30  1  0.67763000  0.37868000  0.85048000  1.0
  H  H31  1  0.29896000  0.47181000  0.62136000  1.0
  H  H32  1  0.82706000  0.14954000  0.52820000  1.0
  H  H33  1  0.14827000  0.46248000  0.92012000  1.0
  H  H34  1  0.68567000  0.45762000  0.53752000  1.0
  H  H35  1  0.22808000  0.07989000  0.54235000  1.0
  H  H36  1  0.94636000  0.48519000  0.97511000  1.0
  H  H37  1  0.46105000  0.48991000  0.51483000  1.0
  H  H38  1  0.97121000  0.02489000  0.51007000  1.0
  H  H39  1  0.53797000  0.44477000  0.85114000  1.0
  H  H40  1  0.09317000  0.40639000  0.55523000  1.0
  H  H41  1  0.68682000  0.14883000  0.59362000  1.0
  H  H42  1  0.73120000  0.41987000  0.79493000  1.0
  H  H43  1  0.31140000  0.37507000  0.58012000  1.0
  H  H44  1  0.93640000  0.20504000  0.62493000  1.0
  H  H45  1  0.02851000  0.37363000  0.78052000  1.0
  H  H46  1  0.65481000  0.40688000  0.62637000  1.0
  H  H47  1  0.24807000  0.21948000  0.59311000  1.0
  C  C48  1  0.78704000  0.62223000  0.27702000  1.0
  C  C49  1  0.16481000  0.65480000  0.37777000  1.0
  C  C50  1  0.51008000  0.72297000  0.34519000  1.0
  C  C51  1  0.90646000  0.60661000  0.24494000  1.0
  C  C52  1  0.29987000  0.63836000  0.39341000  1.0
  C  C53  1  0.66160000  0.75505000  0.36164000  1.0
  C  C54  1  0.81264000  0.57894000  0.20974000  1.0
  C  C55  1  0.23373000  0.63084000  0.42110000  1.0
  C  C56  1  0.60298000  0.79026000  0.36919000  1.0
  C  C57  1  0.91158000  0.56230000  0.17804000  1.0
  C  C58  1  0.34931000  0.61579000  0.43774000  1.0
  C  C59  1  0.73367000  0.82196000  0.38424000  1.0
  C  C60  1  0.11421000  0.57324000  0.18131000  1.0
  C  C61  1  0.54096000  0.60809000  0.42678000  1.0
  C  C62  1  0.93305000  0.81868000  0.39190000  1.0
  C  C63  1  0.21122000  0.60008000  0.21582000  1.0
  C  C64  1  0.61110000  0.61574000  0.39993000  1.0
  C  C65  1  0.99555000  0.78417000  0.38424000  1.0
  C  C66  1  0.11196000  0.61778000  0.24826000  1.0
  C  C67  1  0.49416000  0.63048000  0.38223000  1.0
  C  C68  1  0.86377000  0.75174000  0.36950000  1.0
  C  C69  1  0.27923000  0.52397000  0.09104000  1.0
  C  C70  1  0.75527000  0.56704000  0.47602000  1.0
  C  C71  1  0.18821000  0.90897000  0.43293000  1.0
  C  C72  1  0.48303000  0.53475000  0.09761000  1.0
  C  C73  1  0.94831000  0.56285000  0.46525000  1.0
  C  C74  1  0.38551000  0.90240000  0.43713000  1.0
  C  C75  1  0.59945000  0.51946000  0.06822000  1.0
  C  C76  1  0.07995000  0.54872000  0.48053000  1.0
  C  C77  1  0.53127000  0.93180000  0.45124000  1.0
  C  C78  1  0.51525000  0.49329000  0.03180000  1.0
  C  C79  1  0.02188000  0.53846000  0.50669000  1.0
  C  C80  1  0.48337000  0.96822000  0.46151000  1.0
  C  C81  1  0.31109000  0.48265000  0.02513000  1.0
  C  C82  1  0.82839000  0.54243000  0.51733000  1.0
  C  C83  1  0.28585000  0.97488000  0.45753000  1.0
  C  C84  1  0.19440000  0.49806000  0.05458000  1.0
  C  C85  1  0.69632000  0.55648000  0.50191000  1.0
  C  C86  1  0.13974000  0.94542000  0.44349000  1.0
  C  C87  1  0.69833000  0.44460000  0.94323000  1.0
  C  C88  1  0.25368000  0.49862000  0.55543000  1.0
  C  C89  1  0.75508000  0.05678000  0.50136000  1.0
  C  C90  1  0.62146000  0.41454000  0.90822000  1.0
  C  C91  1  0.20690000  0.49370000  0.58550000  1.0
  C  C92  1  0.71318000  0.09179000  0.50630000  1.0
  C  C93  1  0.73384000  0.40171000  0.87803000  1.0
  C  C94  1  0.33209000  0.47632000  0.59832000  1.0
  C  C95  1  0.85569000  0.12198000  0.52366000  1.0
  C  C96  1  0.92227000  0.41944000  0.88219000  1.0
  C  C97  1  0.50272000  0.46274000  0.58058000  1.0
  C  C98  1  0.03994000  0.11781000  0.53723000  1.0
  C  C99  1  0.00100000  0.44945000  0.91751000  1.0
  C  C100  1  0.55143000  0.46804000  0.55055000  1.0
  C  C101  1  0.08341000  0.08249000  0.53192000  1.0
  C  C102  1  0.89038000  0.46184000  0.94772000  1.0
  C  C103  1  0.42841000  0.48587000  0.53817000  1.0
  C  C104  1  0.94262000  0.05227000  0.51410000  1.0
  C  C105  1  0.27429000  0.40974000  0.81905000  1.0
  C  C106  1  0.86461000  0.40935000  0.59030000  1.0
  C  C107  1  0.45527000  0.18093000  0.59067000  1.0
  C  C108  1  0.47141000  0.42405000  0.82336000  1.0
  C  C109  1  0.04745000  0.39936000  0.57599000  1.0
  C  C110  1  0.64811000  0.17662000  0.60067000  1.0
  C  C111  1  0.57656000  0.41037000  0.79233000  1.0
  C  C112  1  0.16633000  0.38201000  0.58965000  1.0
  C  C113  1  0.78437000  0.20764000  0.61801000  1.0
  C  C114  1  0.48928000  0.38377000  0.75635000  1.0
  C  C115  1  0.10567000  0.37263000  0.61626000  1.0
  C  C116  1  0.73311000  0.24362000  0.62739000  1.0
  C  C117  1  0.61492000  0.37113000  0.72517000  1.0
  C  C118  1  0.24379000  0.35405000  0.62888000  1.0
  C  C119  1  0.88983000  0.27481000  0.64595000  1.0
  C  C120  1  0.28451000  0.37077000  0.75157000  1.0
  C  C121  1  0.91386000  0.38082000  0.62926000  1.0
  C  C122  1  0.53314000  0.24842000  0.61918000  1.0
  C  C123  1  0.18245000  0.38378000  0.78362000  1.0
  C  C124  1  0.79868000  0.39986000  0.61624000  1.0
  C  C125  1  0.39893000  0.21637000  0.60014000  1.0
  N  N126  1  0.23659000  0.55864000  0.15193000  1.0
  N  N127  1  0.67792000  0.59328000  0.44136000  1.0
  N  N128  1  0.08478000  0.84807000  0.40670000  1.0
  N  N129  1  0.14944000  0.53800000  0.11935000  1.0
  N  N130  1  0.61145000  0.58134000  0.46200000  1.0
  N  N131  1  0.03016000  0.88064000  0.41865000  1.0
  N  N132  1  0.64757000  0.48019000  0.00410000  1.0
  N  N133  1  0.16736000  0.52389000  0.51982000  1.0
  N  N134  1  0.64340000  0.99592000  0.47609000  1.0
  N  N135  1  0.57001000  0.45623000  0.97148000  1.0
  N  N136  1  0.11375000  0.51524000  0.54379000  1.0
  N  N137  1  0.59847000  0.02853000  0.48475000  1.0
  N  N138  1  0.01800000  0.40554000  0.84926000  1.0
  N  N139  1  0.61242000  0.44372000  0.59448000  1.0
  N  N140  1  0.16867000  0.15075000  0.55627000  1.0
  N  N141  1  0.18084000  0.42365000  0.85242000  1.0
  N  N142  1  0.75714000  0.42878000  0.57637000  1.0
  N  N143  1  0.32832000  0.14757000  0.57122000  1.0
  O  O144  1  0.60868000  0.60965000  0.27381000  1.0
  O  O145  1  0.99899000  0.66415000  0.39033000  1.0
  O  O146  1  0.33491000  0.72620000  0.33586000  1.0
  O  O147  1  0.86744000  0.64951000  0.30872000  1.0
  O  O148  1  0.21794000  0.65922000  0.35049000  1.0
  O  O149  1  0.55874000  0.69126000  0.34076000  1.0
  O  O150  1  0.21484000  0.64377000  0.28023000  1.0
  O  O151  1  0.57101000  0.63644000  0.35622000  1.0
  O  O152  1  0.93453000  0.71976000  0.36354000  1.0
  O  O153  1  0.79434000  0.38403000  0.73062000  1.0
  O  O154  1  0.41033000  0.34661000  0.61599000  1.0
  O  O155  1  0.06379000  0.26937000  0.65341000  1.0
  O  O156  1  0.53931000  0.34614000  0.69193000  1.0
  O  O157  1  0.19306000  0.34578000  0.65385000  1.0
  O  O158  1  0.84742000  0.30805000  0.65421000  1.0
  O  O159  1  0.18554000  0.34701000  0.71817000  1.0
  O  O160  1  0.83866000  0.37117000  0.65301000  1.0
  O  O161  1  0.46754000  0.28181000  0.62883000  1.0
