# generated using pymatgen
data_CdH20C14(N2O3)2
_symmetry_space_group_name_H-M   'P 1'
_cell_length_a   9.27850000
_cell_length_b   9.27851000
_cell_length_c   10.98000000
_cell_angle_alpha   73.97550000
_cell_angle_beta   73.97550000
_cell_angle_gamma   82.68450000
_symmetry_Int_Tables_number   1
_chemical_formula_structural   CdH20C14(N2O3)2
_chemical_formula_sum   'Cd2 H40 C28 N8 O12'
_cell_volume   871.90428460
_cell_formula_units_Z   2
loop_
 _symmetry_equiv_pos_site_id
 _symmetry_equiv_pos_as_xyz
  1  'x, y, z'
loop_
 _atom_site_type_symbol
 _atom_site_label
 _atom_site_symmetry_multiplicity
 _atom_site_fract_x
 _atom_site_fract_y
 _atom_site_fract_z
 _atom_site_occupancy
  Cd  Cd0  1  0.44193000  0.55807000  0.75000000  1.0
  Cd  Cd1  1  0.55807000  0.44193000  0.25000000  1.0
  H  H2  1  0.68506000  0.60848000  0.81020000  1.0
  H  H3  1  0.39152000  0.31494000  0.68980000  1.0
  H  H4  1  0.31494000  0.39152000  0.18980000  1.0
  H  H5  1  0.60848000  0.68506000  0.31020000  1.0
  H  H6  1  0.56527000  0.65463000  0.93729000  1.0
  H  H7  1  0.34537000  0.43473000  0.56271000  1.0
  H  H8  1  0.43473000  0.34537000  0.06270000  1.0
  H  H9  1  0.65463000  0.56527000  0.43729000  1.0
  H  H10  1  0.41764000  0.93395000  0.73551000  1.0
  H  H11  1  0.06605000  0.58236000  0.76449000  1.0
  H  H12  1  0.58236000  0.06605000  0.26449000  1.0
  H  H13  1  0.93395000  0.41764000  0.23551000  1.0
  H  H14  1  0.27745000  0.14855000  0.56838000  1.0
  H  H15  1  0.85145000  0.72255000  0.93162000  1.0
  H  H16  1  0.72254000  0.85145000  0.43162000  1.0
  H  H17  1  0.14855000  0.27745000  0.06838000  1.0
  H  H18  1  0.33675000  0.73880000  0.45706000  1.0
  H  H19  1  0.26120000  0.66325000  0.04294000  1.0
  H  H20  1  0.66325000  0.26120000  0.54294000  1.0
  H  H21  1  0.73880000  0.33675000  0.95706000  1.0
  H  H22  1  0.21082000  0.94899000  0.32681000  1.0
  H  H23  1  0.05102000  0.78918000  0.17318000  1.0
  H  H24  1  0.78918000  0.05102000  0.67318000  1.0
  H  H25  1  0.94899000  0.21082000  0.82681000  1.0
  H  H26  1  0.25757000  0.13150000  0.31865000  1.0
  H  H27  1  0.86850000  0.74243000  0.18135000  1.0
  H  H28  1  0.74243000  0.86850000  0.68135000  1.0
  H  H29  1  0.13150000  0.25757000  0.81865000  1.0
  H  H30  1  0.03270000  0.16033000  0.49547000  1.0
  H  H31  1  0.83967000  0.96730000  0.00452000  1.0
  H  H32  1  0.96730000  0.83967000  0.50452000  1.0
  H  H33  1  0.16033000  0.03270000  0.99547000  1.0
  H  H34  1  0.97938000  0.11087000  0.37121000  1.0
  H  H35  1  0.88914000  0.02062000  0.12879000  1.0
  H  H36  1  0.02062000  0.88914000  0.62879000  1.0
  H  H37  1  0.11087000  0.97938000  0.87121000  1.0
  H  H38  1  0.90042000  0.47374000  0.41792000  1.0
  H  H39  1  0.52626000  0.09958000  0.08208000  1.0
  H  H40  1  0.09958000  0.52626000  0.58208000  1.0
  H  H41  1  0.47374000  0.90042000  0.91792000  1.0
  C  C42  1  0.37767000  0.92266000  0.65501000  1.0
  C  C43  1  0.07734000  0.62233000  0.84499000  1.0
  C  C44  1  0.62233000  0.07734000  0.34499000  1.0
  C  C45  1  0.92266000  0.37767000  0.15501000  1.0
  C  C46  1  0.30845000  0.03093000  0.57304000  1.0
  C  C47  1  0.96908000  0.69155000  0.92696000  1.0
  C  C48  1  0.69155000  0.96907000  0.42696000  1.0
  C  C49  1  0.03093000  0.30845000  0.07304000  1.0
  C  C50  1  0.33917000  0.81798000  0.51302000  1.0
  C  C51  1  0.18202000  0.66083000  0.98698000  1.0
  C  C52  1  0.66083000  0.18202000  0.48698000  1.0
  C  C53  1  0.81798000  0.33917000  0.01302000  1.0
  C  C54  1  0.20214000  0.03068000  0.38469000  1.0
  C  C55  1  0.96933000  0.79786000  0.11531000  1.0
  C  C56  1  0.79786000  0.96933000  0.61531000  1.0
  C  C57  1  0.03068000  0.20214000  0.88469000  1.0
  C  C58  1  0.03846000  0.06755000  0.44932000  1.0
  C  C59  1  0.93245000  0.96154000  0.05069000  1.0
  C  C60  1  0.96154000  0.93245000  0.55069000  1.0
  C  C61  1  0.06755000  0.03846000  0.94932000  1.0
  C  C62  1  0.80047000  0.51507000  0.61419000  1.0
  C  C63  1  0.48493000  0.19953000  0.88581000  1.0
  C  C64  1  0.19953000  0.48493000  0.38582000  1.0
  C  C65  1  0.51507000  0.80046000  0.11419000  1.0
  C  C66  1  0.92818000  0.49466000  0.50148000  1.0
  C  C67  1  0.50534000  0.07182000  0.99852000  1.0
  C  C68  1  0.07182000  0.50534000  0.49852000  1.0
  C  C69  1  0.49466000  0.92818000  0.00148000  1.0
  N  N70  1  0.39637000  0.79047000  0.61637000  1.0
  N  N71  1  0.20953000  0.60363000  0.88363000  1.0
  N  N72  1  0.60363000  0.20952000  0.38363000  1.0
  N  N73  1  0.79048000  0.39637000  0.11637000  1.0
  N  N74  1  0.28559000  0.96292000  0.48325000  1.0
  N  N75  1  0.03708000  0.71441000  0.01675000  1.0
  N  N76  1  0.71441000  0.03708000  0.51675000  1.0
  N  N77  1  0.96292000  0.28559000  0.98325000  1.0
  O  O78  1  0.82726000  0.53059000  0.71634000  1.0
  O  O79  1  0.46941000  0.17274000  0.78366000  1.0
  O  O80  1  0.17274000  0.46941000  0.28366000  1.0
  O  O81  1  0.53059000  0.82726000  0.21634000  1.0
  O  O82  1  0.66832000  0.51635000  0.59616000  1.0
  O  O83  1  0.48365000  0.33168000  0.90384000  1.0
  O  O84  1  0.33168000  0.48365000  0.40385000  1.0
  O  O85  1  0.51635000  0.66832000  0.09615000  1.0
  O  O86  1  0.58892000  0.66666667  0.84077000  1.0
  O  O87  1  0.33333333  0.41108000  0.65923000  1.0
  O  O88  1  0.41108000  0.33333333  0.15923000  1.0
  O  O89  1  0.66666667  0.58892000  0.34077000  1.0
