# generated using pymatgen
data_CuH7C5SIN2
_symmetry_space_group_name_H-M   'P 1'
_cell_length_a   7.67632000
_cell_length_b   9.88033000
_cell_length_c   10.47000000
_cell_angle_alpha   89.99980000
_cell_angle_beta   89.99990000
_cell_angle_gamma   104.36500000
_symmetry_Int_Tables_number   1
_chemical_formula_structural   CuH7C5SIN2
_chemical_formula_sum   'Cu4 H28 C20 S4 I4 N8'
_cell_volume   769.26530753
_cell_formula_units_Z   4
loop_
 _symmetry_equiv_pos_site_id
 _symmetry_equiv_pos_as_xyz
  1  'x, y, z'
loop_
 _atom_site_type_symbol
 _atom_site_label
 _atom_site_symmetry_multiplicity
 _atom_site_fract_x
 _atom_site_fract_y
 _atom_site_fract_z
 _atom_site_occupancy
  Cu  Cu0  1  0.03808000  0.06889000  0.13612000  1.0
  Cu  Cu1  1  0.46192000  0.93111000  0.63612000  1.0
  Cu  Cu2  1  0.96192000  0.93111000  0.86388000  1.0
  Cu  Cu3  1  0.53808000  0.06889000  0.36388000  1.0
  H  H4  1  0.15788000  0.45649000  0.18404000  1.0
  H  H5  1  0.34212000  0.54351000  0.68404000  1.0
  H  H6  1  0.84212000  0.54351000  0.81597000  1.0
  H  H7  1  0.65788000  0.45649000  0.31596000  1.0
  H  H8  1  0.04747000  0.56446000  0.27542000  1.0
  H  H9  1  0.45253000  0.43554000  0.77542000  1.0
  H  H10  1  0.95253000  0.43554000  0.72458000  1.0
  H  H11  1  0.54747000  0.56446000  0.22458000  1.0
  H  H12  1  0.91956000  0.41271000  0.19156000  1.0
  H  H13  1  0.58044000  0.58729000  0.69156000  1.0
  H  H14  1  0.08044000  0.58729000  0.80844000  1.0
  H  H15  1  0.41955000  0.41270000  0.30844000  1.0
  H  H16  1  0.18252000  0.28191000  0.63451000  1.0
  H  H17  1  0.31749000  0.71809000  0.13451000  1.0
  H  H18  1  0.81749000  0.71809000  0.36549000  1.0
  H  H19  1  0.68251000  0.28191000  0.86549000  1.0
  H  H20  1  0.23423000  0.51721000  0.47412000  1.0
  H  H21  1  0.26577000  0.48279000  0.97412000  1.0
  H  H22  1  0.76577000  0.48279000  0.52588000  1.0
  H  H23  1  0.73423000  0.51721000  0.02588000  1.0
  H  H24  1  0.80221000  0.00881000  0.50563000  1.0
  H  H25  1  0.69778000  0.99119000  0.00563000  1.0
  H  H26  1  0.19779000  0.99119000  0.49437000  1.0
  H  H27  1  0.30221000  0.00881000  0.99437000  1.0
  H  H28  1  0.96087000  0.05197000  0.63344000  1.0
  H  H29  1  0.53913000  0.94803000  0.13345000  1.0
  H  H30  1  0.03913000  0.94802000  0.36655000  1.0
  H  H31  1  0.46087000  0.05197000  0.86655000  1.0
  C  C32  1  0.04248000  0.45720000  0.24568000  1.0
  C  C33  1  0.45752000  0.54280000  0.74568000  1.0
  C  C34  1  0.95752000  0.54280000  0.75432000  1.0
  C  C35  1  0.54247000  0.45720000  0.25432000  1.0
  C  C36  1  0.95648000  0.23335000  0.36673000  1.0
  C  C37  1  0.54352000  0.76665000  0.86673000  1.0
  C  C38  1  0.04352000  0.76665000  0.63327000  1.0
  C  C39  1  0.45648000  0.23335000  0.13327000  1.0
  C  C40  1  0.12655000  0.29725000  0.54224000  1.0
  C  C41  1  0.37345000  0.70275000  0.04225000  1.0
  C  C42  1  0.87345000  0.70275000  0.45776000  1.0
  C  C43  1  0.62655000  0.29725000  0.95776000  1.0
  C  C44  1  0.15146000  0.41128000  0.46454000  1.0
  C  C45  1  0.34853000  0.58872000  0.96454000  1.0
  C  C46  1  0.84855000  0.58872000  0.53545000  1.0
  C  C47  1  0.65147000  0.41129000  0.03546000  1.0
  C  C48  1  0.94553000  0.04738000  0.52917000  1.0
  C  C49  1  0.55447000  0.95262000  0.02918000  1.0
  C  C50  1  0.05447000  0.95262000  0.47082000  1.0
  C  C51  1  0.44553000  0.04738000  0.97082000  1.0
  S  S52  1  0.81472000  0.13625000  0.25705000  1.0
  S  S53  1  0.68528000  0.86374000  0.75705000  1.0
  S  S54  1  0.18528000  0.86375000  0.74295000  1.0
  S  S55  1  0.31472000  0.13625000  0.24295000  1.0
  I  I56  1  0.06013000  0.20305000  0.91138000  1.0
  I  I57  1  0.43987000  0.79695000  0.41138000  1.0
  I  I58  1  0.93987000  0.79695000  0.08862000  1.0
  I  I59  1  0.56013000  0.20305000  0.58862000  1.0
  N  N60  1  0.04556000  0.37075000  0.35719000  1.0
  N  N61  1  0.45444000  0.62925000  0.85719000  1.0
  N  N62  1  0.95444000  0.62925000  0.64281000  1.0
  N  N63  1  0.54555000  0.37075000  0.14281000  1.0
  N  N64  1  0.00660000  0.18902000  0.48126000  1.0
  N  N65  1  0.49340000  0.81098000  0.98126000  1.0
  N  N66  1  0.99340000  0.81098000  0.51874000  1.0
  N  N67  1  0.50660000  0.18902000  0.01874000  1.0
