# generated using pymatgen
data_AlC24(Cl2O)6
_symmetry_space_group_name_H-M   'P 1'
_cell_length_a   4.02926000
_cell_length_b   29.05420000
_cell_length_c   29.05820230
_cell_angle_alpha   120.00432925
_cell_angle_beta   90.00449939
_cell_angle_gamma   89.99870000
_symmetry_Int_Tables_number   1
_chemical_formula_structural   AlC24(Cl2O)6
_chemical_formula_sum   'Al2 C48 Cl24 O12'
_cell_volume   2945.87720572
_cell_formula_units_Z   2
loop_
 _symmetry_equiv_pos_site_id
 _symmetry_equiv_pos_as_xyz
  1  'x, y, z'
loop_
 _atom_site_type_symbol
 _atom_site_label
 _atom_site_symmetry_multiplicity
 _atom_site_fract_x
 _atom_site_fract_y
 _atom_site_fract_z
 _atom_site_occupancy
  Al  Al0  1  0.00001000  0.00005000  0.50003000  1.0
  Al  Al1  1  0.00051000  0.33332000  0.16666000  1.0
  C  C2  1  0.49998000  0.04069000  0.58128000  1.0
  C  C3  1  0.50001000  0.91879000  0.45941000  1.0
  C  C4  1  0.50002000  0.04067000  0.45939000  1.0
  C  C5  1  0.50051000  0.41459000  0.20724000  1.0
  C  C6  1  0.50055000  0.29273000  0.20733000  1.0
  C  C7  1  0.50046000  0.29262000  0.08540000  1.0
  C  C8  1  0.50027000  0.47447000  0.23718000  1.0
  C  C9  1  0.39359000  0.50220000  0.29019000  1.0
  C  C10  1  0.39106000  0.55794000  0.31814000  1.0
  C  C11  1  0.50019000  0.58649000  0.29321000  1.0
  C  C12  1  0.60938000  0.55797000  0.23974000  1.0
  C  C13  1  0.60690000  0.50223000  0.21192000  1.0
  C  C14  1  0.50010000  0.64248000  0.32122000  1.0
  C  C15  1  0.50012000  0.69089000  0.34544000  1.0
  C  C16  1  0.50010000  0.74688000  0.37344000  1.0
  C  C17  1  0.60987000  0.77542000  0.42689000  1.0
  C  C18  1  0.60719000  0.83115000  0.45470000  1.0
  C  C19  1  0.50000000  0.85889000  0.42946000  1.0
  C  C20  1  0.39283000  0.83116000  0.37647000  1.0
  C  C21  1  0.39027000  0.77543000  0.34854000  1.0
  C  C22  1  0.50032000  0.26278000  0.23727000  1.0
  C  C23  1  0.39366000  0.20976000  0.21196000  1.0
  C  C24  1  0.39112000  0.18180000  0.23973000  1.0
  C  C25  1  0.50018000  0.20674000  0.29322000  1.0
  C  C26  1  0.60933000  0.26022000  0.31819000  1.0
  C  C27  1  0.60690000  0.28804000  0.29028000  1.0
  C  C28  1  0.50009000  0.17873000  0.32119000  1.0
  C  C29  1  0.50003000  0.15451000  0.34538000  1.0
  C  C30  1  0.49999000  0.12653000  0.37338000  1.0
  C  C31  1  0.60979000  0.07308000  0.34849000  1.0
  C  C32  1  0.60718000  0.04530000  0.37644000  1.0
  C  C33  1  0.50003000  0.07059000  0.42942000  1.0
  C  C34  1  0.39283000  0.12358000  0.45466000  1.0
  C  C35  1  0.39017000  0.15148000  0.42683000  1.0
  C  C36  1  0.50018000  0.26268000  0.02552000  1.0
  C  C37  1  0.39350000  0.28797000  0.99780000  1.0
  C  C38  1  0.39103000  0.26017000  0.94207000  1.0
  C  C39  1  0.50021000  0.20669000  0.91353000  1.0
  C  C40  1  0.60934000  0.18173000  0.94205000  1.0
  C  C41  1  0.60685000  0.20966000  0.99778000  1.0
  C  C42  1  0.50015000  0.17872000  0.85755000  1.0
  C  C43  1  0.50013000  0.15454000  0.80914000  1.0
  C  C44  1  0.50008000  0.12658000  0.75316000  1.0
  C  C45  1  0.60988000  0.15151000  0.72464000  1.0
  C  C46  1  0.60719000  0.12360000  0.66891000  1.0
  C  C47  1  0.49995000  0.07061000  0.64116000  1.0
  C  C48  1  0.39273000  0.04534000  0.66887000  1.0
  C  C49  1  0.39017000  0.07313000  0.72460000  1.0
  Cl  Cl50  1  0.26347000  0.46728000  0.32015000  1.0
  Cl  Cl51  1  0.73706000  0.46733000  0.14704000  1.0
  Cl  Cl52  1  0.74665000  0.59233000  0.20985000  1.0
  Cl  Cl53  1  0.25370000  0.59228000  0.38239000  1.0
  Cl  Cl54  1  0.74803000  0.74106000  0.45674000  1.0
  Cl  Cl55  1  0.25213000  0.74108000  0.28433000  1.0
  Cl  Cl56  1  0.26232000  0.86607000  0.34652000  1.0
  Cl  Cl57  1  0.73764000  0.86606000  0.51957000  1.0
  Cl  Cl58  1  0.26356000  0.17980000  0.14707000  1.0
  Cl  Cl59  1  0.73708000  0.35294000  0.32029000  1.0
  Cl  Cl60  1  0.74651000  0.29010000  0.38245000  1.0
  Cl  Cl61  1  0.25380000  0.11755000  0.20980000  1.0
  Cl  Cl62  1  0.74794000  0.04318000  0.28428000  1.0
  Cl  Cl63  1  0.25199000  0.21569000  0.45666000  1.0
  Cl  Cl64  1  0.26237000  0.15357000  0.51952000  1.0
  Cl  Cl65  1  0.73762000  0.98043000  0.34651000  1.0
  Cl  Cl66  1  0.26334000  0.35285000  0.03271000  1.0
  Cl  Cl67  1  0.73690000  0.17966000  0.03267000  1.0
  Cl  Cl68  1  0.74654000  0.11746000  0.90768000  1.0
  Cl  Cl69  1  0.25371000  0.29009000  0.90773000  1.0
  Cl  Cl70  1  0.74807000  0.21572000  0.75902000  1.0
  Cl  Cl71  1  0.25197000  0.04325000  0.75892000  1.0
  Cl  Cl72  1  0.26223000  0.98048000  0.63394000  1.0
  Cl  Cl73  1  0.73762000  0.15359000  0.63403000  1.0
  O  O74  1  0.26293000  0.00846000  0.45001000  1.0
  O  O75  1  0.26293000  0.05008000  0.55846000  1.0
  O  O76  1  0.26295000  0.94162000  0.49162000  1.0
  O  O77  1  0.73709000  0.05007000  0.49160000  1.0
  O  O78  1  0.73708000  0.94161000  0.45002000  1.0
  O  O79  1  0.73710000  0.00849000  0.55847000  1.0
  O  O80  1  0.26341000  0.28325000  0.10825000  1.0
  O  O81  1  0.26348000  0.39173000  0.17501000  1.0
  O  O82  1  0.26354000  0.32496000  0.21671000  1.0
  O  O83  1  0.73756000  0.32482000  0.10819000  1.0
  O  O84  1  0.73767000  0.28333000  0.17514000  1.0
  O  O85  1  0.73765000  0.39179000  0.21664000  1.0
