# generated using pymatgen
data_AgH14C8N3
_symmetry_space_group_name_H-M   'P 1'
_cell_length_a   9.83661000
_cell_length_b   9.83662000
_cell_length_c   12.54614858
_cell_angle_alpha   67.16541791
_cell_angle_beta   67.17104742
_cell_angle_gamma   90.58330000
_symmetry_Int_Tables_number   1
_chemical_formula_structural   AgH14C8N3
_chemical_formula_sum   'Ag4 H56 C32 N12'
_cell_volume   1012.54238677
_cell_formula_units_Z   4
loop_
 _symmetry_equiv_pos_site_id
 _symmetry_equiv_pos_as_xyz
  1  'x, y, z'
loop_
 _atom_site_type_symbol
 _atom_site_label
 _atom_site_symmetry_multiplicity
 _atom_site_fract_x
 _atom_site_fract_y
 _atom_site_fract_z
 _atom_site_occupancy
  Ag  Ag0  1  0.48236000  0.24332000  0.97414000  1.0
  Ag  Ag1  1  0.21746000  0.45649000  0.02586000  1.0
  Ag  Ag2  1  0.49345000  0.23211000  0.47418000  1.0
  Ag  Ag3  1  0.70629000  0.96762000  0.52583000  1.0
  H  H4  1  0.32462000  0.37520000  0.81870000  1.0
  H  H5  1  0.19390000  0.14331000  0.18130000  1.0
  H  H6  1  0.62542000  0.07407000  0.31842000  1.0
  H  H7  1  0.39248000  0.94384000  0.68158000  1.0
  H  H8  1  0.39241000  0.44939000  0.53965000  1.0
  H  H9  1  0.98904000  0.93205000  0.46035000  1.0
  H  H10  1  0.69913000  0.14205000  0.03941000  1.0
  H  H11  1  0.18146000  0.73854000  0.96059000  1.0
  H  H12  1  0.47753000  0.55296000  0.59366000  1.0
  H  H13  1  0.14662000  0.07118000  0.40634000  1.0
  H  H14  1  0.80277000  0.22727000  0.09333000  1.0
  H  H15  1  0.32059000  0.89609000  0.90667000  1.0
  H  H16  1  0.28341000  0.54454000  0.62808000  1.0
  H  H17  1  0.17262000  0.91149000  0.37192000  1.0
  H  H18  1  0.79451000  0.03314000  0.12768000  1.0
  H  H19  1  0.16082000  0.92219000  0.87232000  1.0
  H  H20  1  0.09184000  0.31760000  0.79833000  1.0
  H  H21  1  0.11593000  0.89016000  0.20167000  1.0
  H  H22  1  0.56764000  0.84136000  0.29811000  1.0
  H  H23  1  0.13947000  0.86574000  0.70189000  1.0
  H  H24  1  0.14502000  0.15041000  0.88034000  1.0
  H  H25  1  0.03075000  0.02536000  0.11966000  1.0
  H  H26  1  0.40051000  0.89452000  0.38018000  1.0
  H  H27  1  0.27470000  0.78069000  0.61982000  1.0
  H  H28  1  0.17904000  0.20600000  0.71756000  1.0
  H  H29  1  0.92355000  0.89660000  0.28244000  1.0
  H  H30  1  0.45595000  0.92859000  0.21741000  1.0
  H  H31  1  0.14599000  0.67335000  0.78259000  1.0
  H  H32  1  0.73050000  0.09059000  0.88686000  1.0
  H  H33  1  0.97745000  0.61736000  0.11314000  1.0
  H  H34  1  0.34116000  0.48018000  0.38697000  1.0
  H  H35  1  0.86715000  0.72813000  0.61303000  1.0
  H  H36  1  0.49431000  0.89392000  0.01647000  1.0
  H  H37  1  0.91039000  0.51078000  0.98353000  1.0
  H  H38  1  0.14491000  0.24381000  0.51666000  1.0
  H  H39  1  0.76047000  0.66157000  0.48334000  1.0
  H  H40  1  0.65705000  0.81692000  0.01573000  1.0
  H  H41  1  0.83265000  0.67278000  0.98427000  1.0
  H  H42  1  0.06737000  0.40624000  0.51616000  1.0
  H  H43  1  0.92240000  0.58352000  0.48385000  1.0
  H  H44  1  0.57219000  0.79708000  0.91919000  1.0
  H  H45  1  0.71627000  0.49138000  0.08081000  1.0
  H  H46  1  0.04774000  0.32130000  0.41960000  1.0
  H  H47  1  0.74090000  0.46734000  0.58040000  1.0
  H  H48  1  0.81873000  0.92669000  0.71229000  1.0
  H  H49  1  0.63897000  0.53101000  0.28771000  1.0
  H  H50  1  0.17678000  0.56839000  0.21275000  1.0
  H  H51  1  0.78114000  0.38953000  0.78725000  1.0
  H  H52  1  0.90794000  0.93788000  0.80855000  1.0
  H  H53  1  0.74642000  0.71648000  0.19145000  1.0
  H  H54  1  0.18800000  0.65741000  0.30915000  1.0
  H  H55  1  0.96656000  0.49715000  0.69085000  1.0
  H  H56  1  0.91529000  0.10270000  0.67726000  1.0
  H  H57  1  0.77996000  0.59255000  0.32274000  1.0
  H  H58  1  0.35275000  0.66519000  0.17761000  1.0
  H  H59  1  0.84280000  0.53036000  0.82239000  1.0
  C  C60  1  0.45151000  0.24470000  0.73490000  1.0
  C  C61  1  0.97960000  0.18641000  0.26510000  1.0
  C  C62  1  0.49475000  0.20114000  0.23488000  1.0
  C  C63  1  0.43602000  0.72963000  0.76512000  1.0
  C  C64  1  0.33214000  0.33903000  0.74414000  1.0
  C  C65  1  0.08317000  0.07627000  0.25587000  1.0
  C  C66  1  0.58901000  0.08169000  0.24397000  1.0
  C  C67  1  0.32565000  0.83298000  0.75603000  1.0
  C  C68  1  0.37431000  0.47995000  0.61912000  1.0
  C  C69  1  0.09907000  0.99342000  0.38088000  1.0
  C  C70  1  0.72982000  0.12398000  0.11882000  1.0
  C  C71  1  0.24279000  0.84864000  0.88118000  1.0
  C  C72  1  0.17789000  0.24734000  0.78769000  1.0
  C  C73  1  0.03503000  0.96559000  0.21231000  1.0
  C  C74  1  0.49735000  0.92744000  0.28751000  1.0
  C  C75  1  0.21494000  0.78486000  0.71248000  1.0
  C  C76  1  0.61184000  0.10941000  0.77613000  1.0
  C  C77  1  0.88554000  0.38797000  0.22387000  1.0
  C  C78  1  0.35979000  0.36162000  0.27616000  1.0
  C  C79  1  0.63778000  0.63595000  0.72384000  1.0
  C  C80  1  0.69962000  0.02207000  0.84498000  1.0
  C  C81  1  0.86705000  0.54461000  0.15501000  1.0
  C  C82  1  0.27254000  0.44925000  0.34518000  1.0
  C  C83  1  0.79444000  0.61772000  0.65482000  1.0
  C  C84  1  0.59981000  0.87361000  0.95564000  1.0
  C  C85  1  0.82925000  0.55544000  0.04436000  1.0
  C  C86  1  0.12426000  0.34919000  0.45594000  1.0
  C  C87  1  0.80513000  0.58020000  0.54406000  1.0
  C  C88  1  0.84403000  0.99627000  0.75528000  1.0
  C  C89  1  0.75155000  0.59930000  0.24472000  1.0
  C  C90  1  0.24643000  0.59369000  0.25570000  1.0
  C  C91  1  0.84939000  0.50213000  0.74430000  1.0
  N  N92  1  0.50933000  0.18879000  0.82221000  1.0
  N  N93  1  0.01100000  0.33154000  0.17779000  1.0
  N  N94  1  0.43899000  0.25891000  0.32225000  1.0
  N  N95  1  0.58115000  0.76124000  0.67775000  1.0
  N  N96  1  0.51597000  0.20156000  0.64077000  1.0
  N  N97  1  0.84233000  0.15675000  0.35923000  1.0
  N  N98  1  0.45166000  0.26584000  0.14075000  1.0
  N  N99  1  0.40658000  0.59241000  0.85925000  1.0
  N  N100  1  0.61864000  0.11576000  0.66647000  1.0
  N  N101  1  0.78223000  0.28511000  0.33353000  1.0
  N  N102  1  0.36606000  0.36859000  0.16647000  1.0
  N  N103  1  0.53506000  0.53253000  0.83353000  1.0
