# generated using pymatgen
data_CoH16C20(NO2)2
_symmetry_space_group_name_H-M   'P 1'
_cell_length_a   9.97418000
_cell_length_b   9.97821000
_cell_length_c   10.77920000
_cell_angle_alpha   81.08330000
_cell_angle_beta   67.60660000
_cell_angle_gamma   77.28770000
_symmetry_Int_Tables_number   1
_chemical_formula_structural   CoH16C20(NO2)2
_chemical_formula_sum   'Co2 H32 C40 N4 O8'
_cell_volume   964.56394821
_cell_formula_units_Z   2
loop_
 _symmetry_equiv_pos_site_id
 _symmetry_equiv_pos_as_xyz
  1  'x, y, z'
loop_
 _atom_site_type_symbol
 _atom_site_label
 _atom_site_symmetry_multiplicity
 _atom_site_fract_x
 _atom_site_fract_y
 _atom_site_fract_z
 _atom_site_occupancy
  Co  Co0  1  0.12385000  0.89242000  0.82555000  1.0
  Co  Co1  1  0.87617000  0.10768000  0.17435000  1.0
  H  H2  1  0.32288000  0.76476000  0.97577000  1.0
  H  H3  1  0.67714000  0.23521000  0.02423000  1.0
  H  H4  1  0.32524000  0.59973000  0.17374000  1.0
  H  H5  1  0.67477000  0.40026000  0.82629000  1.0
  H  H6  1  0.91585000  0.69750000  0.00824000  1.0
  H  H7  1  0.08416000  0.30250000  0.99178000  1.0
  H  H8  1  0.70512000  0.97893000  0.77859000  1.0
  H  H9  1  0.29485000  0.02108000  0.22139000  1.0
  H  H10  1  0.55560000  0.98764000  0.20803000  1.0
  H  H11  1  0.44436000  0.01239000  0.79189000  1.0
  H  H12  1  0.99189000  0.43947000  0.38708000  1.0
  H  H13  1  0.00812000  0.56054000  0.61293000  1.0
  H  H14  1  0.14989000  0.48759000  0.39258000  1.0
  H  H15  1  0.85014000  0.51241000  0.60744000  1.0
  H  H16  1  0.90308000  0.52468000  0.20494000  1.0
  H  H17  1  0.09692000  0.47533000  0.79510000  1.0
  H  H18  1  0.56876000  0.57996000  0.67124000  1.0
  H  H19  1  0.43123000  0.42003000  0.32876000  1.0
  H  H20  1  0.25782000  0.60211000  0.47940000  1.0
  H  H21  1  0.74217000  0.39790000  0.52060000  1.0
  H  H22  1  0.14986000  0.26360000  0.22712000  1.0
  H  H23  1  0.85014000  0.73641000  0.77289000  1.0
  H  H24  1  0.31113000  0.30777000  0.23105000  1.0
  H  H25  1  0.68887000  0.69223000  0.76896000  1.0
  H  H26  1  0.40945000  0.17721000  0.39908000  1.0
  H  H27  1  0.59053000  0.82276000  0.60096000  1.0
  H  H28  1  0.94867000  0.20797000  0.46537000  1.0
  H  H29  1  0.05133000  0.79203000  0.53464000  1.0
  H  H30  1  0.92601000  0.05724000  0.67873000  1.0
  H  H31  1  0.07396000  0.94275000  0.32126000  1.0
  H  H32  1  0.36731000  0.02432000  0.61220000  1.0
  H  H33  1  0.63266000  0.97564000  0.38783000  1.0
  C  C34  1  0.23076000  0.71101000  0.03084000  1.0
  C  C35  1  0.76925000  0.28898000  0.96916000  1.0
  C  C36  1  0.23167000  0.61766000  0.14056000  1.0
  C  C37  1  0.76835000  0.38232000  0.85943000  1.0
  C  C38  1  0.80157000  0.96060000  0.98493000  1.0
  C  C39  1  0.19840000  0.03941000  0.01505000  1.0
  C  C40  1  0.64612000  0.97982000  0.99277000  1.0
  C  C41  1  0.35385000  0.02022000  0.00719000  1.0
  C  C42  1  0.00422000  0.67310000  0.04837000  1.0
  C  C43  1  0.99580000  0.32690000  0.95164000  1.0
  C  C44  1  0.61468000  0.98795000  0.87523000  1.0
  C  C45  1  0.38530000  0.01209000  0.12473000  1.0
  C  C46  1  0.53011000  0.99252000  0.11765000  1.0
  C  C47  1  0.46986000  0.00753000  0.88229000  1.0
  C  C48  1  0.11218000  0.54899000  0.20792000  1.0
  C  C49  1  0.88784000  0.45099000  0.79209000  1.0
  C  C50  1  0.10702000  0.44852000  0.32777000  1.0
  C  C51  1  0.89298000  0.55148000  0.67225000  1.0
  C  C52  1  0.99748000  0.57728000  0.15796000  1.0
  C  C53  1  0.00254000  0.42271000  0.84205000  1.0
  C  C54  1  0.40317000  0.60135000  0.58415000  1.0
  C  C55  1  0.59685000  0.39866000  0.41584000  1.0
  C  C56  1  0.53991000  0.54425000  0.59572000  1.0
  C  C57  1  0.46010000  0.45573000  0.40427000  1.0
  C  C58  1  0.36408000  0.55613000  0.48782000  1.0
  C  C59  1  0.63593000  0.44386000  0.51218000  1.0
  C  C60  1  0.30067000  0.71016000  0.67243000  1.0
  C  C61  1  0.69940000  0.28985000  0.32760000  1.0
  C  C62  1  0.19464000  0.30330000  0.29016000  1.0
  C  C63  1  0.80537000  0.69668000  0.70986000  1.0
  C  C64  1  0.18068000  0.20782000  0.41523000  1.0
  C  C65  1  0.81931000  0.79217000  0.58477000  1.0
  C  C66  1  0.29950000  0.15403000  0.45801000  1.0
  C  C67  1  0.70048000  0.84595000  0.54203000  1.0
  C  C68  1  0.04368000  0.17227000  0.49641000  1.0
  C  C69  1  0.95631000  0.82772000  0.50360000  1.0
  C  C70  1  0.03062000  0.08745000  0.61386000  1.0
  C  C71  1  0.96936000  0.91253000  0.38615000  1.0
  C  C72  1  0.27686000  0.06909000  0.57697000  1.0
  C  C73  1  0.72312000  0.93088000  0.42305000  1.0
  N  N74  1  0.11791000  0.74088000  0.98567000  1.0
  N  N75  1  0.88210000  0.25911000  0.01434000  1.0
  N  N76  1  0.14492000  0.03533000  0.65472000  1.0
  N  N77  1  0.85506000  0.96466000  0.34526000  1.0
  O  O78  1  0.90272000  0.92777000  0.87270000  1.0
  O  O79  1  0.09724000  0.07226000  0.12727000  1.0
  O  O80  1  0.35093000  0.78125000  0.72826000  1.0
  O  O81  1  0.64917000  0.21871000  0.27178000  1.0
  O  O82  1  0.16338000  0.73153000  0.69143000  1.0
  O  O83  1  0.83669000  0.26853000  0.30858000  1.0
  O  O84  1  0.82479000  0.97563000  0.08974000  1.0
  O  O85  1  0.17519000  0.02434000  0.91026000  1.0
