# generated using pymatgen
data_HgH10C10N6(ClO)2
_symmetry_space_group_name_H-M   'P 1'
_cell_length_a   3.92172000
_cell_length_b   6.21271000
_cell_length_c   14.50950000
_cell_angle_alpha   81.16880000
_cell_angle_beta   88.71280000
_cell_angle_gamma   83.62090000
_symmetry_Int_Tables_number   1
_chemical_formula_structural   HgH10C10N6(ClO)2
_chemical_formula_sum   'Hg1 H10 C10 N6 Cl2 O2'
_cell_volume   347.15776889
_cell_formula_units_Z   1
loop_
 _symmetry_equiv_pos_site_id
 _symmetry_equiv_pos_as_xyz
  1  'x, y, z'
loop_
 _atom_site_type_symbol
 _atom_site_label
 _atom_site_symmetry_multiplicity
 _atom_site_fract_x
 _atom_site_fract_y
 _atom_site_fract_z
 _atom_site_occupancy
  Hg  Hg0  1  0.50002000  0.99999000  0.00000000  1.0
  H  H1  1  0.76971000  0.66881000  0.69146000  1.0
  H  H2  1  0.23024000  0.33121000  0.30855000  1.0
  H  H3  1  0.77272000  0.48387000  0.85943000  1.0
  H  H4  1  0.22726000  0.51610000  0.14057000  1.0
  H  H5  1  0.31454000  0.96915000  0.78056000  1.0
  H  H6  1  0.68554000  0.03082000  0.21944000  1.0
  H  H7  1  0.10017000  0.16454000  0.45973000  1.0
  H  H8  1  0.89982000  0.83551000  0.54027000  1.0
  H  H9  1  0.34108000  0.36866000  0.48924000  1.0
  H  H10  1  0.65890000  0.63137000  0.51077000  1.0
  C  C11  1  0.66367000  0.51283000  0.71084000  1.0
  C  C12  1  0.33629000  0.48718000  0.28916000  1.0
  C  C13  1  0.66861000  0.41065000  0.80386000  1.0
  C  C14  1  0.33139000  0.58933000  0.19614000  1.0
  C  C15  1  0.41690000  0.12599000  0.76068000  1.0
  C  C16  1  0.58314000  0.87399000  0.23932000  1.0
  C  C17  1  0.40569000  0.23102000  0.66819000  1.0
  C  C18  1  0.59432000  0.76897000  0.33181000  1.0
  C  C19  1  0.23474000  0.12766000  0.59717000  1.0
  C  C20  1  0.76525000  0.87235000  0.40283000  1.0
  N  N21  1  0.53146000  0.42397000  0.64286000  1.0
  N  N22  1  0.46851000  0.57604000  0.35714000  1.0
  N  N23  1  0.54594000  0.21680000  0.82802000  1.0
  N  N24  1  0.45409000  0.78318000  0.17198000  1.0
  N  N25  1  0.22301000  0.23084000  0.50972000  1.0
  N  N26  1  0.77697000  0.76919000  0.49028000  1.0
  Cl  Cl27  1  0.14847000  0.74990000  0.94347000  1.0
  Cl  Cl28  1  0.85157000  0.25009000  0.05653000  1.0
  O  O29  1  0.10303000  0.95282000  0.62391000  1.0
  O  O30  1  0.89697000  0.04718000  0.37608000  1.0
