# generated using pymatgen
data_MnH24(C5N)8
_symmetry_space_group_name_H-M   'P 1'
_cell_length_a   9.28202000
_cell_length_b   19.31040000
_cell_length_c   19.31111329
_cell_angle_alpha   117.46872500
_cell_angle_beta   99.21738573
_cell_angle_gamma   99.20640000
_symmetry_Int_Tables_number   1
_chemical_formula_structural   MnH24(C5N)8
_chemical_formula_sum   'Mn3 H72 C120 N24'
_cell_volume   2921.35348791
_cell_formula_units_Z   3
loop_
 _symmetry_equiv_pos_site_id
 _symmetry_equiv_pos_as_xyz
  1  'x, y, z'
loop_
 _atom_site_type_symbol
 _atom_site_label
 _atom_site_symmetry_multiplicity
 _atom_site_fract_x
 _atom_site_fract_y
 _atom_site_fract_z
 _atom_site_occupancy
  Mn  Mn0  1  0.50000000  0.50000000  0.50000000  1.0
  Mn  Mn1  1  0.00000000  0.00000000  0.50000000  1.0
  Mn  Mn2  1  0.00000000  0.50000000  1.00000000  1.0
  H  H3  1  0.08847000  0.34436000  0.57382000  1.0
  H  H4  1  0.74438000  0.22967000  0.65575000  1.0
  H  H5  1  0.51524000  0.42643000  0.77050000  1.0
  H  H6  1  0.91154000  0.65565000  0.42619000  1.0
  H  H7  1  0.25562000  0.77033000  0.34425000  1.0
  H  H8  1  0.48476000  0.57357000  0.22950000  1.0
  H  H9  1  0.06251000  0.49849000  0.64389000  1.0
  H  H10  1  0.56435000  0.14575000  0.50165000  1.0
  H  H11  1  0.41889000  0.35624000  0.85443000  1.0
  H  H12  1  0.93749000  0.50151000  0.35611000  1.0
  H  H13  1  0.43565000  0.85426000  0.49835000  1.0
  H  H14  1  0.58111000  0.64375000  0.14556000  1.0
  H  H15  1  0.65957000  0.23095000  0.34269000  1.0
  H  H16  1  0.42867000  0.11151000  0.76890000  1.0
  H  H17  1  0.31735000  0.65749000  0.88843000  1.0
  H  H18  1  0.34043000  0.76905000  0.65731000  1.0
  H  H19  1  0.57133000  0.88848000  0.23110000  1.0
  H  H20  1  0.68264000  0.34250000  0.11156000  1.0
  H  H21  1  0.43289000  0.19084000  0.39910000  1.0
  H  H22  1  0.24231000  0.20816000  0.80902000  1.0
  H  H23  1  0.03441000  0.60110000  0.79186000  1.0
  H  H24  1  0.56711000  0.80916000  0.60090000  1.0
  H  H25  1  0.75768000  0.79184000  0.19098000  1.0
  H  H26  1  0.96560000  0.39891000  0.20814000  1.0
  H  H27  1  0.03564000  0.41409000  0.43130000  1.0
  H  H28  1  0.62148000  0.01720000  0.58585000  1.0
  H  H29  1  0.60460000  0.56879000  0.98294000  1.0
  H  H30  1  0.96436000  0.58592000  0.56870000  1.0
  H  H31  1  0.37852000  0.98280000  0.41415000  1.0
  H  H32  1  0.39541000  0.43121000  0.01706000  1.0
  H  H33  1  0.18299000  0.33114000  0.34463000  1.0
  H  H34  1  0.85198000  0.01366000  0.66874000  1.0
  H  H35  1  0.83838000  0.65540000  0.98644000  1.0
  H  H36  1  0.81701000  0.66886000  0.65537000  1.0
  H  H37  1  0.14803000  0.98635000  0.33127000  1.0
  H  H38  1  0.16163000  0.34461000  0.01356000  1.0
  H  H39  1  0.80791000  0.20389000  0.14663000  1.0
  H  H40  1  0.60473000  0.94261000  0.79609000  1.0
  H  H41  1  0.66132000  0.85349000  0.05734000  1.0
  H  H42  1  0.19208000  0.79611000  0.85337000  1.0
  H  H43  1  0.39526000  0.05739000  0.20391000  1.0
  H  H44  1  0.33868000  0.14651000  0.94266000  1.0
  H  H45  1  0.64189000  0.27878000  0.22617000  1.0
  H  H46  1  0.36364000  0.94716000  0.72131000  1.0
  H  H47  1  0.41586000  0.77398000  0.05278000  1.0
  H  H48  1  0.35810000  0.72121000  0.77383000  1.0
  H  H49  1  0.63636000  0.05284000  0.27869000  1.0
  H  H50  1  0.58414000  0.22602000  0.94722000  1.0
  H  H51  1  0.43701000  0.26568000  0.58134000  1.0
  H  H52  1  0.17139000  0.31573000  0.73434000  1.0
  H  H53  1  0.85613000  0.41878000  0.68445000  1.0
  H  H54  1  0.56299000  0.73432000  0.41866000  1.0
  H  H55  1  0.82861000  0.68427000  0.26566000  1.0
  H  H56  1  0.14387000  0.58122000  0.31555000  1.0
  H  H57  1  0.67835000  0.86474000  0.42565000  1.0
  H  H58  1  0.81392000  0.56095000  0.13530000  1.0
  H  H59  1  0.25248000  0.57432000  0.43902000  1.0
  H  H60  1  0.32165000  0.13526000  0.57435000  1.0
  H  H61  1  0.18608000  0.43906000  0.86470000  1.0
  H  H62  1  0.74752000  0.42568000  0.56098000  1.0
  H  H63  1  0.05379000  0.91632000  0.60650000  1.0
  H  H64  1  0.13738000  0.69031000  0.08361000  1.0
  H  H65  1  0.44713000  0.39343000  0.30985000  1.0
  H  H66  1  0.94621000  0.08368000  0.39350000  1.0
  H  H67  1  0.86264000  0.30970000  0.91640000  1.0
  H  H68  1  0.55287000  0.60657000  0.69015000  1.0
  H  H69  1  0.04567000  0.21167000  0.39256000  1.0
  H  H70  1  0.83434000  0.18086000  0.78844000  1.0
  H  H71  1  0.65360000  0.60766000  0.81913000  1.0
  H  H72  1  0.95432000  0.78833000  0.60744000  1.0
  H  H73  1  0.16567000  0.81915000  0.21157000  1.0
  H  H74  1  0.34640000  0.39234000  0.18087000  1.0
  C  C75  1  0.73504000  0.60718000  0.47077000  1.0
  C  C76  1  0.12772000  0.86348000  0.39278000  1.0
  C  C77  1  0.26390000  0.52907000  0.13636000  1.0
  C  C78  1  0.26496000  0.39282000  0.52923000  1.0
  C  C79  1  0.87228000  0.13652000  0.60722000  1.0
  C  C80  1  0.73610000  0.47093000  0.86364000  1.0
  C  C81  1  0.15033000  0.39532000  0.57106000  1.0
  C  C82  1  0.75530000  0.17598000  0.60478000  1.0
  C  C83  1  0.57971000  0.42912000  0.82421000  1.0
  C  C84  1  0.84967000  0.60468000  0.42894000  1.0
  C  C85  1  0.24471000  0.82402000  0.39522000  1.0
  C  C86  1  0.42028000  0.57087000  0.17578000  1.0
  C  C87  1  0.13633000  0.47346000  0.60618000  1.0
  C  C88  1  0.66321000  0.13305000  0.52665000  1.0
  C  C89  1  0.53043000  0.39394000  0.86715000  1.0
  C  C90  1  0.86367000  0.52654000  0.39382000  1.0
  C  C91  1  0.33679000  0.86695000  0.47335000  1.0
  C  C92  1  0.46957000  0.60606000  0.13285000  1.0
  C  C93  1  0.24213000  0.51813000  0.58546000  1.0
  C  C94  1  0.72416000  0.06759000  0.48194000  1.0
  C  C95  1  0.65676000  0.41458000  0.93258000  1.0
  C  C96  1  0.75787000  0.48187000  0.41454000  1.0
  C  C97  1  0.27584000  0.93241000  0.51806000  1.0
  C  C98  1  0.34325000  0.58542000  0.06742000  1.0
  C  C99  1  0.26980000  0.60203000  0.61392000  1.0
  C  C100  1  0.66783000  0.01215000  0.39804000  1.0
  C  C101  1  0.65568000  0.38598000  0.98792000  1.0
  C  C102  1  0.73020000  0.39797000  0.38608000  1.0
  C  C103  1  0.33217000  0.98785000  0.60196000  1.0
  C  C104  1  0.34433000  0.61402000  0.01208000  1.0
  C  C105  1  0.38211000  0.64551000  0.59846000  1.0
  C  C106  1  0.73663000  0.95315000  0.35459000  1.0
  C  C107  1  0.78328000  0.40143000  0.04693000  1.0
  C  C108  1  0.61789000  0.35449000  0.40154000  1.0
  C  C109  1  0.26337000  0.04685000  0.64541000  1.0
  C  C110  1  0.21672000  0.59856000  0.95306000  1.0
  C  C111  1  0.59512000  0.26971000  0.37735000  1.0
  C  C112  1  0.32546000  0.10746000  0.73017000  1.0
  C  C113  1  0.21826000  0.62279000  0.89249000  1.0
  C  C114  1  0.40488000  0.73029000  0.62265000  1.0
  C  C115  1  0.67455000  0.89255000  0.26984000  1.0
  C  C116  1  0.78174000  0.37721000  0.10751000  1.0
  C  C117  1  0.48121000  0.24958000  0.40646000  1.0
  C  C118  1  0.23176000  0.15674000  0.75030000  1.0
  C  C119  1  0.07532000  0.59366000  0.84320000  1.0
  C  C120  1  0.51878000  0.75041000  0.59353000  1.0
  C  C121  1  0.76824000  0.84325000  0.24970000  1.0
  C  C122  1  0.92468000  0.40634000  0.15680000  1.0
  C  C123  1  0.43196000  0.32165000  0.44929000  1.0
  C  C124  1  0.11036000  0.12753000  0.67827000  1.0
  C  C125  1  0.98319000  0.55077000  0.87240000  1.0
  C  C126  1  0.56803000  0.67834000  0.55070000  1.0
  C  C127  1  0.88964000  0.87247000  0.32173000  1.0
  C  C128  1  0.01681000  0.44924000  0.12760000  1.0
  C  C129  1  0.68206000  0.67551000  0.51181000  1.0
  C  C130  1  0.00636000  0.83630000  0.32450000  1.0
  C  C131  1  0.16971000  0.48805000  0.16362000  1.0
  C  C132  1  0.31794000  0.32449000  0.48819000  1.0
  C  C133  1  0.99364000  0.16370000  0.67550000  1.0
  C  C134  1  0.83029000  0.51195000  0.83638000  1.0
  C  C135  1  0.82514000  0.35304000  0.33596000  1.0
  C  C136  1  0.47221000  0.98272000  0.64690000  1.0
  C  C137  1  0.48942000  0.66418000  0.01732000  1.0
  C  C138  1  0.17486000  0.64696000  0.66404000  1.0
  C  C139  1  0.52779000  0.01728000  0.35310000  1.0
  C  C140  1  0.51059000  0.33582000  0.98268000  1.0
  C  C141  1  0.98042000  0.36801000  0.36837000  1.0
  C  C142  1  0.61247000  0.00028000  0.63191000  1.0
  C  C143  1  0.61225000  0.63173000  0.99980000  1.0
  C  C144  1  0.01958000  0.63199000  0.63163000  1.0
  C  C145  1  0.38753000  0.99972000  0.36809000  1.0
  C  C146  1  0.38775000  0.36827000  0.00020000  1.0
  C  C147  1  0.06280000  0.32152000  0.31950000  1.0
  C  C148  1  0.74149000  0.99802000  0.67839000  1.0
  C  C149  1  0.74338000  0.68057000  0.00205000  1.0
  C  C150  1  0.93720000  0.67848000  0.68050000  1.0
  C  C151  1  0.25852000  0.00199000  0.32162000  1.0
  C  C152  1  0.25662000  0.31943000  0.99795000  1.0
  C  C153  1  0.85484000  0.25047000  0.21041000  1.0
  C  C154  1  0.60494000  0.95981000  0.74948000  1.0
  C  C155  1  0.64452000  0.78971000  0.04018000  1.0
  C  C156  1  0.14516000  0.74953000  0.78959000  1.0
  C  C157  1  0.39505000  0.04019000  0.25052000  1.0
  C  C158  1  0.35548000  0.21029000  0.95982000  1.0
  C  C159  1  0.76215000  0.29261000  0.25453000  1.0
  C  C160  1  0.46995000  0.96172000  0.70738000  1.0
  C  C161  1  0.50778000  0.74560000  0.03826000  1.0
  C  C162  1  0.23785000  0.70739000  0.74547000  1.0
  C  C163  1  0.53005000  0.03828000  0.29262000  1.0
  C  C164  1  0.49223000  0.25440000  0.96174000  1.0
  C  C165  1  0.75057000  0.75077000  0.51235000  1.0
  C  C166  1  0.99956000  0.76160000  0.24920000  1.0
  C  C167  1  0.23762000  0.48744000  0.23831000  1.0
  C  C168  1  0.24943000  0.24923000  0.48765000  1.0
  C  C169  1  0.00044000  0.23840000  0.75080000  1.0
  C  C170  1  0.76238000  0.51256000  0.76169000  1.0
  C  C171  1  0.67275000  0.77309000  0.46084000  1.0
  C  C172  1  0.89955000  0.68776000  0.22688000  1.0
  C  C173  1  0.21136000  0.53898000  0.31214000  1.0
  C  C174  1  0.32725000  0.22691000  0.53916000  1.0
  C  C175  1  0.10044000  0.31223000  0.77311000  1.0
  C  C176  1  0.78864000  0.46102000  0.68786000  1.0
  C  C177  1  0.73630000  0.84550000  0.46476000  1.0
  C  C178  1  0.89093000  0.61931000  0.15451000  1.0
  C  C179  1  0.27118000  0.53513000  0.38066000  1.0
  C  C180  1  0.26371000  0.15450000  0.53524000  1.0
  C  C181  1  0.10907000  0.38069000  0.84549000  1.0
  C  C182  1  0.72882000  0.46487000  0.61934000  1.0
  C  C183  1  0.94579000  0.87392000  0.56529000  1.0
  C  C184  1  0.07179000  0.69146000  0.12603000  1.0
  C  C185  1  0.38019000  0.43460000  0.30861000  1.0
  C  C186  1  0.05421000  0.12608000  0.43471000  1.0
  C  C187  1  0.92821000  0.30855000  0.87397000  1.0
  C  C188  1  0.61980000  0.56541000  0.69139000  1.0
  C  C189  1  0.10917000  0.19736000  0.43459000  1.0
  C  C190  1  0.91206000  0.23719000  0.80271000  1.0
  C  C191  1  0.67507000  0.56562000  0.76282000  1.0
  C  C192  1  0.89082000  0.80264000  0.56541000  1.0
  C  C193  1  0.08794000  0.76281000  0.19729000  1.0
  C  C194  1  0.32494000  0.43439000  0.23718000  1.0
  N  N195  1  0.68049000  0.53201000  0.46248000  1.0
  N  N196  1  0.14842000  0.93034000  0.46795000  1.0
  N  N197  1  0.21786000  0.53742000  0.06950000  1.0
  N  N198  1  0.31951000  0.46799000  0.53752000  1.0
  N  N199  1  0.85159000  0.06967000  0.53206000  1.0
  N  N200  1  0.78214000  0.46258000  0.93050000  1.0
  N  N201  1  0.48452000  0.61443000  0.55482000  1.0
  N  N202  1  0.87009000  0.94052000  0.38563000  1.0
  N  N203  1  0.92930000  0.44513000  0.05956000  1.0
  N  N204  1  0.51548000  0.38557000  0.44518000  1.0
  N  N205  1  0.12991000  0.05948000  0.61437000  1.0
  N  N206  1  0.07070000  0.55488000  0.94044000  1.0
  N  N207  1  0.00308000  0.26354000  0.24164000  1.0
  N  N208  1  0.74000000  0.97809000  0.73638000  1.0
  N  N209  1  0.76147000  0.75844000  0.02193000  1.0
  N  N210  1  0.99693000  0.73646000  0.75836000  1.0
  N  N211  1  0.26000000  0.02190000  0.26362000  1.0
  N  N212  1  0.23854000  0.24156000  0.97807000  1.0
  N  N213  1  0.87060000  0.89538000  0.51607000  1.0
  N  N214  1  0.97533000  0.62076000  0.10460000  1.0
  N  N215  1  0.35431000  0.48386000  0.37928000  1.0
  N  N216  1  0.12941000  0.10462000  0.48393000  1.0
  N  N217  1  0.02468000  0.37924000  0.89540000  1.0
  N  N218  1  0.64568000  0.51614000  0.62072000  1.0
