# generated using pymatgen
data_HoPH9C8NO9
_symmetry_space_group_name_H-M   'P 1'
_cell_length_a   9.54441000
_cell_length_b   10.46290000
_cell_length_c   15.46490000
_cell_angle_alpha   89.99980000
_cell_angle_beta   101.99300000
_cell_angle_gamma   89.99990000
_symmetry_Int_Tables_number   1
_chemical_formula_structural   HoPH9C8NO9
_chemical_formula_sum   'Ho4 P4 H36 C32 N4 O36'
_cell_volume   1510.65031775
_cell_formula_units_Z   4
loop_
 _symmetry_equiv_pos_site_id
 _symmetry_equiv_pos_as_xyz
  1  'x, y, z'
loop_
 _atom_site_type_symbol
 _atom_site_label
 _atom_site_symmetry_multiplicity
 _atom_site_fract_x
 _atom_site_fract_y
 _atom_site_fract_z
 _atom_site_occupancy
  Ho  Ho0  1  0.78038000  0.10370000  0.60577000  1.0
  Ho  Ho1  1  0.71961000  0.60370000  0.89422000  1.0
  Ho  Ho2  1  0.21964000  0.89630000  0.39423000  1.0
  Ho  Ho3  1  0.28036000  0.39630000  0.10577000  1.0
  P  P4  1  0.83107000  0.85180000  0.76670000  1.0
  P  P5  1  0.66893000  0.35180000  0.73330000  1.0
  P  P6  1  0.16893000  0.14820000  0.23330000  1.0
  P  P7  1  0.33107000  0.64820000  0.26670000  1.0
  H  H8  1  0.66949000  0.86840000  0.07343000  1.0
  H  H9  1  0.83053000  0.36840000  0.42658000  1.0
  H  H10  1  0.33052000  0.13160000  0.92658000  1.0
  H  H11  1  0.16949000  0.63160000  0.57343000  1.0
  H  H12  1  0.60321000  0.10305000  0.07711000  1.0
  H  H13  1  0.89681000  0.60305000  0.42290000  1.0
  H  H14  1  0.39681000  0.89695000  0.92289000  1.0
  H  H15  1  0.10321000  0.39695000  0.57712000  1.0
  H  H16  1  0.70320000  0.25644000  0.97907000  1.0
  H  H17  1  0.79681000  0.75644000  0.52093000  1.0
  H  H18  1  0.29681000  0.74356000  0.02093000  1.0
  H  H19  1  0.20320000  0.24356000  0.47908000  1.0
  H  H20  1  0.85484000  0.16873000  0.87954000  1.0
  H  H21  1  0.64516000  0.66873000  0.62046000  1.0
  H  H22  1  0.14517000  0.83127000  0.12046000  1.0
  H  H23  1  0.35483000  0.33127000  0.37954000  1.0
  H  H24  1  0.00152000  0.83915000  0.90310000  1.0
  H  H25  1  0.49848000  0.33915000  0.59690000  1.0
  H  H26  1  0.99847000  0.16084000  0.09690000  1.0
  H  H27  1  0.50153000  0.66084000  0.40309000  1.0
  H  H28  1  0.00842000  0.99076000  0.84855000  1.0
  H  H29  1  0.49157000  0.49076000  0.65145000  1.0
  H  H30  1  0.99158000  0.00924000  0.15145000  1.0
  H  H31  1  0.50841000  0.50923000  0.34855000  1.0
  H  H32  1  0.95810000  0.82609000  0.66847000  1.0
  H  H33  1  0.54190000  0.32609000  0.83153000  1.0
  H  H34  1  0.04191000  0.17391000  0.33153000  1.0
  H  H35  1  0.45809000  0.67391000  0.16847000  1.0
  H  H36  1  0.98487000  0.23123000  0.73232000  1.0
  H  H37  1  0.51513000  0.73124000  0.76767000  1.0
  H  H38  1  0.01514000  0.76876000  0.26768000  1.0
  H  H39  1  0.48486000  0.26877000  0.23232000  1.0
  H  H40  1  0.10653000  0.17129000  0.68863000  1.0
  H  H41  1  0.39346000  0.67129000  0.81136000  1.0
  H  H42  1  0.89347000  0.82871000  0.31137000  1.0
  H  H43  1  0.60652000  0.32872000  0.18862000  1.0
  C  C44  1  0.70754000  0.94200000  0.03432000  1.0
  C  C45  1  0.79247000  0.44200000  0.46569000  1.0
  C  C46  1  0.29247000  0.05800000  0.96569000  1.0
  C  C47  1  0.20754000  0.55800000  0.53432000  1.0
  C  C48  1  0.67337000  0.07044000  0.03443000  1.0
  C  C49  1  0.82664000  0.57044000  0.46558000  1.0
  C  C50  1  0.32664000  0.92956000  0.96558000  1.0
  C  C51  1  0.17337000  0.42956000  0.53443000  1.0
  C  C52  1  0.72707000  0.15484000  0.97936000  1.0
  C  C53  1  0.77293000  0.65484000  0.52064000  1.0
  C  C54  1  0.27293000  0.84516000  0.02064000  1.0
  C  C55  1  0.22707000  0.34515000  0.47936000  1.0
  C  C56  1  0.81295000  0.10640000  0.92455000  1.0
  C  C57  1  0.68705000  0.60640000  0.57545000  1.0
  C  C58  1  0.18705000  0.89360000  0.07545000  1.0
  C  C59  1  0.31295000  0.39360000  0.42455000  1.0
  C  C60  1  0.84737000  0.97697000  0.92502000  1.0
  C  C61  1  0.65263000  0.47697000  0.57498000  1.0
  C  C62  1  0.15263000  0.02303000  0.07498000  1.0
  C  C63  1  0.34737000  0.52303000  0.42503000  1.0
  C  C64  1  0.93810000  0.91841000  0.86845000  1.0
  C  C65  1  0.56190000  0.41841000  0.63155000  1.0
  C  C66  1  0.06190000  0.08159000  0.13155000  1.0
  C  C67  1  0.43809000  0.58158000  0.36845000  1.0
  C  C68  1  0.45871000  0.03312000  0.53223000  1.0
  C  C69  1  0.04128000  0.53313000  0.96777000  1.0
  C  C70  1  0.54132000  0.96687000  0.46778000  1.0
  C  C71  1  0.95868000  0.46688000  0.03222000  1.0
  C  C72  1  0.99416000  0.06490000  0.47553000  1.0
  C  C73  1  0.50584000  0.56492000  0.02447000  1.0
  C  C74  1  0.00586000  0.93509000  0.52447000  1.0
  C  C75  1  0.49414000  0.43510000  0.97552000  1.0
  N  N76  1  0.79324000  0.89671000  0.98077000  1.0
  N  N77  1  0.70677000  0.39671000  0.51923000  1.0
  N  N78  1  0.20677000  0.10329000  0.01923000  1.0
  N  N79  1  0.29324000  0.60329000  0.48078000  1.0
  O  O80  1  0.76195000  0.96033000  0.70821000  1.0
  O  O81  1  0.73805000  0.46033000  0.79178000  1.0
  O  O82  1  0.23807000  0.03967000  0.29179000  1.0
  O  O83  1  0.26193000  0.53967000  0.20821000  1.0
  O  O84  1  0.94186000  0.77676000  0.72186000  1.0
  O  O85  1  0.55814000  0.27676000  0.77814000  1.0
  O  O86  1  0.05814000  0.22323000  0.27814000  1.0
  O  O87  1  0.44186000  0.72323000  0.22186000  1.0
  O  O88  1  0.72394000  0.75852000  0.79219000  1.0
  O  O89  1  0.77606000  0.25852000  0.70780000  1.0
  O  O90  1  0.27605000  0.24148000  0.20780000  1.0
  O  O91  1  0.22394000  0.74148000  0.29220000  1.0
  O  O92  1  0.82809000  0.77463000  0.98480000  1.0
  O  O93  1  0.67192000  0.27463000  0.51521000  1.0
  O  O94  1  0.17191000  0.22537000  0.01521000  1.0
  O  O95  1  0.32809000  0.72536000  0.48480000  1.0
  O  O96  1  0.32313000  0.02092000  0.51419000  1.0
  O  O97  1  0.17686000  0.52094000  0.98581000  1.0
  O  O98  1  0.67689000  0.97905000  0.48582000  1.0
  O  O99  1  0.82311000  0.47906000  0.01418000  1.0
  O  O100  1  0.53178000  0.09354000  0.59640000  1.0
  O  O101  1  0.96821000  0.59355000  0.90360000  1.0
  O  O102  1  0.46824000  0.90645000  0.40360000  1.0
  O  O103  1  0.03176000  0.40645000  0.09639000  1.0
  O  O104  1  0.93407000  0.15616000  0.50663000  1.0
  O  O105  1  0.56593000  0.65617000  0.99337000  1.0
  O  O106  1  0.06595000  0.84383000  0.49336000  1.0
  O  O107  1  0.43404000  0.34384000  0.00663000  1.0
  O  O108  1  0.04851000  0.06719000  0.40720000  1.0
  O  O109  1  0.45148000  0.56721000  0.09279000  1.0
  O  O110  1  0.95152000  0.93280000  0.59279000  1.0
  O  O111  1  0.54847000  0.43282000  0.90719000  1.0
  O  O112  1  0.01830000  0.15283000  0.70826000  1.0
  O  O113  1  0.48169000  0.65283000  0.79174000  1.0
  O  O114  1  0.98170000  0.84717000  0.29174000  1.0
  O  O115  1  0.51830000  0.34718000  0.20825000  1.0
