# generated using pymatgen
data_MgH4C8O3
_symmetry_space_group_name_H-M   'P 1'
_cell_length_a   6.85348000
_cell_length_b   25.76410000
_cell_length_c   25.76050000
_cell_angle_alpha   119.21300000
_cell_angle_beta   95.08370000
_cell_angle_gamma   95.08750000
_symmetry_Int_Tables_number   1
_chemical_formula_structural   MgH4C8O3
_chemical_formula_sum   'Mg6 H24 C48 O18'
_cell_volume   3908.68258552
_cell_formula_units_Z   6
loop_
 _symmetry_equiv_pos_site_id
 _symmetry_equiv_pos_as_xyz
  1  'x, y, z'
loop_
 _atom_site_type_symbol
 _atom_site_label
 _atom_site_symmetry_multiplicity
 _atom_site_fract_x
 _atom_site_fract_y
 _atom_site_fract_z
 _atom_site_occupancy
  Mg  Mg0  1  0.19687000  0.30278000  0.68283000  1.0
  Mg  Mg1  1  0.51384000  0.31714000  0.61994000  1.0
  Mg  Mg2  1  0.89405000  0.37998000  0.69719000  1.0
  Mg  Mg3  1  0.18049000  0.62123000  0.32199000  1.0
  Mg  Mg4  1  0.85856000  0.67807000  0.29919000  1.0
  Mg  Mg5  1  0.55937000  0.70085000  0.37883000  1.0
  H  H6  1  0.99226000  0.43151000  0.85497000  1.0
  H  H7  1  0.13756000  0.14496000  0.57664000  1.0
  H  H8  1  0.56058000  0.42349000  0.56851000  1.0
  H  H9  1  0.01132000  0.49776000  0.96055000  1.0
  H  H10  1  0.05134000  0.03943000  0.53743000  1.0
  H  H11  1  0.51327000  0.46269000  0.50223000  1.0
  H  H12  1  0.43169000  0.56082000  0.02783000  1.0
  H  H13  1  0.40431000  0.97208000  0.53300000  1.0
  H  H14  1  0.87051000  0.46702000  0.43912000  1.0
  H  H15  1  0.49489000  0.60650000  0.13026000  1.0
  H  H16  1  0.36460000  0.86963000  0.47628000  1.0
  H  H17  1  0.88805000  0.52379000  0.39352000  1.0
  H  H18  1  0.78987000  0.56819000  0.14763000  1.0
  H  H19  1  0.64251000  0.85252000  0.42052000  1.0
  H  H20  1  0.22158000  0.57958000  0.43187000  1.0
  H  H21  1  0.88474000  0.53751000  0.04742000  1.0
  H  H22  1  0.83777000  0.95266000  0.49003000  1.0
  H  H23  1  0.34678000  0.51002000  0.46255000  1.0
  H  H24  1  0.55336000  0.54375000  0.95437000  1.0
  H  H25  1  0.59954000  0.04561000  0.58947000  1.0
  H  H26  1  0.00900000  0.41046000  0.45607000  1.0
  H  H27  1  0.70118000  0.49542000  0.86110000  1.0
  H  H28  1  0.84046000  0.13890000  0.63437000  1.0
  H  H29  1  0.20532000  0.36560000  0.50443000  1.0
  C  C30  1  0.23014000  0.41818000  0.80340000  1.0
  C  C31  1  0.42699000  0.19655000  0.61484000  1.0
  C  C32  1  0.81173000  0.38519000  0.58177000  1.0
  C  C33  1  0.14855000  0.44629000  0.85723000  1.0
  C  C34  1  0.29161000  0.14273000  0.58918000  1.0
  C  C35  1  0.70198000  0.41090000  0.55368000  1.0
  C  C36  1  0.26084000  0.49003000  0.91226000  1.0
  C  C37  1  0.34901000  0.08771000  0.57789000  1.0
  C  C38  1  0.77048000  0.42218000  0.50992000  1.0
  C  C39  1  0.17027000  0.51301000  0.96694000  1.0
  C  C40  1  0.20386000  0.03303000  0.54622000  1.0
  C  C41  1  0.65690000  0.45388000  0.48695000  1.0
  C  C42  1  0.27200000  0.54789000  0.02322000  1.0
  C  C43  1  0.24920000  0.97673000  0.52472000  1.0
  C  C44  1  0.72374000  0.47535000  0.45210000  1.0
  C  C45  1  0.20019000  0.56830000  0.08043000  1.0
  C  C46  1  0.12006000  0.91957000  0.48786000  1.0
  C  C47  1  0.63149000  0.51218000  0.43173000  1.0
  C  C48  1  0.33886000  0.59717000  0.13301000  1.0
  C  C49  1  0.20593000  0.86696000  0.46415000  1.0
  C  C50  1  0.74132000  0.53587000  0.40283000  1.0
  C  C51  1  0.28811000  0.61449000  0.19027000  1.0
  C  C52  1  0.09789000  0.80974000  0.42419000  1.0
  C  C53  1  0.67349000  0.57584000  0.38554000  1.0
  C  C54  1  0.08524000  0.60285000  0.19590000  1.0
  C  C55  1  0.88939000  0.80414000  0.40690000  1.0
  C  C56  1  0.48229000  0.59314000  0.39719000  1.0
  C  C57  1  0.94444000  0.57597000  0.14284000  1.0
  C  C58  1  0.80186000  0.85725000  0.43306000  1.0
  C  C59  1  0.36833000  0.56699000  0.42410000  1.0
  C  C60  1  0.99921000  0.55899000  0.08700000  1.0
  C  C61  1  0.91255000  0.91306000  0.47192000  1.0
  C  C62  1  0.43989000  0.52811000  0.44109000  1.0
  C  C63  1  0.44923000  0.64390000  0.24199000  1.0
  C  C64  1  0.20712000  0.75800000  0.40185000  1.0
  C  C65  1  0.80520000  0.59815000  0.35612000  1.0
  C  C66  1  0.46257000  0.50853000  0.91296000  1.0
  C  C67  1  0.55006000  0.08700000  0.59564000  1.0
  C  C68  1  0.95364000  0.40438000  0.49138000  1.0
  C  C69  1  0.54582000  0.48187000  0.86101000  1.0
  C  C70  1  0.68517000  0.13895000  0.62089000  1.0
  C  C71  1  0.06358000  0.37908000  0.51802000  1.0
  C  C72  1  0.43622000  0.43608000  0.80582000  1.0
  C  C73  1  0.63068000  0.19413000  0.63028000  1.0
  C  C74  1  0.99991000  0.36971000  0.56385000  1.0
  C  C75  1  0.54231000  0.40890000  0.75392000  1.0
  C  C76  1  0.78854000  0.24603000  0.65498000  1.0
  C  C77  1  0.13332000  0.34505000  0.59105000  1.0
  O  O78  1  0.72306000  0.42884000  0.75762000  1.0
  O  O79  1  0.96561000  0.24240000  0.67129000  1.0
  O  O80  1  0.29411000  0.32880000  0.57110000  1.0
  O  O81  1  0.44897000  0.36309000  0.70444000  1.0
  O  O82  1  0.74449000  0.29546000  0.65856000  1.0
  O  O83  1  0.08593000  0.34142000  0.63691000  1.0
  O  O84  1  0.11239000  0.37572000  0.75303000  1.0
  O  O85  1  0.35954000  0.24692000  0.62274000  1.0
  O  O86  1  0.73647000  0.37723000  0.62422000  1.0
  O  O87  1  0.62459000  0.65848000  0.23590000  1.0
  O  O88  1  0.38850000  0.76400000  0.42249000  1.0
  O  O89  1  0.96598000  0.57751000  0.34151000  1.0
  O  O90  1  0.40838000  0.65386000  0.29391000  1.0
  O  O91  1  0.11425000  0.70613000  0.35987000  1.0
  O  O92  1  0.75440000  0.64011000  0.34617000  1.0
  O  O93  1  0.02228000  0.61577000  0.24813000  1.0
  O  O94  1  0.77410000  0.75194000  0.36762000  1.0
  O  O95  1  0.40646000  0.63246000  0.38428000  1.0
