# generated using pymatgen
data_ZnH7(C9O2)2
_symmetry_space_group_name_H-M   'P 1'
_cell_length_a   16.61020000
_cell_length_b   16.68950000
_cell_length_c   16.82840000
_cell_angle_alpha   68.48140000
_cell_angle_beta   68.50150000
_cell_angle_gamma   68.16340000
_symmetry_Int_Tables_number   1
_chemical_formula_structural   ZnH7(C9O2)2
_chemical_formula_sum   'Zn6 H42 C108 O24'
_cell_volume   3882.96925187
_cell_formula_units_Z   6
loop_
 _symmetry_equiv_pos_site_id
 _symmetry_equiv_pos_as_xyz
  1  'x, y, z'
loop_
 _atom_site_type_symbol
 _atom_site_label
 _atom_site_symmetry_multiplicity
 _atom_site_fract_x
 _atom_site_fract_y
 _atom_site_fract_z
 _atom_site_occupancy
  Zn  Zn0  1  0.01253000  0.01804000  0.43105000  1.0
  Zn  Zn1  1  0.02309000  0.03495000  0.57440000  1.0
  Zn  Zn2  1  0.41653000  0.93969000  0.05621000  1.0
  Zn  Zn3  1  0.57387000  0.95962000  0.04129000  1.0
  Zn  Zn4  1  0.97130000  0.42454000  0.97822000  1.0
  Zn  Zn5  1  0.98060000  0.57460000  0.99001000  1.0
  H  H6  1  0.11561000  0.67485000  0.17758000  1.0
  H  H7  1  0.24429000  0.67328000  0.85780000  1.0
  H  H8  1  0.33994000  0.95462000  0.83466000  1.0
  H  H9  1  0.76228000  0.87565000  0.28334000  1.0
  H  H10  1  0.06006000  0.56064000  0.17350000  1.0
  H  H11  1  0.90463000  0.51875000  0.78873000  1.0
  H  H12  1  0.23975000  0.95300000  0.60574000  1.0
  H  H13  1  0.85322000  0.92391000  0.49570000  1.0
  H  H14  1  0.48160000  0.15058000  0.10705000  1.0
  H  H15  1  0.43363000  0.77314000  0.93457000  1.0
  H  H16  1  0.10930000  0.77885000  0.40716000  1.0
  H  H17  1  0.85101000  0.40267000  0.78343000  1.0
  H  H18  1  0.89384000  0.27376000  0.55543000  1.0
  H  H19  1  0.73439000  0.39134000  0.09012000  1.0
  H  H20  1  0.22044000  0.52703000  0.88984000  1.0
  H  H21  1  0.47863000  0.96588000  0.84019000  1.0
  H  H22  1  0.61348000  0.90131000  0.26315000  1.0
  H  H23  1  0.02505000  0.80397000  0.75675000  1.0
  H  H24  1  0.10370000  0.69818000  0.77594000  1.0
  H  H25  1  0.12971000  0.78386000  0.67696000  1.0
  H  H26  1  0.08066000  0.19571000  0.25440000  1.0
  H  H27  1  0.98517000  0.23977000  0.21307000  1.0
  H  H28  1  0.25128000  0.94588000  0.74840000  1.0
  H  H29  1  0.07654000  0.28802000  0.15879000  1.0
  H  H30  1  0.79417000  0.88542000  0.86655000  1.0
  H  H31  1  0.88239000  0.90462000  0.76800000  1.0
  H  H32  1  0.81358000  0.99195000  0.81946000  1.0
  H  H33  1  0.22362000  0.09615000  0.28779000  1.0
  H  H34  1  0.32133000  0.06932000  0.20199000  1.0
  H  H35  1  0.24848000  0.99892000  0.25441000  1.0
  H  H36  1  0.70149000  0.79542000  0.93574000  1.0
  H  H37  1  0.75028000  0.73156000  0.02530000  1.0
  H  H38  1  0.79795000  0.70273000  0.92359000  1.0
  H  H39  1  0.85054000  0.88452000  0.36880000  1.0
  H  H40  1  0.12766000  0.23593000  0.04501000  1.0
  H  H41  1  0.20705000  0.17514000  0.96986000  1.0
  H  H42  1  0.21076000  0.13738000  0.08145000  1.0
  H  H43  1  0.60389000  0.15812000  0.14821000  1.0
  H  H44  1  0.32249000  0.76447000  0.87428000  1.0
  H  H45  1  0.13460000  0.75542000  0.26476000  1.0
  H  H46  1  0.84674000  0.31216000  0.69808000  1.0
  H  H47  1  0.69745000  0.24684000  0.14314000  1.0
  C  C48  1  0.04202000  0.70632000  0.53540000  1.0
  C  C49  1  0.53318000  0.65916000  0.98929000  1.0
  C  C50  1  0.54288000  0.41735000  0.03998000  1.0
  C  C51  1  0.58983000  0.92141000  0.46608000  1.0
  C  C52  1  0.50603000  0.94082000  0.63941000  1.0
  C  C53  1  0.07668000  0.75328000  0.72422000  1.0
  C  C54  1  0.03691000  0.25793000  0.22336000  1.0
  C  C55  1  0.81387000  0.93367000  0.80360000  1.0
  C  C56  1  0.27850000  0.04095000  0.26554000  1.0
  C  C57  1  0.73416000  0.72781000  0.96937000  1.0
  C  C58  1  0.19765000  0.19729000  0.02742000  1.0
  C  C59  1  0.34630000  0.95671000  0.48346000  1.0
  C  C60  1  0.73967000  0.95045000  0.60826000  1.0
  C  C61  1  0.99600000  0.58393000  0.53144000  1.0
  C  C62  1  0.98265000  0.48525000  0.43164000  1.0
  C  C63  1  0.59863000  0.93794000  0.60204000  1.0
  C  C64  1  0.49553000  0.93213000  0.50109000  1.0
  C  C65  1  0.51675000  0.51216000  0.00802000  1.0
  C  C66  1  0.41714000  0.40827000  0.00251000  1.0
  C  C67  1  0.86534000  0.00323000  0.60747000  1.0
  C  C68  1  0.95627000  0.35106000  0.42700000  1.0
  C  C69  1  0.19039000  0.00884000  0.45780000  1.0
  C  C70  1  0.53492000  0.79322000  0.02553000  1.0
  C  C71  1  0.39059000  0.11302000  0.02946000  1.0
  C  C72  1  0.99251000  0.60341000  0.82100000  1.0
  C  C73  1  0.98419000  0.45560000  0.14744000  1.0
  C  C74  1  0.14109000  0.39717000  0.96291000  1.0
  C  C75  1  0.80603000  0.53075000  0.00895000  1.0
  C  C76  1  0.46552000  0.94326000  0.21093000  1.0
  C  C77  1  0.61502000  0.96857000  0.88089000  1.0
  C  C78  1  0.98071000  0.19426000  0.41880000  1.0
  C  C79  1  0.60461000  0.95761000  0.73845000  1.0
  C  C80  1  0.04946000  0.85188000  0.54115000  1.0
  C  C81  1  0.00556000  0.63122000  0.58121000  1.0
  C  C82  1  0.98038000  0.43356000  0.38198000  1.0
  C  C83  1  0.64800000  0.94757000  0.65012000  1.0
  C  C84  1  0.44202000  0.94063000  0.44758000  1.0
  C  C85  1  0.56734000  0.56368000  0.00914000  1.0
  C  C86  1  0.36712000  0.35639000  0.00016000  1.0
  C  C87  1  0.04657000  0.75682000  0.58538000  1.0
  C  C88  1  0.97585000  0.29107000  0.37454000  1.0
  C  C89  1  0.65773000  0.96006000  0.78836000  1.0
  C  C90  1  0.48428000  0.93459000  0.35803000  1.0
  C  C91  1  0.42735000  0.95540000  0.30266000  1.0
  C  C92  1  0.70902000  0.57347000  0.01332000  1.0
  C  C93  1  0.23314000  0.34796000  0.97590000  1.0
  C  C94  1  0.99606000  0.41346000  0.23895000  1.0
  C  C95  1  0.00251000  0.64460000  0.72352000  1.0
  C  C96  1  0.34589000  0.20993000  0.02430000  1.0
  C  C97  1  0.58162000  0.70737000  0.00108000  1.0
  C  C98  1  0.29139000  0.98456000  0.42419000  1.0
  C  C99  1  0.78558000  0.96708000  0.65590000  1.0
  C  C100  1  0.03770000  0.54018000  0.24527000  1.0
  C  C101  1  0.65142000  0.51944000  0.03108000  1.0
  C  C102  1  0.93149000  0.53686000  0.71720000  1.0
  C  C103  1  0.31070000  0.94845000  0.57594000  1.0
  C  C104  1  0.78163000  0.93064000  0.52448000  1.0
  C  C105  1  0.46470000  0.22186000  0.07550000  1.0
  C  C106  1  0.45648000  0.70049000  0.95527000  1.0
  C  C107  1  0.07568000  0.72612000  0.44175000  1.0
  C  C108  1  0.91867000  0.33266000  0.52038000  1.0
  C  C109  1  0.67364000  0.42524000  0.06745000  1.0
  C  C110  1  0.27387000  0.49364000  0.92303000  1.0
  C  C111  1  0.51242000  0.95857000  0.77378000  1.0
  C  C112  1  0.29075000  0.40001000  0.96453000  1.0
  C  C113  1  0.58021000  0.91130000  0.32901000  1.0
  C  C114  1  0.03903000  0.71884000  0.67788000  1.0
  C  C115  1  0.99854000  0.32166000  0.28100000  1.0
  C  C116  1  0.75008000  0.95639000  0.74880000  1.0
  C  C117  1  0.33256000  0.98984000  0.33295000  1.0
  C  C118  1  0.67443000  0.66735000  0.99787000  1.0
  C  C119  1  0.25996000  0.25312000  0.00687000  1.0
  C  C120  1  0.91453000  0.38628000  0.56961000  1.0
  C  C121  1  0.06822000  0.67972000  0.39261000  1.0
  C  C122  1  0.63254000  0.90698000  0.37954000  1.0
  C  C123  1  0.00297000  0.46445000  0.28715000  1.0
  C  C124  1  0.46369000  0.94964000  0.72761000  1.0
  C  C125  1  0.32079000  0.54542000  0.92656000  1.0
  C  C126  1  0.62002000  0.37433000  0.07484000  1.0
  C  C127  1  0.92169000  0.48990000  0.66936000  1.0
  C  C128  1  0.04869000  0.58577000  0.29309000  1.0
  C  C129  1  0.41289000  0.65063000  0.94330000  1.0
  C  C130  1  0.51416000  0.27155000  0.07808000  1.0
  C  C131  1  0.73498000  0.91708000  0.47881000  1.0
  C  C132  1  0.36180000  0.94193000  0.62833000  1.0
  C  C133  1  0.87696000  0.36792000  0.66435000  1.0
  C  C134  1  0.97819000  0.60418000  0.67620000  1.0
  C  C135  1  0.10151000  0.70169000  0.29756000  1.0
  C  C136  1  0.72900000  0.89082000  0.34745000  1.0
  C  C137  1  0.37071000  0.94945000  0.76656000  1.0
  C  C138  1  0.29816000  0.64137000  0.89114000  1.0
  C  C139  1  0.63996000  0.27914000  0.11479000  1.0
  C  C140  1  0.87951000  0.41782000  0.71167000  1.0
  C  C141  1  0.09128000  0.65738000  0.24978000  1.0
  C  C142  1  0.34103000  0.69172000  0.90045000  1.0
  C  C143  1  0.58857000  0.23023000  0.11752000  1.0
  C  C144  1  0.77773000  0.89581000  0.39462000  1.0
  C  C145  1  0.39381000  0.26089000  0.03309000  1.0
  C  C146  1  0.32215000  0.94455000  0.71937000  1.0
  C  C147  1  0.95680000  0.51122000  0.57491000  1.0
  C  C148  1  0.01801000  0.56062000  0.38795000  1.0
  C  C149  1  0.64043000  0.92558000  0.51537000  1.0
  C  C150  1  0.45519000  0.93803000  0.58985000  1.0
  C  C151  1  0.44004000  0.55477000  0.97411000  1.0
  C  C152  1  0.49201000  0.36629000  0.03939000  1.0
  C  C153  1  0.95166000  0.46130000  0.52564000  1.0
  C  C154  1  0.02616000  0.60823000  0.43727000  1.0
  C  C155  1  0.39267000  0.50303000  0.96861000  1.0
  O  O156  1  0.88919000  0.02184000  0.52310000  1.0
  O  O157  1  0.53188000  0.97414000  0.91707000  1.0
  O  O158  1  0.99152000  0.16224000  0.49682000  1.0
  O  O159  1  0.03393000  0.88782000  0.46354000  1.0
  O  O160  1  0.97669000  0.14651000  0.37557000  1.0
  O  O161  1  0.05894000  0.89680000  0.58238000  1.0
  O  O162  1  0.41714000  0.92267000  0.18158000  1.0
  O  O163  1  0.66286000  0.97034000  0.92653000  1.0
  O  O164  1  0.09617000  0.35600000  0.95033000  1.0
  O  O165  1  0.84884000  0.57085000  0.02324000  1.0
  O  O166  1  0.98361000  0.65201000  0.87064000  1.0
  O  O167  1  0.15202000  0.02971000  0.53229000  1.0
  O  O168  1  0.96867000  0.41093000  0.10996000  1.0
  O  O169  1  0.57422000  0.82495000  0.05443000  1.0
  O  O170  1  0.34705000  0.06247000  0.02927000  1.0
  O  O171  1  0.90478000  0.02058000  0.65063000  1.0
  O  O172  1  0.14630000  0.00598000  0.41130000  1.0
  O  O173  1  0.45076000  0.83059000  0.02424000  1.0
  O  O174  1  0.47244000  0.08238000  0.03124000  1.0
  O  O175  1  0.99329000  0.52147000  0.85276000  1.0
  O  O176  1  0.98457000  0.53893000  0.11163000  1.0
  O  O177  1  0.10783000  0.47772000  0.96856000  1.0
  O  O178  1  0.84416000  0.45448000  0.98892000  1.0
  O  O179  1  0.54468000  0.95317000  0.16602000  1.0
