# generated using pymatgen
data_CsH2CN5
_symmetry_space_group_name_H-M   'P 1'
_cell_length_a   6.81761000
_cell_length_b   8.14319000
_cell_length_c   9.14965000
_cell_angle_alpha   90.00000000
_cell_angle_beta   90.00010000
_cell_angle_gamma   89.99990000
_symmetry_Int_Tables_number   1
_chemical_formula_structural   CsH2CN5
_chemical_formula_sum   'Cs4 H8 C4 N20'
_cell_volume   507.96197524
_cell_formula_units_Z   4
loop_
 _symmetry_equiv_pos_site_id
 _symmetry_equiv_pos_as_xyz
  1  'x, y, z'
loop_
 _atom_site_type_symbol
 _atom_site_label
 _atom_site_symmetry_multiplicity
 _atom_site_fract_x
 _atom_site_fract_y
 _atom_site_fract_z
 _atom_site_occupancy
  Cs  Cs0  1  0.25000000  0.51280000  0.19354000  1.0
  Cs  Cs1  1  0.75000000  0.98720000  0.69354000  1.0
  Cs  Cs2  1  0.75000000  0.48720000  0.80646000  1.0
  Cs  Cs3  1  0.25000000  0.01280000  0.30646000  1.0
  H  H4  1  0.62312000  0.69461000  0.42350000  1.0
  H  H5  1  0.37688000  0.80539000  0.92350000  1.0
  H  H6  1  0.12313000  0.30539000  0.57650000  1.0
  H  H7  1  0.87688000  0.19461000  0.07650000  1.0
  H  H8  1  0.37688000  0.30540000  0.57650000  1.0
  H  H9  1  0.62312000  0.19460000  0.07650000  1.0
  H  H10  1  0.87688000  0.69461000  0.42350000  1.0
  H  H11  1  0.12312000  0.80539000  0.92350000  1.0
  C  C12  1  0.75000000  0.77302000  0.23626000  1.0
  C  C13  1  0.25000000  0.72698000  0.73626000  1.0
  C  C14  1  0.25000000  0.22698000  0.76374000  1.0
  C  C15  1  0.75000000  0.27302000  0.26374000  1.0
  N  N16  1  0.58612000  0.79143000  0.15496000  1.0
  N  N17  1  0.41388000  0.70857000  0.65496000  1.0
  N  N18  1  0.08612000  0.20857000  0.84504000  1.0
  N  N19  1  0.91388000  0.29143000  0.34504000  1.0
  N  N20  1  0.41387000  0.20857000  0.84504000  1.0
  N  N21  1  0.58612000  0.29143000  0.34504000  1.0
  N  N22  1  0.91388000  0.79143000  0.15496000  1.0
  N  N23  1  0.08613000  0.70857000  0.65496000  1.0
  N  N24  1  0.65358000  0.82223000  0.01823000  1.0
  N  N25  1  0.34642000  0.67777000  0.51823000  1.0
  N  N26  1  0.15358000  0.17777000  0.98177000  1.0
  N  N27  1  0.84642000  0.32223000  0.48177000  1.0
  N  N28  1  0.34642000  0.17778000  0.98177000  1.0
  N  N29  1  0.65358000  0.32222000  0.48177000  1.0
  N  N30  1  0.84642000  0.82223000  0.01823000  1.0
  N  N31  1  0.15358000  0.67777000  0.51823000  1.0
  N  N32  1  0.75000000  0.74593000  0.38451000  1.0
  N  N33  1  0.25000000  0.75407000  0.88451000  1.0
  N  N34  1  0.24999000  0.25407000  0.61549000  1.0
  N  N35  1  0.75001000  0.24593000  0.11549000  1.0
