# generated using pymatgen
data_Zn4C48O13F24
_symmetry_space_group_name_H-M   'P 1'
_cell_length_a   28.25615004
_cell_length_b   28.25444033
_cell_length_c   28.25700000
_cell_angle_alpha   90.00172367
_cell_angle_beta   120.00298531
_cell_angle_gamma   119.99764732
_symmetry_Int_Tables_number   1
_chemical_formula_structural   Zn4C48O13F24
_chemical_formula_sum   'Zn8 C96 O26 F48'
_cell_volume   15951.44621325
_cell_formula_units_Z   2
loop_
 _symmetry_equiv_pos_site_id
 _symmetry_equiv_pos_as_xyz
  1  'x, y, z'
loop_
 _atom_site_type_symbol
 _atom_site_label
 _atom_site_symmetry_multiplicity
 _atom_site_fract_x
 _atom_site_fract_y
 _atom_site_fract_z
 _atom_site_occupancy
  Zn  Zn0  1  0.44318000  0.47159000  0.02844000  1.0
  Zn  Zn1  1  0.55683000  0.47153000  0.02848000  1.0
  Zn  Zn2  1  0.55686000  0.58521000  0.02845000  1.0
  Zn  Zn3  1  0.44320000  0.47158000  0.91481000  1.0
  Zn  Zn4  1  0.55684000  0.02850000  0.47155000  1.0
  Zn  Zn5  1  0.44324000  0.91481000  0.47157000  1.0
  Zn  Zn6  1  0.44322000  0.02847000  0.47158000  1.0
  Zn  Zn7  1  0.55690000  0.02849000  0.58524000  1.0
  C  C8  1  0.49994000  0.40959000  0.09042000  1.0
  C  C9  1  0.68080000  0.59035000  0.09046000  1.0
  C  C10  1  0.50003000  0.59041000  0.09040000  1.0
  C  C11  1  0.50005000  0.59040000  0.90967000  1.0
  C  C12  1  0.31924000  0.40960000  0.90963000  1.0
  C  C13  1  0.49999000  0.40958000  0.90964000  1.0
  C  C14  1  0.50006000  0.90977000  0.40953000  1.0
  C  C15  1  0.31929000  0.90971000  0.40958000  1.0
  C  C16  1  0.49997000  0.09043000  0.40958000  1.0
  C  C17  1  0.50006000  0.09049000  0.59035000  1.0
  C  C18  1  0.68082000  0.09052000  0.59031000  1.0
  C  C19  1  0.50004000  0.90968000  0.59040000  1.0
  C  C20  1  0.75589000  0.12801000  0.62784000  1.0
  C  C21  1  0.79314000  0.14662000  0.68903000  1.0
  C  C22  1  0.86272000  0.18139000  0.72372000  1.0
  C  C23  1  0.89945000  0.19975000  0.69965000  1.0
  C  C24  1  0.86276000  0.18140000  0.63886000  1.0
  C  C25  1  0.79316000  0.14662000  0.60393000  1.0
  C  C26  1  0.96960000  0.23483000  0.73472000  1.0
  C  C27  1  0.03047000  0.26527000  0.76515000  1.0
  C  C28  1  0.10062000  0.30034000  0.80026000  1.0
  C  C29  1  0.13730000  0.31867000  0.86105000  1.0
  C  C30  1  0.20689000  0.35345000  0.89598000  1.0
  C  C31  1  0.24417000  0.37209000  0.87207000  1.0
  C  C32  1  0.20693000  0.35349000  0.81088000  1.0
  C  C33  1  0.13734000  0.31871000  0.77618000  1.0
  C  C34  1  0.24420000  0.87216000  0.37207000  1.0
  C  C35  1  0.20696000  0.81098000  0.35345000  1.0
  C  C36  1  0.13737000  0.77628000  0.31868000  1.0
  C  C37  1  0.10064000  0.80035000  0.30035000  1.0
  C  C38  1  0.13733000  0.86115000  0.31869000  1.0
  C  C39  1  0.20693000  0.89608000  0.35347000  1.0
  C  C40  1  0.03049000  0.76526000  0.26529000  1.0
  C  C41  1  0.96962000  0.73481000  0.23486000  1.0
  C  C42  1  0.89945000  0.69971000  0.19977000  1.0
  C  C43  1  0.86276000  0.63891000  0.18143000  1.0
  C  C44  1  0.79317000  0.60399000  0.14663000  1.0
  C  C45  1  0.75589000  0.62790000  0.12799000  1.0
  C  C46  1  0.79313000  0.68908000  0.14663000  1.0
  C  C47  1  0.86272000  0.72378000  0.18140000  1.0
  C  C48  1  0.50004000  0.87224000  0.37196000  1.0
  C  C49  1  0.45748000  0.81105000  0.35332000  1.0
  C  C50  1  0.45760000  0.77637000  0.31853000  1.0
  C  C51  1  0.50004000  0.80045000  0.30018000  1.0
  C  C52  1  0.54247000  0.86124000  0.31853000  1.0
  C  C53  1  0.54259000  0.89616000  0.35332000  1.0
  C  C54  1  0.50002000  0.76537000  0.26509000  1.0
  C  C55  1  0.50000000  0.73492000  0.23464000  1.0
  C  C56  1  0.49999000  0.69981000  0.19959000  1.0
  C  C57  1  0.45753000  0.63901000  0.18125000  1.0
  C  C58  1  0.45742000  0.60408000  0.14648000  1.0
  C  C59  1  0.49999000  0.62797000  0.12788000  1.0
  C  C60  1  0.54255000  0.68917000  0.14647000  1.0
  C  C61  1  0.54243000  0.72387000  0.18124000  1.0
  C  C62  1  0.49998000  0.12795000  0.62789000  1.0
  C  C63  1  0.54251000  0.14654000  0.68908000  1.0
  C  C64  1  0.54239000  0.18132000  0.72377000  1.0
  C  C65  1  0.49995000  0.19968000  0.69968000  1.0
  C  C66  1  0.45750000  0.18133000  0.63889000  1.0
  C  C67  1  0.45740000  0.14656000  0.60397000  1.0
  C  C68  1  0.49995000  0.23476000  0.73476000  1.0
  C  C69  1  0.49998000  0.26523000  0.76519000  1.0
  C  C70  1  0.50002000  0.30033000  0.80029000  1.0
  C  C71  1  0.54247000  0.31868000  0.86107000  1.0
  C  C72  1  0.54260000  0.35347000  0.89600000  1.0
  C  C73  1  0.50003000  0.37209000  0.87209000  1.0
  C  C74  1  0.45746000  0.35347000  0.81090000  1.0
  C  C75  1  0.45758000  0.31869000  0.77621000  1.0
  C  C76  1  0.49991000  0.12794000  0.37203000  1.0
  C  C77  1  0.45731000  0.14653000  0.35341000  1.0
  C  C78  1  0.45741000  0.18133000  0.31862000  1.0
  C  C79  1  0.49984000  0.19969000  0.30027000  1.0
  C  C80  1  0.54232000  0.18137000  0.31861000  1.0
  C  C81  1  0.54246000  0.14658000  0.35340000  1.0
  C  C82  1  0.49982000  0.23476000  0.26521000  1.0
  C  C83  1  0.49982000  0.26521000  0.23478000  1.0
  C  C84  1  0.49984000  0.30028000  0.19972000  1.0
  C  C85  1  0.45742000  0.31865000  0.18137000  1.0
  C  C86  1  0.45733000  0.35345000  0.14657000  1.0
  C  C87  1  0.49990000  0.37205000  0.12796000  1.0
  C  C88  1  0.54244000  0.35340000  0.14660000  1.0
  C  C89  1  0.54230000  0.31861000  0.18138000  1.0
  C  C90  1  0.49998000  0.87214000  0.62796000  1.0
  C  C91  1  0.45739000  0.81095000  0.60405000  1.0
  C  C92  1  0.45750000  0.77627000  0.63896000  1.0
  C  C93  1  0.49995000  0.80035000  0.69977000  1.0
  C  C94  1  0.54239000  0.86115000  0.72384000  1.0
  C  C95  1  0.54252000  0.89607000  0.68916000  1.0
  C  C96  1  0.49997000  0.76529000  0.73486000  1.0
  C  C97  1  0.50001000  0.73486000  0.76531000  1.0
  C  C98  1  0.50003000  0.69976000  0.80038000  1.0
  C  C99  1  0.45761000  0.63896000  0.77628000  1.0
  C  C100  1  0.45750000  0.60404000  0.81096000  1.0
  C  C101  1  0.50005000  0.62795000  0.87214000  1.0
  C  C102  1  0.54260000  0.68914000  0.89608000  1.0
  C  C103  1  0.54247000  0.72383000  0.86117000  1.0
  O  O104  1  0.50002000  0.49997000  0.00005000  1.0
  O  O105  1  0.45976000  0.42393000  0.07608000  1.0
  O  O106  1  0.65214000  0.53582000  0.07614000  1.0
  O  O107  1  0.54024000  0.61625000  0.07609000  1.0
  O  O108  1  0.54016000  0.42391000  0.07612000  1.0
  O  O109  1  0.45983000  0.53588000  0.07609000  1.0
  O  O110  1  0.65215000  0.61622000  0.07612000  1.0
  O  O111  1  0.54025000  0.61626000  0.96419000  1.0
  O  O112  1  0.34791000  0.42391000  0.88377000  1.0
  O  O113  1  0.45982000  0.53586000  0.88378000  1.0
  O  O114  1  0.34789000  0.42393000  0.96415000  1.0
  O  O115  1  0.54014000  0.42385000  0.96417000  1.0
  O  O116  1  0.45979000  0.42391000  0.88377000  1.0
  O  O117  1  0.50005000  0.00005000  0.50000000  1.0
  O  O118  1  0.54024000  0.96429000  0.42385000  1.0
  O  O119  1  0.34795000  0.88384000  0.42388000  1.0
  O  O120  1  0.45979000  0.07610000  0.42392000  1.0
  O  O121  1  0.45987000  0.88388000  0.42387000  1.0
  O  O122  1  0.54017000  0.07611000  0.42389000  1.0
  O  O123  1  0.34792000  0.96423000  0.42388000  1.0
  O  O124  1  0.45989000  0.07620000  0.53582000  1.0
  O  O125  1  0.65216000  0.07619000  0.61618000  1.0
  O  O126  1  0.54030000  0.07620000  0.61621000  1.0
  O  O127  1  0.65216000  0.07624000  0.53578000  1.0
  O  O128  1  0.45988000  0.88380000  0.53587000  1.0
  O  O129  1  0.54026000  0.96421000  0.61627000  1.0
  F  F130  1  0.76358000  0.13185000  0.71696000  1.0
  F  F131  1  0.76362000  0.13184000  0.54644000  1.0
  F  F132  1  0.89578000  0.19789000  0.61384000  1.0
  F  F133  1  0.89573000  0.19789000  0.78175000  1.0
  F  F134  1  0.10427000  0.30215000  0.88605000  1.0
  F  F135  1  0.10434000  0.30222000  0.71815000  1.0
  F  F136  1  0.23649000  0.36828000  0.78295000  1.0
  F  F137  1  0.23642000  0.36821000  0.95346000  1.0
  F  F138  1  0.23653000  0.78305000  0.36821000  1.0
  F  F139  1  0.23645000  0.95357000  0.36824000  1.0
  F  F140  1  0.10430000  0.88616000  0.30221000  1.0
  F  F141  1  0.10438000  0.71825000  0.30219000  1.0
  F  F142  1  0.89579000  0.61390000  0.19794000  1.0
  F  F143  1  0.89571000  0.78182000  0.19790000  1.0
  F  F144  1  0.76357000  0.71702000  0.13185000  1.0
  F  F145  1  0.76363000  0.54649000  0.13187000  1.0
  F  F146  1  0.41477000  0.78311000  0.36811000  1.0
  F  F147  1  0.58529000  0.95366000  0.36807000  1.0
  F  F148  1  0.58400000  0.88627000  0.30202000  1.0
  F  F149  1  0.41607000  0.71833000  0.30203000  1.0
  F  F150  1  0.41599000  0.61402000  0.19774000  1.0
  F  F151  1  0.58397000  0.78191000  0.19772000  1.0
  F  F152  1  0.58524000  0.71708000  0.13167000  1.0
  F  F153  1  0.41467000  0.54659000  0.13169000  1.0
  F  F154  1  0.58521000  0.13175000  0.71700000  1.0
  F  F155  1  0.41468000  0.13180000  0.54648000  1.0
  F  F156  1  0.41597000  0.19784000  0.61388000  1.0
  F  F157  1  0.58390000  0.19779000  0.78180000  1.0
  F  F158  1  0.58402000  0.30218000  0.88609000  1.0
  F  F159  1  0.41603000  0.30219000  0.71817000  1.0
  F  F160  1  0.41475000  0.36825000  0.78298000  1.0
  F  F161  1  0.58535000  0.36826000  0.95349000  1.0
  F  F162  1  0.41461000  0.13174000  0.36820000  1.0
  F  F163  1  0.58519000  0.13182000  0.36816000  1.0
  F  F164  1  0.58383000  0.19790000  0.30209000  1.0
  F  F165  1  0.41586000  0.19782000  0.30211000  1.0
  F  F166  1  0.41589000  0.30216000  0.19787000  1.0
  F  F167  1  0.58380000  0.30207000  0.19790000  1.0
  F  F168  1  0.58516000  0.36815000  0.13183000  1.0
  F  F169  1  0.41463000  0.36825000  0.13179000  1.0
  F  F170  1  0.41464000  0.78300000  0.54655000  1.0
  F  F171  1  0.58522000  0.95356000  0.71710000  1.0
  F  F172  1  0.58394000  0.88620000  0.78188000  1.0
  F  F173  1  0.41594000  0.71823000  0.61392000  1.0
  F  F174  1  0.41607000  0.61393000  0.71825000  1.0
  F  F175  1  0.58400000  0.78187000  0.88622000  1.0
  F  F176  1  0.58532000  0.71709000  0.95357000  1.0
  F  F177  1  0.41480000  0.54655000  0.78300000  1.0
