# generated using pymatgen
data_EuPH15C21NO11
_symmetry_space_group_name_H-M   'P 1'
_cell_length_a   11.69580000
_cell_length_b   14.72380000
_cell_length_c   17.58480000
_cell_angle_alpha   90.00230000
_cell_angle_beta   90.00100000
_cell_angle_gamma   92.02870000
_symmetry_Int_Tables_number   1
_chemical_formula_structural   EuPH15C21NO11
_chemical_formula_sum   'Eu4 P4 H60 C84 N4 O44'
_cell_volume   3026.32094247
_cell_formula_units_Z   4
loop_
 _symmetry_equiv_pos_site_id
 _symmetry_equiv_pos_as_xyz
  1  'x, y, z'
loop_
 _atom_site_type_symbol
 _atom_site_label
 _atom_site_symmetry_multiplicity
 _atom_site_fract_x
 _atom_site_fract_y
 _atom_site_fract_z
 _atom_site_occupancy
  Eu  Eu0  1  0.57353000  0.59209000  0.92795000  1.0
  Eu  Eu1  1  0.92647000  0.90792000  0.42795000  1.0
  Eu  Eu2  1  0.42647000  0.40792000  0.07205000  1.0
  Eu  Eu3  1  0.07353000  0.09208000  0.57205000  1.0
  P  P4  1  0.83508000  0.75021000  0.91806000  1.0
  P  P5  1  0.66492000  0.74978000  0.41807000  1.0
  P  P6  1  0.16492000  0.24978000  0.08194000  1.0
  P  P7  1  0.33508000  0.25022000  0.58193000  1.0
  H  H8  1  0.61182000  0.13634000  0.17083000  1.0
  H  H9  1  0.88818000  0.36366000  0.67083000  1.0
  H  H10  1  0.38818000  0.86366000  0.82917000  1.0
  H  H11  1  0.11182000  0.63634000  0.32917000  1.0
  H  H12  1  0.73519000  0.48634000  0.85582000  1.0
  H  H13  1  0.76481000  0.01366000  0.35582000  1.0
  H  H14  1  0.26481000  0.51367000  0.14418000  1.0
  H  H15  1  0.23519000  0.98633000  0.64418000  1.0
  H  H16  1  0.67516000  0.48584000  0.77561000  1.0
  H  H17  1  0.82484000  0.01416000  0.27562000  1.0
  H  H18  1  0.32484000  0.51416000  0.22439000  1.0
  H  H19  1  0.17516000  0.98584000  0.72439000  1.0
  H  H20  1  0.07107000  0.79774000  0.86446000  1.0
  H  H21  1  0.42893000  0.70226000  0.36446000  1.0
  H  H22  1  0.92893000  0.20226000  0.13554000  1.0
  H  H23  1  0.57107000  0.29774000  0.63554000  1.0
  H  H24  1  0.25687000  0.72995000  0.89547000  1.0
  H  H25  1  0.24313000  0.77005000  0.39547000  1.0
  H  H26  1  0.74313000  0.27005000  0.10453000  1.0
  H  H27  1  0.75687000  0.22995000  0.60454000  1.0
  H  H28  1  0.08869000  0.54424000  0.05081000  1.0
  H  H29  1  0.41131000  0.95576000  0.55082000  1.0
  H  H30  1  0.91131000  0.45575000  0.94919000  1.0
  H  H31  1  0.58869000  0.04424000  0.44918000  1.0
  H  H32  1  0.90035000  0.61122000  0.02100000  1.0
  H  H33  1  0.59965000  0.88878000  0.52101000  1.0
  H  H34  1  0.09965000  0.38878000  0.97900000  1.0
  H  H35  1  0.40035000  0.11122000  0.47899000  1.0
  H  H36  1  0.63515000  0.85908000  0.93838000  1.0
  H  H37  1  0.86485000  0.64092000  0.43838000  1.0
  H  H38  1  0.36485000  0.14092000  0.06162000  1.0
  H  H39  1  0.13515000  0.35908000  0.56162000  1.0
  H  H40  1  0.59004000  0.98082000  0.03023000  1.0
  H  H41  1  0.90996000  0.51918000  0.53023000  1.0
  H  H42  1  0.40996000  0.01918000  0.96977000  1.0
  H  H43  1  0.09004000  0.48082000  0.46977000  1.0
  H  H44  1  0.92025000  0.95780000  0.13483000  1.0
  H  H45  1  0.57975000  0.54220000  0.63482000  1.0
  H  H46  1  0.07975000  0.04220000  0.86517000  1.0
  H  H47  1  0.42025000  0.45780000  0.36518000  1.0
  H  H48  1  0.96811000  0.83646000  0.04269000  1.0
  H  H49  1  0.53189000  0.66354000  0.54269000  1.0
  H  H50  1  0.03189000  0.16354000  0.95731000  1.0
  H  H51  1  0.46811000  0.33645000  0.45731000  1.0
  H  H52  1  0.79270000  0.66733000  0.77569000  1.0
  H  H53  1  0.70730000  0.83267000  0.27570000  1.0
  H  H54  1  0.20730000  0.33267000  0.22431000  1.0
  H  H55  1  0.29270000  0.16733000  0.72430000  1.0
  H  H56  1  0.83380000  0.71810000  0.64159000  1.0
  H  H57  1  0.66620000  0.78190000  0.14160000  1.0
  H  H58  1  0.16620000  0.28190000  0.35841000  1.0
  H  H59  1  0.33380000  0.21810000  0.85840000  1.0
  H  H60  1  0.93972000  0.98308000  0.72339000  1.0
  H  H61  1  0.56028000  0.51692000  0.22338000  1.0
  H  H62  1  0.06028000  0.01692000  0.27661000  1.0
  H  H63  1  0.43972000  0.48308000  0.77662000  1.0
  H  H64  1  0.90065000  0.93371000  0.85670000  1.0
  H  H65  1  0.59935000  0.56629000  0.35670000  1.0
  H  H66  1  0.09935000  0.06629000  0.14330000  1.0
  H  H67  1  0.40065000  0.43371000  0.64330000  1.0
  C  C68  1  0.97408000  0.70919000  0.94164000  1.0
  C  C69  1  0.52592000  0.79081000  0.44164000  1.0
  C  C70  1  0.02592000  0.29081000  0.05836000  1.0
  C  C71  1  0.47408000  0.20919000  0.55836000  1.0
  C  C72  1  0.07421000  0.74320000  0.90625000  1.0
  C  C73  1  0.42579000  0.75680000  0.40625000  1.0
  C  C74  1  0.92579000  0.25680000  0.09375000  1.0
  C  C75  1  0.57421000  0.24320000  0.59375000  1.0
  C  C76  1  0.17859000  0.70540000  0.92325000  1.0
  C  C77  1  0.32141000  0.79460000  0.42325000  1.0
  C  C78  1  0.82141000  0.29460000  0.07675000  1.0
  C  C79  1  0.67859000  0.20540000  0.57675000  1.0
  C  C80  1  0.18376000  0.63329000  0.97493000  1.0
  C  C81  1  0.31624000  0.86670000  0.47493000  1.0
  C  C82  1  0.81624000  0.36670000  0.02507000  1.0
  C  C83  1  0.68376000  0.13330000  0.52507000  1.0
  C  C84  1  0.08373000  0.60071000  0.01113000  1.0
  C  C85  1  0.41627000  0.89929000  0.51113000  1.0
  C  C86  1  0.91627000  0.39929000  0.98887000  1.0
  C  C87  1  0.58373000  0.10071000  0.48887000  1.0
  C  C88  1  0.97896000  0.63818000  0.99471000  1.0
  C  C89  1  0.52104000  0.86182000  0.49471000  1.0
  C  C90  1  0.02104000  0.36182000  0.00529000  1.0
  C  C91  1  0.47896000  0.13818000  0.50529000  1.0
  C  C92  1  0.29559000  0.58886000  0.98873000  1.0
  C  C93  1  0.20441000  0.91114000  0.48873000  1.0
  C  C94  1  0.70441000  0.41115000  0.01127000  1.0
  C  C95  1  0.79559000  0.08885000  0.51127000  1.0
  C  C96  1  0.80548000  0.84084000  0.98393000  1.0
  C  C97  1  0.69452000  0.65916000  0.48394000  1.0
  C  C98  1  0.19452000  0.15916000  0.01607000  1.0
  C  C99  1  0.30548000  0.34084000  0.51606000  1.0
  C  C100  1  0.69858000  0.88140000  0.98047000  1.0
  C  C101  1  0.80142000  0.61860000  0.48047000  1.0
  C  C102  1  0.30142000  0.11860000  0.01953000  1.0
  C  C103  1  0.19858000  0.38141000  0.51953000  1.0
  C  C104  1  0.67274000  0.94925000  0.03211000  1.0
  C  C105  1  0.82726000  0.55076000  0.53211000  1.0
  C  C106  1  0.32726000  0.05076000  0.96789000  1.0
  C  C107  1  0.17274000  0.44925000  0.46789000  1.0
  C  C108  1  0.75290000  0.97729000  0.08757000  1.0
  C  C109  1  0.74710000  0.52272000  0.58757000  1.0
  C  C110  1  0.24710000  0.02272000  0.91243000  1.0
  C  C111  1  0.25290000  0.47728000  0.41243000  1.0
  C  C112  1  0.85911000  0.93636000  0.09108000  1.0
  C  C113  1  0.64089000  0.56364000  0.59107000  1.0
  C  C114  1  0.14089000  0.06364000  0.90892000  1.0
  C  C115  1  0.35911000  0.43635000  0.40893000  1.0
  C  C116  1  0.88556000  0.86844000  0.03946000  1.0
  C  C117  1  0.61444000  0.63156000  0.53946000  1.0
  C  C118  1  0.11444000  0.13157000  0.96054000  1.0
  C  C119  1  0.38556000  0.36843000  0.46054000  1.0
  C  C120  1  0.72773000  0.05031000  0.14331000  1.0
  C  C121  1  0.77226000  0.44969000  0.64331000  1.0
  C  C122  1  0.27226000  0.94969000  0.85669000  1.0
  C  C123  1  0.22774000  0.55031000  0.35669000  1.0
  C  C124  1  0.84723000  0.79698000  0.82396000  1.0
  C  C125  1  0.65277000  0.70302000  0.32396000  1.0
  C  C126  1  0.15277000  0.20302000  0.17604000  1.0
  C  C127  1  0.34723000  0.29698000  0.67604000  1.0
  C  C128  1  0.82598000  0.73601000  0.76369000  1.0
  C  C129  1  0.67403000  0.76399000  0.26370000  1.0
  C  C130  1  0.17402000  0.26399000  0.23631000  1.0
  C  C131  1  0.32597000  0.23601000  0.73630000  1.0
  C  C132  1  0.84852000  0.76388000  0.68956000  1.0
  C  C133  1  0.65149000  0.73612000  0.18957000  1.0
  C  C134  1  0.15148000  0.23612000  0.31044000  1.0
  C  C135  1  0.34852000  0.26388000  0.81043000  1.0
  C  C136  1  0.89255000  0.85209000  0.67531000  1.0
  C  C137  1  0.60746000  0.64791000  0.17531000  1.0
  C  C138  1  0.10746000  0.14791000  0.32469000  1.0
  C  C139  1  0.39254000  0.35209000  0.82469000  1.0
  C  C140  1  0.90928000  0.91381000  0.73522000  1.0
  C  C141  1  0.59072000  0.58619000  0.23521000  1.0
  C  C142  1  0.09072000  0.08619000  0.26478000  1.0
  C  C143  1  0.40928000  0.41381000  0.76478000  1.0
  C  C144  1  0.88670000  0.88626000  0.80968000  1.0
  C  C145  1  0.61330000  0.61374000  0.30968000  1.0
  C  C146  1  0.11330000  0.11374000  0.19032000  1.0
  C  C147  1  0.38670000  0.38626000  0.69032000  1.0
  C  C148  1  0.92082000  0.87785000  0.59525000  1.0
  C  C149  1  0.57918000  0.62215000  0.09525000  1.0
  C  C150  1  0.07918000  0.12215000  0.40475000  1.0
  C  C151  1  0.42082000  0.37786000  0.90475000  1.0
  N  N152  1  0.47677000  0.72034000  0.81820000  1.0
  N  N153  1  0.02322000  0.77966000  0.31820000  1.0
  N  N154  1  0.52323000  0.27966000  0.18180000  1.0
  N  N155  1  0.97677000  0.22034000  0.68180000  1.0
  O  O156  1  0.74759000  0.67262000  0.91954000  1.0
  O  O157  1  0.75241000  0.82738000  0.41955000  1.0
  O  O158  1  0.25241000  0.32738000  0.08046000  1.0
  O  O159  1  0.24759000  0.17262000  0.58045000  1.0
  O  O160  1  0.29285000  0.51668000  0.02914000  1.0
  O  O161  1  0.20715000  0.98332000  0.52914000  1.0
  O  O162  1  0.70715000  0.48331000  0.97086000  1.0
  O  O163  1  0.79285000  0.01668000  0.47086000  1.0
  O  O164  1  0.38405000  0.62547000  0.95855000  1.0
  O  O165  1  0.11595000  0.87453000  0.45854000  1.0
  O  O166  1  0.61595000  0.37453000  0.04145000  1.0
  O  O167  1  0.88405000  0.12547000  0.54146000  1.0
  O  O168  1  0.62543000  0.08511000  0.13365000  1.0
  O  O169  1  0.87457000  0.41489000  0.63365000  1.0
  O  O170  1  0.37457000  0.91489000  0.86635000  1.0
  O  O171  1  0.12543000  0.58511000  0.36635000  1.0
  O  O172  1  0.79652000  0.07617000  0.19313000  1.0
  O  O173  1  0.70348000  0.42384000  0.69312000  1.0
  O  O174  1  0.20348000  0.92384000  0.80688000  1.0
  O  O175  1  0.29651000  0.57616000  0.30688000  1.0
  O  O176  1  0.96667000  0.95639000  0.58082000  1.0
  O  O177  1  0.53333000  0.54361000  0.08081000  1.0
  O  O178  1  0.03333000  0.04361000  0.41918000  1.0
  O  O179  1  0.46667000  0.45639000  0.91919000  1.0
  O  O180  1  0.89735000  0.82149000  0.54262000  1.0
  O  O181  1  0.60265000  0.67850000  0.04263000  1.0
  O  O182  1  0.10265000  0.17851000  0.45738000  1.0
  O  O183  1  0.39735000  0.32150000  0.95738000  1.0
  O  O184  1  0.48664000  0.63645000  0.80167000  1.0
  O  O185  1  0.01336000  0.86354000  0.30168000  1.0
  O  O186  1  0.51336000  0.36355000  0.19833000  1.0
  O  O187  1  0.98664000  0.13646000  0.69832000  1.0
  O  O188  1  0.52849000  0.75017000  0.87732000  1.0
  O  O189  1  0.97151000  0.74984000  0.37732000  1.0
  O  O190  1  0.47151000  0.24983000  0.12268000  1.0
  O  O191  1  0.02849000  0.25016000  0.62268000  1.0
  O  O192  1  0.41697000  0.77096000  0.77816000  1.0
  O  O193  1  0.08303000  0.72904000  0.27816000  1.0
  O  O194  1  0.58302000  0.22904000  0.22184000  1.0
  O  O195  1  0.91697000  0.27096000  0.72184000  1.0
  O  O196  1  0.68546000  0.52132000  0.82307000  1.0
  O  O197  1  0.81454000  0.97867000  0.32307000  1.0
  O  O198  1  0.31454000  0.47867000  0.17693000  1.0
  O  O199  1  0.18546000  0.02133000  0.67693000  1.0
