# generated using pymatgen
data_CoH8(C5O2)2
_symmetry_space_group_name_H-M   'P 1'
_cell_length_a   4.87409000
_cell_length_b   9.66160000
_cell_length_c   19.63330000
_cell_angle_alpha   95.90780000
_cell_angle_beta   90.00000000
_cell_angle_gamma   89.99970000
_symmetry_Int_Tables_number   1
_chemical_formula_structural   CoH8(C5O2)2
_chemical_formula_sum   'Co4 H32 C40 O16'
_cell_volume   919.65118389
_cell_formula_units_Z   4
loop_
 _symmetry_equiv_pos_site_id
 _symmetry_equiv_pos_as_xyz
  1  'x, y, z'
loop_
 _atom_site_type_symbol
 _atom_site_label
 _atom_site_symmetry_multiplicity
 _atom_site_fract_x
 _atom_site_fract_y
 _atom_site_fract_z
 _atom_site_occupancy
  Co  Co0  1  0.30855000  0.71247000  0.76232000  1.0
  Co  Co1  1  0.80856000  0.78753000  0.23768000  1.0
  Co  Co2  1  0.69145000  0.28753000  0.23768000  1.0
  Co  Co3  1  0.19145000  0.21247000  0.76233000  1.0
  H  H4  1  0.63839000  0.68107000  0.01858000  1.0
  H  H5  1  0.13839000  0.81894000  0.98142000  1.0
  H  H6  1  0.36161000  0.31893000  0.98142000  1.0
  H  H7  1  0.86161000  0.18107000  0.01858000  1.0
  H  H8  1  0.09055000  0.38534000  0.88354000  1.0
  H  H9  1  0.59054000  0.11466000  0.11647000  1.0
  H  H10  1  0.90945000  0.61466000  0.11646000  1.0
  H  H11  1  0.40946000  0.88534000  0.88354000  1.0
  H  H12  1  0.35953000  0.32120000  0.50920000  1.0
  H  H13  1  0.85953000  0.17880000  0.49080000  1.0
  H  H14  1  0.64047000  0.67880000  0.49080000  1.0
  H  H15  1  0.14047000  0.82120000  0.50920000  1.0
  H  H16  1  0.68724000  0.56598000  0.59789000  1.0
  H  H17  1  0.18723000  0.93402000  0.40211000  1.0
  H  H18  1  0.31276000  0.43402000  0.40211000  1.0
  H  H19  1  0.81276000  0.06598000  0.59789000  1.0
  H  H20  1  0.49145000  0.63407000  0.90206000  1.0
  H  H21  1  0.99146000  0.86593000  0.09794000  1.0
  H  H22  1  0.50855000  0.36593000  0.09794000  1.0
  H  H23  1  0.00855000  0.13407000  0.90205000  1.0
  H  H24  1  0.59695000  0.48163000  0.85385000  1.0
  H  H25  1  0.09694000  0.01837000  0.14615000  1.0
  H  H26  1  0.40306000  0.51837000  0.14616000  1.0
  H  H27  1  0.90306000  0.98163000  0.85385000  1.0
  H  H28  1  0.85992000  0.33080000  0.64381000  1.0
  H  H29  1  0.35992000  0.16920000  0.35619000  1.0
  H  H30  1  0.14008000  0.66920000  0.35619000  1.0
  H  H31  1  0.64008000  0.83080000  0.64381000  1.0
  H  H32  1  0.18804000  0.27293000  0.61710000  1.0
  H  H33  1  0.68804000  0.22706000  0.38290000  1.0
  H  H34  1  0.81196000  0.72707000  0.38290000  1.0
  H  H35  1  0.31196000  0.77294000  0.61710000  1.0
  C  C36  1  0.79696000  0.60144000  0.01010000  1.0
  C  C37  1  0.29697000  0.89856000  0.98990000  1.0
  C  C38  1  0.20303000  0.39856000  0.98990000  1.0
  C  C39  1  0.70304000  0.10144000  0.01010000  1.0
  C  C40  1  0.04856000  0.43537000  0.93478000  1.0
  C  C41  1  0.54856000  0.06463000  0.06522000  1.0
  C  C42  1  0.95144000  0.56463000  0.06522000  1.0
  C  C43  1  0.45144000  0.93537000  0.93478000  1.0
  C  C44  1  0.84345000  0.53695000  0.94392000  1.0
  C  C45  1  0.34345000  0.96305000  0.05608000  1.0
  C  C46  1  0.15655000  0.46305000  0.05608000  1.0
  C  C47  1  0.65655000  0.03695000  0.94392000  1.0
  C  C48  1  0.67550000  0.57552000  0.88450000  1.0
  C  C49  1  0.17550000  0.92448000  0.11550000  1.0
  C  C50  1  0.32450000  0.42448000  0.11550000  1.0
  C  C51  1  0.82450000  0.07552000  0.88450000  1.0
  C  C52  1  0.82531000  0.65599000  0.83373000  1.0
  C  C53  1  0.32532000  0.84401000  0.16626000  1.0
  C  C54  1  0.17469000  0.34401000  0.16627000  1.0
  C  C55  1  0.67468000  0.15599000  0.83373000  1.0
  C  C56  1  0.20115000  0.39974000  0.50522000  1.0
  C  C57  1  0.70115000  0.10026000  0.49478000  1.0
  C  C58  1  0.79884000  0.60026000  0.49478000  1.0
  C  C59  1  0.29885000  0.89974000  0.50522000  1.0
  C  C60  1  0.82548000  0.53684000  0.55509000  1.0
  C  C61  1  0.32548000  0.96316000  0.44491000  1.0
  C  C62  1  0.17452000  0.46316000  0.44491000  1.0
  C  C63  1  0.67452000  0.03684000  0.55509000  1.0
  C  C64  1  0.02724000  0.43572000  0.56104000  1.0
  C  C65  1  0.52724000  0.06428000  0.43896000  1.0
  C  C66  1  0.97276000  0.56428000  0.43896000  1.0
  C  C67  1  0.47276000  0.93572000  0.56104000  1.0
  C  C68  1  0.05983000  0.36675000  0.62577000  1.0
  C  C69  1  0.55983000  0.13325000  0.37423000  1.0
  C  C70  1  0.94018000  0.63325000  0.37423000  1.0
  C  C71  1  0.44017000  0.86675000  0.62577000  1.0
  C  C72  1  0.18068000  0.45747000  0.68606000  1.0
  C  C73  1  0.68068000  0.04253000  0.31394000  1.0
  C  C74  1  0.81933000  0.54253000  0.31394000  1.0
  C  C75  1  0.31932000  0.95747000  0.68606000  1.0
  O  O76  1  0.69534000  0.70209000  0.78413000  1.0
  O  O77  1  0.19535000  0.79792000  0.21586000  1.0
  O  O78  1  0.30466000  0.29792000  0.21587000  1.0
  O  O79  1  0.80465000  0.20208000  0.78414000  1.0
  O  O80  1  0.08419000  0.67302000  0.83990000  1.0
  O  O81  1  0.58419000  0.82699000  0.16010000  1.0
  O  O82  1  0.91581000  0.32698000  0.16010000  1.0
  O  O83  1  0.41581000  0.17301000  0.83989000  1.0
  O  O84  1  0.21290000  0.58708000  0.68129000  1.0
  O  O85  1  0.71290000  0.91292000  0.31871000  1.0
  O  O86  1  0.78710000  0.41292000  0.31871000  1.0
  O  O87  1  0.28710000  0.08708000  0.68129000  1.0
  O  O88  1  0.24427000  0.40347000  0.74071000  1.0
  O  O89  1  0.74427000  0.09653000  0.25929000  1.0
  O  O90  1  0.75574000  0.59653000  0.25929000  1.0
  O  O91  1  0.25573000  0.90347000  0.74071000  1.0
