# generated using pymatgen
data_CuH7C7NO6
_symmetry_space_group_name_H-M   'P 1'
_cell_length_a   7.17884000
_cell_length_b   12.30610000
_cell_length_c   20.27130000
_cell_angle_alpha   90.00100000
_cell_angle_beta   90.00020000
_cell_angle_gamma   89.99970000
_symmetry_Int_Tables_number   1
_chemical_formula_structural   CuH7C7NO6
_chemical_formula_sum   'Cu8 H56 C56 N8 O48'
_cell_volume   1790.83805594
_cell_formula_units_Z   8
loop_
 _symmetry_equiv_pos_site_id
 _symmetry_equiv_pos_as_xyz
  1  'x, y, z'
loop_
 _atom_site_type_symbol
 _atom_site_label
 _atom_site_symmetry_multiplicity
 _atom_site_fract_x
 _atom_site_fract_y
 _atom_site_fract_z
 _atom_site_occupancy
  Cu  Cu0  1  0.31682000  0.03526000  0.63116000  1.0
  Cu  Cu1  1  0.31682000  0.96474000  0.86885000  1.0
  Cu  Cu2  1  0.18321000  0.53525000  0.86883000  1.0
  Cu  Cu3  1  0.18320000  0.46475000  0.63117000  1.0
  Cu  Cu4  1  0.68317000  0.96474000  0.36885000  1.0
  Cu  Cu5  1  0.68317000  0.03526000  0.13115000  1.0
  Cu  Cu6  1  0.81679000  0.46475000  0.13117000  1.0
  Cu  Cu7  1  0.81681000  0.53525000  0.36883000  1.0
  H  H8  1  0.56830000  0.85190000  0.65226000  1.0
  H  H9  1  0.56832000  0.14811000  0.84774000  1.0
  H  H10  1  0.93173000  0.35189000  0.84775000  1.0
  H  H11  1  0.93171000  0.64811000  0.65225000  1.0
  H  H12  1  0.43169000  0.14810000  0.34774000  1.0
  H  H13  1  0.43169000  0.85189000  0.15226000  1.0
  H  H14  1  0.06828000  0.64811000  0.15225000  1.0
  H  H15  1  0.06829000  0.35189000  0.34775000  1.0
  H  H16  1  0.62690000  0.95923000  0.68596000  1.0
  H  H17  1  0.62691000  0.04078000  0.81405000  1.0
  H  H18  1  0.87310000  0.45921000  0.81405000  1.0
  H  H19  1  0.87311000  0.54078000  0.68594000  1.0
  H  H20  1  0.37310000  0.04077000  0.31404000  1.0
  H  H21  1  0.37309000  0.95922000  0.18595000  1.0
  H  H22  1  0.12689000  0.54078000  0.18595000  1.0
  H  H23  1  0.12689000  0.45922000  0.31406000  1.0
  H  H24  1  0.42525000  0.18578000  0.69794000  1.0
  H  H25  1  0.42523000  0.81422000  0.80206000  1.0
  H  H26  1  0.07472000  0.68576000  0.80205000  1.0
  H  H27  1  0.07471000  0.31424000  0.69795000  1.0
  H  H28  1  0.57475000  0.81422000  0.30206000  1.0
  H  H29  1  0.57477000  0.18578000  0.19794000  1.0
  H  H30  1  0.92528000  0.31423000  0.19795000  1.0
  H  H31  1  0.92529000  0.68576000  0.30205000  1.0
  H  H32  1  0.30539000  0.10592000  0.74765000  1.0
  H  H33  1  0.30539000  0.89408000  0.75235000  1.0
  H  H34  1  0.19459000  0.60592000  0.75233000  1.0
  H  H35  1  0.19459000  0.39409000  0.74766000  1.0
  H  H36  1  0.69460000  0.89408000  0.25235000  1.0
  H  H37  1  0.69461000  0.10592000  0.24764000  1.0
  H  H38  1  0.80541000  0.39408000  0.24766000  1.0
  H  H39  1  0.80541000  0.60591000  0.25234000  1.0
  H  H40  1  0.94005000  0.72797000  0.54826000  1.0
  H  H41  1  0.94003000  0.27204000  0.95175000  1.0
  H  H42  1  0.56000000  0.22798000  0.95173000  1.0
  H  H43  1  0.55998000  0.77202000  0.54826000  1.0
  H  H44  1  0.05995000  0.27204000  0.45174000  1.0
  H  H45  1  0.05995000  0.72797000  0.04826000  1.0
  H  H46  1  0.43999000  0.77201000  0.04827000  1.0
  H  H47  1  0.44003000  0.22797000  0.45174000  1.0
  H  H48  1  0.17938000  0.92372000  0.39312000  1.0
  H  H49  1  0.17937000  0.07629000  0.10689000  1.0
  H  H50  1  0.32061000  0.42370000  0.10688000  1.0
  H  H51  1  0.32063000  0.57629000  0.39312000  1.0
  H  H52  1  0.82063000  0.07628000  0.60688000  1.0
  H  H53  1  0.82062000  0.92371000  0.89311000  1.0
  H  H54  1  0.67938000  0.57630000  0.89313000  1.0
  H  H55  1  0.67937000  0.42371000  0.60688000  1.0
  H  H56  1  0.32575000  0.03980000  0.48053000  1.0
  H  H57  1  0.32575000  0.96020000  0.01948000  1.0
  H  H58  1  0.17422000  0.53979000  0.01946000  1.0
  H  H59  1  0.17423000  0.46022000  0.48053000  1.0
  H  H60  1  0.67426000  0.96019000  0.51947000  1.0
  H  H61  1  0.67425000  0.03980000  0.98052000  1.0
  H  H62  1  0.82578000  0.46022000  0.98053000  1.0
  H  H63  1  0.82577000  0.53979000  0.51947000  1.0
  C  C64  1  0.10724000  0.86508000  0.57664000  1.0
  C  C65  1  0.10723000  0.13492000  0.92336000  1.0
  C  C66  1  0.39280000  0.36509000  0.92336000  1.0
  C  C67  1  0.39278000  0.63492000  0.57664000  1.0
  C  C68  1  0.89276000  0.13492000  0.42336000  1.0
  C  C69  1  0.89276000  0.86508000  0.07664000  1.0
  C  C70  1  0.60720000  0.63491000  0.07665000  1.0
  C  C71  1  0.60722000  0.36508000  0.42336000  1.0
  C  C72  1  0.02321000  0.79628000  0.53111000  1.0
  C  C73  1  0.02321000  0.20372000  0.96889000  1.0
  C  C74  1  0.47681000  0.29630000  0.96888000  1.0
  C  C75  1  0.47681000  0.70371000  0.53112000  1.0
  C  C76  1  0.97679000  0.20372000  0.46889000  1.0
  C  C77  1  0.97679000  0.79628000  0.03111000  1.0
  C  C78  1  0.52318000  0.70370000  0.03112000  1.0
  C  C79  1  0.52320000  0.29629000  0.46888000  1.0
  C  C80  1  0.04943000  0.81652000  0.46383000  1.0
  C  C81  1  0.04943000  0.18347000  0.03618000  1.0
  C  C82  1  0.45058000  0.31653000  0.03617000  1.0
  C  C83  1  0.45058000  0.68347000  0.46383000  1.0
  C  C84  1  0.95057000  0.18348000  0.53617000  1.0
  C  C85  1  0.95057000  0.81653000  0.96382000  1.0
  C  C86  1  0.54942000  0.68347000  0.96383000  1.0
  C  C87  1  0.54943000  0.31652000  0.53617000  1.0
  C  C88  1  0.15773000  0.90554000  0.44502000  1.0
  C  C89  1  0.15773000  0.09445000  0.05498000  1.0
  C  C90  1  0.34226000  0.40554000  0.05497000  1.0
  C  C91  1  0.34228000  0.59446000  0.44502000  1.0
  C  C92  1  0.84228000  0.09445000  0.55498000  1.0
  C  C93  1  0.84228000  0.90555000  0.94502000  1.0
  C  C94  1  0.65774000  0.59446000  0.94503000  1.0
  C  C95  1  0.65772000  0.40554000  0.55498000  1.0
  C  C96  1  0.23901000  0.97045000  0.49317000  1.0
  C  C97  1  0.23900000  0.02955000  0.00683000  1.0
  C  C98  1  0.26099000  0.47044000  0.00682000  1.0
  C  C99  1  0.26100000  0.52955000  0.49317000  1.0
  C  C100  1  0.76100000  0.02955000  0.50683000  1.0
  C  C101  1  0.76100000  0.97045000  0.99316000  1.0
  C  C102  1  0.73901000  0.52956000  0.99318000  1.0
  C  C103  1  0.73901000  0.47044000  0.50683000  1.0
  C  C104  1  0.09397000  0.85060000  0.65029000  1.0
  C  C105  1  0.09397000  0.14940000  0.84972000  1.0
  C  C106  1  0.40610000  0.35060000  0.84972000  1.0
  C  C107  1  0.40606000  0.64940000  0.65029000  1.0
  C  C108  1  0.90603000  0.14940000  0.34972000  1.0
  C  C109  1  0.90603000  0.85060000  0.15028000  1.0
  C  C110  1  0.59391000  0.64940000  0.15029000  1.0
  C  C111  1  0.59393000  0.35060000  0.34971000  1.0
  C  C112  1  0.97051000  0.74510000  0.41010000  1.0
  C  C113  1  0.97049000  0.25490000  0.08990000  1.0
  C  C114  1  0.52952000  0.24511000  0.08989000  1.0
  C  C115  1  0.52952000  0.75489000  0.41011000  1.0
  C  C116  1  0.02950000  0.25490000  0.58989000  1.0
  C  C117  1  0.02950000  0.74510000  0.91010000  1.0
  C  C118  1  0.47047000  0.75489000  0.91011000  1.0
  C  C119  1  0.47048000  0.24511000  0.58989000  1.0
  N  N120  1  0.21348000  0.95020000  0.55746000  1.0
  N  N121  1  0.21347000  0.04980000  0.94255000  1.0
  N  N122  1  0.28654000  0.45020000  0.94254000  1.0
  N  N123  1  0.28654000  0.54981000  0.55745000  1.0
  N  N124  1  0.78652000  0.04980000  0.44254000  1.0
  N  N125  1  0.78654000  0.95019000  0.05745000  1.0
  N  N126  1  0.71346000  0.54980000  0.05746000  1.0
  N  N127  1  0.71346000  0.45019000  0.44255000  1.0
  O  O128  1  0.01148000  0.77185000  0.67506000  1.0
  O  O129  1  0.01150000  0.22815000  0.82494000  1.0
  O  O130  1  0.48862000  0.27187000  0.82495000  1.0
  O  O131  1  0.48859000  0.72815000  0.67506000  1.0
  O  O132  1  0.98851000  0.22815000  0.32494000  1.0
  O  O133  1  0.98851000  0.77186000  0.17506000  1.0
  O  O134  1  0.51140000  0.72814000  0.17505000  1.0
  O  O135  1  0.51141000  0.27185000  0.32495000  1.0
  O  O136  1  0.17835000  0.92543000  0.68426000  1.0
  O  O137  1  0.17836000  0.07457000  0.81575000  1.0
  O  O138  1  0.32171000  0.42542000  0.81573000  1.0
  O  O139  1  0.32167000  0.57458000  0.68426000  1.0
  O  O140  1  0.82164000  0.07457000  0.31574000  1.0
  O  O141  1  0.82165000  0.92544000  0.18426000  1.0
  O  O142  1  0.67829000  0.57458000  0.18427000  1.0
  O  O143  1  0.67833000  0.42542000  0.31574000  1.0
  O  O144  1  0.91143000  0.65098000  0.42885000  1.0
  O  O145  1  0.91144000  0.34902000  0.07116000  1.0
  O  O146  1  0.58856000  0.15098000  0.07114000  1.0
  O  O147  1  0.58857000  0.84902000  0.42885000  1.0
  O  O148  1  0.08858000  0.34902000  0.57115000  1.0
  O  O149  1  0.08854000  0.65097000  0.92884000  1.0
  O  O150  1  0.41144000  0.84903000  0.92885000  1.0
  O  O151  1  0.41143000  0.15098000  0.57115000  1.0
  O  O152  1  0.97217000  0.78220000  0.35243000  1.0
  O  O153  1  0.97216000  0.21780000  0.14757000  1.0
  O  O154  1  0.52790000  0.28222000  0.14756000  1.0
  O  O155  1  0.52788000  0.71778000  0.35243000  1.0
  O  O156  1  0.02783000  0.21780000  0.64757000  1.0
  O  O157  1  0.02784000  0.78220000  0.85242000  1.0
  O  O158  1  0.47211000  0.71778000  0.85244000  1.0
  O  O159  1  0.47212000  0.28222000  0.64757000  1.0
  O  O160  1  0.60266000  0.92875000  0.64243000  1.0
  O  O161  1  0.60266000  0.07126000  0.85757000  1.0
  O  O162  1  0.89734000  0.42874000  0.85758000  1.0
  O  O163  1  0.89734000  0.57127000  0.64242000  1.0
  O  O164  1  0.39734000  0.07125000  0.35757000  1.0
  O  O165  1  0.39733000  0.92874000  0.14243000  1.0
  O  O166  1  0.10266000  0.57126000  0.14242000  1.0
  O  O167  1  0.10267000  0.42873000  0.35758000  1.0
  O  O168  1  0.40154000  0.10783000  0.71198000  1.0
  O  O169  1  0.40155000  0.89218000  0.78802000  1.0
  O  O170  1  0.09842000  0.60780000  0.78801000  1.0
  O  O171  1  0.09841000  0.39221000  0.71199000  1.0
  O  O172  1  0.59845000  0.89217000  0.28802000  1.0
  O  O173  1  0.59845000  0.10782000  0.21198000  1.0
  O  O174  1  0.90158000  0.39220000  0.21199000  1.0
  O  O175  1  0.90159000  0.60779000  0.28801000  1.0
