# generated using pymatgen
data_AgH8C8S2(NO2)4
_symmetry_space_group_name_H-M   'P 1'
_cell_length_a   7.19218000
_cell_length_b   8.69492488
_cell_length_c   12.51070000
_cell_angle_alpha   83.78449946
_cell_angle_beta   73.30600000
_cell_angle_gamma   65.57715971
_symmetry_Int_Tables_number   1
_chemical_formula_structural   AgH8C8S2(NO2)4
_chemical_formula_sum   'Ag2 H16 C16 S4 N8 O16'
_cell_volume   682.28234355
_cell_formula_units_Z   2
loop_
 _symmetry_equiv_pos_site_id
 _symmetry_equiv_pos_as_xyz
  1  'x, y, z'
loop_
 _atom_site_type_symbol
 _atom_site_label
 _atom_site_symmetry_multiplicity
 _atom_site_fract_x
 _atom_site_fract_y
 _atom_site_fract_z
 _atom_site_occupancy
  Ag  Ag0  1  0.28195000  0.74997000  0.25002000  1.0
  Ag  Ag1  1  0.71803000  0.25003000  0.74999000  1.0
  H  H2  1  0.81879000  0.01406000  0.25778000  1.0
  H  H3  1  0.09053000  0.48598000  0.24223000  1.0
  H  H4  1  0.18124000  0.98596000  0.74214000  1.0
  H  H5  1  0.90944000  0.51401000  0.75782000  1.0
  H  H6  1  0.47514000  0.01433000  0.25161000  1.0
  H  H7  1  0.74098000  0.48563000  0.24852000  1.0
  H  H8  1  0.52488000  0.98568000  0.74832000  1.0
  H  H9  1  0.25897000  0.51436000  0.75154000  1.0
  H  H10  1  0.58681000  0.37215000  0.17226000  1.0
  H  H11  1  0.13119000  0.12783000  0.32775000  1.0
  H  H12  1  0.41315000  0.62795000  0.82776000  1.0
  H  H13  1  0.86884000  0.87207000  0.67226000  1.0
  H  H14  1  0.26650000  0.79935000  0.00675000  1.0
  H  H15  1  0.07274000  0.70062000  0.49327000  1.0
  H  H16  1  0.73349000  0.20073000  0.99328000  1.0
  H  H17  1  0.92730000  0.29929000  0.50673000  1.0
  C  C18  1  0.80330000  0.89553000  0.25397000  1.0
  C  C19  1  0.95272000  0.60449000  0.24608000  1.0
  C  C20  1  0.19672000  0.10447000  0.74599000  1.0
  C  C21  1  0.04725000  0.39552000  0.75394000  1.0
  C  C22  1  0.60995000  0.89536000  0.25280000  1.0
  C  C23  1  0.75799000  0.60463000  0.24734000  1.0
  C  C24  1  0.39005000  0.10464000  0.74716000  1.0
  C  C25  1  0.24196000  0.39538000  0.75268000  1.0
  C  C26  1  0.54925000  0.42955000  0.09504000  1.0
  C  C27  1  0.07388000  0.07043000  0.40497000  1.0
  C  C28  1  0.45074000  0.57052000  0.90498000  1.0
  C  C29  1  0.92616000  0.92948000  0.59503000  1.0
  C  C30  1  0.37105000  0.66584000  0.00294000  1.0
  C  C31  1  0.03987000  0.83415000  0.49709000  1.0
  C  C32  1  0.62893000  0.33423000  0.99708000  1.0
  C  C33  1  0.96018000  0.16576000  0.50292000  1.0
  S  S34  1  0.20122000  0.15818000  0.08327000  1.0
  S  S35  1  0.44274000  0.34167000  0.41675000  1.0
  S  S36  1  0.79872000  0.84192000  0.91673000  1.0
  S  S37  1  0.55733000  0.65824000  0.58322000  1.0
  N  N38  1  0.97169000  0.75002000  0.24998000  1.0
  N  N39  1  0.02833000  0.24998000  0.75001000  1.0
  N  N40  1  0.58960000  0.75000000  0.25010000  1.0
  N  N41  1  0.41037000  0.25000000  0.74990000  1.0
  N  N42  1  0.42247000  0.59368000  0.09620000  1.0
  N  N43  1  0.11248000  0.90627000  0.40385000  1.0
  N  N44  1  0.57749000  0.40639000  0.90382000  1.0
  N  N45  1  0.88756000  0.09364000  0.59616000  1.0
  O  O46  1  0.41911000  0.07388000  0.97761000  1.0
  O  O47  1  0.47037000  0.42625000  0.52242000  1.0
  O  O48  1  0.58081000  0.92618000  0.02239000  1.0
  O  O49  1  0.52962000  0.57369000  0.47756000  1.0
  O  O50  1  0.13087000  0.02187000  0.12497000  1.0
  O  O51  1  0.27818000  0.47793000  0.37477000  1.0
  O  O52  1  0.86906000  0.97824000  0.87507000  1.0
  O  O53  1  0.72191000  0.52196000  0.62517000  1.0
  O  O54  1  0.26519000  0.21848000  0.16581000  1.0
  O  O55  1  0.64970000  0.28105000  0.33441000  1.0
  O  O56  1  0.73482000  0.78161000  0.83418000  1.0
  O  O57  1  0.35040000  0.71886000  0.66558000  1.0
  O  O58  1  0.07480000  0.28683000  0.01944000  1.0
  O  O59  1  0.38072000  0.21327000  0.48068000  1.0
  O  O60  1  0.92514000  0.71327000  0.98057000  1.0
  O  O61  1  0.61934000  0.78664000  0.51930000  1.0
