# generated using pymatgen
data_Cd2H27C30(N2O3)3
_symmetry_space_group_name_H-M   'P 1'
_cell_length_a   10.69460000
_cell_length_b   22.55120000
_cell_length_c   22.55170000
_cell_angle_alpha   117.58800000
_cell_angle_beta   99.04220000
_cell_angle_gamma   99.04310000
_symmetry_Int_Tables_number   1
_chemical_formula_structural   Cd2H27C30(N2O3)3
_chemical_formula_sum   'Cd8 H108 C120 N24 O36'
_cell_volume   4593.38304711
_cell_formula_units_Z   4
loop_
 _symmetry_equiv_pos_site_id
 _symmetry_equiv_pos_as_xyz
  1  'x, y, z'
loop_
 _atom_site_type_symbol
 _atom_site_label
 _atom_site_symmetry_multiplicity
 _atom_site_fract_x
 _atom_site_fract_y
 _atom_site_fract_z
 _atom_site_occupancy
  Cd  Cd0  1  0.76649000  0.54370000  0.93108000  1.0
  Cd  Cd1  1  0.23351000  0.06890000  0.45630000  1.0
  Cd  Cd2  1  0.23351000  0.45630000  0.06892000  1.0
  Cd  Cd3  1  0.76648000  0.93110000  0.54369000  1.0
  Cd  Cd4  1  0.75527000  0.51733000  0.75903000  1.0
  Cd  Cd5  1  0.24453000  0.24090000  0.48261000  1.0
  Cd  Cd6  1  0.24472000  0.48267000  0.24097000  1.0
  Cd  Cd7  1  0.75546000  0.75910000  0.51739000  1.0
  H  H8  1  0.04842000  0.58481000  0.00000000  1.0
  H  H9  1  0.95156000  0.00001000  0.41521000  1.0
  H  H10  1  0.95158000  0.41519000  0.00000000  1.0
  H  H11  1  0.04844000  0.99999000  0.58479000  1.0
  H  H12  1  0.99669000  0.64643000  0.99718000  1.0
  H  H13  1  0.00329000  0.00282000  0.35358000  1.0
  H  H14  1  0.00331000  0.35357000  0.00282000  1.0
  H  H15  1  0.99670000  0.99718000  0.64642000  1.0
  H  H16  1  0.57497000  0.40623000  0.68355000  1.0
  H  H17  1  0.42486000  0.31627000  0.59333000  1.0
  H  H18  1  0.42502000  0.59376000  0.31644000  1.0
  H  H19  1  0.57514000  0.68372000  0.40665000  1.0
  H  H20  1  0.63246000  0.37765000  0.61843000  1.0
  H  H21  1  0.36763000  0.38152000  0.62199000  1.0
  H  H22  1  0.36755000  0.62234000  0.38157000  1.0
  H  H23  1  0.63237000  0.61848000  0.37800000  1.0
  H  H24  1  0.75248000  0.68284000  0.88825000  1.0
  H  H25  1  0.24748000  0.11171000  0.31712000  1.0
  H  H26  1  0.24751000  0.31716000  0.11175000  1.0
  H  H27  1  0.75251000  0.88829000  0.68288000  1.0
  H  H28  1  0.87260000  0.66912000  0.84019000  1.0
  H  H29  1  0.12736000  0.15977000  0.33085000  1.0
  H  H30  1  0.12740000  0.33088000  0.15981000  1.0
  H  H31  1  0.87264000  0.84023000  0.66915000  1.0
  H  H32  1  0.15153000  0.57244000  0.68460000  1.0
  H  H33  1  0.84848000  0.31540000  0.42757000  1.0
  H  H34  1  0.84848000  0.42756000  0.31540000  1.0
  H  H35  1  0.15152000  0.68460000  0.57243000  1.0
  H  H36  1  0.27277000  0.63364000  0.63364000  1.0
  H  H37  1  0.72723000  0.36636000  0.36636000  1.0
  H  H38  1  0.97184000  0.76882000  0.95783000  1.0
  H  H39  1  0.02812000  0.04211000  0.23116000  1.0
  H  H40  1  0.02816000  0.23118000  0.04216000  1.0
  H  H41  1  0.97188000  0.95788000  0.76884000  1.0
  H  H42  1  0.04343000  0.69990000  0.94791000  1.0
  H  H43  1  0.95654000  0.05205000  0.30008000  1.0
  H  H44  1  0.95656000  0.30010000  0.05209000  1.0
  H  H45  1  0.04346000  0.94795000  0.69992000  1.0
  H  H46  1  0.91994000  0.71921000  0.99572000  1.0
  H  H47  1  0.08003000  0.00424000  0.28078000  1.0
  H  H48  1  0.08006000  0.28079000  0.00427000  1.0
  H  H49  1  0.91997000  0.99576000  0.71922000  1.0
  H  H50  1  0.56591000  0.04082000  0.76986000  1.0
  H  H51  1  0.43412000  0.23014000  0.95918000  1.0
  H  H52  1  0.43409000  0.95918000  0.23014000  1.0
  H  H53  1  0.56588000  0.76986000  0.04082000  1.0
  H  H54  1  0.55394000  0.03563000  0.57887000  1.0
  H  H55  1  0.44602000  0.42112000  0.96436000  1.0
  H  H56  1  0.44605000  0.96437000  0.42113000  1.0
  H  H57  1  0.55398000  0.57888000  0.03564000  1.0
  H  H58  1  0.37455000  0.07241000  0.76636000  1.0
  H  H59  1  0.62544000  0.23363000  0.92759000  1.0
  H  H60  1  0.62545000  0.92759000  0.23364000  1.0
  H  H61  1  0.37456000  0.76636000  0.07241000  1.0
  H  H62  1  0.79928000  0.62050000  0.62049000  1.0
  H  H63  1  0.20072000  0.37950000  0.37951000  1.0
  H  H64  1  0.25578000  0.16165000  0.80388000  1.0
  H  H65  1  0.74424000  0.19612000  0.83836000  1.0
  H  H66  1  0.74422000  0.83835000  0.19612000  1.0
  H  H67  1  0.25575000  0.80388000  0.16164000  1.0
  H  H68  1  0.14539000  0.58106000  0.80445000  1.0
  H  H69  1  0.85458000  0.19556000  0.41894000  1.0
  H  H70  1  0.85461000  0.41894000  0.19556000  1.0
  H  H71  1  0.14542000  0.80443000  0.58106000  1.0
  H  H72  1  0.11261000  0.57697000  0.90881000  1.0
  H  H73  1  0.88733000  0.09119000  0.42304000  1.0
  H  H74  1  0.88739000  0.42303000  0.09119000  1.0
  H  H75  1  0.11267000  0.90881000  0.57697000  1.0
  H  H76  1  0.97431000  0.41342000  0.72190000  1.0
  H  H77  1  0.02577000  0.27811000  0.58663000  1.0
  H  H78  1  0.02569000  0.58658000  0.27810000  1.0
  H  H79  1  0.97424000  0.72189000  0.41337000  1.0
  H  H80  1  0.29238000  0.29832000  0.69528000  1.0
  H  H81  1  0.70773000  0.30475000  0.70173000  1.0
  H  H82  1  0.70763000  0.70169000  0.30472000  1.0
  H  H83  1  0.29228000  0.69525000  0.29827000  1.0
  H  H84  1  0.32899000  0.53998000  0.75457000  1.0
  H  H85  1  0.67101000  0.24547000  0.46004000  1.0
  H  H86  1  0.67101000  0.46002000  0.24543000  1.0
  H  H87  1  0.32898000  0.75453000  0.53996000  1.0
  H  H88  1  0.17674000  0.23884000  0.83991000  1.0
  H  H89  1  0.82326000  0.16008000  0.76117000  1.0
  H  H90  1  0.82326000  0.76116000  0.16009000  1.0
  H  H91  1  0.17674000  0.83992000  0.23883000  1.0
  H  H92  1  0.36654000  0.21900000  0.65714000  1.0
  H  H93  1  0.63351000  0.34288000  0.78103000  1.0
  H  H94  1  0.63346000  0.78101000  0.34287000  1.0
  H  H95  1  0.36649000  0.65712000  0.21897000  1.0
  H  H96  1  0.48795000  0.13318000  0.62250000  1.0
  H  H97  1  0.51209000  0.37751000  0.86683000  1.0
  H  H98  1  0.51205000  0.86682000  0.37750000  1.0
  H  H99  1  0.48791000  0.62249000  0.13317000  1.0
  H  H100  1  0.05085000  0.32485000  0.87323000  1.0
  H  H101  1  0.94917000  0.12676000  0.67517000  1.0
  H  H102  1  0.94915000  0.67515000  0.12677000  1.0
  H  H103  1  0.05083000  0.87324000  0.32483000  1.0
  H  H104  1  0.97899000  0.41869000  0.91294000  1.0
  H  H105  1  0.02101000  0.08705000  0.58131000  1.0
  H  H106  1  0.02101000  0.58131000  0.08706000  1.0
  H  H107  1  0.97899000  0.91295000  0.41869000  1.0
  H  H108  1  0.16768000  0.38412000  0.72943000  1.0
  H  H109  1  0.83241000  0.27059000  0.61591000  1.0
  H  H110  1  0.83232000  0.61588000  0.27057000  1.0
  H  H111  1  0.16760000  0.72941000  0.38409000  1.0
  H  H112  1  0.43825000  0.48654000  0.91150000  1.0
  H  H113  1  0.56170000  0.08853000  0.51347000  1.0
  H  H114  1  0.56175000  0.51346000  0.08850000  1.0
  H  H115  1  0.43830000  0.91147000  0.48653000  1.0
  C  C116  1  0.24704000  0.52422000  0.97812000  1.0
  C  C117  1  0.75291000  0.02190000  0.47579000  1.0
  C  C118  1  0.75296000  0.47578000  0.02188000  1.0
  C  C119  1  0.24708000  0.97810000  0.52421000  1.0
  C  C120  1  0.84375000  0.66585000  0.88387000  1.0
  C  C121  1  0.15622000  0.11610000  0.33411000  1.0
  C  C122  1  0.15625000  0.33415000  0.11613000  1.0
  C  C123  1  0.84378000  0.88390000  0.66589000  1.0
  C  C124  1  0.10173000  0.59610000  0.65872000  1.0
  C  C125  1  0.89827000  0.34127000  0.40390000  1.0
  C  C126  1  0.89828000  0.40390000  0.34128000  1.0
  C  C127  1  0.10173000  0.65872000  0.59610000  1.0
  C  C128  1  0.16860000  0.62996000  0.62996000  1.0
  C  C129  1  0.83141000  0.37004000  0.37004000  1.0
  C  C130  1  0.95125000  0.71605000  0.95031000  1.0
  C  C131  1  0.04873000  0.04965000  0.28393000  1.0
  C  C132  1  0.04875000  0.28395000  0.04969000  1.0
  C  C133  1  0.95127000  0.95035000  0.71607000  1.0
  C  C134  1  0.58445000  0.02953000  0.72036000  1.0
  C  C135  1  0.41556000  0.27963000  0.97047000  1.0
  C  C136  1  0.41555000  0.97047000  0.27964000  1.0
  C  C137  1  0.58444000  0.72037000  0.02953000  1.0
  C  C138  1  0.57889000  0.02844000  0.62312000  1.0
  C  C139  1  0.42109000  0.37688000  0.97156000  1.0
  C  C140  1  0.42111000  0.97156000  0.37688000  1.0
  C  C141  1  0.57891000  0.62313000  0.02844000  1.0
  C  C142  1  0.44489000  0.09876000  0.69439000  1.0
  C  C143  1  0.55511000  0.30561000  0.90124000  1.0
  C  C144  1  0.55511000  0.90124000  0.30561000  1.0
  C  C145  1  0.44489000  0.69439000  0.09876000  1.0
  C  C146  1  0.37528000  0.10591000  0.74373000  1.0
  C  C147  1  0.62472000  0.25626000  0.89410000  1.0
  C  C148  1  0.62472000  0.89410000  0.25627000  1.0
  C  C149  1  0.37528000  0.74374000  0.10590000  1.0
  C  C150  1  0.89762000  0.55728000  0.68740000  1.0
  C  C151  1  0.10236000  0.31259000  0.44272000  1.0
  C  C152  1  0.10238000  0.44271000  0.31260000  1.0
  C  C153  1  0.89764000  0.68740000  0.55728000  1.0
  C  C154  1  0.96821000  0.59218000  0.65503000  1.0
  C  C155  1  0.03180000  0.34497000  0.40783000  1.0
  C  C156  1  0.03180000  0.40782000  0.34497000  1.0
  C  C157  1  0.96820000  0.65503000  0.59217000  1.0
  C  C158  1  0.90230000  0.62244000  0.62243000  1.0
  C  C159  1  0.09770000  0.37756000  0.37757000  1.0
  C  C160  1  0.30733000  0.15666000  0.76452000  1.0
  C  C161  1  0.69269000  0.23547000  0.84336000  1.0
  C  C162  1  0.69267000  0.84334000  0.23548000  1.0
  C  C163  1  0.30731000  0.76453000  0.15664000  1.0
  C  C164  1  0.21254000  0.56254000  0.82926000  1.0
  C  C165  1  0.78743000  0.17076000  0.43747000  1.0
  C  C166  1  0.78746000  0.43746000  0.17074000  1.0
  C  C167  1  0.21257000  0.82924000  0.56253000  1.0
  C  C168  1  0.27398000  0.53199000  0.91800000  1.0
  C  C169  1  0.72598000  0.08202000  0.46803000  1.0
  C  C170  1  0.72602000  0.46801000  0.08200000  1.0
  C  C171  1  0.27402000  0.91798000  0.53197000  1.0
  C  C172  1  0.19356000  0.55973000  0.88784000  1.0
  C  C173  1  0.80639000  0.11218000  0.44029000  1.0
  C  C174  1  0.80644000  0.44027000  0.11217000  1.0
  C  C175  1  0.19361000  0.88782000  0.55971000  1.0
  C  C176  1  0.95408000  0.42320000  0.77068000  1.0
  C  C177  1  0.04596000  0.22932000  0.57683000  1.0
  C  C178  1  0.04592000  0.57681000  0.22932000  1.0
  C  C179  1  0.95404000  0.77068000  0.42317000  1.0
  C  C180  1  0.23831000  0.30170000  0.73332000  1.0
  C  C181  1  0.76176000  0.26669000  0.69833000  1.0
  C  C182  1  0.76169000  0.69831000  0.26668000  1.0
  C  C183  1  0.23824000  0.73331000  0.30167000  1.0
  C  C184  1  0.50722000  0.48699000  0.80159000  1.0
  C  C185  1  0.49281000  0.19847000  0.51305000  1.0
  C  C186  1  0.49278000  0.51301000  0.19841000  1.0
  C  C187  1  0.50719000  0.80153000  0.48695000  1.0
  C  C188  1  0.31315000  0.53839000  0.80048000  1.0
  C  C189  1  0.68685000  0.19955000  0.46163000  1.0
  C  C190  1  0.68685000  0.46161000  0.19953000  1.0
  C  C191  1  0.31315000  0.80045000  0.53837000  1.0
  C  C192  1  0.17485000  0.26944000  0.81416000  1.0
  C  C193  1  0.82517000  0.18584000  0.73058000  1.0
  C  C194  1  0.82515000  0.73056000  0.18584000  1.0
  C  C195  1  0.17483000  0.81416000  0.26942000  1.0
  C  C196  1  0.36857000  0.18885000  0.68332000  1.0
  C  C197  1  0.63147000  0.31669000  0.81117000  1.0
  C  C198  1  0.63143000  0.81115000  0.31668000  1.0
  C  C199  1  0.36853000  0.68331000  0.18883000  1.0
  C  C200  1  0.43817000  0.13900000  0.66262000  1.0
  C  C201  1  0.56185000  0.33738000  0.86101000  1.0
  C  C202  1  0.56183000  0.86100000  0.33738000  1.0
  C  C203  1  0.43815000  0.66263000  0.13899000  1.0
  C  C204  1  0.39563000  0.51134000  0.83040000  1.0
  C  C205  1  0.60435000  0.16963000  0.48868000  1.0
  C  C206  1  0.60437000  0.48866000  0.16960000  1.0
  C  C207  1  0.39565000  0.83037000  0.51132000  1.0
  C  C208  1  0.10236000  0.31816000  0.83345000  1.0
  C  C209  1  0.89767000  0.16654000  0.68186000  1.0
  C  C210  1  0.89764000  0.68185000  0.16655000  1.0
  C  C211  1  0.10233000  0.83346000  0.31814000  1.0
  C  C212  1  0.09411000  0.35699000  0.80022000  1.0
  C  C213  1  0.90593000  0.19979000  0.64304000  1.0
  C  C214  1  0.90589000  0.64302000  0.19979000  1.0
  C  C215  1  0.09407000  0.80022000  0.35696000  1.0
  C  C216  1  0.95554000  0.42648000  0.86907000  1.0
  C  C217  1  0.04448000  0.13092000  0.57353000  1.0
  C  C218  1  0.04446000  0.57352000  0.13093000  1.0
  C  C219  1  0.95552000  0.86909000  0.42647000  1.0
  C  C220  1  0.30542000  0.20091000  0.73651000  1.0
  C  C221  1  0.69461000  0.26349000  0.79910000  1.0
  C  C222  1  0.69459000  0.79909000  0.26349000  1.0
  C  C223  1  0.30539000  0.73651000  0.20090000  1.0
  C  C224  1  0.16638000  0.35066000  0.75208000  1.0
  C  C225  1  0.83369000  0.24793000  0.64936000  1.0
  C  C226  1  0.83362000  0.64934000  0.24792000  1.0
  C  C227  1  0.16631000  0.75208000  0.35064000  1.0
  C  C228  1  0.37480000  0.50810000  0.88878000  1.0
  C  C229  1  0.62516000  0.11124000  0.49191000  1.0
  C  C230  1  0.62520000  0.49190000  0.11122000  1.0
  C  C231  1  0.37483000  0.88876000  0.50809000  1.0
  C  C232  1  0.23962000  0.25754000  0.76154000  1.0
  C  C233  1  0.76042000  0.23846000  0.74248000  1.0
  C  C234  1  0.76038000  0.74246000  0.23846000  1.0
  C  C235  1  0.23958000  0.76154000  0.25752000  1.0
  N  N236  1  0.87434000  0.46182000  0.86059000  1.0
  N  N237  1  0.12567000  0.13939000  0.53818000  1.0
  N  N238  1  0.12566000  0.53818000  0.13941000  1.0
  N  N239  1  0.87433000  0.86061000  0.46182000  1.0
  N  N240  1  0.66052000  0.99252000  0.63026000  1.0
  N  N241  1  0.33947000  0.36973000  0.00748000  1.0
  N  N242  1  0.33948000  0.00748000  0.36974000  1.0
  N  N243  1  0.66053000  0.63027000  0.99252000  1.0
  N  N244  1  0.87307000  0.45906000  0.79844000  1.0
  N  N245  1  0.12695000  0.20155000  0.54096000  1.0
  N  N246  1  0.12693000  0.54094000  0.20156000  1.0
  N  N247  1  0.87305000  0.79845000  0.45904000  1.0
  N  N248  1  0.52760000  0.05308000  0.67904000  1.0
  N  N249  1  0.47240000  0.32095000  0.94692000  1.0
  N  N250  1  0.47240000  0.94692000  0.32096000  1.0
  N  N251  1  0.52760000  0.67905000  0.05308000  1.0
  N  N252  1  0.00853000  0.40110000  0.81347000  1.0
  N  N253  1  0.99151000  0.18653000  0.59892000  1.0
  N  N254  1  0.99147000  0.59890000  0.18653000  1.0
  N  N255  1  0.00849000  0.81348000  0.40108000  1.0
  N  N256  1  0.66466000  0.99310000  0.69199000  1.0
  N  N257  1  0.33534000  0.30800000  0.00690000  1.0
  N  N258  1  0.33534000  0.00690000  0.30801000  1.0
  N  N259  1  0.66466000  0.69200000  0.99310000  1.0
  O  O260  1  0.97877000  0.61135000  0.01074000  1.0
  O  O261  1  0.02121000  0.98927000  0.38867000  1.0
  O  O262  1  0.02123000  0.38865000  0.98926000  1.0
  O  O263  1  0.97878000  0.01073000  0.61133000  1.0
  O  O264  1  0.15025000  0.54189000  0.00096000  1.0
  O  O265  1  0.84972000  0.99907000  0.45813000  1.0
  O  O266  1  0.84975000  0.45811000  0.99904000  1.0
  O  O267  1  0.15028000  0.00093000  0.54187000  1.0
  O  O268  1  0.64954000  0.38955000  0.66691000  1.0
  O  O269  1  0.35073000  0.33314000  0.61042000  1.0
  O  O270  1  0.35047000  0.61045000  0.33309000  1.0
  O  O271  1  0.64928000  0.66686000  0.38958000  1.0
  O  O272  1  0.32249000  0.49726000  0.00236000  1.0
  O  O273  1  0.67744000  0.99764000  0.50273000  1.0
  O  O274  1  0.67752000  0.50274000  0.99764000  1.0
  O  O275  1  0.32256000  0.00236000  0.49727000  1.0
  O  O276  1  0.95299000  0.52288000  0.70945000  1.0
  O  O277  1  0.04695000  0.29050000  0.47708000  1.0
  O  O278  1  0.04701000  0.47712000  0.29055000  1.0
  O  O279  1  0.95305000  0.70950000  0.52292000  1.0
  O  O280  1  0.78220000  0.56521000  0.69298000  1.0
  O  O281  1  0.21783000  0.30704000  0.43483000  1.0
  O  O282  1  0.21781000  0.43479000  0.30702000  1.0
  O  O283  1  0.78217000  0.69295000  0.56517000  1.0
  O  O284  1  0.51914000  0.48608000  0.74536000  1.0
  O  O285  1  0.48100000  0.25476000  0.51406000  1.0
  O  O286  1  0.48086000  0.51393000  0.25464000  1.0
  O  O287  1  0.51901000  0.74525000  0.48595000  1.0
  O  O288  1  0.82381000  0.59631000  0.86996000  1.0
  O  O289  1  0.17618000  0.13000000  0.40365000  1.0
  O  O290  1  0.17619000  0.40369000  0.13004000  1.0
  O  O291  1  0.82382000  0.87000000  0.59635000  1.0
  O  O292  1  0.58609000  0.46918000  0.83473000  1.0
  O  O293  1  0.41385000  0.16531000  0.53080000  1.0
  O  O294  1  0.41391000  0.53081000  0.16527000  1.0
  O  O295  1  0.58615000  0.83469000  0.46920000  1.0
