# generated using pymatgen
data_ZnH9C31N2Cl7O11
_symmetry_space_group_name_H-M   'P 1'
_cell_length_a   14.55760000
_cell_length_b   15.19860000
_cell_length_c   27.77100000
_cell_angle_alpha   92.37870000
_cell_angle_beta   89.83410000
_cell_angle_gamma   89.63030000
_symmetry_Int_Tables_number   1
_chemical_formula_structural   ZnH9C31N2Cl7O11
_chemical_formula_sum   'Zn2 H18 C62 N4 Cl14 O22'
_cell_volume   6139.02338518
_cell_formula_units_Z   2
loop_
 _symmetry_equiv_pos_site_id
 _symmetry_equiv_pos_as_xyz
  1  'x, y, z'
loop_
 _atom_site_type_symbol
 _atom_site_label
 _atom_site_symmetry_multiplicity
 _atom_site_fract_x
 _atom_site_fract_y
 _atom_site_fract_z
 _atom_site_occupancy
  Zn  Zn0  1  0.39783000  0.50095000  0.49980000  1.0
  Zn  Zn1  1  0.60756000  0.50272000  0.49938000  1.0
  H  H2  1  0.60906000  0.44247000  0.73905000  1.0
  H  H3  1  0.60212000  0.54960000  0.25782000  1.0
  H  H4  1  0.26974000  0.46406000  0.03303000  1.0
  H  H5  1  0.72887000  0.51303000  0.96701000  1.0
  H  H6  1  0.47732000  0.07535000  0.57457000  1.0
  H  H7  1  0.56032000  0.95020000  0.57850000  1.0
  H  H8  1  0.48205000  0.93227000  0.42822000  1.0
  H  H9  1  0.57311000  0.05057000  0.42696000  1.0
  H  H10  1  0.01115000  0.43828000  0.42216000  1.0
  H  H11  1  0.99258000  0.64747000  0.48061000  1.0
  H  H12  1  0.01043000  0.56372000  0.57602000  1.0
  H  H13  1  0.99459000  0.35504000  0.51731000  1.0
  H  H14  1  0.35340000  0.30199000  0.27952000  1.0
  H  H15  1  0.33052000  0.66563000  0.72681000  1.0
  H  H16  1  0.20319000  0.44218000  0.10101000  1.0
  H  H17  1  0.79316000  0.54973000  0.90196000  1.0
  H  H18  1  0.61270000  0.43707000  0.61225000  1.0
  H  H19  1  0.60546000  0.57117000  0.38467000  1.0
  C  C20  1  0.53318000  0.33510000  0.49531000  1.0
  C  C21  1  0.52505000  0.66871000  0.50605000  1.0
  C  C22  1  0.47725000  0.49487000  0.40757000  1.0
  C  C23  1  0.47633000  0.50331000  0.59215000  1.0
  C  C24  1  0.41531000  0.46215000  0.18027000  1.0
  C  C25  1  0.57912000  0.55437000  0.82216000  1.0
  C  C26  1  0.58191000  0.41880000  0.17871000  1.0
  C  C27  1  0.41383000  0.51011000  0.82151000  1.0
  C  C28  1  0.55464000  0.51007000  0.27804000  1.0
  C  C29  1  0.55619000  0.47899000  0.72060000  1.0
  C  C30  1  0.55156000  0.52115000  0.32821000  1.0
  C  C31  1  0.55395000  0.47409000  0.67027000  1.0
  C  C32  1  0.43205000  0.41090000  0.33005000  1.0
  C  C33  1  0.42127000  0.57143000  0.67263000  1.0
  C  C34  1  0.44008000  0.39456000  0.28017000  1.0
  C  C35  1  0.42765000  0.58197000  0.72286000  1.0
  C  C36  1  0.49915000  0.44846000  0.25440000  1.0
  C  C37  1  0.49367000  0.53150000  0.74655000  1.0
  C  C38  1  0.50011000  0.45180000  0.10114000  1.0
  C  C39  1  0.49835000  0.52012000  0.89958000  1.0
  C  C40  1  0.41595000  0.45430000  0.12741000  1.0
  C  C41  1  0.58115000  0.53440000  0.87381000  1.0
  C  C42  1  0.33361000  0.45365000  0.10153000  1.0
  C  C43  1  0.66326000  0.53485000  0.90005000  1.0
  C  C44  1  0.58302000  0.43060000  0.12554000  1.0
  C  C45  1  0.41353000  0.52405000  0.87461000  1.0
  C  C46  1  0.48593000  0.47441000  0.35494000  1.0
  C  C47  1  0.48266000  0.51728000  0.64534000  1.0
  C  C48  1  0.41325000  0.50617000  0.97618000  1.0
  C  C49  1  0.58550000  0.46440000  0.02410000  1.0
  C  C50  1  0.58384000  0.49124000  0.97382000  1.0
  C  C51  1  0.41537000  0.48292000  0.02677000  1.0
  C  C52  1  0.49772000  0.50355000  0.94989000  1.0
  C  C53  1  0.50122000  0.46846000  0.05070000  1.0
  C  C54  1  0.33429000  0.53595000  0.95197000  1.0
  C  C55  1  0.66309000  0.43048000  0.04755000  1.0
  C  C56  1  0.33273000  0.53781000  0.90098000  1.0
  C  C57  1  0.66299000  0.41649000  0.09795000  1.0
  C  C58  1  0.33503000  0.46603000  0.05185000  1.0
  C  C59  1  0.66300000  0.51241000  0.94873000  1.0
  C  C60  1  0.50071000  0.10415000  0.54147000  1.0
  C  C61  1  0.54219000  0.91187000  0.54595000  1.0
  C  C62  1  0.50045000  0.90184000  0.46169000  1.0
  C  C63  1  0.55232000  0.09038000  0.45868000  1.0
  C  C64  1  0.50414000  0.19543000  0.53927000  1.0
  C  C65  1  0.54151000  0.82030000  0.54692000  1.0
  C  C66  1  0.50049000  0.81044000  0.46334000  1.0
  C  C67  1  0.55504000  0.18180000  0.45711000  1.0
  C  C68  1  0.53159000  0.23637000  0.49726000  1.0
  C  C69  1  0.52201000  0.76763000  0.50565000  1.0
  C  C70  1  0.52503000  0.05055000  0.50106000  1.0
  C  C71  1  0.52232000  0.95358000  0.50302000  1.0
  C  C72  1  0.90258000  0.46735000  0.45891000  1.0
  C  C73  1  0.10159000  0.57849000  0.48913000  1.0
  C  C74  1  0.90220000  0.53769000  0.53904000  1.0
  C  C75  1  0.10259000  0.42420000  0.50858000  1.0
  C  C76  1  0.80588000  0.46976000  0.46048000  1.0
  C  C77  1  0.19825000  0.57491000  0.48856000  1.0
  C  C78  1  0.80553000  0.53818000  0.53713000  1.0
  C  C79  1  0.19921000  0.42785000  0.50881000  1.0
  C  C80  1  0.95131000  0.50182000  0.49905000  1.0
  C  C81  1  0.05316000  0.50138000  0.49899000  1.0
  N  N82  1  0.49909000  0.44136000  0.20270000  1.0
  N  N83  1  0.49513000  0.53459000  0.79816000  1.0
  N  N84  1  0.76011000  0.50456000  0.49875000  1.0
  N  N85  1  0.24440000  0.50146000  0.49879000  1.0
  Cl  Cl86  1  0.35555000  0.34421000  0.35941000  1.0
  Cl  Cl87  1  0.33688000  0.63439000  0.64612000  1.0
  Cl  Cl88  1  0.47372000  0.25904000  0.59006000  1.0
  Cl  Cl89  1  0.56512000  0.77073000  0.60062000  1.0
  Cl  Cl90  1  0.47428000  0.74872000  0.41140000  1.0
  Cl  Cl91  1  0.58696000  0.22848000  0.40376000  1.0
  Cl  Cl92  1  0.74676000  0.42835000  0.41191000  1.0
  Cl  Cl93  1  0.25723000  0.66633000  0.47382000  1.0
  Cl  Cl94  1  0.74599000  0.58223000  0.58529000  1.0
  Cl  Cl95  1  0.25989000  0.33612000  0.52239000  1.0
  Cl  Cl96  1  0.23194000  0.56268000  0.87276000  1.0
  Cl  Cl97  1  0.76351000  0.38127000  0.12280000  1.0
  Cl  Cl98  1  0.23811000  0.57814000  0.98169000  1.0
  Cl  Cl99  1  0.76073000  0.39582000  0.01639000  1.0
  O  O100  1  0.45626000  0.37319000  0.49334000  1.0
  O  O101  1  0.60507000  0.63414000  0.50445000  1.0
  O  O102  1  0.44917000  0.62949000  0.50754000  1.0
  O  O103  1  0.61215000  0.37103000  0.49588000  1.0
  O  O104  1  0.39860000  0.49322000  0.42739000  1.0
  O  O105  1  0.55287000  0.48936000  0.56973000  1.0
  O  O106  1  0.39796000  0.50331000  0.57213000  1.0
  O  O107  1  0.55197000  0.51605000  0.42967000  1.0
  O  O108  1  0.34907000  0.48857000  0.20429000  1.0
  O  O109  1  0.64451000  0.58305000  0.79988000  1.0
  O  O110  1  0.34960000  0.47689000  0.79901000  1.0
  O  O111  1  0.64802000  0.39409000  0.20205000  1.0
  O  O112  1  0.94451000  0.43245000  0.41893000  1.0
  O  O113  1  0.05924000  0.65540000  0.47980000  1.0
  O  O114  1  0.94385000  0.57160000  0.57908000  1.0
  O  O115  1  0.06135000  0.34716000  0.51784000  1.0
  O  O116  1  0.39316000  0.32965000  0.25599000  1.0
  O  O117  1  0.37309000  0.63869000  0.74932000  1.0
  O  O118  1  0.25287000  0.44081000  0.12445000  1.0
  O  O119  1  0.74368000  0.55507000  0.87863000  1.0
  O  O120  1  0.61969000  0.42494000  0.64708000  1.0
  O  O121  1  0.61032000  0.57976000  0.34942000  1.0
