# generated using pymatgen
data_ZnHC6O7
_symmetry_space_group_name_H-M   'P 1'
_cell_length_a   6.89885000
_cell_length_b   15.15920000
_cell_length_c   15.16080000
_cell_angle_alpha   117.72600000
_cell_angle_beta   98.71850000
_cell_angle_gamma   98.72760000
_symmetry_Int_Tables_number   1
_chemical_formula_structural   ZnHC6O7
_chemical_formula_sum   'Zn6 H6 C36 O42'
_cell_volume   1341.76337653
_cell_formula_units_Z   6
loop_
 _symmetry_equiv_pos_site_id
 _symmetry_equiv_pos_as_xyz
  1  'x, y, z'
loop_
 _atom_site_type_symbol
 _atom_site_label
 _atom_site_symmetry_multiplicity
 _atom_site_fract_x
 _atom_site_fract_y
 _atom_site_fract_z
 _atom_site_occupancy
  Zn  Zn0  1  0.47280000  0.26209000  0.58945000  1.0
  Zn  Zn1  1  0.21065000  0.32724000  0.73795000  1.0
  Zn  Zn2  1  0.88347000  0.41061000  0.67278000  1.0
  Zn  Zn3  1  0.52720000  0.73791000  0.41055000  1.0
  Zn  Zn4  1  0.78935000  0.67276000  0.26205000  1.0
  Zn  Zn5  1  0.11653000  0.58939000  0.32722000  1.0
  H  H6  1  0.81379000  0.44546000  0.46971000  1.0
  H  H7  1  0.36821000  0.02415000  0.55474000  1.0
  H  H8  1  0.34400000  0.53047000  0.97571000  1.0
  H  H9  1  0.18620000  0.55454000  0.53029000  1.0
  H  H10  1  0.63179000  0.97584000  0.44527000  1.0
  H  H11  1  0.65600000  0.46952000  0.02429000  1.0
  C  C12  1  0.24696000  0.43340000  0.60480000  1.0
  C  C13  1  0.81349000  0.17137000  0.56656000  1.0
  C  C14  1  0.64208000  0.39508000  0.82866000  1.0
  C  C15  1  0.75304000  0.56660000  0.39520000  1.0
  C  C16  1  0.18651000  0.82863000  0.43344000  1.0
  C  C17  1  0.35791000  0.60492000  0.17134000  1.0
  C  C18  1  0.56038000  0.43029000  0.53178000  1.0
  C  C19  1  0.13001000  0.10144000  0.56980000  1.0
  C  C20  1  0.02852000  0.46827000  0.89856000  1.0
  C  C21  1  0.43961000  0.56970000  0.46822000  1.0
  C  C22  1  0.86998000  0.89856000  0.43020000  1.0
  C  C23  1  0.97147000  0.53174000  0.10144000  1.0
  C  C24  1  0.18786000  0.09241000  0.33589000  1.0
  C  C25  1  0.09592000  0.24341000  0.90756000  1.0
  C  C26  1  0.85295000  0.66404000  0.75676000  1.0
  C  C27  1  0.81213000  0.90759000  0.66411000  1.0
  C  C28  1  0.90408000  0.75659000  0.09243000  1.0
  C  C29  1  0.14706000  0.33596000  0.24326000  1.0
  C  C30  1  0.37983000  0.46354000  0.54985000  1.0
  C  C31  1  0.91631000  0.08632000  0.53640000  1.0
  C  C32  1  0.82994000  0.45007000  0.91372000  1.0
  C  C33  1  0.62016000  0.53646000  0.45015000  1.0
  C  C34  1  0.08369000  0.91369000  0.46360000  1.0
  C  C35  1  0.17006000  0.54993000  0.08627000  1.0
  C  C36  1  0.67445000  0.46899000  0.48274000  1.0
  C  C37  1  0.20538000  0.01372000  0.53119000  1.0
  C  C38  1  0.19166000  0.51739000  0.98623000  1.0
  C  C39  1  0.32554000  0.53101000  0.51726000  1.0
  C  C40  1  0.79461000  0.98628000  0.46881000  1.0
  C  C41  1  0.80834000  0.48261000  0.01377000  1.0
  C  C42  1  0.29472000  0.79019000  0.66377000  1.0
  C  C43  1  0.50483000  0.87418000  0.21038000  1.0
  C  C44  1  0.63062000  0.33608000  0.12575000  1.0
  C  C45  1  0.70528000  0.20981000  0.33624000  1.0
  C  C46  1  0.49517000  0.12583000  0.78962000  1.0
  C  C47  1  0.36939000  0.66392000  0.87424000  1.0
  O  O48  1  0.28949000  0.36920000  0.63255000  1.0
  O  O49  1  0.92019000  0.26323000  0.63091000  1.0
  O  O50  1  0.65701000  0.36739000  0.73678000  1.0
  O  O51  1  0.71050000  0.63080000  0.36745000  1.0
  O  O52  1  0.07981000  0.73677000  0.36909000  1.0
  O  O53  1  0.34299000  0.63261000  0.26322000  1.0
  O  O54  1  0.63047000  0.36530000  0.55842000  1.0
  O  O55  1  0.26512000  0.19304000  0.63485000  1.0
  O  O56  1  0.07208000  0.44169000  0.80695000  1.0
  O  O57  1  0.36953000  0.63469000  0.44158000  1.0
  O  O58  1  0.73488000  0.80697000  0.36515000  1.0
  O  O59  1  0.92792000  0.55831000  0.19305000  1.0
  O  O60  1  0.24810000  0.17350000  0.41138000  1.0
  O  O61  1  0.07332000  0.23800000  0.82651000  1.0
  O  O62  1  0.83738000  0.58863000  0.76255000  1.0
  O  O63  1  0.75190000  0.82649000  0.58862000  1.0
  O  O64  1  0.92668000  0.76200000  0.17348000  1.0
  O  O65  1  0.16263000  0.41138000  0.23745000  1.0
  O  O66  1  0.62378000  0.15153000  0.52739000  1.0
  O  O67  1  0.47218000  0.37581000  0.84853000  1.0
  O  O68  1  0.09630000  0.47251000  0.62402000  1.0
  O  O69  1  0.37622000  0.84847000  0.47261000  1.0
  O  O70  1  0.52782000  0.62419000  0.15148000  1.0
  O  O71  1  0.90369000  0.52749000  0.37598000  1.0
  O  O72  1  0.12703000  0.01205000  0.26020000  1.0
  O  O73  1  0.11729000  0.24788000  0.98789000  1.0
  O  O74  1  0.86815000  0.73965000  0.75187000  1.0
  O  O75  1  0.87297000  0.98795000  0.73979000  1.0
  O  O76  1  0.88271000  0.75213000  0.01210000  1.0
  O  O77  1  0.13186000  0.26036000  0.24815000  1.0
  O  O78  1  0.13434000  0.76579000  0.60783000  1.0
  O  O79  1  0.36848000  0.84274000  0.23467000  1.0
  O  O80  1  0.52608000  0.39186000  0.15773000  1.0
  O  O81  1  0.86566000  0.23421000  0.39217000  1.0
  O  O82  1  0.63152000  0.15726000  0.76533000  1.0
  O  O83  1  0.47393000  0.60814000  0.84226000  1.0
  O  O84  1  0.45429000  0.81528000  0.72099000  1.0
  O  O85  1  0.63964000  0.90623000  0.18539000  1.0
  O  O86  1  0.73298000  0.27898000  0.09316000  1.0
  O  O87  1  0.54572000  0.18472000  0.27901000  1.0
  O  O88  1  0.36036000  0.09378000  0.81461000  1.0
  O  O89  1  0.26703000  0.72102000  0.90684000  1.0
