# generated using pymatgen
data_CdH14C12(N4O)2
_symmetry_space_group_name_H-M   'P 1'
_cell_length_a   8.87045000
_cell_length_b   12.83990000
_cell_length_c   15.19800000
_cell_angle_alpha   68.44370000
_cell_angle_beta   77.25560000
_cell_angle_gamma   73.54080000
_symmetry_Int_Tables_number   1
_chemical_formula_structural   CdH14C12(N4O)2
_chemical_formula_sum   'Cd4 H56 C48 N32 O8'
_cell_volume   1530.71798758
_cell_formula_units_Z   4
loop_
 _symmetry_equiv_pos_site_id
 _symmetry_equiv_pos_as_xyz
  1  'x, y, z'
loop_
 _atom_site_type_symbol
 _atom_site_label
 _atom_site_symmetry_multiplicity
 _atom_site_fract_x
 _atom_site_fract_y
 _atom_site_fract_z
 _atom_site_occupancy
  Cd  Cd0  1  0.38898000  0.99766000  0.61378000  1.0
  Cd  Cd1  1  0.61102000  0.00234000  0.38622000  1.0
  Cd  Cd2  1  0.16326000  0.98674000  0.84378000  1.0
  Cd  Cd3  1  0.83674000  0.01326000  0.15623000  1.0
  H  H4  1  0.67093000  0.97839000  0.71839000  1.0
  H  H5  1  0.32907000  0.02161000  0.28161000  1.0
  H  H6  1  0.85756000  0.83405000  0.83002000  1.0
  H  H7  1  0.14244000  0.16594000  0.16998000  1.0
  H  H8  1  0.69729000  0.56913000  0.78907000  1.0
  H  H9  1  0.30271000  0.43087000  0.21093000  1.0
  H  H10  1  0.51958000  0.72279000  0.67979000  1.0
  H  H11  1  0.48042000  0.27721000  0.32021000  1.0
  H  H12  1  0.02339000  0.61277000  0.85904000  1.0
  H  H13  1  0.97661000  0.38723000  0.14096000  1.0
  H  H14  1  0.87299000  0.62254000  0.95506000  1.0
  H  H15  1  0.12701000  0.37746000  0.04494000  1.0
  H  H16  1  0.12298000  0.03935000  0.48793000  1.0
  H  H17  1  0.87702000  0.96065000  0.51207000  1.0
  H  H18  1  0.92739000  0.19690000  0.39003000  1.0
  H  H19  1  0.07261000  0.80311000  0.60997000  1.0
  H  H20  1  0.07757000  0.43496000  0.47371000  1.0
  H  H21  1  0.92243000  0.56504000  0.52629000  1.0
  H  H22  1  0.26051000  0.26931000  0.56981000  1.0
  H  H23  1  0.73949000  0.73069000  0.43019000  1.0
  H  H24  1  0.93009000  0.44620000  0.28662000  1.0
  H  H25  1  0.06990000  0.55380000  0.71338000  1.0
  H  H26  1  0.76543000  0.40102000  0.36708000  1.0
  H  H27  1  0.23456000  0.59899000  0.63292000  1.0
  H  H28  1  0.46661000  0.95330000  0.93140000  1.0
  H  H29  1  0.53338000  0.04670000  0.06860000  1.0
  H  H30  1  0.65461000  0.80711000  0.04081000  1.0
  H  H31  1  0.34539000  0.19289000  0.95919000  1.0
  H  H32  1  0.40334000  0.55494000  0.05861000  1.0
  H  H33  1  0.59666000  0.44506000  0.94139000  1.0
  H  H34  1  0.22253000  0.71149000  0.95298000  1.0
  H  H35  1  0.77747000  0.28851000  0.04702000  1.0
  H  H36  1  0.59352000  0.54021000  0.19308000  1.0
  H  H37  1  0.40648000  0.45979000  0.80692000  1.0
  H  H38  1  0.70918000  0.50283000  0.09400000  1.0
  H  H39  1  0.29082000  0.49717000  0.90600000  1.0
  H  H40  1  0.91694000  0.04397000  0.70481000  1.0
  H  H41  1  0.08306000  0.95603000  0.29520000  1.0
  H  H42  1  0.71038000  0.20479000  0.61716000  1.0
  H  H43  1  0.28962000  0.79521000  0.38284000  1.0
  H  H44  1  0.81115000  0.42074000  0.74673000  1.0
  H  H45  1  0.18885000  0.57926000  0.25327000  1.0
  H  H46  1  0.00882000  0.25062000  0.83151000  1.0
  H  H47  1  0.99118000  0.74938000  0.16849000  1.0
  H  H48  1  0.68335000  0.45757000  0.54503000  1.0
  H  H49  1  0.31665000  0.54243000  0.45497000  1.0
  H  H50  1  0.52465000  0.39405000  0.61752000  1.0
  H  H51  1  0.47535000  0.60595000  0.38248000  1.0
  H  H52  1  0.00129000  0.44219000  0.89731000  1.0
  H  H53  1  0.99872000  0.55781000  0.10269000  1.0
  H  H54  1  0.78291000  0.59209000  0.34543000  1.0
  H  H55  1  0.21709000  0.40791000  0.65457000  1.0
  H  H56  1  0.75287000  0.65891000  0.17466000  1.0
  H  H57  1  0.24713000  0.34109000  0.82534000  1.0
  H  H58  1  0.52719000  0.58403000  0.61440000  1.0
  H  H59  1  0.47281000  0.41597000  0.38560000  1.0
  C  C60  1  0.68215000  0.88649000  0.73545000  1.0
  C  C61  1  0.31785000  0.11351000  0.26455000  1.0
  C  C62  1  0.78519000  0.80594000  0.79729000  1.0
  C  C63  1  0.21481000  0.19406000  0.20271000  1.0
  C  C64  1  0.79237000  0.68856000  0.81936000  1.0
  C  C65  1  0.20763000  0.31144000  0.18064000  1.0
  C  C66  1  0.69603000  0.65858000  0.77558000  1.0
  C  C67  1  0.30397000  0.34142000  0.22442000  1.0
  C  C68  1  0.59626000  0.74472000  0.71389000  1.0
  C  C69  1  0.40374000  0.25527000  0.28612000  1.0
  C  C70  1  0.90154000  0.60130000  0.88817000  1.0
  C  C71  1  0.09846000  0.39870000  0.11183000  1.0
  C  C72  1  0.10701000  0.12853000  0.48340000  1.0
  C  C73  1  0.89299000  0.87147000  0.51660000  1.0
  C  C74  1  0.99979000  0.21661000  0.42857000  1.0
  C  C75  1  0.00021000  0.78340000  0.57143000  1.0
  C  C76  1  0.98665000  0.33030000  0.42286000  1.0
  C  C77  1  0.01335000  0.66971000  0.57714000  1.0
  C  C78  1  0.08216000  0.34906000  0.47488000  1.0
  C  C79  1  0.91784000  0.65094000  0.52512000  1.0
  C  C80  1  0.18526000  0.25615000  0.52898000  1.0
  C  C81  1  0.81474000  0.74385000  0.47102000  1.0
  C  C82  1  0.87545000  0.42796000  0.36201000  1.0
  C  C83  1  0.12455000  0.57204000  0.63799000  1.0
  C  C84  1  0.45772000  0.86361000  0.96126000  1.0
  C  C85  1  0.54228000  0.13639000  0.03874000  1.0
  C  C86  1  0.56258000  0.78164000  0.02168000  1.0
  C  C87  1  0.43742000  0.21836000  0.97832000  1.0
  C  C88  1  0.54808000  0.66742000  0.05749000  1.0
  C  C89  1  0.45192000  0.33258000  0.94251000  1.0
  C  C90  1  0.42390000  0.64166000  0.03188000  1.0
  C  C91  1  0.57610000  0.35834000  0.96812000  1.0
  C  C92  1  0.32218000  0.72866000  0.97225000  1.0
  C  C93  1  0.67782000  0.27134000  0.02775000  1.0
  C  C94  1  0.66014000  0.57484000  0.12225000  1.0
  C  C95  1  0.33986000  0.42516000  0.87775000  1.0
  C  C96  1  0.88762000  0.12890000  0.71261000  1.0
  C  C97  1  0.11238000  0.87110000  0.28739000  1.0
  C  C98  1  0.77449000  0.21829000  0.66399000  1.0
  C  C99  1  0.22551000  0.78171000  0.33601000  1.0
  C  C100  1  0.74433000  0.32668000  0.67450000  1.0
  C  C101  1  0.25567000  0.67332000  0.32550000  1.0
  C  C102  1  0.82968000  0.33865000  0.73597000  1.0
  C  C103  1  0.17032000  0.66135000  0.26403000  1.0
  C  C104  1  0.94009000  0.24467000  0.78298000  1.0
  C  C105  1  0.05991000  0.75533000  0.21702000  1.0
  C  C106  1  0.62701000  0.42551000  0.61961000  1.0
  C  C107  1  0.37299000  0.57449000  0.38039000  1.0
  N  N108  1  0.40845000  0.90781000  0.49542000  1.0
  N  N109  1  0.59154000  0.09219000  0.50458000  1.0
  N  N110  1  0.42127000  0.80702000  0.51182000  1.0
  N  N111  1  0.57873000  0.19298000  0.48818000  1.0
  N  N112  1  0.43094000  0.70968000  0.52509000  1.0
  N  N113  1  0.56906000  0.29032000  0.47491000  1.0
  N  N114  1  0.19261000  0.90705000  0.72051000  1.0
  N  N115  1  0.80739000  0.09295000  0.27949000  1.0
  N  N116  1  0.20788000  0.80398000  0.74581000  1.0
  N  N117  1  0.79212000  0.19602000  0.25419000  1.0
  N  N118  1  0.22012000  0.70507000  0.76920000  1.0
  N  N119  1  0.77988000  0.29493000  0.23080000  1.0
  N  N120  1  0.37153000  0.08814000  0.73338000  1.0
  N  N121  1  0.62847000  0.91186000  0.26662000  1.0
  N  N122  1  0.35332000  0.18393000  0.73282000  1.0
  N  N123  1  0.64668000  0.81607000  0.26718000  1.0
  N  N124  1  0.33681000  0.27786000  0.73343000  1.0
  N  N125  1  0.66319000  0.72214000  0.26657000  1.0
  N  N126  1  0.97062000  0.87791000  0.92542000  1.0
  N  N127  1  0.02938000  0.12209000  0.07458000  1.0
  N  N128  1  0.89357000  0.89257000  0.99590000  1.0
  N  N129  1  0.10643000  0.10743000  0.00410000  1.0
  N  N130  1  0.81253000  0.90345000  0.06657000  1.0
  N  N131  1  0.18747000  0.09655000  0.93343000  1.0
  N  N132  1  0.58731000  0.85723000  0.69439000  1.0
  N  N133  1  0.41269000  0.14277000  0.30561000  1.0
  N  N134  1  0.19923000  0.14729000  0.53317000  1.0
  N  N135  1  0.80077000  0.85271000  0.46683000  1.0
  N  N136  1  0.33933000  0.83828000  0.93649000  1.0
  N  N137  1  0.66068000  0.16172000  0.06351000  1.0
  N  N138  1  0.96988000  0.14135000  0.77149000  1.0
  N  N139  1  0.03012000  0.85865000  0.22851000  1.0
  O  O140  1  0.89135000  0.48630000  0.90663000  1.0
  O  O141  1  0.10865000  0.51370000  0.09337000  1.0
  O  O142  1  0.84517000  0.52623000  0.39112000  1.0
  O  O143  1  0.15483000  0.47377000  0.60888000  1.0
  O  O144  1  0.79145000  0.61260000  0.13101000  1.0
  O  O145  1  0.20855000  0.38740000  0.86899000  1.0
  O  O146  1  0.57936000  0.51410000  0.66187000  1.0
  O  O147  1  0.42064000  0.48590000  0.33813000  1.0
