# generated using pymatgen
data_CuH7C13O5
_symmetry_space_group_name_H-M   'P 1'
_cell_length_a   18.80910000
_cell_length_b   18.80910000
_cell_length_c   21.19731142
_cell_angle_alpha   90.03943698
_cell_angle_beta   116.29733887
_cell_angle_gamma   119.99680000
_symmetry_Int_Tables_number   1
_chemical_formula_structural   CuH7C13O5
_chemical_formula_sum   'Cu6 H42 C78 O30'
_cell_volume   5579.08515218
_cell_formula_units_Z   6
loop_
 _symmetry_equiv_pos_site_id
 _symmetry_equiv_pos_as_xyz
  1  'x, y, z'
loop_
 _atom_site_type_symbol
 _atom_site_label
 _atom_site_symmetry_multiplicity
 _atom_site_fract_x
 _atom_site_fract_y
 _atom_site_fract_z
 _atom_site_occupancy
  Cu  Cu0  1  0.44040000  0.93621000  0.94452000  1.0
  Cu  Cu1  1  0.44037000  0.50414000  0.94451000  1.0
  Cu  Cu2  1  0.00831000  0.50412000  0.94452000  1.0
  Cu  Cu3  1  0.55961000  0.06379000  0.05547000  1.0
  Cu  Cu4  1  0.99168000  0.49587000  0.05547000  1.0
  Cu  Cu5  1  0.55963000  0.49586000  0.05549000  1.0
  H  H6  1  0.73917000  0.98464000  0.19485000  1.0
  H  H7  1  0.94834000  0.08888000  0.43230000  1.0
  H  H8  1  0.29855000  0.86954000  0.80921000  1.0
  H  H9  1  0.44007000  0.45580000  0.19509000  1.0
  H  H10  1  0.57219000  0.48351000  0.43180000  1.0
  H  H11  1  0.38051000  0.51065000  0.80926000  1.0
  H  H12  1  0.21027000  0.75493000  0.19485000  1.0
  H  H13  1  0.34308000  0.85965000  0.43199000  1.0
  H  H14  1  0.93957000  0.42869000  0.80932000  1.0
  H  H15  1  0.56007000  0.01541000  0.80514000  1.0
  H  H16  1  0.42764000  0.91108000  0.56798000  1.0
  H  H17  1  0.61937000  0.13024000  0.19068000  1.0
  H  H18  1  0.78980000  0.54433000  0.80516000  1.0
  H  H19  1  0.65659000  0.51606000  0.56772000  1.0
  H  H20  1  0.06033000  0.48934000  0.19078000  1.0
  H  H21  1  0.26069000  0.24497000  0.80492000  1.0
  H  H22  1  0.05171000  0.14040000  0.56821000  1.0
  H  H23  1  0.70140000  0.57124000  0.19074000  1.0
  H  H24  1  0.26083000  0.01536000  0.80516000  1.0
  H  H25  1  0.05167000  0.91113000  0.56772000  1.0
  H  H26  1  0.70144000  0.13045000  0.19079000  1.0
  H  H27  1  0.55995000  0.54423000  0.80492000  1.0
  H  H28  1  0.42780000  0.51650000  0.56820000  1.0
  H  H29  1  0.61950000  0.48934000  0.19074000  1.0
  H  H30  1  0.78972000  0.24507000  0.80513000  1.0
  H  H31  1  0.65690000  0.14034000  0.56799000  1.0
  H  H32  1  0.06043000  0.57131000  0.19068000  1.0
  H  H33  1  0.43993000  0.98458000  0.19485000  1.0
  H  H34  1  0.57235000  0.08892000  0.43200000  1.0
  H  H35  1  0.38063000  0.86975000  0.80932000  1.0
  H  H36  1  0.21021000  0.45568000  0.19485000  1.0
  H  H37  1  0.34342000  0.48395000  0.43229000  1.0
  H  H38  1  0.93967000  0.51066000  0.80921000  1.0
  H  H39  1  0.73929000  0.75501000  0.19509000  1.0
  H  H40  1  0.94829000  0.85961000  0.43180000  1.0
  H  H41  1  0.29861000  0.42875000  0.80926000  1.0
  H  H42  1  0.53108000  0.76542000  0.00370000  1.0
  H  H43  1  0.23828000  0.47262000  0.00370000  1.0
  H  H44  1  0.23784000  0.76562000  0.00346000  1.0
  H  H45  1  0.76215000  0.23437000  0.99652000  1.0
  H  H46  1  0.76171000  0.52738000  0.99630000  1.0
  H  H47  1  0.46892000  0.23459000  0.99630000  1.0
  C  C48  1  0.58697000  0.92672000  0.05859000  1.0
  C  C49  1  0.63227000  0.88050000  0.09526000  1.0
  C  C50  1  0.71016000  0.91970000  0.16710000  1.0
  C  C51  1  0.97123000  0.05023000  0.46223000  1.0
  C  C52  1  0.39839000  0.47160000  0.05867000  1.0
  C  C53  1  0.34347000  0.46301000  0.09533000  1.0
  C  C54  1  0.37638000  0.45699000  0.16719000  1.0
  C  C55  1  0.54081000  0.49072000  0.46192000  1.0
  C  C56  1  0.13167000  0.66037000  0.05850000  1.0
  C  C57  1  0.21450000  0.75197000  0.09511000  1.0
  C  C58  1  0.24733000  0.79081000  0.16702000  1.0
  C  C59  1  0.41179000  0.92111000  0.46204000  1.0
  C  C60  1  0.60187000  0.07317000  0.94149000  1.0
  C  C61  1  0.65684000  0.11938000  0.90486000  1.0
  C  C62  1  0.62378000  0.08030000  0.83297000  1.0
  C  C63  1  0.45905000  0.94975000  0.53794000  1.0
  C  C64  1  0.86814000  0.52837000  0.94143000  1.0
  C  C65  1  0.78524000  0.53701000  0.90474000  1.0
  C  C66  1  0.75261000  0.54307000  0.83291000  1.0
  C  C67  1  0.58799000  0.50901000  0.53778000  1.0
  C  C68  1  0.41294000  0.33972000  0.94134000  1.0
  C  C69  1  0.36768000  0.24814000  0.90467000  1.0
  C  C70  1  0.28979000  0.20918000  0.83283000  1.0
  C  C71  1  0.02880000  0.07890000  0.53809000  1.0
  C  C72  1  0.41306000  0.07329000  0.94143000  1.0
  C  C73  1  0.36775000  0.11950000  0.90475000  1.0
  C  C74  1  0.28984000  0.08030000  0.83291000  1.0
  C  C75  1  0.02877000  0.94978000  0.53778000  1.0
  C  C76  1  0.60161000  0.52841000  0.94133000  1.0
  C  C77  1  0.65653000  0.53699000  0.90467000  1.0
  C  C78  1  0.62364000  0.54304000  0.83282000  1.0
  C  C79  1  0.45918000  0.50930000  0.53808000  1.0
  C  C80  1  0.86832000  0.33962000  0.94149000  1.0
  C  C81  1  0.78548000  0.24803000  0.90486000  1.0
  C  C82  1  0.75267000  0.20919000  0.83297000  1.0
  C  C83  1  0.58819000  0.07888000  0.53794000  1.0
  C  C84  1  0.39814000  0.92683000  0.05851000  1.0
  C  C85  1  0.34316000  0.88061000  0.09512000  1.0
  C  C86  1  0.37621000  0.91969000  0.16702000  1.0
  C  C87  1  0.54093000  0.05025000  0.46204000  1.0
  C  C88  1  0.13187000  0.47162000  0.05859000  1.0
  C  C89  1  0.21477000  0.46300000  0.09526000  1.0
  C  C90  1  0.24740000  0.45693000  0.16710000  1.0
  C  C91  1  0.41199000  0.49100000  0.46222000  1.0
  C  C92  1  0.58707000  0.66028000  0.05868000  1.0
  C  C93  1  0.63231000  0.75186000  0.09533000  1.0
  C  C94  1  0.71020000  0.79081000  0.16719000  1.0
  C  C95  1  0.97120000  0.92111000  0.46192000  1.0
  C  C96  1  0.59301000  0.79650000  0.05913000  1.0
  C  C97  1  0.74940000  0.87491000  0.20436000  1.0
  C  C98  1  0.82235000  0.91145000  0.27939000  1.0
  C  C99  1  0.87943000  0.93992000  0.34543000  1.0
  C  C100  1  0.94102000  0.97063000  0.42250000  1.0
  C  C101  1  0.26262000  0.46612000  0.05912000  1.0
  C  C102  1  0.32944000  0.45496000  0.20435000  1.0
  C  C103  1  0.36793000  0.45703000  0.27938000  1.0
  C  C104  1  0.40551000  0.46600000  0.34543000  1.0
  C  C105  1  0.45187000  0.48148000  0.42250000  1.0
  C  C106  1  0.26227000  0.79663000  0.05890000  1.0
  C  C107  1  0.32936000  0.87489000  0.20425000  1.0
  C  C108  1  0.36799000  0.91135000  0.27934000  1.0
  C  C109  1  0.40553000  0.93987000  0.34540000  1.0
  C  C110  1  0.45185000  0.97064000  0.42249000  1.0
  C  C111  1  0.73772000  0.20336000  0.94108000  1.0
  C  C112  1  0.67064000  0.12511000  0.79575000  1.0
  C  C113  1  0.63200000  0.08865000  0.72066000  1.0
  C  C114  1  0.59446000  0.06011000  0.65459000  1.0
  C  C115  1  0.54812000  0.02936000  0.57749000  1.0
  C  C116  1  0.73737000  0.53388000  0.94088000  1.0
  C  C117  1  0.67058000  0.54506000  0.79566000  1.0
  C  C118  1  0.63207000  0.54299000  0.72062000  1.0
  C  C119  1  0.59449000  0.53402000  0.65458000  1.0
  C  C120  1  0.54813000  0.51853000  0.57751000  1.0
  C  C121  1  0.40701000  0.20351000  0.94089000  1.0
  C  C122  1  0.25060000  0.12508000  0.79566000  1.0
  C  C123  1  0.17764000  0.08854000  0.72063000  1.0
  C  C124  1  0.12056000  0.06008000  0.65458000  1.0
  C  C125  1  0.05898000  0.02938000  0.57751000  1.0
  O  O126  1  0.62297000  0.00174000  0.09556000  1.0
  O  O127  1  0.51438000  0.88684000  0.99378000  1.0
  O  O128  1  0.47437000  0.47264000  0.09569000  1.0
  O  O129  1  0.36631000  0.47925000  0.99382000  1.0
  O  O130  1  0.09372000  0.62140000  0.09551000  1.0
  O  O131  1  0.10671000  0.62756000  0.99368000  1.0
  O  O132  1  0.52588000  0.99819000  0.90447000  1.0
  O  O133  1  0.63387000  0.11301000  0.00630000  1.0
  O  O134  1  0.90617000  0.52740000  0.90444000  1.0
  O  O135  1  0.89305000  0.52059000  0.00622000  1.0
  O  O136  1  0.37695000  0.37867000  0.90432000  1.0
  O  O137  1  0.48543000  0.37249000  0.00618000  1.0
  O  O138  1  0.37704000  0.99827000  0.90444000  1.0
  O  O139  1  0.48564000  0.11317000  0.00623000  1.0
  O  O140  1  0.52563000  0.52737000  0.90431000  1.0
  O  O141  1  0.63368000  0.52075000  0.00617000  1.0
  O  O142  1  0.90627000  0.37859000  0.90446000  1.0
  O  O143  1  0.89328000  0.37242000  0.00629000  1.0
  O  O144  1  0.47412000  0.00179000  0.09552000  1.0
  O  O145  1  0.36613000  0.88697000  0.99369000  1.0
  O  O146  1  0.09383000  0.47259000  0.09556000  1.0
  O  O147  1  0.10694000  0.47940000  0.99378000  1.0
  O  O148  1  0.62306000  0.62132000  0.09569000  1.0
  O  O149  1  0.51457000  0.62751000  0.99383000  1.0
  O  O150  1  0.33480000  0.84347000  0.82582000  1.0
  O  O151  1  0.33468000  0.49108000  0.82577000  1.0
  O  O152  1  0.98234000  0.49102000  0.82581000  1.0
  O  O153  1  0.66521000  0.15653000  0.17419000  1.0
  O  O154  1  0.01765000  0.50898000  0.17418000  1.0
  O  O155  1  0.66531000  0.50891000  0.17422000  1.0
