# generated using pymatgen
data_Zn2H20C29N8
_symmetry_space_group_name_H-M   'P 1'
_cell_length_a   14.70000000
_cell_length_b   15.10660000
_cell_length_c   24.59960000
_cell_angle_alpha   89.62360000
_cell_angle_beta   89.88170000
_cell_angle_gamma   76.06500000
_symmetry_Int_Tables_number   1
_chemical_formula_structural   Zn2H20C29N8
_chemical_formula_sum   'Zn8 H80 C116 N32'
_cell_volume   5301.87333838
_cell_formula_units_Z   4
loop_
 _symmetry_equiv_pos_site_id
 _symmetry_equiv_pos_as_xyz
  1  'x, y, z'
loop_
 _atom_site_type_symbol
 _atom_site_label
 _atom_site_symmetry_multiplicity
 _atom_site_fract_x
 _atom_site_fract_y
 _atom_site_fract_z
 _atom_site_occupancy
  Zn  Zn0  1  0.42901000  0.41603000  0.57527000  1.0
  Zn  Zn1  1  0.58402000  0.53428000  0.56353000  1.0
  Zn  Zn2  1  0.91998000  0.94969000  0.06205000  1.0
  Zn  Zn3  1  0.06653000  0.07528000  0.07916000  1.0
  Zn  Zn4  1  0.57723000  0.53563000  0.43066000  1.0
  Zn  Zn5  1  0.43667000  0.39845000  0.43993000  1.0
  Zn  Zn6  1  0.07205000  0.08840000  0.94360000  1.0
  Zn  Zn7  1  0.93144000  0.95249000  0.92885000  1.0
  H  H8  1  0.31179000  0.52683000  0.68564000  1.0
  H  H9  1  0.85685000  0.28800000  0.32832000  1.0
  H  H10  1  0.65195000  0.18780000  0.82796000  1.0
  H  H11  1  0.28531000  0.92594000  0.74490000  1.0
  H  H12  1  0.59020000  0.23356000  0.73692000  1.0
  H  H13  1  0.39258000  0.80508000  0.69243000  1.0
  H  H14  1  0.14017000  0.67992000  0.17824000  1.0
  H  H15  1  0.91489000  0.24112000  0.23665000  1.0
  H  H16  1  0.83528000  0.33229000  0.70032000  1.0
  H  H17  1  0.30160000  0.59961000  0.78524000  1.0
  H  H18  1  0.18560000  0.88076000  0.29156000  1.0
  H  H19  1  0.75440000  0.40883000  0.62244000  1.0
  H  H20  1  0.66185000  0.15532000  0.20291000  1.0
  H  H21  1  0.30170000  0.76041000  0.34086000  1.0
  H  H22  1  0.60375000  0.20258000  0.29441000  1.0
  H  H23  1  0.89746000  0.28549000  0.79110000  1.0
  H  H24  1  0.19524000  0.72085000  0.83844000  1.0
  H  H25  1  0.32431000  0.07023000  0.43249000  1.0
  H  H26  1  0.34528000  0.90398000  0.42738000  1.0
  H  H27  1  0.16139000  0.58221000  0.92694000  1.0
  H  H28  1  0.17970000  0.41629000  0.93382000  1.0
  H  H29  1  0.44792000  0.87696000  0.59204000  1.0
  H  H30  1  0.75185000  0.06385000  0.12882000  1.0
  H  H31  1  0.42699000  0.04293000  0.59709000  1.0
  H  H32  1  0.07788000  0.44633000  0.09870000  1.0
  H  H33  1  0.05894000  0.61191000  0.09163000  1.0
  H  H34  1  0.47559000  0.65967000  0.33007000  1.0
  H  H35  1  0.56924000  0.21921000  0.39262000  1.0
  H  H36  1  0.94041000  0.26332000  0.88666000  1.0
  H  H37  1  0.03673000  0.83394000  0.82903000  1.0
  H  H38  1  0.43578000  0.72081000  0.58954000  1.0
  H  H39  1  0.37498000  0.21389000  0.60157000  1.0
  H  H40  1  0.11751000  0.27864000  0.10492000  1.0
  H  H41  1  0.17709000  0.97084000  0.19215000  1.0
  H  H42  1  0.07254000  0.76563000  0.08780000  1.0
  H  H43  1  0.26163000  0.56612000  0.40994000  1.0
  H  H44  1  0.79140000  0.58374000  0.40610000  1.0
  H  H45  1  0.71519000  0.90511000  0.90216000  1.0
  H  H46  1  0.24796000  0.91454000  0.92106000  1.0
  H  H47  1  0.45235000  0.74767000  0.41462000  1.0
  H  H48  1  0.38579000  0.20265000  0.42602000  1.0
  H  H49  1  0.12550000  0.28230000  0.92922000  1.0
  H  H50  1  0.05410000  0.74033000  0.91325000  1.0
  H  H51  1  0.24480000  0.58167000  0.58559000  1.0
  H  H52  1  0.98121000  0.55034000  0.48211000  1.0
  H  H53  1  0.78710000  0.58231000  0.58164000  1.0
  H  H54  1  0.72278000  0.89338000  0.07776000  1.0
  H  H55  1  0.25021000  0.91527000  0.09717000  1.0
  H  H56  1  0.31061000  0.45850000  0.32801000  1.0
  H  H57  1  0.75083000  0.40603000  0.38647000  1.0
  H  H58  1  0.75455000  0.08037000  0.89004000  1.0
  H  H59  1  0.21486000  0.02283000  0.83944000  1.0
  H  H60  1  0.53768000  0.66399000  0.67388000  1.0
  H  H61  1  0.54284000  0.25645000  0.64628000  1.0
  H  H62  1  0.94522000  0.23805000  0.14130000  1.0
  H  H63  1  0.08498000  0.62931000  0.44849000  1.0
  H  H64  1  0.97563000  0.80818000  0.16787000  1.0
  H  H65  1  0.85694000  0.69355000  0.62061000  1.0
  H  H66  1  0.72584000  0.81929000  0.65079000  1.0
  H  H67  1  0.66600000  0.95369000  0.59023000  1.0
  H  H68  1  0.74120000  0.96225000  0.50038000  1.0
  H  H69  1  0.87275000  0.83593000  0.47010000  1.0
  H  H70  1  0.13944000  0.80767000  0.54483000  1.0
  H  H71  1  0.17887000  0.86657000  0.63415000  1.0
  H  H72  1  0.13692000  0.79860000  0.71984000  1.0
  H  H73  1  0.05933000  0.66961000  0.71713000  1.0
  H  H74  1  0.41552000  0.83260000  0.96189000  1.0
  H  H75  1  0.01916000  0.61170000  0.62776000  1.0
  H  H76  1  0.40236000  0.71300000  0.11221000  1.0
  H  H77  1  0.36452000  0.73467000  0.21067000  1.0
  H  H78  1  0.37045000  0.87983000  0.25568000  1.0
  H  H79  1  0.41416000  0.00424000  0.20204000  1.0
  H  H80  1  0.45400000  0.98108000  0.10379000  1.0
  H  H81  1  0.59408000  0.80564000  0.14429000  1.0
  H  H82  1  0.72943000  0.70317000  0.18897000  1.0
  H  H83  1  0.84860000  0.59396000  0.13428000  1.0
  H  H84  1  0.82742000  0.58597000  0.03409000  1.0
  H  H85  1  0.52934000  0.92248000  0.97106000  1.0
  H  H86  1  0.69047000  0.68862000  0.98919000  1.0
  H  H87  1  0.25629000  0.56012000  0.22717000  1.0
  C  C88  1  0.37535000  0.54879000  0.67656000  1.0
  C  C89  1  0.37664000  0.16655000  0.51459000  1.0
  C  C90  1  0.12220000  0.77776000  0.58279000  1.0
  C  C91  1  0.14397000  0.81056000  0.63270000  1.0
  C  C92  1  0.12042000  0.77239000  0.68099000  1.0
  C  C93  1  0.07646000  0.70021000  0.67932000  1.0
  C  C94  1  0.05384000  0.66787000  0.62943000  1.0
  C  C95  1  0.43063000  0.84548000  0.10180000  1.0
  C  C96  1  0.40482000  0.77664000  0.13216000  1.0
  C  C97  1  0.38383000  0.78888000  0.18734000  1.0
  C  C98  1  0.38727000  0.87056000  0.21259000  1.0
  C  C99  1  0.41176000  0.94018000  0.18250000  1.0
  C  C100  1  0.12594000  0.32193000  0.01735000  1.0
  C  C101  1  0.43395000  0.92742000  0.12746000  1.0
  C  C102  1  0.63206000  0.75482000  0.06312000  1.0
  C  C103  1  0.64374000  0.75686000  0.11977000  1.0
  C  C104  1  0.72105000  0.69931000  0.14505000  1.0
  C  C105  1  0.78777000  0.63812000  0.11451000  1.0
  C  C106  1  0.77588000  0.63371000  0.05834000  1.0
  C  C107  1  0.69878000  0.69115000  0.03315000  1.0
  C  C108  1  0.08029000  0.70980000  0.00264000  1.0
  C  C109  1  0.21145000  0.59943000  0.49574000  1.0
  C  C110  1  0.82941000  0.59058000  0.49433000  1.0
  C  C111  1  0.67875000  0.89131000  0.99040000  1.0
  C  C112  1  0.29170000  0.88953000  0.00873000  1.0
  C  C113  1  0.94784000  0.67706000  0.52122000  1.0
  C  C114  1  0.04812000  0.67594000  0.52758000  1.0
  C  C115  1  0.45671000  0.83249000  0.04343000  1.0
  C  C116  1  0.69505000  0.37775000  0.62068000  1.0
  C  C117  1  0.55794000  0.82090000  0.03193000  1.0
  C  C118  1  0.92412000  0.60487000  0.49751000  1.0
  C  C119  1  0.11220000  0.64010000  0.48865000  1.0
  C  C120  1  0.39074000  0.84566000  0.00372000  1.0
  C  C121  1  0.58436000  0.87731000  0.99490000  1.0
  C  C122  1  0.23971000  0.63014000  0.24194000  1.0
  C  C123  1  0.81314000  0.25967000  0.30080000  1.0
  C  C124  1  0.69318000  0.21894000  0.80003000  1.0
  C  C125  1  0.29021000  0.85436000  0.75465000  1.0
  C  C126  1  0.65839000  0.24448000  0.74821000  1.0
  C  C127  1  0.80642000  0.10068000  0.12388000  1.0
  C  C128  1  0.35055000  0.78628000  0.72521000  1.0
  C  C129  1  0.17411000  0.69754000  0.21466000  1.0
  C  C130  1  0.84565000  0.23373000  0.24872000  1.0
  C  C131  1  0.70820000  0.28531000  0.71049000  1.0
  C  C132  1  0.35305000  0.69357000  0.73408000  1.0
  C  C133  1  0.15567000  0.78933000  0.23089000  1.0
  C  C134  1  0.79226000  0.19649000  0.21167000  1.0
  C  C135  1  0.79408000  0.30084000  0.72805000  1.0
  C  C136  1  0.29764000  0.67124000  0.77618000  1.0
  C  C137  1  0.20151000  0.81050000  0.27729000  1.0
  C  C138  1  0.11857000  0.94289000  0.18032000  1.0
  C  C139  1  0.70562000  0.18391000  0.23020000  1.0
  C  C140  1  0.26695000  0.74335000  0.30460000  1.0
  C  C141  1  0.67303000  0.20985000  0.28227000  1.0
  C  C142  1  0.82904000  0.27515000  0.77982000  1.0
  C  C143  1  0.23782000  0.73908000  0.80580000  1.0
  C  C144  1  0.44577000  0.60114000  0.33617000  1.0
  C  C145  1  0.60476000  0.27396000  0.39759000  1.0
  C  C146  1  0.90399000  0.20975000  0.89404000  1.0
  C  C147  1  0.06947000  0.88953000  0.83784000  1.0
  C  C148  1  0.28929000  0.65244000  0.28651000  1.0
  C  C149  1  0.36254000  0.58567000  0.31483000  1.0
  C  C150  1  0.72504000  0.24995000  0.31864000  1.0
  C  C151  1  0.78020000  0.23242000  0.81705000  1.0
  C  C152  1  0.23008000  0.83198000  0.79412000  1.0
  C  C153  1  0.35204000  0.02802000  0.46766000  1.0
  C  C154  1  0.36371000  0.93400000  0.46480000  1.0
  C  C155  1  0.14239000  0.55281000  0.96472000  1.0
  C  C156  1  0.15265000  0.45901000  0.96864000  1.0
  C  C157  1  0.40018000  0.87685000  0.50895000  1.0
  C  C158  1  0.37633000  0.06979000  0.51467000  1.0
  C  C159  1  0.12765000  0.41824000  0.01624000  1.0
  C  C160  1  0.68280000  0.29013000  0.36959000  1.0
  C  C161  1  0.10657000  0.61058000  0.00834000  1.0
  C  C162  1  0.41879000  0.91921000  0.55714000  1.0
  C  C163  1  0.40724000  0.01319000  0.55993000  1.0
  C  C164  1  0.09778000  0.47533000  0.06104000  1.0
  C  C165  1  0.08749000  0.56905000  0.05712000  1.0
  C  C166  1  0.44721000  0.71246000  0.54612000  1.0
  C  C167  1  0.37923000  0.22593000  0.55815000  1.0
  C  C168  1  0.11789000  0.26475000  0.06162000  1.0
  C  C169  1  0.06052000  0.77446000  0.04444000  1.0
  C  C170  1  0.27241000  0.55984000  0.45355000  1.0
  C  C171  1  0.82431000  0.19357000  0.86803000  1.0
  C  C172  1  0.77517000  0.57998000  0.44903000  1.0
  C  C173  1  0.73190000  0.90587000  0.94514000  1.0
  C  C174  1  0.23390000  0.92489000  0.96414000  1.0
  C  C175  1  0.45396000  0.72555000  0.45677000  1.0
  C  C176  1  0.38302000  0.22068000  0.46877000  1.0
  C  C177  1  0.12335000  0.26616000  0.97222000  1.0
  C  C178  1  0.05278000  0.76207000  0.95527000  1.0
  C  C179  1  0.26348000  0.56796000  0.54329000  1.0
  C  C180  1  0.77240000  0.58017000  0.53853000  1.0
  C  C181  1  0.73657000  0.89917000  0.03467000  1.0
  C  C182  1  0.15773000  0.90040000  0.82145000  1.0
  C  C183  1  0.23607000  0.92536000  0.05410000  1.0
  C  C184  1  0.36267000  0.49791000  0.33390000  1.0
  C  C185  1  0.69796000  0.36846000  0.39501000  1.0
  C  C186  1  0.80852000  0.11740000  0.89619000  1.0
  C  C187  1  0.15955000  0.98647000  0.84182000  1.0
  C  C188  1  0.48947000  0.61995000  0.67003000  1.0
  C  C189  1  0.58690000  0.30084000  0.63306000  1.0
  C  C190  1  0.90576000  0.18835000  0.13074000  1.0
  C  C191  1  0.01731000  0.85863000  0.16713000  1.0
  C  C192  1  0.40507000  0.62353000  0.69758000  1.0
  C  C193  1  0.42718000  0.77754000  0.50403000  1.0
  C  C194  1  0.66859000  0.31605000  0.65704000  1.0
  C  C195  1  0.82947000  0.16679000  0.15776000  1.0
  C  C196  1  0.09771000  0.86083000  0.19711000  1.0
  C  C197  1  0.87355000  0.75497000  0.54281000  1.0
  C  C198  1  0.83164000  0.75211000  0.59390000  1.0
  C  C199  1  0.75783000  0.82314000  0.61103000  1.0
  C  C200  1  0.72448000  0.89864000  0.57733000  1.0
  C  C201  1  0.76671000  0.90329000  0.52684000  1.0
  C  C202  1  0.84076000  0.83228000  0.50987000  1.0
  C  C203  1  0.07589000  0.70676000  0.58066000  1.0
  N  N204  1  0.43658000  0.50528000  0.63906000  1.0
  N  N205  1  0.38624000  0.30830000  0.53958000  1.0
  N  N206  1  0.11140000  0.18209000  0.04408000  1.0
  N  N207  1  0.02246000  0.85785000  0.02350000  1.0
  N  N208  1  0.35232000  0.50762000  0.47435000  1.0
  N  N209  1  0.69187000  0.56632000  0.46527000  1.0
  N  N210  1  0.81507000  0.91961000  0.96139000  1.0
  N  N211  1  0.15279000  0.97958000  0.98163000  1.0
  N  N212  1  0.48872000  0.63733000  0.47039000  1.0
  N  N213  1  0.38887000  0.30459000  0.48378000  1.0
  N  N214  1  0.11469000  0.18330000  0.98826000  1.0
  N  N215  1  0.63207000  0.39982000  0.57976000  1.0
  N  N216  1  0.01800000  0.85007000  0.96866000  1.0
  N  N217  1  0.34628000  0.51238000  0.52955000  1.0
  N  N218  1  0.69069000  0.56566000  0.52098000  1.0
  N  N219  1  0.81704000  0.91639000  0.01719000  1.0
  N  N220  1  0.15442000  0.97925000  0.03689000  1.0
  N  N221  1  0.43823000  0.46502000  0.36566000  1.0
  N  N222  1  0.63168000  0.39855000  0.43322000  1.0
  N  N223  1  0.87600000  0.08831000  0.93411000  1.0
  N  N224  1  0.08036000  0.02221000  0.86988000  1.0
  N  N225  1  0.50795000  0.54943000  0.63520000  1.0
  N  N226  1  0.86670000  0.08204000  0.08160000  1.0
  N  N227  1  0.56503000  0.35192000  0.58749000  1.0
  N  N228  1  0.92857000  0.13645000  0.08578000  1.0
  N  N229  1  0.99307000  0.93261000  0.13465000  1.0
  N  N230  1  0.05643000  0.98507000  0.14265000  1.0
  N  N231  1  0.49058000  0.52944000  0.36645000  1.0
  N  N232  1  0.57418000  0.33971000  0.43500000  1.0
  N  N233  1  0.93475000  0.14595000  0.93283000  1.0
  N  N234  1  0.02366000  0.96178000  0.86689000  1.0
  N  N235  1  0.48460000  0.62921000  0.52530000  1.0
