# generated using pymatgen
data_CuH14C16(N2Cl)2
_symmetry_space_group_name_H-M   'P 1'
_cell_length_a   7.56701000
_cell_length_b   7.93275000
_cell_length_c   13.82800000
_cell_angle_alpha   90.00010000
_cell_angle_beta   90.00020000
_cell_angle_gamma   68.34700000
_symmetry_Int_Tables_number   1
_chemical_formula_structural   CuH14C16(N2Cl)2
_chemical_formula_sum   'Cu2 H28 C32 N8 Cl4'
_cell_volume   771.48366117
_cell_formula_units_Z   2
loop_
 _symmetry_equiv_pos_site_id
 _symmetry_equiv_pos_as_xyz
  1  'x, y, z'
loop_
 _atom_site_type_symbol
 _atom_site_label
 _atom_site_symmetry_multiplicity
 _atom_site_fract_x
 _atom_site_fract_y
 _atom_site_fract_z
 _atom_site_occupancy
  Cu  Cu0  1  0.47993000  0.69397000  0.25000000  1.0
  Cu  Cu1  1  0.52007000  0.30603000  0.75000000  1.0
  H  H2  1  0.51657000  0.29437000  0.31303000  1.0
  H  H3  1  0.51657000  0.29437000  0.18697000  1.0
  H  H4  1  0.48343000  0.70563000  0.68697000  1.0
  H  H5  1  0.48343000  0.70563000  0.81303000  1.0
  H  H6  1  0.97412000  0.96294000  0.25000000  1.0
  H  H7  1  0.02588000  0.03706000  0.75000000  1.0
  H  H8  1  0.26671000  0.03118000  0.25000000  1.0
  H  H9  1  0.73329000  0.96881000  0.75000000  1.0
  H  H10  1  0.23602000  0.36363000  0.25000000  1.0
  H  H11  1  0.76398000  0.63637000  0.75000000  1.0
  H  H12  1  0.91916000  0.59922000  0.25000000  1.0
  H  H13  1  0.08085000  0.40078000  0.75000000  1.0
  H  H14  1  0.72469000  0.14986000  0.41445000  1.0
  H  H15  1  0.72469000  0.14987000  0.08555000  1.0
  H  H16  1  0.27531000  0.85014000  0.58555000  1.0
  H  H17  1  0.27531000  0.85014000  0.91445000  1.0
  H  H18  1  0.82114000  0.97484000  0.56248000  1.0
  H  H19  1  0.82113000  0.97483000  0.93752000  1.0
  H  H20  1  0.17886000  0.02517000  0.43752000  1.0
  H  H21  1  0.17886000  0.02517000  0.06248000  1.0
  H  H22  1  0.80085000  0.65939000  0.57161000  1.0
  H  H23  1  0.80085000  0.65938000  0.92839000  1.0
  H  H24  1  0.19915000  0.34062000  0.42839000  1.0
  H  H25  1  0.19915000  0.34062000  0.07161000  1.0
  H  H26  1  0.65071000  0.56299000  0.43412000  1.0
  H  H27  1  0.65071000  0.56299000  0.06588000  1.0
  H  H28  1  0.34930000  0.43701000  0.56588000  1.0
  H  H29  1  0.34930000  0.43701000  0.93412000  1.0
  C  C30  1  0.59945000  0.22343000  0.25000000  1.0
  C  C31  1  0.40055000  0.77657000  0.75000000  1.0
  C  C32  1  0.78832000  0.24796000  0.25000000  1.0
  C  C33  1  0.21168000  0.75203000  0.75000000  1.0
  C  C34  1  0.96365000  0.10358000  0.25000000  1.0
  C  C35  1  0.03636000  0.89642000  0.75000000  1.0
  C  C36  1  0.12872000  0.14216000  0.25000000  1.0
  C  C37  1  0.87129000  0.85783000  0.75000000  1.0
  C  C38  1  0.11419000  0.32228000  0.25000000  1.0
  C  C39  1  0.88581000  0.67771000  0.75000000  1.0
  C  C40  1  0.93383000  0.45730000  0.25000000  1.0
  C  C41  1  0.06617000  0.54270000  0.75000000  1.0
  C  C42  1  0.64613000  0.94536000  0.33970000  1.0
  C  C43  1  0.64612000  0.94536000  0.16030000  1.0
  C  C44  1  0.35387000  0.05465000  0.66030000  1.0
  C  C45  1  0.35387000  0.05465000  0.83970000  1.0
  C  C46  1  0.71189000  0.01830000  0.41868000  1.0
  C  C47  1  0.71189000  0.01830000  0.08132000  1.0
  C  C48  1  0.28810000  0.98170000  0.58132000  1.0
  C  C49  1  0.28810000  0.98170000  0.91868000  1.0
  C  C50  1  0.76811000  0.91739000  0.50261000  1.0
  C  C51  1  0.76811000  0.91739000  0.99739000  1.0
  C  C52  1  0.23189000  0.08261000  0.49739000  1.0
  C  C53  1  0.23189000  0.08261000  0.00261000  1.0
  C  C54  1  0.75566000  0.74631000  0.50837000  1.0
  C  C55  1  0.75566000  0.74631000  0.99163000  1.0
  C  C56  1  0.24433000  0.25369000  0.49163000  1.0
  C  C57  1  0.24433000  0.25370000  0.00837000  1.0
  C  C58  1  0.67597000  0.68924000  0.43117000  1.0
  C  C59  1  0.67597000  0.68924000  0.06883000  1.0
  C  C60  1  0.32404000  0.31076000  0.56884000  1.0
  C  C61  1  0.32403000  0.31076000  0.93116000  1.0
  N  N62  1  0.77340000  0.42235000  0.25000000  1.0
  N  N63  1  0.22660000  0.57764000  0.75000000  1.0
  N  N64  1  0.60937000  0.03597000  0.25000000  1.0
  N  N65  1  0.39063000  0.96403000  0.75000000  1.0
  N  N66  1  0.61966000  0.78723000  0.34922000  1.0
  N  N67  1  0.61966000  0.78723000  0.15078000  1.0
  N  N68  1  0.38034000  0.21277000  0.65078000  1.0
  N  N69  1  0.38034000  0.21277000  0.84922000  1.0
  Cl  Cl70  1  0.28960000  0.64848000  0.36755000  1.0
  Cl  Cl71  1  0.28960000  0.64848000  0.13245000  1.0
  Cl  Cl72  1  0.71040000  0.35152000  0.63245000  1.0
  Cl  Cl73  1  0.71040000  0.35152000  0.86755000  1.0
