# generated using pymatgen
data_AgH5C8(ClO)2
_symmetry_space_group_name_H-M   'P 1'
_cell_length_a   5.08553000
_cell_length_b   12.35980000
_cell_length_c   15.27020000
_cell_angle_alpha   102.24100000
_cell_angle_beta   89.98390000
_cell_angle_gamma   101.88400000
_symmetry_Int_Tables_number   1
_chemical_formula_structural   AgH5C8(ClO)2
_chemical_formula_sum   'Ag4 H20 C32 Cl8 O8'
_cell_volume   916.95396268
_cell_formula_units_Z   4
loop_
 _symmetry_equiv_pos_site_id
 _symmetry_equiv_pos_as_xyz
  1  'x, y, z'
loop_
 _atom_site_type_symbol
 _atom_site_label
 _atom_site_symmetry_multiplicity
 _atom_site_fract_x
 _atom_site_fract_y
 _atom_site_fract_z
 _atom_site_occupancy
  Ag  Ag0  1  0.79565000  0.00143000  0.44200000  1.0
  Ag  Ag1  1  0.79393000  0.99835000  0.05792000  1.0
  Ag  Ag2  1  0.20435000  0.99857000  0.55800000  1.0
  Ag  Ag3  1  0.20607000  0.00165000  0.94208000  1.0
  H  H4  1  0.02243000  0.45384000  0.24207000  1.0
  H  H5  1  0.56821000  0.54676000  0.25818000  1.0
  H  H6  1  0.97757000  0.54616000  0.75793000  1.0
  H  H7  1  0.43179000  0.45324000  0.74182000  1.0
  H  H8  1  0.12343000  0.34888000  0.09181000  1.0
  H  H9  1  0.77543000  0.65158000  0.40831000  1.0
  H  H10  1  0.87655000  0.65112000  0.90819000  1.0
  H  H11  1  0.22457000  0.34842000  0.59169000  1.0
  H  H12  1  0.40739000  0.20365000  0.08121000  1.0
  H  H13  1  0.20529000  0.79633000  0.41863000  1.0
  H  H14  1  0.59260000  0.79634000  0.91879000  1.0
  H  H15  1  0.79471000  0.20367000  0.58137000  1.0
  H  H16  1  0.53636000  0.33276000  0.44972000  1.0
  H  H17  1  0.20357000  0.66710000  0.05012000  1.0
  H  H18  1  0.46364000  0.66724000  0.55028000  1.0
  H  H19  1  0.79643000  0.33290000  0.94988000  1.0
  H  H20  1  0.70422000  0.23546000  0.38377000  1.0
  H  H21  1  0.46862000  0.76461000  0.11593000  1.0
  H  H22  1  0.29578000  0.76454000  0.61623000  1.0
  H  H23  1  0.53138000  0.23539000  0.88407000  1.0
  C  C24  1  0.40287000  0.28543000  0.31103000  1.0
  C  C25  1  0.11774000  0.71458000  0.18885000  1.0
  C  C26  1  0.59714000  0.71457000  0.68898000  1.0
  C  C27  1  0.88227000  0.28542000  0.81115000  1.0
  C  C28  1  0.24691000  0.36743000  0.31354000  1.0
  C  C29  1  0.87929000  0.63281000  0.18649000  1.0
  C  C30  1  0.75309000  0.63257000  0.68646000  1.0
  C  C31  1  0.12072000  0.36719000  0.81351000  1.0
  C  C32  1  0.14386000  0.39000000  0.23617000  1.0
  C  C33  1  0.75383000  0.61043000  0.26395000  1.0
  C  C34  1  0.85613000  0.61000000  0.76383000  1.0
  C  C35  1  0.24618000  0.38957000  0.73605000  1.0
  C  C36  1  0.20037000  0.33076000  0.15251000  1.0
  C  C37  1  0.87035000  0.66955000  0.34753000  1.0
  C  C38  1  0.79962000  0.66925000  0.84750000  1.0
  C  C39  1  0.12965000  0.33045000  0.65247000  1.0
  C  C40  1  0.35634000  0.24916000  0.14602000  1.0
  C  C41  1  0.10842000  0.75087000  0.35386000  1.0
  C  C42  1  0.64365000  0.75084000  0.85398000  1.0
  C  C43  1  0.89159000  0.24913000  0.64614000  1.0
  C  C44  1  0.45150000  0.22757000  0.22485000  1.0
  C  C45  1  0.22496000  0.77235000  0.27496000  1.0
  C  C46  1  0.54849000  0.77243000  0.77515000  1.0
  C  C47  1  0.77505000  0.22765000  0.72504000  1.0
  C  C48  1  0.50731000  0.25835000  0.39375000  1.0
  C  C49  1  0.24878000  0.74158000  0.10603000  1.0
  C  C50  1  0.49269000  0.74165000  0.60625000  1.0
  C  C51  1  0.75122000  0.25841000  0.89397000  1.0
  C  C52  1  0.32031000  0.16239000  0.42637000  1.0
  C  C53  1  0.15729000  0.83738000  0.07341000  1.0
  C  C54  1  0.67970000  0.83761000  0.57363000  1.0
  C  C55  1  0.84272000  0.16262000  0.92659000  1.0
  Cl  Cl56  1  0.18019000  0.44630000  0.41670000  1.0
  Cl  Cl57  1  0.73308000  0.55405000  0.08339000  1.0
  Cl  Cl58  1  0.81981000  0.55370000  0.58330000  1.0
  Cl  Cl59  1  0.26691000  0.44595000  0.91660000  1.0
  Cl  Cl60  1  0.63868000  0.12330000  0.21772000  1.0
  Cl  Cl61  1  0.51699000  0.87631000  0.28193000  1.0
  Cl  Cl62  1  0.36132000  0.87670000  0.78228000  1.0
  Cl  Cl63  1  0.48302000  0.12369000  0.71807000  1.0
  O  O64  1  0.07814000  0.13382000  0.39644000  1.0
  O  O65  1  0.94346000  0.86578000  0.10331000  1.0
  O  O66  1  0.92186000  0.86618000  0.60356000  1.0
  O  O67  1  0.05655000  0.13422000  0.89669000  1.0
  O  O68  1  0.42725000  0.12096000  0.48393000  1.0
  O  O69  1  0.30573000  0.87894000  0.01588000  1.0
  O  O70  1  0.57275000  0.87904000  0.51607000  1.0
  O  O71  1  0.69427000  0.12106000  0.98411000  1.0
