# generated using pymatgen
data_CdNiH23(C5N2)4
_symmetry_space_group_name_H-M   'P 1'
_cell_length_a   7.75272000
_cell_length_b   10.28570000
_cell_length_c   29.76842013
_cell_angle_alpha   85.41742755
_cell_angle_beta   82.53261488
_cell_angle_gamma   67.88400000
_symmetry_Int_Tables_number   1
_chemical_formula_structural   CdNiH23(C5N2)4
_chemical_formula_sum   'Cd4 Ni4 H92 C80 N32'
_cell_volume   2179.25183781
_cell_formula_units_Z   4
loop_
 _symmetry_equiv_pos_site_id
 _symmetry_equiv_pos_as_xyz
  1  'x, y, z'
loop_
 _atom_site_type_symbol
 _atom_site_label
 _atom_site_symmetry_multiplicity
 _atom_site_fract_x
 _atom_site_fract_y
 _atom_site_fract_z
 _atom_site_occupancy
  Cd  Cd0  1  0.17448000  0.57771000  0.85945000  1.0
  Cd  Cd1  1  0.11174000  0.92269000  0.64050000  1.0
  Cd  Cd2  1  0.82552000  0.42229000  0.14055000  1.0
  Cd  Cd3  1  0.88825000  0.07730000  0.35950000  1.0
  Ni  Ni4  1  0.63782000  0.75044000  0.74997000  1.0
  Ni  Ni5  1  0.36217000  0.24957000  0.25003000  1.0
  Ni  Ni6  1  0.50000000  0.50000000  0.00000000  1.0
  Ni  Ni7  1  0.49999000  0.00000000  0.50001000  1.0
  H  H8  1  0.97621000  0.71663000  0.94091000  1.0
  H  H9  1  0.13391000  0.78354000  0.55904000  1.0
  H  H10  1  0.02379000  0.28337000  0.05909000  1.0
  H  H11  1  0.86609000  0.21646000  0.44096000  1.0
  H  H12  1  0.89867000  0.82495000  0.89883000  1.0
  H  H13  1  0.12214000  0.67540000  0.60113000  1.0
  H  H14  1  0.10133000  0.17506000  0.10117000  1.0
  H  H15  1  0.87787000  0.32460000  0.39886000  1.0
  H  H16  1  0.28114000  0.76029000  0.92168000  1.0
  H  H17  1  0.46327000  0.73951000  0.57844000  1.0
  H  H18  1  0.71886000  0.23971000  0.07832000  1.0
  H  H19  1  0.53674000  0.26050000  0.42155000  1.0
  H  H20  1  0.14505000  0.90259000  0.88847000  1.0
  H  H21  1  0.43556000  0.59730000  0.61159000  1.0
  H  H22  1  0.85495000  0.09742000  0.11153000  1.0
  H  H23  1  0.56444000  0.40271000  0.38841000  1.0
  H  H24  1  0.86427000  0.09575000  0.92763000  1.0
  H  H25  1  0.38790000  0.40399000  0.57232000  1.0
  H  H26  1  0.13572000  0.90425000  0.07237000  1.0
  H  H27  1  0.61212000  0.59601000  0.42767000  1.0
  H  H28  1  0.25568000  0.76513000  0.00242000  1.0
  H  H29  1  0.52302000  0.73502000  0.49764000  1.0
  H  H30  1  0.74432000  0.23487000  0.99758000  1.0
  H  H31  1  0.47699000  0.26498000  0.50236000  1.0
  H  H32  1  0.31531000  0.31294000  0.81311000  1.0
  H  H33  1  0.94142000  0.18740000  0.68690000  1.0
  H  H34  1  0.68470000  0.68706000  0.18689000  1.0
  H  H35  1  0.05858000  0.81260000  0.31310000  1.0
  H  H36  1  0.47331000  0.38472000  0.80480000  1.0
  H  H37  1  0.16274000  0.11571000  0.69530000  1.0
  H  H38  1  0.52670000  0.61529000  0.19520000  1.0
  H  H39  1  0.83727000  0.88428000  0.30469000  1.0
  H  H40  1  0.13700000  0.46041000  0.75717000  1.0
  H  H41  1  0.85442000  0.03982000  0.74278000  1.0
  H  H42  1  0.86301000  0.53960000  0.24283000  1.0
  H  H43  1  0.14557000  0.96018000  0.25722000  1.0
  H  H44  1  0.28574000  0.55639000  0.75030000  1.0
  H  H45  1  0.09214000  0.94410000  0.74977000  1.0
  H  H46  1  0.71427000  0.44361000  0.24970000  1.0
  H  H47  1  0.90786000  0.05590000  0.25023000  1.0
  H  H48  1  0.32802000  0.17838000  0.74404000  1.0
  H  H49  1  0.74997000  0.32200000  0.75591000  1.0
  H  H50  1  0.67198000  0.82162000  0.25596000  1.0
  H  H51  1  0.25005000  0.67801000  0.24408000  1.0
  H  H52  1  0.50858000  0.02923000  0.67937000  1.0
  H  H53  1  0.71606000  0.47128000  0.82062000  1.0
  H  H54  1  0.49142000  0.97077000  0.32063000  1.0
  H  H55  1  0.28395000  0.52873000  0.17938000  1.0
  H  H56  1  0.69723000  0.35905000  0.62396000  1.0
  H  H57  1  0.17848000  0.14165000  0.87627000  1.0
  H  H58  1  0.30276000  0.64095000  0.37604000  1.0
  H  H59  1  0.82153000  0.85835000  0.12373000  1.0
  H  H60  1  0.51710000  0.50661000  0.68777000  1.0
  H  H61  1  0.21027000  0.99400000  0.81243000  1.0
  H  H62  1  0.48290000  0.49339000  0.31223000  1.0
  H  H63  1  0.78973000  0.00600000  0.18757000  1.0
  H  H64  1  0.84230000  0.35352000  0.92331000  1.0
  H  H65  1  0.61921000  0.14720000  0.57682000  1.0
  H  H66  1  0.15771000  0.64647000  0.07669000  1.0
  H  H67  1  0.38079000  0.85279000  0.42318000  1.0
  H  H68  1  0.79949000  0.50800000  0.88902000  1.0
  H  H69  1  0.69664000  0.99270000  0.61109000  1.0
  H  H70  1  0.20052000  0.49200000  0.11098000  1.0
  H  H71  1  0.30336000  0.00730000  0.38891000  1.0
  H  H72  1  0.04290000  0.45896000  0.93940000  1.0
  H  H73  1  0.94113000  0.04150000  0.56059000  1.0
  H  H74  1  0.95710000  0.54104000  0.06060000  1.0
  H  H75  1  0.05887000  0.95850000  0.43941000  1.0
  H  H76  1  0.17930000  0.32394000  0.90982000  1.0
  H  H77  1  0.91354000  0.17657000  0.59012000  1.0
  H  H78  1  0.82071000  0.67606000  0.09018000  1.0
  H  H79  1  0.08646000  0.82343000  0.40988000  1.0
  H  H80  1  0.42299000  0.21010000  0.95433000  1.0
  H  H81  1  0.08883000  0.29000000  0.54582000  1.0
  H  H82  1  0.57702000  0.78990000  0.04567000  1.0
  H  H83  1  0.91117000  0.70999000  0.45418000  1.0
  H  H84  1  0.58061000  0.25707000  0.87854000  1.0
  H  H85  1  0.21717000  0.24321000  0.62167000  1.0
  H  H86  1  0.41940000  0.74292000  0.12146000  1.0
  H  H87  1  0.78283000  0.75679000  0.37834000  1.0
  H  H88  1  0.68097000  0.01928000  0.82974000  1.0
  H  H89  1  0.03026000  0.48081000  0.67049000  1.0
  H  H90  1  0.31902000  0.98069000  0.17026000  1.0
  H  H91  1  0.96975000  0.51920000  0.32951000  1.0
  H  H92  1  0.56280000  0.83666000  0.88434000  1.0
  H  H93  1  0.78414000  0.66315000  0.61584000  1.0
  H  H94  1  0.43718000  0.16333000  0.11566000  1.0
  H  H95  1  0.21588000  0.33686000  0.38416000  1.0
  H  H96  1  0.39831000  0.97302000  0.96324000  1.0
  H  H97  1  0.83558000  0.52686000  0.53689000  1.0
  H  H98  1  0.60167000  0.02699000  0.03677000  1.0
  H  H99  1  0.16443000  0.47314000  0.46311000  1.0
  C  C100  1  0.46103000  0.72119000  0.79240000  1.0
  C  C101  1  0.47424000  0.77944000  0.70755000  1.0
  C  C102  1  0.53897000  0.27882000  0.20760000  1.0
  C  C103  1  0.52576000  0.22056000  0.29245000  1.0
  C  C104  1  0.80487000  0.70995000  0.79220000  1.0
  C  C105  1  0.80666000  0.79096000  0.70775000  1.0
  C  C106  1  0.19512000  0.29006000  0.20780000  1.0
  C  C107  1  0.19334000  0.20904000  0.29225000  1.0
  C  C108  1  0.46967000  0.49758000  0.94006000  1.0
  C  C109  1  0.40751000  0.00262000  0.55995000  1.0
  C  C110  1  0.53033000  0.50241000  0.05994000  1.0
  C  C111  1  0.59247000  0.99740000  0.44006000  1.0
  C  C112  1  0.67278000  0.58621000  0.98829000  1.0
  C  C113  1  0.74720000  0.91416000  0.51175000  1.0
  C  C114  1  0.32721000  0.41378000  0.01171000  1.0
  C  C115  1  0.25278000  0.08585000  0.48826000  1.0
  C  C116  1  0.13842000  0.83595000  0.91879000  1.0
  C  C117  1  0.39301000  0.66400000  0.58126000  1.0
  C  C118  1  0.86158000  0.16405000  0.08121000  1.0
  C  C119  1  0.60700000  0.33600000  0.41873000  1.0
  C  C120  1  0.06805000  0.92178000  0.96050000  1.0
  C  C121  1  0.45024000  0.57820000  0.53953000  1.0
  C  C122  1  0.93195000  0.07822000  0.03950000  1.0
  C  C123  1  0.54976000  0.42181000  0.46046000  1.0
  C  C124  1  0.92436000  0.05426000  0.95937000  1.0
  C  C125  1  0.43806000  0.44564000  0.54059000  1.0
  C  C126  1  0.07563000  0.94574000  0.04063000  1.0
  C  C127  1  0.56195000  0.55437000  0.45940000  1.0
  C  C128  1  0.14265000  0.86848000  0.00149000  1.0
  C  C129  1  0.51251000  0.63160000  0.49856000  1.0
  C  C130  1  0.85734000  0.13152000  0.99851000  1.0
  C  C131  1  0.48748000  0.36841000  0.50144000  1.0
  C  C132  1  0.28328000  0.45056000  0.75699000  1.0
  C  C133  1  0.99054000  0.04988000  0.74303000  1.0
  C  C134  1  0.71672000  0.54944000  0.24301000  1.0
  C  C135  1  0.00946000  0.95012000  0.25697000  1.0
  C  C136  1  0.40535000  0.35486000  0.71990000  1.0
  C  C137  1  0.97938000  0.14568000  0.78015000  1.0
  C  C138  1  0.59465000  0.64514000  0.28010000  1.0
  C  C139  1  0.02062000  0.85433000  0.21985000  1.0
  C  C140  1  0.40804000  0.21847000  0.71745000  1.0
  C  C141  1  0.84320000  0.28201000  0.78257000  1.0
  C  C142  1  0.59196000  0.78153000  0.28255000  1.0
  C  C143  1  0.15680000  0.71800000  0.21743000  1.0
  C  C144  1  0.50997000  0.13419000  0.68135000  1.0
  C  C145  1  0.82433000  0.36634000  0.81870000  1.0
  C  C146  1  0.49003000  0.86581000  0.31865000  1.0
  C  C147  1  0.17567000  0.63367000  0.18130000  1.0
  C  C148  1  0.61273000  0.18343000  0.64657000  1.0
  C  C149  1  0.94127000  0.31719000  0.85355000  1.0
  C  C150  1  0.38727000  0.81657000  0.35343000  1.0
  C  C151  1  0.05874000  0.68281000  0.14645000  1.0
  C  C152  1  0.61772000  0.31697000  0.65011000  1.0
  C  C153  1  0.08325000  0.18363000  0.85007000  1.0
  C  C154  1  0.38227000  0.68303000  0.34989000  1.0
  C  C155  1  0.91675000  0.81637000  0.14993000  1.0
  C  C156  1  0.51515000  0.40146000  0.68630000  1.0
  C  C157  1  0.10171000  0.09912000  0.81385000  1.0
  C  C158  1  0.48486000  0.59854000  0.31369000  1.0
  C  C159  1  0.89829000  0.90088000  0.18615000  1.0
  C  C160  1  0.90429000  0.40315000  0.89487000  1.0
  C  C161  1  0.70263000  0.09753000  0.60522000  1.0
  C  C162  1  0.09572000  0.59685000  0.10513000  1.0
  C  C163  1  0.29737000  0.90247000  0.39478000  1.0
  C  C164  1  0.55854000  0.15981000  0.88724000  1.0
  C  C165  1  0.10654000  0.34037000  0.61294000  1.0
  C  C166  1  0.44146000  0.84017000  0.11276000  1.0
  C  C167  1  0.89347000  0.65963000  0.38706000  1.0
  C  C168  1  0.60809000  0.03776000  0.86369000  1.0
  C  C169  1  0.01007000  0.46229000  0.63652000  1.0
  C  C170  1  0.39191000  0.96223000  0.13631000  1.0
  C  C171  1  0.98993000  0.53771000  0.36348000  1.0
  C  C172  1  0.54745000  0.94174000  0.89242000  1.0
  C  C173  1  0.88218000  0.55817000  0.60776000  1.0
  C  C174  1  0.45254000  0.05825000  0.10758000  1.0
  C  C175  1  0.11783000  0.44183000  0.39224000  1.0
  C  C176  1  0.46308000  0.00807000  0.93270000  1.0
  C  C177  1  0.90479000  0.49190000  0.56744000  1.0
  C  C178  1  0.53691000  0.99193000  0.06730000  1.0
  C  C179  1  0.09522000  0.50810000  0.43256000  1.0
  N  N180  1  0.34314000  0.70546000  0.81858000  1.0
  N  N181  1  0.36684000  0.79485000  0.68138000  1.0
  N  N182  1  0.65685000  0.29454000  0.18142000  1.0
  N  N183  1  0.63316000  0.20515000  0.31862000  1.0
  N  N184  1  0.91561000  0.67656000  0.81839000  1.0
  N  N185  1  0.91023000  0.82415000  0.68151000  1.0
  N  N186  1  0.08438000  0.32345000  0.18161000  1.0
  N  N187  1  0.08977000  0.17585000  0.31849000  1.0
  N  N188  1  0.44196000  0.49316000  0.90244000  1.0
  N  N189  1  0.33792000  0.00705000  0.59758000  1.0
  N  N190  1  0.55805000  0.50684000  0.09756000  1.0
  N  N191  1  0.66205000  0.99296000  0.40243000  1.0
  N  N192  1  0.78511000  0.63902000  0.98378000  1.0
  N  N193  1  0.90776000  0.86143000  0.51626000  1.0
  N  N194  1  0.21489000  0.36098000  0.01622000  1.0
  N  N195  1  0.09224000  0.13856000  0.48375000  1.0
  N  N196  1  0.02005000  0.75744000  0.91089000  1.0
  N  N197  1  0.18835000  0.74276000  0.58908000  1.0
  N  N198  1  0.97995000  0.24256000  0.08911000  1.0
  N  N199  1  0.81165000  0.25723000  0.41092000  1.0
  N  N200  1  0.33430000  0.40491000  0.80354000  1.0
  N  N201  1  0.04271000  0.09547000  0.69651000  1.0
  N  N202  1  0.66570000  0.59509000  0.19646000  1.0
  N  N203  1  0.95729000  0.90452000  0.30349000  1.0
  N  N204  1  0.07279000  0.41957000  0.90751000  1.0
  N  N205  1  0.90013000  0.08097000  0.59248000  1.0
  N  N206  1  0.92722000  0.58043000  0.09249000  1.0
  N  N207  1  0.09987000  0.91902000  0.40752000  1.0
  N  N208  1  0.46930000  0.14038000  0.92894000  1.0
  N  N209  1  0.03975000  0.35971000  0.57121000  1.0
  N  N210  1  0.53070000  0.85962000  0.07105000  1.0
  N  N211  1  0.96025000  0.64029000  0.42879000  1.0
