# generated using pymatgen
data_YbH13C8SO12
_symmetry_space_group_name_H-M   'P 1'
_cell_length_a   9.46383000
_cell_length_b   10.43110000
_cell_length_c   14.66650000
_cell_angle_alpha   89.99970000
_cell_angle_beta   90.75200000
_cell_angle_gamma   89.99670000
_symmetry_Int_Tables_number   1
_chemical_formula_structural   YbH13C8SO12
_chemical_formula_sum   'Yb4 H52 C32 S4 O48'
_cell_volume   1447.72514564
_cell_formula_units_Z   4
loop_
 _symmetry_equiv_pos_site_id
 _symmetry_equiv_pos_as_xyz
  1  'x, y, z'
loop_
 _atom_site_type_symbol
 _atom_site_label
 _atom_site_symmetry_multiplicity
 _atom_site_fract_x
 _atom_site_fract_y
 _atom_site_fract_z
 _atom_site_occupancy
  Yb  Yb0  1  0.31876000  0.44274000  0.67548000  1.0
  Yb  Yb1  1  0.18124000  0.94275000  0.82451000  1.0
  Yb  Yb2  1  0.68124000  0.55725000  0.32451000  1.0
  Yb  Yb3  1  0.81876000  0.05727000  0.17549000  1.0
  H  H4  1  0.88092000  0.64668000  0.81372000  1.0
  H  H5  1  0.61908000  0.14669000  0.68628000  1.0
  H  H6  1  0.11906000  0.35333000  0.18627000  1.0
  H  H7  1  0.38100000  0.85329000  0.31373000  1.0
  H  H8  1  0.66613000  0.46563000  0.03649000  1.0
  H  H9  1  0.83387000  0.96559000  0.46352000  1.0
  H  H10  1  0.33384000  0.53437000  0.96350000  1.0
  H  H11  1  0.16615000  0.03442000  0.53649000  1.0
  H  H12  1  0.99580000  0.26405000  0.89739000  1.0
  H  H13  1  0.50422000  0.76401000  0.60262000  1.0
  H  H14  1  0.00422000  0.73600000  0.10260000  1.0
  H  H15  1  0.49582000  0.23594000  0.39743000  1.0
  H  H16  1  0.44954000  0.32560000  0.83632000  1.0
  H  H17  1  0.05045000  0.82559000  0.66368000  1.0
  H  H18  1  0.55043000  0.67441000  0.16368000  1.0
  H  H19  1  0.94958000  0.17439000  0.33631000  1.0
  H  H20  1  0.43603000  0.21233000  0.76532000  1.0
  H  H21  1  0.06397000  0.71232000  0.73468000  1.0
  H  H22  1  0.56400000  0.78767000  0.23468000  1.0
  H  H23  1  0.93603000  0.28769000  0.26532000  1.0
  H  H24  1  0.04485000  0.36133000  0.59988000  1.0
  H  H25  1  0.45513000  0.86132000  0.90010000  1.0
  H  H26  1  0.95515000  0.63869000  0.40012000  1.0
  H  H27  1  0.54488000  0.13868000  0.09987000  1.0
  H  H28  1  0.05010000  0.51005000  0.58706000  1.0
  H  H29  1  0.44985000  0.01004000  0.91292000  1.0
  H  H30  1  0.94987000  0.48997000  0.41295000  1.0
  H  H31  1  0.55016000  0.98997000  0.08707000  1.0
  H  H32  1  0.57442000  0.54809000  0.59179000  1.0
  H  H33  1  0.92556000  0.04811000  0.90820000  1.0
  H  H34  1  0.42556000  0.45189000  0.40820000  1.0
  H  H35  1  0.07446000  0.95188000  0.09182000  1.0
  H  H36  1  0.62371000  0.41702000  0.63016000  1.0
  H  H37  1  0.87625000  0.91705000  0.86984000  1.0
  H  H38  1  0.37627000  0.58297000  0.36985000  1.0
  H  H39  1  0.12375000  0.08297000  0.13017000  1.0
  H  H40  1  0.30077000  0.66246000  0.55238000  1.0
  H  H41  1  0.19923000  0.16244000  0.94763000  1.0
  H  H42  1  0.69924000  0.33754000  0.44761000  1.0
  H  H43  1  0.80077000  0.83757000  0.05237000  1.0
  H  H44  1  0.32241000  0.72045000  0.65517000  1.0
  H  H45  1  0.17757000  0.22045000  0.84485000  1.0
  H  H46  1  0.67761000  0.27953000  0.34483000  1.0
  H  H47  1  0.82242000  0.77955000  0.15515000  1.0
  H  H48  1  0.30738000  0.61775000  0.82992000  1.0
  H  H49  1  0.19262000  0.11774000  0.67007000  1.0
  H  H50  1  0.69261000  0.38226000  0.17007000  1.0
  H  H51  1  0.80737000  0.88225000  0.32992000  1.0
  H  H52  1  0.46832000  0.60833000  0.81119000  1.0
  H  H53  1  0.03169000  0.10836000  0.68880000  1.0
  H  H54  1  0.53166000  0.39167000  0.18879000  1.0
  H  H55  1  0.96832000  0.89165000  0.31121000  1.0
  C  C56  1  0.07367000  0.45581000  0.78574000  1.0
  C  C57  1  0.42633000  0.95582000  0.71424000  1.0
  C  C58  1  0.92630000  0.54417000  0.21424000  1.0
  C  C59  1  0.57366000  0.04417000  0.28576000  1.0
  C  C60  1  0.95135000  0.45500000  0.84800000  1.0
  C  C61  1  0.54865000  0.95500000  0.65199000  1.0
  C  C62  1  0.04864000  0.54502000  0.15199000  1.0
  C  C63  1  0.45137000  0.04497000  0.34802000  1.0
  C  C64  1  0.86502000  0.56297000  0.85676000  1.0
  C  C65  1  0.63500000  0.06295000  0.64323000  1.0
  C  C66  1  0.13497000  0.43705000  0.14322000  1.0
  C  C67  1  0.36504000  0.93702000  0.35678000  1.0
  C  C68  1  0.76109000  0.56328000  0.92352000  1.0
  C  C69  1  0.73894000  0.06325000  0.57649000  1.0
  C  C70  1  0.23893000  0.43674000  0.07649000  1.0
  C  C71  1  0.26109000  0.93672000  0.42352000  1.0
  C  C72  1  0.74397000  0.46006000  0.98271000  1.0
  C  C73  1  0.75603000  0.96002000  0.51730000  1.0
  C  C74  1  0.25602000  0.53995000  0.01728000  1.0
  C  C75  1  0.24399000  0.03996000  0.48271000  1.0
  C  C76  1  0.82979000  0.35161000  0.97236000  1.0
  C  C77  1  0.67026000  0.85159000  0.52768000  1.0
  C  C78  1  0.17023000  0.64840000  0.02765000  1.0
  C  C79  1  0.32977000  0.14838000  0.47234000  1.0
  C  C80  1  0.93014000  0.34869000  0.90401000  1.0
  C  C81  1  0.56985000  0.84868000  0.59598000  1.0
  C  C82  1  0.06984000  0.65133000  0.09598000  1.0
  C  C83  1  0.43016000  0.15128000  0.40402000  1.0
  C  C84  1  0.82860000  0.24336000  0.03836000  1.0
  C  C85  1  0.67141000  0.74337000  0.46164000  1.0
  C  C86  1  0.17139000  0.75665000  0.96165000  1.0
  C  C87  1  0.32861000  0.25664000  0.53834000  1.0
  S  S88  1  0.66193000  0.70612000  0.94123000  1.0
  S  S89  1  0.83807000  0.20608000  0.55875000  1.0
  S  S90  1  0.33806000  0.29388000  0.05876000  1.0
  S  S91  1  0.16193000  0.79389000  0.44124000  1.0
  O  O92  1  0.15498000  0.35757000  0.78055000  1.0
  O  O93  1  0.34502000  0.85759000  0.71945000  1.0
  O  O94  1  0.84503000  0.64244000  0.21947000  1.0
  O  O95  1  0.65496000  0.14241000  0.28057000  1.0
  O  O96  1  0.10179000  0.55466000  0.73838000  1.0
  O  O97  1  0.39818000  0.05465000  0.76161000  1.0
  O  O98  1  0.89822000  0.44533000  0.26159000  1.0
  O  O99  1  0.60178000  0.94534000  0.23839000  1.0
  O  O100  1  0.87507000  0.13320000  0.01741000  1.0
  O  O101  1  0.62499000  0.63318000  0.48260000  1.0
  O  O102  1  0.12496000  0.86682000  0.98263000  1.0
  O  O103  1  0.37504000  0.36680000  0.51739000  1.0
  O  O104  1  0.78542000  0.26467000  0.11994000  1.0
  O  O105  1  0.71460000  0.76466000  0.38007000  1.0
  O  O106  1  0.21456000  0.73535000  0.88008000  1.0
  O  O107  1  0.28543000  0.23535000  0.61992000  1.0
  O  O108  1  0.45403000  0.30625000  0.77095000  1.0
  O  O109  1  0.04600000  0.80624000  0.72905000  1.0
  O  O110  1  0.54594000  0.69376000  0.22905000  1.0
  O  O111  1  0.95401000  0.19376000  0.27095000  1.0
  O  O112  1  0.10567000  0.43236000  0.57865000  1.0
  O  O113  1  0.39432000  0.93234000  0.92138000  1.0
  O  O114  1  0.89432000  0.56767000  0.42135000  1.0
  O  O115  1  0.60570000  0.06765000  0.07864000  1.0
  O  O116  1  0.56018000  0.48910000  0.64376000  1.0
  O  O117  1  0.93978000  0.98911000  0.85624000  1.0
  O  O118  1  0.43979000  0.51090000  0.35624000  1.0
  O  O119  1  0.06022000  0.01090000  0.14377000  1.0
  O  O120  1  0.31850000  0.64056000  0.61813000  1.0
  O  O121  1  0.18147000  0.14055000  0.88189000  1.0
  O  O122  1  0.68154000  0.35944000  0.38186000  1.0
  O  O123  1  0.81847000  0.85946000  0.11812000  1.0
  O  O124  1  0.37904000  0.56029000  0.80171000  1.0
  O  O125  1  0.12095000  0.06028000  0.69827000  1.0
  O  O126  1  0.62094000  0.43971000  0.19827000  1.0
  O  O127  1  0.87904000  0.93970000  0.30172000  1.0
  O  O128  1  0.57179000  0.72827000  0.85967000  1.0
  O  O129  1  0.92816000  0.22825000  0.64033000  1.0
  O  O130  1  0.42822000  0.27175000  0.14032000  1.0
  O  O131  1  0.07180000  0.77175000  0.35968000  1.0
  O  O132  1  0.77045000  0.80875000  0.94763000  1.0
  O  O133  1  0.72955000  0.30872000  0.55236000  1.0
  O  O134  1  0.22953000  0.19125000  0.05237000  1.0
  O  O135  1  0.27042000  0.69123000  0.44765000  1.0
  O  O136  1  0.58316000  0.68830000  0.02510000  1.0
  O  O137  1  0.91685000  0.18831000  0.47488000  1.0
  O  O138  1  0.41682000  0.31169000  0.97489000  1.0
  O  O139  1  0.08313000  0.81169000  0.52510000  1.0
