# generated using pymatgen
data_Cd2H16C26S2N2O9
_symmetry_space_group_name_H-M   'P 1'
_cell_length_a   10.21630000
_cell_length_b   12.01550000
_cell_length_c   12.01550000
_cell_angle_alpha   71.62020000
_cell_angle_beta   73.74360000
_cell_angle_gamma   73.74360000
_symmetry_Int_Tables_number   1
_chemical_formula_structural   Cd2H16C26S2N2O9
_chemical_formula_sum   'Cd4 H32 C52 S4 N4 O18'
_cell_volume   1313.67222577
_cell_formula_units_Z   2
loop_
 _symmetry_equiv_pos_site_id
 _symmetry_equiv_pos_as_xyz
  1  'x, y, z'
loop_
 _atom_site_type_symbol
 _atom_site_label
 _atom_site_symmetry_multiplicity
 _atom_site_fract_x
 _atom_site_fract_y
 _atom_site_fract_z
 _atom_site_occupancy
  Cd  Cd0  1  0.91801000  0.56826000  0.29602000  1.0
  Cd  Cd1  1  0.58199000  0.70398000  0.43174000  1.0
  Cd  Cd2  1  0.08199000  0.43174000  0.70398000  1.0
  Cd  Cd3  1  0.41801000  0.29602000  0.56826000  1.0
  H  H4  1  0.71508000  0.44551000  0.48917000  1.0
  H  H5  1  0.78492000  0.51083000  0.55449000  1.0
  H  H6  1  0.28492000  0.55449000  0.51083000  1.0
  H  H7  1  0.21508000  0.48917000  0.44551000  1.0
  H  H8  1  0.37917000  0.55810000  0.28724000  1.0
  H  H9  1  0.12083000  0.71276000  0.44190000  1.0
  H  H10  1  0.62083000  0.44190000  0.71276000  1.0
  H  H11  1  0.87917000  0.28724000  0.55810000  1.0
  H  H12  1  0.75804000  0.39897000  0.07913000  1.0
  H  H13  1  0.74196000  0.92087000  0.60103000  1.0
  H  H14  1  0.24196000  0.60103000  0.92087000  1.0
  H  H15  1  0.25804000  0.07913000  0.39897000  1.0
  H  H16  1  0.62559000  0.28772000  0.02162000  1.0
  H  H17  1  0.87441000  0.97838000  0.71228000  1.0
  H  H18  1  0.37441000  0.71228000  0.97838000  1.0
  H  H19  1  0.12559000  0.02162000  0.28772000  1.0
  H  H20  1  0.36296000  0.02909000  0.06856000  1.0
  H  H21  1  0.13704000  0.93144000  0.97091000  1.0
  H  H22  1  0.63704000  0.97091000  0.93144000  1.0
  H  H23  1  0.86295000  0.06856000  0.02909000  1.0
  H  H24  1  0.46240000  0.82470000  0.18618000  1.0
  H  H25  1  0.03760000  0.81382000  0.17530000  1.0
  H  H26  1  0.53760000  0.17530000  0.81382000  1.0
  H  H27  1  0.96240000  0.18618000  0.82469000  1.0
  H  H28  1  0.59674000  0.96813000  0.39528000  1.0
  H  H29  1  0.90326000  0.60472000  0.03187000  1.0
  H  H30  1  0.40326000  0.03187000  0.60472000  1.0
  H  H31  1  0.09674000  0.39528000  0.96813000  1.0
  H  H32  1  0.51142000  0.17506000  0.28700000  1.0
  H  H33  1  0.98858000  0.71300000  0.82494000  1.0
  H  H34  1  0.48858000  0.82494000  0.71300000  1.0
  H  H35  1  0.01142000  0.28700000  0.17506000  1.0
  C  C36  1  0.20037000  0.45810000  0.24200000  1.0
  C  C37  1  0.29963000  0.75800000  0.54190000  1.0
  C  C38  1  0.79963000  0.54190000  0.75800000  1.0
  C  C39  1  0.70037000  0.24200000  0.45810000  1.0
  C  C40  1  0.65709000  0.54020000  0.23445000  1.0
  C  C41  1  0.84291000  0.76555000  0.45980000  1.0
  C  C42  1  0.34291000  0.45980000  0.76555000  1.0
  C  C43  1  0.15709000  0.23445000  0.54020000  1.0
  C  C44  1  0.35584000  0.43399000  0.20104000  1.0
  C  C45  1  0.14416000  0.79896000  0.56601000  1.0
  C  C46  1  0.64416000  0.56601000  0.79896000  1.0
  C  C47  1  0.85584000  0.20104000  0.43399000  1.0
  C  C48  1  0.43235000  0.49646000  0.23106000  1.0
  C  C49  1  0.06765000  0.76894000  0.50354000  1.0
  C  C50  1  0.56765000  0.50354000  0.76894000  1.0
  C  C51  1  0.93235000  0.23106000  0.49646000  1.0
  C  C52  1  0.57673000  0.48141000  0.19075000  1.0
  C  C53  1  0.92327000  0.80925000  0.51860000  1.0
  C  C54  1  0.42327000  0.51860000  0.80925000  1.0
  C  C55  1  0.07673000  0.19075000  0.48140000  1.0
  C  C56  1  0.64619000  0.40759000  0.11336000  1.0
  C  C57  1  0.85381000  0.88664000  0.59241000  1.0
  C  C58  1  0.35381000  0.59241000  0.88664000  1.0
  C  C59  1  0.14619000  0.11336000  0.40759000  1.0
  C  C60  1  0.57191000  0.34614000  0.08121000  1.0
  C  C61  1  0.92809000  0.91879000  0.65386000  1.0
  C  C62  1  0.42809000  0.65386000  0.91879000  1.0
  C  C63  1  0.07191000  0.08121000  0.34614000  1.0
  C  C64  1  0.42834000  0.35567000  0.12712000  1.0
  C  C65  1  0.07166000  0.87288000  0.64433000  1.0
  C  C66  1  0.57166000  0.64433000  0.87288000  1.0
  C  C67  1  0.92834000  0.12712000  0.35567000  1.0
  C  C68  1  0.42900000  0.12090000  0.16678000  1.0
  C  C69  1  0.07100000  0.83322000  0.87910000  1.0
  C  C70  1  0.57100000  0.87910000  0.83322000  1.0
  C  C71  1  0.92900000  0.16678000  0.12090000  1.0
  C  C72  1  0.41493000  0.01928000  0.13998000  1.0
  C  C73  1  0.08507000  0.86002000  0.98072000  1.0
  C  C74  1  0.58507000  0.98072000  0.86002000  1.0
  C  C75  1  0.91493000  0.13998000  0.01928000  1.0
  C  C76  1  0.46903000  0.90574000  0.20519000  1.0
  C  C77  1  0.03098000  0.79481000  0.09426000  1.0
  C  C78  1  0.53097000  0.09426000  0.79481000  1.0
  C  C79  1  0.96902000  0.20520000  0.90574000  1.0
  C  C80  1  0.54683000  0.98515000  0.32064000  1.0
  C  C81  1  0.95317000  0.67936000  0.01486000  1.0
  C  C82  1  0.45317000  0.01485000  0.67936000  1.0
  C  C83  1  0.04683000  0.32064000  0.98514000  1.0
  C  C84  1  0.49825000  0.10179000  0.25920000  1.0
  C  C85  1  0.00175000  0.74080000  0.89821000  1.0
  C  C86  1  0.50175000  0.89821000  0.74080000  1.0
  C  C87  1  0.99825000  0.25920000  0.10179000  1.0
  S  S88  1  0.34696000  0.26211000  0.09209000  1.0
  S  S89  1  0.15304000  0.90791000  0.73789000  1.0
  S  S90  1  0.65304000  0.73789000  0.90791000  1.0
  S  S91  1  0.84696000  0.09210000  0.26211000  1.0
  N  N92  1  0.53354000  0.88806000  0.29497000  1.0
  N  N93  1  0.96646000  0.70503000  0.11194000  1.0
  N  N94  1  0.46646000  0.11194000  0.70503000  1.0
  N  N95  1  0.03354000  0.29497000  0.88806000  1.0
  O  O96  1  0.12639000  0.44496000  0.18095000  1.0
  O  O97  1  0.37361000  0.81905000  0.55504000  1.0
  O  O98  1  0.87361000  0.55504000  0.81905000  1.0
  O  O99  1  0.62638000  0.18095000  0.44496000  1.0
  O  O100  1  0.14508000  0.49976000  0.33596000  1.0
  O  O101  1  0.35493000  0.66404000  0.50024000  1.0
  O  O102  1  0.85493000  0.50024000  0.66404000  1.0
  O  O103  1  0.64507000  0.33596000  0.49976000  1.0
  O  O104  1  0.59067000  0.63040000  0.27489000  1.0
  O  O105  1  0.90933000  0.72512000  0.36960000  1.0
  O  O106  1  0.40933000  0.36960000  0.72512000  1.0
  O  O107  1  0.09067000  0.27488000  0.63040000  1.0
  O  O108  1  0.78649000  0.49237000  0.22862000  1.0
  O  O109  1  0.71351000  0.77138000  0.50763000  1.0
  O  O110  1  0.21351000  0.50763000  0.77138000  1.0
  O  O111  1  0.28649000  0.22862000  0.49237000  1.0
  O  O112  1  0.75000000  0.51972000  0.48028000  1.0
  O  O113  1  0.25000000  0.48028000  0.51972000  1.0
