# generated using pymatgen
data_Tb2H15C12(NO4)3
_symmetry_space_group_name_H-M   'P 1'
_cell_length_a   11.67240000
_cell_length_b   18.95240000
_cell_length_c   18.94986226
_cell_angle_alpha   84.54540397
_cell_angle_beta   72.06362054
_cell_angle_gamma   72.05370000
_symmetry_Int_Tables_number   1
_chemical_formula_structural   Tb2H15C12(NO4)3
_chemical_formula_sum   'Tb16 H120 C96 N24 O96'
_cell_volume   3794.29866468
_cell_formula_units_Z   8
loop_
 _symmetry_equiv_pos_site_id
 _symmetry_equiv_pos_as_xyz
  1  'x, y, z'
loop_
 _atom_site_type_symbol
 _atom_site_label
 _atom_site_symmetry_multiplicity
 _atom_site_fract_x
 _atom_site_fract_y
 _atom_site_fract_z
 _atom_site_occupancy
  Tb  Tb0  1  0.12435000  0.20229000  0.36571000  1.0
  Tb  Tb1  1  0.69229000  0.29769000  0.13433000  1.0
  Tb  Tb2  1  0.82659000  0.36567000  0.29772000  1.0
  Tb  Tb3  1  0.49009000  0.13428000  0.20227000  1.0
  Tb  Tb4  1  0.87565000  0.79772000  0.63429000  1.0
  Tb  Tb5  1  0.30771000  0.70231000  0.86567000  1.0
  Tb  Tb6  1  0.17340000  0.63433000  0.70229000  1.0
  Tb  Tb7  1  0.50991000  0.86572000  0.79773000  1.0
  Tb  Tb8  1  0.03414000  0.02270000  0.39432000  1.0
  Tb  Tb9  1  0.45115000  0.47734000  0.10571000  1.0
  Tb  Tb10  1  0.55697000  0.39431000  0.47730000  1.0
  Tb  Tb11  1  0.42862000  0.10571000  0.02272000  1.0
  Tb  Tb12  1  0.96585000  0.97730000  0.60569000  1.0
  Tb  Tb13  1  0.54885000  0.52266000  0.89429000  1.0
  Tb  Tb14  1  0.44303000  0.60569000  0.52270000  1.0
  Tb  Tb15  1  0.57139000  0.89430000  0.97727000  1.0
  H  H16  1  0.07713000  0.22251000  0.56273000  1.0
  H  H17  1  0.86223000  0.27744000  0.93729000  1.0
  H  H18  1  0.79920000  0.56269000  0.27736000  1.0
  H  H19  1  0.63934000  0.93726000  0.22257000  1.0
  H  H20  1  0.92288000  0.77749000  0.43727000  1.0
  H  H21  1  0.13777000  0.72256000  0.06271000  1.0
  H  H22  1  0.20080000  0.43731000  0.72264000  1.0
  H  H23  1  0.36066000  0.06273000  0.77743000  1.0
  H  H24  1  0.20702000  0.15161000  0.57904000  1.0
  H  H25  1  0.93774000  0.34819000  0.92098000  1.0
  H  H26  1  0.85820000  0.57913000  0.34819000  1.0
  H  H27  1  0.78566000  0.92077000  0.15180000  1.0
  H  H28  1  0.79298000  0.84839000  0.42096000  1.0
  H  H29  1  0.06226000  0.65182000  0.07902000  1.0
  H  H30  1  0.14180000  0.42087000  0.65181000  1.0
  H  H31  1  0.21433000  0.07923000  0.84820000  1.0
  H  H32  1  0.35565000  0.08441000  0.45507000  1.0
  H  H33  1  0.89507000  0.41544000  0.04498000  1.0
  H  H34  1  0.93984000  0.45498000  0.41559000  1.0
  H  H35  1  0.81027000  0.04493000  0.08435000  1.0
  H  H36  1  0.64434000  0.91559000  0.54494000  1.0
  H  H37  1  0.10494000  0.58456000  0.95502000  1.0
  H  H38  1  0.06015000  0.54502000  0.58442000  1.0
  H  H39  1  0.18974000  0.95506000  0.91565000  1.0
  H  H40  1  0.42013000  0.15131000  0.47526000  1.0
  H  H41  1  0.04674000  0.34855000  0.02475000  1.0
  H  H42  1  0.07111000  0.47541000  0.34873000  1.0
  H  H43  1  0.89532000  0.02448000  0.15110000  1.0
  H  H44  1  0.57987000  0.84869000  0.52474000  1.0
  H  H45  1  0.95327000  0.65145000  0.97524000  1.0
  H  H46  1  0.92890000  0.52459000  0.65127000  1.0
  H  H47  1  0.10468000  0.97551000  0.84890000  1.0
  H  H48  1  0.32671000  0.94010000  0.21697000  1.0
  H  H49  1  0.48361000  0.55985000  0.28317000  1.0
  H  H50  1  0.76714000  0.21683000  0.55981000  1.0
  H  H51  1  0.54363000  0.28329000  0.94022000  1.0
  H  H52  1  0.67330000  0.05989000  0.78303000  1.0
  H  H53  1  0.51639000  0.44015000  0.71683000  1.0
  H  H54  1  0.23286000  0.78317000  0.44018000  1.0
  H  H55  1  0.45637000  0.71671000  0.05978000  1.0
  H  H56  1  0.41419000  0.90483000  0.28091000  1.0
  H  H57  1  0.59955000  0.59529000  0.21931000  1.0
  H  H58  1  0.81930000  0.28062000  0.59528000  1.0
  H  H59  1  0.69499000  0.21942000  0.90483000  1.0
  H  H60  1  0.58581000  0.09517000  0.71910000  1.0
  H  H61  1  0.40046000  0.40471000  0.78068000  1.0
  H  H62  1  0.18070000  0.71938000  0.40472000  1.0
  H  H63  1  0.30501000  0.78059000  0.09517000  1.0
  H  H64  1  0.11803000  0.84075000  0.31624000  1.0
  H  H65  1  0.27479000  0.65909000  0.18379000  1.0
  H  H66  1  0.45898000  0.31615000  0.65905000  1.0
  H  H67  1  0.43422000  0.18402000  0.84089000  1.0
  H  H68  1  0.88197000  0.15925000  0.68376000  1.0
  H  H69  1  0.72521000  0.34091000  0.81621000  1.0
  H  H70  1  0.54103000  0.68384000  0.34095000  1.0
  H  H71  1  0.56578000  0.81598000  0.15911000  1.0
  H  H72  1  0.24021000  0.84298000  0.23351000  1.0
  H  H73  1  0.31638000  0.65706000  0.26655000  1.0
  H  H74  1  0.58325000  0.23341000  0.65708000  1.0
  H  H75  1  0.47338000  0.26685000  0.84317000  1.0
  H  H76  1  0.75979000  0.15702000  0.76649000  1.0
  H  H77  1  0.68363000  0.34294000  0.73344000  1.0
  H  H78  1  0.41675000  0.76658000  0.34292000  1.0
  H  H79  1  0.52662000  0.73315000  0.15683000  1.0
  H  H80  1  0.70895000  0.15449000  0.32197000  1.0
  H  H81  1  0.18557000  0.34543000  0.17796000  1.0
  H  H82  1  0.36315000  0.32228000  0.34555000  1.0
  H  H83  1  0.03118000  0.17766000  0.15466000  1.0
  H  H84  1  0.29106000  0.84551000  0.67802000  1.0
  H  H85  1  0.81444000  0.65457000  0.82204000  1.0
  H  H86  1  0.63685000  0.67772000  0.65445000  1.0
  H  H87  1  0.96882000  0.82234000  0.84534000  1.0
  H  H88  1  0.85703000  0.09603000  0.26835000  1.0
  H  H89  1  0.22151000  0.40395000  0.23158000  1.0
  H  H90  1  0.45275000  0.26860000  0.40403000  1.0
  H  H91  1  0.12531000  0.23141000  0.09611000  1.0
  H  H92  1  0.14296000  0.90397000  0.73166000  1.0
  H  H93  1  0.77850000  0.59605000  0.76842000  1.0
  H  H94  1  0.54725000  0.73140000  0.59597000  1.0
  H  H95  1  0.87469000  0.76859000  0.90389000  1.0
  H  H96  1  0.62543000  0.07452000  0.45160000  1.0
  H  H97  1  0.15154000  0.42545000  0.04836000  1.0
  H  H98  1  0.20002000  0.45183000  0.42529000  1.0
  H  H99  1  0.07727000  0.04812000  0.07488000  1.0
  H  H100  1  0.37456000  0.92548000  0.54840000  1.0
  H  H101  1  0.84845000  0.57454000  0.95165000  1.0
  H  H102  1  0.79997000  0.54817000  0.57471000  1.0
  H  H103  1  0.92273000  0.95189000  0.92512000  1.0
  H  H104  1  0.68267000  0.14920000  0.45600000  1.0
  H  H105  1  0.28785000  0.35078000  0.04393000  1.0
  H  H106  1  0.33204000  0.45627000  0.35073000  1.0
  H  H107  1  0.13919000  0.04374000  0.14942000  1.0
  H  H108  1  0.31732000  0.85081000  0.54400000  1.0
  H  H109  1  0.71215000  0.64922000  0.95607000  1.0
  H  H110  1  0.66797000  0.54373000  0.64927000  1.0
  H  H111  1  0.86081000  0.95626000  0.85058000  1.0
  H  H112  1  0.23474000  0.24591000  0.47008000  1.0
  H  H113  1  0.95083000  0.25391000  0.02984000  1.0
  H  H114  1  0.98047000  0.47024000  0.25404000  1.0
  H  H115  1  0.70487000  0.02971000  0.24589000  1.0
  H  H116  1  0.76527000  0.75409000  0.52991000  1.0
  H  H117  1  0.04917000  0.74609000  0.97016000  1.0
  H  H118  1  0.01953000  0.52976000  0.74596000  1.0
  H  H119  1  0.29513000  0.97029000  0.75411000  1.0
  H  H120  1  0.24733000  0.88005000  0.36175000  1.0
  H  H121  1  0.48893000  0.61992000  0.13835000  1.0
  H  H122  1  0.62768000  0.36159000  0.61995000  1.0
  H  H123  1  0.60908000  0.13853000  0.88009000  1.0
  H  H124  1  0.75267000  0.11995000  0.63825000  1.0
  H  H125  1  0.51107000  0.38008000  0.86165000  1.0
  H  H126  1  0.37232000  0.63841000  0.38005000  1.0
  H  H127  1  0.39091000  0.86147000  0.11992000  1.0
  H  H128  1  0.80969000  0.01853000  0.36075000  1.0
  H  H129  1  0.18894000  0.48143000  0.13921000  1.0
  H  H130  1  0.32808000  0.36102000  0.48147000  1.0
  H  H131  1  0.17050000  0.13898000  0.01868000  1.0
  H  H132  1  0.19030000  0.98147000  0.63925000  1.0
  H  H133  1  0.81107000  0.51857000  0.86079000  1.0
  H  H134  1  0.67192000  0.63898000  0.51853000  1.0
  H  H135  1  0.82950000  0.86103000  0.98132000  1.0
  C  C136  1  0.09269000  0.11626000  0.52704000  1.0
  C  C137  1  0.73602000  0.38374000  0.97298000  1.0
  C  C138  1  0.70868000  0.52701000  0.38372000  1.0
  C  C139  1  0.61963000  0.97288000  0.11621000  1.0
  C  C140  1  0.90731000  0.88374000  0.47296000  1.0
  C  C141  1  0.26397000  0.61626000  0.02702000  1.0
  C  C142  1  0.29131000  0.47299000  0.61628000  1.0
  C  C143  1  0.38036000  0.02712000  0.88379000  1.0
  C  C144  1  0.15406000  0.17285000  0.53857000  1.0
  C  C145  1  0.86546000  0.32704000  0.96147000  1.0
  C  C146  1  0.82656000  0.53859000  0.32702000  1.0
  C  C147  1  0.69232000  0.96133000  0.17292000  1.0
  C  C148  1  0.84594000  0.82715000  0.46143000  1.0
  C  C149  1  0.13454000  0.67296000  0.03853000  1.0
  C  C150  1  0.17344000  0.46141000  0.67298000  1.0
  C  C151  1  0.30768000  0.03867000  0.82708000  1.0
  C  C152  1  0.36016000  0.14193000  0.44427000  1.0
  C  C153  1  0.94636000  0.35792000  0.05575000  1.0
  C  C154  1  0.00184000  0.44435000  0.35803000  1.0
  C  C155  1  0.80425000  0.05558000  0.14186000  1.0
  C  C156  1  0.63984000  0.85807000  0.55573000  1.0
  C  C157  1  0.05364000  0.64208000  0.94425000  1.0
  C  C158  1  0.99815000  0.55565000  0.64197000  1.0
  C  C159  1  0.19575000  0.94442000  0.85814000  1.0
  C  C160  1  0.41758000  0.14613000  0.36130000  1.0
  C  C161  1  0.92496000  0.35375000  0.13873000  1.0
  C  C162  1  0.06368000  0.36137000  0.35375000  1.0
  C  C163  1  0.77886000  0.13855000  0.14616000  1.0
  C  C164  1  0.58243000  0.85387000  0.63870000  1.0
  C  C165  1  0.07504000  0.64625000  0.86127000  1.0
  C  C166  1  0.93631000  0.63863000  0.64625000  1.0
  C  C167  1  0.22114000  0.86145000  0.85384000  1.0
  C  C168  1  0.31590000  0.02006000  0.28948000  1.0
  C  C169  1  0.62548000  0.48000000  0.21057000  1.0
  C  C170  1  0.83621000  0.28948000  0.47998000  1.0
  C  C171  1  0.60551000  0.21062000  0.02011000  1.0
  C  C172  1  0.68410000  0.97994000  0.71052000  1.0
  C  C173  1  0.37452000  0.52000000  0.78943000  1.0
  C  C174  1  0.16380000  0.71052000  0.52002000  1.0
  C  C175  1  0.39449000  0.78938000  0.97988000  1.0
  C  C176  1  0.32312000  0.94075000  0.27577000  1.0
  C  C177  1  0.53948000  0.55927000  0.22438000  1.0
  C  C178  1  0.76421000  0.27562000  0.55928000  1.0
  C  C179  1  0.59888000  0.22449000  0.94082000  1.0
  C  C180  1  0.67688000  0.05925000  0.72423000  1.0
  C  C181  1  0.46052000  0.44073000  0.77562000  1.0
  C  C182  1  0.23580000  0.72438000  0.44071000  1.0
  C  C183  1  0.40112000  0.77552000  0.05918000  1.0
  C  C184  1  0.16660000  0.87751000  0.27921000  1.0
  C  C185  1  0.32311000  0.62244000  0.22090000  1.0
  C  C186  1  0.54441000  0.27907000  0.62242000  1.0
  C  C187  1  0.44573000  0.22105000  0.87766000  1.0
  C  C188  1  0.83341000  0.12250000  0.72079000  1.0
  C  C189  1  0.67689000  0.37756000  0.77910000  1.0
  C  C190  1  0.45559000  0.72092000  0.37758000  1.0
  C  C191  1  0.55427000  0.77895000  0.12234000  1.0
  C  C192  1  0.06781000  0.93490000  0.24803000  1.0
  C  C193  1  0.25072000  0.56502000  0.25210000  1.0
  C  C194  1  0.50320000  0.24790000  0.56500000  1.0
  C  C195  1  0.31582000  0.25203000  0.93507000  1.0
  C  C196  1  0.93219000  0.06510000  0.75197000  1.0
  C  C197  1  0.74929000  0.43498000  0.74789000  1.0
  C  C198  1  0.49681000  0.75210000  0.43499000  1.0
  C  C199  1  0.68418000  0.74798000  0.06493000  1.0
  C  C200  1  0.87623000  0.17658000  0.32825000  1.0
  C  C201  1  0.38113000  0.32345000  0.17169000  1.0
  C  C202  1  0.55267000  0.32833000  0.32340000  1.0
  C  C203  1  0.20474000  0.17164000  0.17661000  1.0
  C  C204  1  0.12377000  0.82342000  0.67175000  1.0
  C  C205  1  0.61888000  0.67655000  0.82831000  1.0
  C  C206  1  0.44733000  0.67166000  0.67660000  1.0
  C  C207  1  0.79526000  0.82836000  0.82339000  1.0
  C  C208  1  0.80529000  0.12376000  0.32225000  1.0
  C  C209  1  0.25135000  0.37622000  0.17769000  1.0
  C  C210  1  0.42885000  0.32248000  0.37624000  1.0
  C  C211  1  0.12771000  0.17750000  0.12388000  1.0
  C  C212  1  0.19471000  0.87624000  0.67775000  1.0
  C  C213  1  0.74866000  0.62378000  0.82231000  1.0
  C  C214  1  0.57115000  0.67752000  0.62376000  1.0
  C  C215  1  0.87229000  0.82251000  0.87612000  1.0
  C  C216  1  0.71080000  0.08845000  0.44994000  1.0
  C  C217  1  0.24920000  0.41153000  0.05000000  1.0
  C  C218  1  0.29931000  0.45017000  0.41147000  1.0
  C  C219  1  0.16110000  0.04979000  0.08867000  1.0
  C  C220  1  0.28919000  0.91155000  0.55006000  1.0
  C  C221  1  0.75080000  0.58847000  0.95000000  1.0
  C  C222  1  0.70069000  0.54983000  0.58853000  1.0
  C  C223  1  0.83890000  0.95021000  0.91133000  1.0
  C  C224  1  0.75314000  0.05475000  0.51731000  1.0
  C  C225  1  0.32520000  0.44525000  0.98264000  1.0
  C  C226  1  0.30781000  0.51748000  0.44528000  1.0
  C  C227  1  0.27080000  0.98250000  0.05488000  1.0
  C  C228  1  0.24686000  0.94526000  0.48269000  1.0
  C  C229  1  0.67480000  0.55475000  0.01736000  1.0
  C  C230  1  0.69219000  0.48252000  0.55472000  1.0
  C  C231  1  0.72919000  0.01750000  0.94512000  1.0
  N  N232  1  0.23121000  0.19310000  0.46732000  1.0
  N  N233  1  0.89167000  0.30674000  0.03269000  1.0
  N  N234  1  0.92409000  0.46741000  0.30684000  1.0
  N  N235  1  0.69841000  0.03254000  0.19310000  1.0
  N  N236  1  0.76880000  0.80690000  0.53267000  1.0
  N  N237  1  0.10832000  0.69326000  0.96731000  1.0
  N  N238  1  0.07591000  0.53259000  0.69316000  1.0
  N  N239  1  0.30159000  0.96746000  0.80690000  1.0
  N  N240  1  0.21791000  0.91437000  0.32192000  1.0
  N  N241  1  0.45406000  0.58560000  0.17821000  1.0
  N  N242  1  0.63264000  0.32176000  0.58563000  1.0
  N  N243  1  0.53988000  0.17834000  0.91444000  1.0
  N  N244  1  0.78209000  0.08563000  0.67808000  1.0
  N  N245  1  0.54594000  0.41440000  0.82179000  1.0
  N  N246  1  0.36736000  0.67824000  0.41437000  1.0
  N  N247  1  0.46012000  0.82166000  0.08556000  1.0
  N  N248  1  0.81118000  0.06667000  0.37989000  1.0
  N  N249  1  0.25775000  0.43331000  0.12005000  1.0
  N  N250  1  0.37781000  0.38011000  0.43332000  1.0
  N  N251  1  0.19130000  0.11987000  0.06679000  1.0
  N  N252  1  0.18881000  0.93333000  0.62011000  1.0
  N  N253  1  0.74226000  0.56669000  0.87995000  1.0
  N  N254  1  0.62219000  0.61989000  0.56668000  1.0
  N  N255  1  0.80870000  0.88013000  0.93321000  1.0
  O  O256  1  0.08840000  0.10985000  0.46134000  1.0
  O  O257  1  0.65969000  0.39022000  0.03871000  1.0
  O  O258  1  0.69822000  0.46126000  0.39024000  1.0
  O  O259  1  0.54987000  0.03864000  0.10972000  1.0
  O  O260  1  0.91160000  0.89015000  0.53866000  1.0
  O  O261  1  0.34031000  0.60978000  0.96129000  1.0
  O  O262  1  0.30179000  0.53874000  0.60976000  1.0
  O  O263  1  0.45013000  0.96136000  0.89028000  1.0
  O  O264  1  0.04931000  0.08008000  0.58282000  1.0
  O  O265  1  0.71221000  0.41992000  0.91720000  1.0
  O  O266  1  0.62901000  0.58276000  0.41990000  1.0
  O  O267  1  0.63194000  0.91714000  0.08002000  1.0
  O  O268  1  0.95068000  0.91992000  0.41718000  1.0
  O  O269  1  0.28779000  0.58007000  0.08280000  1.0
  O  O270  1  0.37099000  0.41724000  0.58010000  1.0
  O  O271  1  0.36806000  0.08286000  0.91998000  1.0
  O  O272  1  0.34131000  0.17833000  0.32285000  1.0
  O  O273  1  0.84231000  0.32164000  0.17717000  1.0
  O  O274  1  0.01963000  0.32287000  0.32161000  1.0
  O  O275  1  0.66422000  0.17706000  0.17840000  1.0
  O  O276  1  0.65869000  0.82167000  0.67715000  1.0
  O  O277  1  0.15768000  0.67836000  0.82284000  1.0
  O  O278  1  0.98036000  0.67713000  0.67839000  1.0
  O  O279  1  0.33580000  0.82294000  0.82159000  1.0
  O  O280  1  0.53258000  0.11753000  0.32918000  1.0
  O  O281  1  0.97929000  0.38227000  0.17087000  1.0
  O  O282  1  0.15020000  0.32933000  0.38229000  1.0
  O  O283  1  0.86182000  0.17060000  0.11756000  1.0
  O  O284  1  0.46742000  0.88246000  0.67082000  1.0
  O  O285  1  0.02071000  0.61773000  0.82913000  1.0
  O  O286  1  0.84980000  0.67068000  0.61771000  1.0
  O  O287  1  0.13818000  0.82940000  0.88244000  1.0
  O  O288  1  0.20983000  0.06518000  0.32318000  1.0
  O  O289  1  0.59825000  0.43485000  0.17690000  1.0
  O  O290  1  0.77519000  0.32308000  0.43484000  1.0
  O  O291  1  0.53317000  0.17690000  0.06524000  1.0
  O  O292  1  0.79018000  0.93482000  0.67682000  1.0
  O  O293  1  0.40176000  0.56514000  0.82310000  1.0
  O  O294  1  0.22481000  0.67692000  0.56516000  1.0
  O  O295  1  0.46684000  0.82310000  0.93476000  1.0
  O  O296  1  0.41734000  0.03648000  0.26153000  1.0
  O  O297  1  0.71548000  0.46358000  0.23845000  1.0
  O  O298  1  0.95411000  0.26166000  0.46353000  1.0
  O  O299  1  0.67909000  0.23848000  0.03653000  1.0
  O  O300  1  0.58266000  0.96352000  0.73847000  1.0
  O  O301  1  0.28452000  0.53641000  0.76155000  1.0
  O  O302  1  0.04589000  0.73834000  0.53647000  1.0
  O  O303  1  0.32090000  0.76151000  0.96347000  1.0
  O  O304  1  0.02763000  0.91497000  0.20220000  1.0
  O  O305  1  0.14490000  0.58493000  0.29810000  1.0
  O  O306  1  0.44330000  0.20196000  0.58495000  1.0
  O  O307  1  0.22972000  0.29779000  0.91513000  1.0
  O  O308  1  0.97237000  0.08504000  0.79780000  1.0
  O  O309  1  0.85509000  0.41507000  0.70191000  1.0
  O  O310  1  0.55669000  0.79804000  0.41505000  1.0
  O  O311  1  0.77028000  0.70221000  0.08487000  1.0
  O  O312  1  0.03344000  0.00136000  0.27470000  1.0
  O  O313  1  0.30938000  0.49860000  0.22528000  1.0
  O  O314  1  0.53497000  0.27472000  0.49857000  1.0
  O  O315  1  0.30814000  0.22525000  0.00151000  1.0
  O  O316  1  0.96656000  0.99865000  0.72530000  1.0
  O  O317  1  0.69062000  0.50140000  0.77472000  1.0
  O  O318  1  0.46503000  0.72528000  0.50143000  1.0
  O  O319  1  0.69186000  0.77475000  0.99849000  1.0
  O  O320  1  0.96314000  0.15149000  0.36062000  1.0
  O  O321  1  0.47524000  0.34862000  0.13942000  1.0
  O  O322  1  0.61465000  0.36055000  0.34850000  1.0
  O  O323  1  0.32402000  0.13938000  0.15145000  1.0
  O  O324  1  0.03685000  0.84852000  0.63939000  1.0
  O  O325  1  0.52477000  0.65137000  0.86058000  1.0
  O  O326  1  0.38535000  0.63945000  0.65150000  1.0
  O  O327  1  0.67598000  0.86063000  0.84855000  1.0
  O  O328  1  0.85087000  0.23973000  0.30010000  1.0
  O  O329  1  0.39088000  0.26027000  0.19977000  1.0
  O  O330  1  0.59042000  0.30017000  0.26027000  1.0
  O  O331  1  0.15132000  0.19977000  0.23975000  1.0
  O  O332  1  0.14913000  0.76027000  0.69990000  1.0
  O  O333  1  0.60912000  0.73973000  0.80023000  1.0
  O  O334  1  0.40958000  0.69983000  0.73973000  1.0
  O  O335  1  0.84868000  0.80022000  0.76025000  1.0
  O  O336  1  0.67645000  0.03868000  0.57298000  1.0
  O  O337  1  0.28812000  0.46141000  0.92696000  1.0
  O  O338  1  0.21500000  0.57312000  0.46147000  1.0
  O  O339  1  0.24990000  0.92685000  0.03868000  1.0
  O  O340  1  0.32354000  0.96133000  0.42702000  1.0
  O  O341  1  0.71188000  0.53858000  0.07304000  1.0
  O  O342  1  0.78500000  0.42688000  0.53853000  1.0
  O  O343  1  0.75010000  0.07315000  0.96132000  1.0
  O  O344  1  0.87161000  0.04692000  0.51205000  1.0
  O  O345  1  0.43062000  0.45299000  0.98796000  1.0
  O  O346  1  0.41850000  0.51215000  0.45309000  1.0
  O  O347  1  0.38395000  0.98783000  0.04707000  1.0
  O  O348  1  0.12839000  0.95308000  0.48795000  1.0
  O  O349  1  0.56938000  0.54701000  0.01204000  1.0
  O  O350  1  0.58150000  0.48785000  0.54691000  1.0
  O  O351  1  0.61605000  0.01217000  0.95293000  1.0
