# generated using pymatgen
data_ZnH34C32(NO2)4
_symmetry_space_group_name_H-M   'P 1'
_cell_length_a   12.32360000
_cell_length_b   15.71330000
_cell_length_c   26.90300000
_cell_angle_alpha   76.59200000
_cell_angle_beta   80.10890000
_cell_angle_gamma   76.74120000
_symmetry_Int_Tables_number   1
_chemical_formula_structural   ZnH34C32(NO2)4
_chemical_formula_sum   'Zn6 H204 C192 N24 O48'
_cell_volume   4893.69179410
_cell_formula_units_Z   6
loop_
 _symmetry_equiv_pos_site_id
 _symmetry_equiv_pos_as_xyz
  1  'x, y, z'
loop_
 _atom_site_type_symbol
 _atom_site_label
 _atom_site_symmetry_multiplicity
 _atom_site_fract_x
 _atom_site_fract_y
 _atom_site_fract_z
 _atom_site_occupancy
  Zn  Zn0  1  0.72290000  0.61142000  0.14628000  1.0
  Zn  Zn1  1  0.27710000  0.38858000  0.85372000  1.0
  Zn  Zn2  1  0.87032000  0.10097000  0.16978000  1.0
  Zn  Zn3  1  0.12967000  0.89903000  0.83022000  1.0
  Zn  Zn4  1  0.24270000  0.77602000  0.50011000  1.0
  Zn  Zn5  1  0.75730000  0.22399000  0.49989000  1.0
  H  H6  1  0.80966000  0.57203000  0.24756000  1.0
  H  H7  1  0.19035000  0.42798000  0.75244000  1.0
  H  H8  1  0.92268000  0.44676000  0.30150000  1.0
  H  H9  1  0.07733000  0.55325000  0.69850000  1.0
  H  H10  1  0.99737000  0.31397000  0.17067000  1.0
  H  H11  1  0.00261000  0.68602000  0.82933000  1.0
  H  H12  1  0.88494000  0.44682000  0.12270000  1.0
  H  H13  1  0.11504000  0.55317000  0.87730000  1.0
  H  H14  1  0.12498000  0.22683000  0.21421000  1.0
  H  H15  1  0.87501000  0.77318000  0.78579000  1.0
  H  H16  1  0.00411000  0.18078000  0.24025000  1.0
  H  H17  1  0.99589000  0.81923000  0.75976000  1.0
  H  H18  1  0.93828000  0.32488000  0.34116000  1.0
  H  H19  1  0.06172000  0.67513000  0.65884000  1.0
  H  H20  1  0.08603000  0.28401000  0.34031000  1.0
  H  H21  1  0.91397000  0.71600000  0.65969000  1.0
  H  H22  1  0.97374000  0.17657000  0.39436000  1.0
  H  H23  1  0.02626000  0.82344000  0.60565000  1.0
  H  H24  1  0.90377000  0.17787000  0.34213000  1.0
  H  H25  1  0.09623000  0.82213000  0.65787000  1.0
  H  H26  1  0.17270000  0.07981000  0.26936000  1.0
  H  H27  1  0.82730000  0.92020000  0.73065000  1.0
  H  H28  1  0.21588000  0.16310000  0.29121000  1.0
  H  H29  1  0.78412000  0.83691000  0.70880000  1.0
  H  H30  1  0.95941000  0.05036000  0.42699000  1.0
  H  H31  1  0.04059000  0.94965000  0.57301000  1.0
  H  H32  1  0.03587000  0.91843000  0.49006000  1.0
  H  H33  1  0.96413000  0.08157000  0.50994000  1.0
  H  H34  1  0.33524000  0.86760000  0.39501000  1.0
  H  H35  1  0.66474000  0.13240000  0.60498000  1.0
  H  H36  1  0.27652000  0.99872000  0.32791000  1.0
  H  H37  1  0.72347000  0.00128000  0.67209000  1.0
  H  H38  1  0.87608000  0.71159000  0.16940000  1.0
  H  H39  1  0.12391000  0.28841000  0.83060000  1.0
  H  H40  1  0.96813000  0.83549000  0.12702000  1.0
  H  H41  1  0.03186000  0.16450000  0.87298000  1.0
  H  H42  1  0.81977000  0.84199000  0.98980000  1.0
  H  H43  1  0.18022000  0.15802000  0.01020000  1.0
  H  H44  1  0.73468000  0.71815000  0.03934000  1.0
  H  H45  1  0.26531000  0.28187000  0.96066000  1.0
  H  H46  1  0.88148000  0.94204000  0.95835000  1.0
  H  H47  1  0.11852000  0.05796000  0.04165000  1.0
  H  H48  1  0.02993000  0.91220000  0.95231000  1.0
  H  H49  1  0.97008000  0.08779000  0.04769000  1.0
  H  H50  1  0.02654000  0.93645000  0.08938000  1.0
  H  H51  1  0.97347000  0.06355000  0.91062000  1.0
  H  H52  1  0.12266000  0.90818000  0.03496000  1.0
  H  H53  1  0.87735000  0.09181000  0.96503000  1.0
  H  H54  1  0.74141000  0.29256000  0.14182000  1.0
  H  H55  1  0.25858000  0.70743000  0.85818000  1.0
  H  H56  1  0.63622000  0.40996000  0.18799000  1.0
  H  H57  1  0.36378000  0.59004000  0.81201000  1.0
  H  H58  1  0.70170000  0.21918000  0.33072000  1.0
  H  H59  1  0.29830000  0.78083000  0.66928000  1.0
  H  H60  1  0.80357000  0.11114000  0.27729000  1.0
  H  H61  1  0.19643000  0.88886000  0.72271000  1.0
  H  H62  1  0.69390000  0.33187000  0.35639000  1.0
  H  H63  1  0.30611000  0.66814000  0.64360000  1.0
  H  H64  1  0.54551000  0.34200000  0.37043000  1.0
  H  H65  1  0.45449000  0.65800000  0.62956000  1.0
  H  H66  1  0.50946000  0.47292000  0.23583000  1.0
  H  H67  1  0.49054000  0.52709000  0.76417000  1.0
  H  H68  1  0.61028000  0.52210000  0.25215000  1.0
  H  H69  1  0.38971000  0.47791000  0.74785000  1.0
  H  H70  1  0.38920000  0.48345000  0.31759000  1.0
  H  H71  1  0.61080000  0.51655000  0.68241000  1.0
  H  H72  1  0.42466000  0.58868000  0.28579000  1.0
  H  H73  1  0.57534000  0.41133000  0.71421000  1.0
  H  H74  1  0.61559000  0.44732000  0.40390000  1.0
  H  H75  1  0.38443000  0.55268000  0.59610000  1.0
  H  H76  1  0.68139000  0.49099000  0.34258000  1.0
  H  H77  1  0.31861000  0.50902000  0.65741000  1.0
  H  H78  1  0.30261000  0.63699000  0.34114000  1.0
  H  H79  1  0.69739000  0.36301000  0.65886000  1.0
  H  H80  1  0.21041000  0.73793000  0.39948000  1.0
  H  H81  1  0.78959000  0.26206000  0.60052000  1.0
  H  H82  1  0.45575000  0.64224000  0.49662000  1.0
  H  H83  1  0.54424000  0.35776000  0.50339000  1.0
  H  H84  1  0.56603000  0.53987000  0.44177000  1.0
  H  H85  1  0.43397000  0.46012000  0.55823000  1.0
  H  H86  1  0.78692000  0.19181000  0.06753000  1.0
  H  H87  1  0.21308000  0.80819000  0.93247000  1.0
  H  H88  1  0.67866000  0.15947000  0.00847000  1.0
  H  H89  1  0.32134000  0.84053000  0.99153000  1.0
  H  H90  1  0.63625000  0.91683000  0.12211000  1.0
  H  H91  1  0.36374000  0.08318000  0.87789000  1.0
  H  H92  1  0.74782000  0.96038000  0.17436000  1.0
  H  H93  1  0.25218000  0.03962000  0.82564000  1.0
  H  H94  1  0.60158000  0.88146000  0.01449000  1.0
  H  H95  1  0.39841000  0.11854000  0.98551000  1.0
  H  H96  1  0.54895000  0.89413000  0.07849000  1.0
  H  H97  1  0.45105000  0.10588000  0.92151000  1.0
  H  H98  1  0.59792000  0.12392000  0.96729000  1.0
  H  H99  1  0.40208000  0.87609000  0.03271000  1.0
  H  H100  1  0.63203000  0.02049000  0.94700000  1.0
  H  H101  1  0.36797000  0.97952000  0.05300000  1.0
  H  H102  1  0.52891000  0.91571000  0.22203000  1.0
  H  H103  1  0.47109000  0.08429000  0.77797000  1.0
  H  H104  1  0.50168000  0.96848000  0.30358000  1.0
  H  H105  1  0.49832000  0.03153000  0.69642000  1.0
  H  H106  1  0.62623000  0.70114000  0.38287000  1.0
  H  H107  1  0.37375000  0.29886000  0.61713000  1.0
  H  H108  1  0.65232000  0.64755000  0.29960000  1.0
  H  H109  1  0.34766000  0.35245000  0.70040000  1.0
  H  H110  1  0.73046000  0.91957000  0.34888000  1.0
  H  H111  1  0.26954000  0.08043000  0.65112000  1.0
  H  H112  1  0.79686000  0.04059000  0.37392000  1.0
  H  H113  1  0.20315000  0.95941000  0.62608000  1.0
  H  H114  1  0.48530000  0.09926000  0.47058000  1.0
  H  H115  1  0.51470000  0.90074000  0.52942000  1.0
  H  H116  1  0.42093000  0.97234000  0.44892000  1.0
  H  H117  1  0.57907000  0.02765000  0.55108000  1.0
  H  H118  1  0.72473000  0.43625000  0.00804000  1.0
  H  H119  1  0.27526000  0.56375000  0.99197000  1.0
  H  H120  1  0.63292000  0.32789000  0.98367000  1.0
  H  H121  1  0.36709000  0.67211000  0.01634000  1.0
  H  H122  1  0.37540000  0.35582000  0.11280000  1.0
  H  H123  1  0.62461000  0.64414000  0.88722000  1.0
  H  H124  1  0.46651000  0.46503000  0.13567000  1.0
  H  H125  1  0.53349000  0.53494000  0.86435000  1.0
  H  H126  1  0.26125000  0.39075000  0.02455000  1.0
  H  H127  1  0.73877000  0.60924000  0.97545000  1.0
  H  H128  1  0.07202000  0.35412000  0.05994000  1.0
  H  H129  1  0.92800000  0.64588000  0.94006000  1.0
  H  H130  1  0.22767000  0.08572000  0.12349000  1.0
  H  H131  1  0.77232000  0.91428000  0.87651000  1.0
  H  H132  1  0.41784000  0.12095000  0.08635000  1.0
  H  H133  1  0.58216000  0.87904000  0.91366000  1.0
  H  H134  1  0.96149000  0.94930000  0.31926000  1.0
  H  H135  1  0.03852000  0.05070000  0.68073000  1.0
  H  H136  1  0.00757000  0.82737000  0.39590000  1.0
  H  H137  1  0.99244000  0.17263000  0.60409000  1.0
  H  H138  1  0.05979000  0.63162000  0.30114000  1.0
  H  H139  1  0.94021000  0.36838000  0.69886000  1.0
  H  H140  1  0.02166000  0.75456000  0.22413000  1.0
  H  H141  1  0.97835000  0.24544000  0.77587000  1.0
  H  H142  1  0.16035000  0.49993000  0.43426000  1.0
  H  H143  1  0.83966000  0.50006000  0.56572000  1.0
  H  H144  1  0.07668000  0.36369000  0.46087000  1.0
  H  H145  1  0.92332000  0.63631000  0.53911000  1.0
  H  H146  1  0.76984000  0.51401000  0.40375000  1.0
  H  H147  1  0.23016000  0.48600000  0.59625000  1.0
  H  H148  1  0.85215000  0.65140000  0.37780000  1.0
  H  H149  1  0.14784000  0.34860000  0.62221000  1.0
  H  H150  1  0.95865000  0.77938000  0.53262000  1.0
  H  H151  1  0.04135000  0.22062000  0.46738000  1.0
  H  H152  1  0.70128000  0.65521000  0.60172000  1.0
  H  H153  1  0.29872000  0.34479000  0.39827000  1.0
  H  H154  1  0.88829000  0.89118000  0.46523000  1.0
  H  H155  1  0.11171000  0.10882000  0.53477000  1.0
  H  H156  1  0.75733000  0.90433000  0.50492000  1.0
  H  H157  1  0.24267000  0.09568000  0.49509000  1.0
  H  H158  1  0.76760000  0.81438000  0.43655000  1.0
  H  H159  1  0.23240000  0.18563000  0.56345000  1.0
  H  H160  1  0.87358000  0.73135000  0.46759000  1.0
  H  H161  1  0.12641000  0.26865000  0.53241000  1.0
  H  H162  1  0.77022000  0.62124000  0.49580000  1.0
  H  H163  1  0.22977000  0.37876000  0.50420000  1.0
  H  H164  1  0.64684000  0.68472000  0.46811000  1.0
  H  H165  1  0.35314000  0.31528000  0.53189000  1.0
  H  H166  1  0.54006000  0.68500000  0.55430000  1.0
  H  H167  1  0.45994000  0.31501000  0.44570000  1.0
  H  H168  1  0.59307000  0.57393000  0.54359000  1.0
  H  H169  1  0.40692000  0.42608000  0.45641000  1.0
  H  H170  1  0.19918000  0.23856000  0.40706000  1.0
  H  H171  1  0.80082000  0.76144000  0.59294000  1.0
  H  H172  1  0.38323000  0.02959000  0.19306000  1.0
  H  H173  1  0.61676000  0.97042000  0.80694000  1.0
  H  H174  1  0.39641000  0.19054000  0.40669000  1.0
  H  H175  1  0.60359000  0.80947000  0.59332000  1.0
  H  H176  1  0.32544000  0.12636000  0.38151000  1.0
  H  H177  1  0.67457000  0.87364000  0.61849000  1.0
  H  H178  1  0.50941000  0.16390000  0.33149000  1.0
  H  H179  1  0.49059000  0.83611000  0.66851000  1.0
  H  H180  1  0.43624000  0.27652000  0.31381000  1.0
  H  H181  1  0.56376000  0.72348000  0.68619000  1.0
  H  H182  1  0.54127000  0.12367000  0.25282000  1.0
  H  H183  1  0.45872000  0.87634000  0.74718000  1.0
  H  H184  1  0.49171000  0.23744000  0.22367000  1.0
  H  H185  1  0.50829000  0.76256000  0.77633000  1.0
  H  H186  1  0.34102000  0.19310000  0.19020000  1.0
  H  H187  1  0.65898000  0.80691000  0.80981000  1.0
  H  H188  1  0.48008000  0.14443000  0.16667000  1.0
  H  H189  1  0.51992000  0.85557000  0.83333000  1.0
  H  H190  1  0.24304000  0.79505000  0.10539000  1.0
  H  H191  1  0.75697000  0.20495000  0.89462000  1.0
  H  H192  1  0.44606000  0.67004000  0.09336000  1.0
  H  H193  1  0.55394000  0.32996000  0.90664000  1.0
  H  H194  1  0.44221000  0.77144000  0.11336000  1.0
  H  H195  1  0.55779000  0.22855000  0.88664000  1.0
  H  H196  1  0.41782000  0.65536000  0.19016000  1.0
  H  H197  1  0.58219000  0.34463000  0.80984000  1.0
  H  H198  1  0.30618000  0.62709000  0.16633000  1.0
  H  H199  1  0.69382000  0.37290000  0.83367000  1.0
  H  H200  1  0.38237000  0.75744000  0.23259000  1.0
  H  H201  1  0.61764000  0.24254000  0.76741000  1.0
  H  H202  1  0.23977000  0.77547000  0.26120000  1.0
  H  H203  1  0.76025000  0.22452000  0.73880000  1.0
  H  H204  1  0.28660000  0.91435000  0.24311000  1.0
  H  H205  1  0.71344000  0.08563000  0.75689000  1.0
  H  H206  1  0.20005000  0.91819000  0.19545000  1.0
  H  H207  1  0.79996000  0.08180000  0.80456000  1.0
  H  H208  1  0.43812000  0.87772000  0.17013000  1.0
  H  H209  1  0.56189000  0.12227000  0.82987000  1.0
  C  C210  1  0.85319000  0.51289000  0.23237000  1.0
  C  C211  1  0.14680000  0.48712000  0.76763000  1.0
  C  C212  1  0.91519000  0.44159000  0.26265000  1.0
  C  C213  1  0.08480000  0.55842000  0.73735000  1.0
  C  C214  1  0.96711000  0.36368000  0.24257000  1.0
  C  C215  1  0.03288000  0.63632000  0.75743000  1.0
  C  C216  1  0.95900000  0.36909000  0.18989000  1.0
  C  C217  1  0.04098000  0.63091000  0.81011000  1.0
  C  C218  1  0.89552000  0.44356000  0.16259000  1.0
  C  C219  1  0.10447000  0.55644000  0.83742000  1.0
  C  C220  1  0.07008000  0.20875000  0.25014000  1.0
  C  C221  1  0.92991000  0.79125000  0.74987000  1.0
  C  C222  1  0.00915000  0.27557000  0.32789000  1.0
  C  C223  1  0.99085000  0.72443000  0.67212000  1.0
  C  C224  1  0.98401000  0.18367000  0.35250000  1.0
  C  C225  1  0.01599000  0.81634000  0.64751000  1.0
  C  C226  1  0.14173000  0.13881000  0.28688000  1.0
  C  C227  1  0.85826000  0.86120000  0.71312000  1.0
  C  C228  1  0.11213000  0.03938000  0.37128000  1.0
  C  C229  1  0.88787000  0.96062000  0.62872000  1.0
  C  C230  1  0.04425000  0.01308000  0.41832000  1.0
  C  C231  1  0.95574000  0.98693000  0.58168000  1.0
  C  C232  1  0.08577000  0.93867000  0.45338000  1.0
  C  C233  1  0.91422000  0.06134000  0.54663000  1.0
  C  C234  1  0.25238000  0.90987000  0.40033000  1.0
  C  C235  1  0.74761000  0.09013000  0.59967000  1.0
  C  C236  1  0.21890000  0.98331000  0.36273000  1.0
  C  C237  1  0.78109000  0.01669000  0.63727000  1.0
  C  C238  1  0.86610000  0.74279000  0.12930000  1.0
  C  C239  1  0.13390000  0.25721000  0.87069000  1.0
  C  C240  1  0.91910000  0.81227000  0.10477000  1.0
  C  C241  1  0.08089000  0.18773000  0.89523000  1.0
  C  C242  1  0.90432000  0.85341000  0.05280000  1.0
  C  C243  1  0.09567000  0.14660000  0.94719000  1.0
  C  C244  1  0.83528000  0.81726000  0.02957000  1.0
  C  C245  1  0.16471000  0.18275000  0.97043000  1.0
  C  C246  1  0.78626000  0.74718000  0.05720000  1.0
  C  C247  1  0.21373000  0.25283000  0.94280000  1.0
  C  C248  1  0.95602000  0.95264000  0.97116000  1.0
  C  C249  1  0.04399000  0.04736000  0.02884000  1.0
  C  C250  1  0.04070000  0.94876000  0.04724000  1.0
  C  C251  1  0.95931000  0.05124000  0.95276000  1.0
  C  C252  1  0.72866000  0.27907000  0.18379000  1.0
  C  C253  1  0.27133000  0.72092000  0.81621000  1.0
  C  C254  1  0.66961000  0.34458000  0.21005000  1.0
  C  C255  1  0.33039000  0.65542000  0.78995000  1.0
  C  C256  1  0.65937000  0.32697000  0.26459000  1.0
  C  C257  1  0.34064000  0.67303000  0.73541000  1.0
  C  C258  1  0.70899000  0.23992000  0.28904000  1.0
  C  C259  1  0.29101000  0.76009000  0.71096000  1.0
  C  C260  1  0.76559000  0.17874000  0.25953000  1.0
  C  C261  1  0.23441000  0.82126000  0.74046000  1.0
  C  C262  1  0.61307000  0.37469000  0.34738000  1.0
  C  C263  1  0.38694000  0.62532000  0.65261000  1.0
  C  C264  1  0.54945000  0.47808000  0.26818000  1.0
  C  C265  1  0.45055000  0.52193000  0.73182000  1.0
  C  C266  1  0.45825000  0.52076000  0.30585000  1.0
  C  C267  1  0.54175000  0.47924000  0.69415000  1.0
  C  C268  1  0.60781000  0.46253000  0.36280000  1.0
  C  C269  1  0.39220000  0.53748000  0.63719000  1.0
  C  C270  1  0.44681000  0.57868000  0.38430000  1.0
  C  C271  1  0.55319000  0.42132000  0.61570000  1.0
  C  C272  1  0.34261000  0.63623000  0.37425000  1.0
  C  C273  1  0.65739000  0.36376000  0.62575000  1.0
  C  C274  1  0.28955000  0.69264000  0.40722000  1.0
  C  C275  1  0.71045000  0.30736000  0.59278000  1.0
  C  C276  1  0.42663000  0.63924000  0.46121000  1.0
  C  C277  1  0.57336000  0.36076000  0.53879000  1.0
  C  C278  1  0.48732000  0.58153000  0.43024000  1.0
  C  C279  1  0.51267000  0.41847000  0.56976000  1.0
  C  C280  1  0.75134000  0.13156000  0.07778000  1.0
  C  C281  1  0.24866000  0.86844000  0.92221000  1.0
  C  C282  1  0.68994000  0.11255000  0.04480000  1.0
  C  C283  1  0.31006000  0.88745000  0.95520000  1.0
  C  C284  1  0.64505000  0.03332000  0.05840000  1.0
  C  C285  1  0.35495000  0.96668000  0.94160000  1.0
  C  C286  1  0.66585000  0.97915000  0.10735000  1.0
  C  C287  1  0.33415000  0.02085000  0.89264000  1.0
  C  C288  1  0.72915000  0.00317000  0.13744000  1.0
  C  C289  1  0.27085000  0.99683000  0.86256000  1.0
  C  C290  1  0.54585000  0.92675000  0.03807000  1.0
  C  C291  1  0.45414000  0.07325000  0.96192000  1.0
  C  C292  1  0.57448000  0.05884000  0.97393000  1.0
  C  C293  1  0.42552000  0.94116000  0.02607000  1.0
  C  C294  1  0.60237000  0.74566000  0.20643000  1.0
  C  C295  1  0.39764000  0.25434000  0.79357000  1.0
  C  C296  1  0.59152000  0.77772000  0.25559000  1.0
  C  C297  1  0.40848000  0.22228000  0.74440000  1.0
  C  C298  1  0.55087000  0.86818000  0.25694000  1.0
  C  C299  1  0.44914000  0.13183000  0.74306000  1.0
  C  C300  1  0.53615000  0.89840000  0.30270000  1.0
  C  C301  1  0.46385000  0.10161000  0.69730000  1.0
  C  C302  1  0.56338000  0.83699000  0.34755000  1.0
  C  C303  1  0.43662000  0.16301000  0.65244000  1.0
  C  C304  1  0.60645000  0.74691000  0.34702000  1.0
  C  C305  1  0.39354000  0.25309000  0.65297000  1.0
  C  C306  1  0.62016000  0.71764000  0.30098000  1.0
  C  C307  1  0.37983000  0.28236000  0.69902000  1.0
  C  C308  1  0.57296000  0.93851000  0.39915000  1.0
  C  C309  1  0.42704000  0.06149000  0.60085000  1.0
  C  C310  1  0.67712000  0.95895000  0.37562000  1.0
  C  C311  1  0.32288000  0.04105000  0.62438000  1.0
  C  C312  1  0.71325000  0.02714000  0.38911000  1.0
  C  C313  1  0.28676000  0.97286000  0.61089000  1.0
  C  C314  1  0.64520000  0.07680000  0.42421000  1.0
  C  C315  1  0.35480000  0.92320000  0.57579000  1.0
  C  C316  1  0.53796000  0.05940000  0.44403000  1.0
  C  C317  1  0.46204000  0.94060000  0.55597000  1.0
  C  C318  1  0.50166000  0.98998000  0.43194000  1.0
  C  C319  1  0.49834000  0.01002000  0.56806000  1.0
  C  C320  1  0.69007000  0.14005000  0.44492000  1.0
  C  C321  1  0.30993000  0.85995000  0.55508000  1.0
  C  C322  1  0.65907000  0.52005000  0.08835000  1.0
  C  C323  1  0.34093000  0.47994000  0.91165000  1.0
  C  C324  1  0.60107000  0.45823000  0.07319000  1.0
  C  C325  1  0.39893000  0.54175000  0.92682000  1.0
  C  C326  1  0.64732000  0.41916000  0.03030000  1.0
  C  C327  1  0.35269000  0.58082000  0.96971000  1.0
  C  C328  1  0.59672000  0.35886000  0.01668000  1.0
  C  C329  1  0.40329000  0.64112000  0.98332000  1.0
  C  C330  1  0.49860000  0.33635000  0.04656000  1.0
  C  C331  1  0.50142000  0.66363000  0.95345000  1.0
  C  C332  1  0.45127000  0.37411000  0.08960000  1.0
  C  C333  1  0.54874000  0.62586000  0.91041000  1.0
  C  C334  1  0.50253000  0.43505000  0.10232000  1.0
  C  C335  1  0.49748000  0.56493000  0.89769000  1.0
  C  C336  1  0.34939000  0.25795000  0.05489000  1.0
  C  C337  1  0.65063000  0.74204000  0.94511000  1.0
  C  C338  1  0.25354000  0.32499000  0.04759000  1.0
  C  C339  1  0.74648000  0.67500000  0.95241000  1.0
  C  C340  1  0.14839000  0.30436000  0.06704000  1.0
  C  C341  1  0.85162000  0.69564000  0.93296000  1.0
  C  C342  1  0.13850000  0.21838000  0.09448000  1.0
  C  C343  1  0.86150000  0.78162000  0.90552000  1.0
  C  C344  1  0.23582000  0.15246000  0.10215000  1.0
  C  C345  1  0.76418000  0.84754000  0.89785000  1.0
  C  C346  1  0.34147000  0.17175000  0.08180000  1.0
  C  C347  1  0.65853000  0.82824000  0.91821000  1.0
  C  C348  1  0.02428000  0.19607000  0.11273000  1.0
  C  C349  1  0.97572000  0.80394000  0.88726000  1.0
  C  C350  1  0.95460000  0.93051000  0.22164000  1.0
  C  C351  1  0.04540000  0.06949000  0.77835000  1.0
  C  C352  1  0.98479000  0.85883000  0.26751000  1.0
  C  C353  1  0.01523000  0.14117000  0.73249000  1.0
  C  C354  1  0.98285000  0.87956000  0.31564000  1.0
  C  C355  1  0.01715000  0.12043000  0.68435000  1.0
  C  C356  1  0.00790000  0.81220000  0.35833000  1.0
  C  C357  1  0.99211000  0.18780000  0.64166000  1.0
  C  C358  1  0.03224000  0.72338000  0.35274000  1.0
  C  C359  1  0.96777000  0.27662000  0.64726000  1.0
  C  C360  1  0.03770000  0.70140000  0.30472000  1.0
  C  C361  1  0.96231000  0.29860000  0.69528000  1.0
  C  C362  1  0.01489000  0.76948000  0.26225000  1.0
  C  C363  1  0.98511000  0.23052000  0.73775000  1.0
  C  C364  1  0.01022000  0.58309000  0.40583000  1.0
  C  C365  1  0.98978000  0.41691000  0.59417000  1.0
  C  C366  1  0.07399000  0.50263000  0.42888000  1.0
  C  C367  1  0.92601000  0.49737000  0.57111000  1.0
  C  C368  1  0.02714000  0.42663000  0.44304000  1.0
  C  C369  1  0.97287000  0.57337000  0.55695000  1.0
  C  C370  1  0.91718000  0.42994000  0.43421000  1.0
  C  C371  1  0.08282000  0.57006000  0.56579000  1.0
  C  C372  1  0.85543000  0.51144000  0.41019000  1.0
  C  C373  1  0.14457000  0.48856000  0.58981000  1.0
  C  C374  1  0.90074000  0.58808000  0.39594000  1.0
  C  C375  1  0.09926000  0.41192000  0.60406000  1.0
  C  C376  1  0.86215000  0.35115000  0.45138000  1.0
  C  C377  1  0.13785000  0.64885000  0.54862000  1.0
  C  C378  1  0.83263000  0.85516000  0.49510000  1.0
  C  C379  1  0.16738000  0.14484000  0.50490000  1.0
  C  C380  1  0.79955000  0.78465000  0.47400000  1.0
  C  C381  1  0.20045000  0.21535000  0.52600000  1.0
  C  C382  1  0.69153000  0.67000000  0.50245000  1.0
  C  C383  1  0.30846000  0.33001000  0.49755000  1.0
  C  C384  1  0.61726000  0.63350000  0.54992000  1.0
  C  C385  1  0.38274000  0.36651000  0.45008000  1.0
  C  C386  1  0.34901000  0.19201000  0.37521000  1.0
  C  C387  1  0.65100000  0.80799000  0.62479000  1.0
  C  C388  1  0.42593000  0.20614000  0.32513000  1.0
  C  C389  1  0.57407000  0.79386000  0.67487000  1.0
  C  C390  1  0.46557000  0.17303000  0.24120000  1.0
  C  C391  1  0.53443000  0.82698000  0.75880000  1.0
  C  C392  1  0.41717000  0.14390000  0.20128000  1.0
  C  C393  1  0.58283000  0.85611000  0.79872000  1.0
  C  C394  1  0.39190000  0.72246000  0.11220000  1.0
  C  C395  1  0.60810000  0.27754000  0.88780000  1.0
  C  C396  1  0.34773000  0.68200000  0.16677000  1.0
  C  C397  1  0.65227000  0.31800000  0.83324000  1.0
  C  C398  1  0.29571000  0.78848000  0.22469000  1.0
  C  C399  1  0.70431000  0.21151000  0.77531000  1.0
  C  C400  1  0.28320000  0.88932000  0.20826000  1.0
  C  C401  1  0.71683000  0.11067000  0.79174000  1.0
  N  N402  1  0.83991000  0.51470000  0.18321000  1.0
  N  N403  1  0.16008000  0.48530000  0.81679000  1.0
  N  N404  1  0.02004000  0.28841000  0.27180000  1.0
  N  N405  1  0.97995000  0.71159000  0.72820000  1.0
  N  N406  1  0.07615000  0.11435000  0.33692000  1.0
  N  N407  1  0.92385000  0.88565000  0.66308000  1.0
  N  N408  1  0.18847000  0.88653000  0.44555000  1.0
  N  N409  1  0.81152000  0.11347000  0.55445000  1.0
  N  N410  1  0.80019000  0.70918000  0.10655000  1.0
  N  N411  1  0.19980000  0.29083000  0.89345000  1.0
  N  N412  1  0.95179000  0.92446000  0.02705000  1.0
  N  N413  1  0.04821000  0.07554000  0.97295000  1.0
  N  N414  1  0.77732000  0.19689000  0.20749000  1.0
  N  N415  1  0.22268000  0.80311000  0.79251000  1.0
  N  N416  1  0.60497000  0.38935000  0.29246000  1.0
  N  N417  1  0.39503000  0.61066000  0.70754000  1.0
  N  N418  1  0.50395000  0.52505000  0.35168000  1.0
  N  N419  1  0.49606000  0.47496000  0.64832000  1.0
  N  N420  1  0.32959000  0.69555000  0.45027000  1.0
  N  N421  1  0.67040000  0.30445000  0.54973000  1.0
  N  N422  1  0.77332000  0.07780000  0.12364000  1.0
  N  N423  1  0.22667000  0.92221000  0.87635000  1.0
  N  N424  1  0.58493000  0.01100000  0.02686000  1.0
  N  N425  1  0.41506000  0.98900000  0.97314000  1.0
  O  O426  1  0.64882000  0.66273000  0.20843000  1.0
  O  O427  1  0.35117000  0.33727000  0.79157000  1.0
  O  O428  1  0.56586000  0.79836000  0.16712000  1.0
  O  O429  1  0.43416000  0.20164000  0.83288000  1.0
  O  O430  1  0.54094000  0.86209000  0.39486000  1.0
  O  O431  1  0.45906000  0.13791000  0.60514000  1.0
  O  O432  1  0.62363000  0.18794000  0.47477000  1.0
  O  O433  1  0.37638000  0.81206000  0.52523000  1.0
  O  O434  1  0.79452000  0.14157000  0.43538000  1.0
  O  O435  1  0.20548000  0.85843000  0.56462000  1.0
  O  O436  1  0.61338000  0.55047000  0.13013000  1.0
  O  O437  1  0.38662000  0.44951000  0.86988000  1.0
  O  O438  1  0.74850000  0.53954000  0.06296000  1.0
  O  O439  1  0.25148000  0.46046000  0.93704000  1.0
  O  O440  1  0.45544000  0.27318000  0.03222000  1.0
  O  O441  1  0.54457000  0.72681000  0.96778000  1.0
  O  O442  1  0.02403000  0.12008000  0.14466000  1.0
  O  O443  1  0.97597000  0.87993000  0.85534000  1.0
  O  O444  1  0.93814000  0.24836000  0.09714000  1.0
  O  O445  1  0.06186000  0.75164000  0.90285000  1.0
  O  O446  1  0.89280000  0.00441000  0.23237000  1.0
  O  O447  1  0.10720000  0.99559000  0.76762000  1.0
  O  O448  1  0.98727000  0.91640000  0.17706000  1.0
  O  O449  1  0.01274000  0.08361000  0.82293000  1.0
  O  O450  1  0.05755000  0.65782000  0.39582000  1.0
  O  O451  1  0.94245000  0.34218000  0.60418000  1.0
  O  O452  1  0.76476000  0.35667000  0.44010000  1.0
  O  O453  1  0.23523000  0.64333000  0.55990000  1.0
  O  O454  1  0.91168000  0.27890000  0.47957000  1.0
  O  O455  1  0.08833000  0.72110000  0.52043000  1.0
  O  O456  1  0.88435000  0.81836000  0.54127000  1.0
  O  O457  1  0.11565000  0.18164000  0.45873000  1.0
  O  O458  1  0.71571000  0.74930000  0.51093000  1.0
  O  O459  1  0.28429000  0.25070000  0.48906000  1.0
  O  O460  1  0.67070000  0.60575000  0.59551000  1.0
  O  O461  1  0.32929000  0.39425000  0.40449000  1.0
  O  O462  1  0.25013000  0.26126000  0.37623000  1.0
  O  O463  1  0.74987000  0.73874000  0.62377000  1.0
  O  O464  1  0.38397000  0.18171000  0.28526000  1.0
  O  O465  1  0.61603000  0.81830000  0.71474000  1.0
  O  O466  1  0.39198000  0.05711000  0.22107000  1.0
  O  O467  1  0.60802000  0.94289000  0.77893000  1.0
  O  O468  1  0.30031000  0.76354000  0.08235000  1.0
  O  O469  1  0.69969000  0.23645000  0.91766000  1.0
  O  O470  1  0.26338000  0.74736000  0.18868000  1.0
  O  O471  1  0.73663000  0.25263000  0.81133000  1.0
  O  O472  1  0.36496000  0.92045000  0.16719000  1.0
  O  O473  1  0.63505000  0.07953000  0.83282000  1.0
