# generated using pymatgen
data_CdH26C34(NO5)2
_symmetry_space_group_name_H-M   'P 1'
_cell_length_a   7.73104000
_cell_length_b   10.06990000
_cell_length_c   18.34860000
_cell_angle_alpha   88.02960000
_cell_angle_beta   80.93410000
_cell_angle_gamma   88.96610000
_symmetry_Int_Tables_number   1
_chemical_formula_structural   CdH26C34(NO5)2
_chemical_formula_sum   'Cd2 H52 C68 N4 O20'
_cell_volume   1409.65916836
_cell_formula_units_Z   2
loop_
 _symmetry_equiv_pos_site_id
 _symmetry_equiv_pos_as_xyz
  1  'x, y, z'
loop_
 _atom_site_type_symbol
 _atom_site_label
 _atom_site_symmetry_multiplicity
 _atom_site_fract_x
 _atom_site_fract_y
 _atom_site_fract_z
 _atom_site_occupancy
  Cd  Cd0  1  0.70437000  0.49291000  0.61074000  1.0
  Cd  Cd1  1  0.29564000  0.50709000  0.38926000  1.0
  H  H2  1  0.72246000  0.91147000  0.98611000  1.0
  H  H3  1  0.27754000  0.08852000  0.01389000  1.0
  H  H4  1  0.18377000  0.88702000  0.98569000  1.0
  H  H5  1  0.81624000  0.11298000  0.01431000  1.0
  H  H6  1  0.32270000  0.46692000  0.64414000  1.0
  H  H7  1  0.67730000  0.53308000  0.35586000  1.0
  H  H8  1  0.38526000  0.39200000  0.56771000  1.0
  H  H9  1  0.61474000  0.60799000  0.43229000  1.0
  H  H10  1  0.05720000  0.52568000  0.64761000  1.0
  H  H11  1  0.94280000  0.47432000  0.35239000  1.0
  H  H12  1  0.05603000  0.60104000  0.56805000  1.0
  H  H13  1  0.94398000  0.39896000  0.43195000  1.0
  H  H14  1  0.93432000  0.18648000  0.41880000  1.0
  H  H15  1  0.06568000  0.81351000  0.58120000  1.0
  H  H16  1  0.63021000  0.82248000  0.41997000  1.0
  H  H17  1  0.36979000  0.17753000  0.58003000  1.0
  H  H18  1  0.74322000  0.81921000  0.80534000  1.0
  H  H19  1  0.25677000  0.18078000  0.19466000  1.0
  H  H20  1  0.79790000  0.82911000  0.66889000  1.0
  H  H21  1  0.20211000  0.17088000  0.33111000  1.0
  H  H22  1  0.08240000  0.19270000  0.67193000  1.0
  H  H23  1  0.91761000  0.80730000  0.32807000  1.0
  H  H24  1  0.02521000  0.18184000  0.80880000  1.0
  H  H25  1  0.97479000  0.81816000  0.19120000  1.0
  H  H26  1  0.21006000  0.78936000  0.80671000  1.0
  H  H27  1  0.78994000  0.21064000  0.19329000  1.0
  H  H28  1  0.27890000  0.78706000  0.67052000  1.0
  H  H29  1  0.72110000  0.21293000  0.32948000  1.0
  H  H30  1  0.56195000  0.15212000  0.67011000  1.0
  H  H31  1  0.43804000  0.84788000  0.32989000  1.0
  H  H32  1  0.48894000  0.15427000  0.80669000  1.0
  H  H33  1  0.51106000  0.84573000  0.19331000  1.0
  H  H34  1  0.75976000  0.29706000  0.74626000  1.0
  H  H35  1  0.24023000  0.70294000  0.25374000  1.0
  H  H36  1  0.70849000  0.27702000  0.88422000  1.0
  H  H37  1  0.29150000  0.72298000  0.11577000  1.0
  H  H38  1  0.47047000  0.67008000  0.88483000  1.0
  H  H39  1  0.52954000  0.32992000  0.11517000  1.0
  H  H40  1  0.53821000  0.67359000  0.74800000  1.0
  H  H41  1  0.46181000  0.32641000  0.25199000  1.0
  H  H42  1  0.60038000  0.36622000  0.00028000  1.0
  H  H43  1  0.39962000  0.63378000  0.99972000  1.0
  H  H44  1  0.29715000  0.31918000  0.74487000  1.0
  H  H45  1  0.70285000  0.68082000  0.25513000  1.0
  H  H46  1  0.24122000  0.29418000  0.88205000  1.0
  H  H47  1  0.75877000  0.70582000  0.11796000  1.0
  H  H48  1  0.92959000  0.65662000  0.88404000  1.0
  H  H49  1  0.07040000  0.34338000  0.11596000  1.0
  H  H50  1  0.99357000  0.66197000  0.74777000  1.0
  H  H51  1  0.00643000  0.33803000  0.25223000  1.0
  H  H52  1  0.10465000  0.36803000  0.99852000  1.0
  H  H53  1  0.89535000  0.63197000  0.00149000  1.0
  C  C54  1  0.84957000  0.25124000  0.55683000  1.0
  C  C55  1  0.15044000  0.74875000  0.44317000  1.0
  C  C56  1  0.60021000  0.74151000  0.55833000  1.0
  C  C57  1  0.39980000  0.25849000  0.44167000  1.0
  C  C58  1  0.93214000  0.12123000  0.53076000  1.0
  C  C59  1  0.06786000  0.87877000  0.46924000  1.0
  C  C60  1  0.96537000  0.10388000  0.45450000  1.0
  C  C61  1  0.03464000  0.89611000  0.54550000  1.0
  C  C62  1  0.46732000  0.97687000  0.57843000  1.0
  C  C63  1  0.53266000  0.02313000  0.42157000  1.0
  C  C64  1  0.54096000  0.87491000  0.53134000  1.0
  C  C65  1  0.45903000  0.12509000  0.46867000  1.0
  C  C66  1  0.57057000  0.90114000  0.45508000  1.0
  C  C67  1  0.42941000  0.09886000  0.54492000  1.0
  C  C68  1  0.96832000  0.01393000  0.57839000  1.0
  C  C69  1  0.03168000  0.98607000  0.42161000  1.0
  C  C70  1  0.83767000  0.00287000  0.89699000  1.0
  C  C71  1  0.16233000  0.99713000  0.10301000  1.0
  C  C72  1  0.87899000  0.00098000  0.81593000  1.0
  C  C73  1  0.12101000  0.99902000  0.18407000  1.0
  C  C74  1  0.81954000  0.89986000  0.77601000  1.0
  C  C75  1  0.18045000  0.10014000  0.22399000  1.0
  C  C76  1  0.85140000  0.90549000  0.69926000  1.0
  C  C77  1  0.14859000  0.09450000  0.30074000  1.0
  C  C78  1  0.94131000  0.01283000  0.66039000  1.0
  C  C79  1  0.05869000  0.98716000  0.33961000  1.0
  C  C80  1  0.00722000  0.11107000  0.70085000  1.0
  C  C81  1  0.99279000  0.88893000  0.29915000  1.0
  C  C82  1  0.97580000  0.10535000  0.77739000  1.0
  C  C83  1  0.02420000  0.89464000  0.22261000  1.0
  C  C84  1  0.30139000  0.97724000  0.89643000  1.0
  C  C85  1  0.69862000  0.02276000  0.10357000  1.0
  C  C86  1  0.34611000  0.97170000  0.81554000  1.0
  C  C87  1  0.65389000  0.02830000  0.18447000  1.0
  C  C88  1  0.28837000  0.86792000  0.77645000  1.0
  C  C89  1  0.71163000  0.13208000  0.22355000  1.0
  C  C90  1  0.32699000  0.86712000  0.70001000  1.0
  C  C91  1  0.67301000  0.13288000  0.29999000  1.0
  C  C92  1  0.42635000  0.96922000  0.66034000  1.0
  C  C93  1  0.57364000  0.03078000  0.33966000  1.0
  C  C94  1  0.48174000  0.07364000  0.69980000  1.0
  C  C95  1  0.51825000  0.92636000  0.30020000  1.0
  C  C96  1  0.44264000  0.07469000  0.77629000  1.0
  C  C97  1  0.55736000  0.92531000  0.22371000  1.0
  C  C98  1  0.69668000  0.37703000  0.77961000  1.0
  C  C99  1  0.30332000  0.62297000  0.22039000  1.0
  C  C100  1  0.66619000  0.36626000  0.85623000  1.0
  C  C101  1  0.33381000  0.63374000  0.14377000  1.0
  C  C102  1  0.58206000  0.47098000  0.89717000  1.0
  C  C103  1  0.41794000  0.52903000  0.10283000  1.0
  C  C104  1  0.53562000  0.58449000  0.85721000  1.0
  C  C105  1  0.46439000  0.41551000  0.14279000  1.0
  C  C106  1  0.57249000  0.58760000  0.78073000  1.0
  C  C107  1  0.42753000  0.41241000  0.21927000  1.0
  C  C108  1  0.54655000  0.45647000  0.97720000  1.0
  C  C109  1  0.45345000  0.54353000  0.02280000  1.0
  C  C110  1  0.21506000  0.39129000  0.77795000  1.0
  C  C111  1  0.78493000  0.60872000  0.22205000  1.0
  C  C112  1  0.18433000  0.37828000  0.85462000  1.0
  C  C113  1  0.81567000  0.62173000  0.14538000  1.0
  C  C114  1  0.08006000  0.47347000  0.89623000  1.0
  C  C115  1  0.91994000  0.52653000  0.10377000  1.0
  C  C116  1  0.01210000  0.57877000  0.85631000  1.0
  C  C117  1  0.98790000  0.42124000  0.14369000  1.0
  C  C118  1  0.04816000  0.58285000  0.77973000  1.0
  C  C119  1  0.95183000  0.41716000  0.22027000  1.0
  C  C120  1  0.04698000  0.45767000  0.97649000  1.0
  C  C121  1  0.95302000  0.54233000  0.02352000  1.0
  N  N122  1  0.65083000  0.48558000  0.74209000  1.0
  N  N123  1  0.34917000  0.51442000  0.25791000  1.0
  N  N124  1  0.14808000  0.49122000  0.74004000  1.0
  N  N125  1  0.85191000  0.50878000  0.25996000  1.0
  O  O126  1  0.83431000  0.34640000  0.50994000  1.0
  O  O127  1  0.16569000  0.65359000  0.49006000  1.0
  O  O128  1  0.79226000  0.26431000  0.62497000  1.0
  O  O129  1  0.20774000  0.73568000  0.37503000  1.0
  O  O130  1  0.65491000  0.65198000  0.51172000  1.0
  O  O131  1  0.34508000  0.34802000  0.48828000  1.0
  O  O132  1  0.59938000  0.71979000  0.62685000  1.0
  O  O133  1  0.40062000  0.28022000  0.37315000  1.0
  O  O134  1  0.87540000  0.10055000  0.93196000  1.0
  O  O135  1  0.12459000  0.89945000  0.06804000  1.0
  O  O136  1  0.75628000  0.89699000  0.92989000  1.0
  O  O137  1  0.24373000  0.10301000  0.07011000  1.0
  O  O138  1  0.22119000  0.87107000  0.92977000  1.0
  O  O139  1  0.77882000  0.12894000  0.07023000  1.0
  O  O140  1  0.33552000  0.07662000  0.93077000  1.0
  O  O141  1  0.66448000  0.92338000  0.06923000  1.0
  O  O142  1  0.41787000  0.41423000  0.61675000  1.0
  O  O143  1  0.58214000  0.58577000  0.38325000  1.0
  O  O144  1  0.98298000  0.57405000  0.61632000  1.0
  O  O145  1  0.01702000  0.42595000  0.38368000  1.0
