# generated using pymatgen
data_CuH9C14NO4
_symmetry_space_group_name_H-M   'P 1'
_cell_length_a   10.91330000
_cell_length_b   10.92060000
_cell_length_c   16.30050000
_cell_angle_alpha   89.94510000
_cell_angle_beta   82.57400000
_cell_angle_gamma   88.93330000
_symmetry_Int_Tables_number   1
_chemical_formula_structural   CuH9C14NO4
_chemical_formula_sum   'Cu4 H36 C56 N4 O16'
_cell_volume   1926.06008166
_cell_formula_units_Z   4
loop_
 _symmetry_equiv_pos_site_id
 _symmetry_equiv_pos_as_xyz
  1  'x, y, z'
loop_
 _atom_site_type_symbol
 _atom_site_label
 _atom_site_symmetry_multiplicity
 _atom_site_fract_x
 _atom_site_fract_y
 _atom_site_fract_z
 _atom_site_occupancy
  Cu  Cu0  1  0.31621000  0.16027000  0.22437000  1.0
  Cu  Cu1  1  0.28386000  0.16051000  0.38565000  1.0
  Cu  Cu2  1  0.68379000  0.83973000  0.77563000  1.0
  Cu  Cu3  1  0.71613000  0.83949000  0.61435000  1.0
  H  H4  1  0.51489000  0.11695000  0.07149000  1.0
  H  H5  1  0.52855000  0.11323000  0.91644000  1.0
  H  H6  1  0.14995000  0.24713000  0.94407000  1.0
  H  H7  1  0.15241000  0.24074000  0.09669000  1.0
  H  H8  1  0.65713000  0.16057000  0.43700000  1.0
  H  H9  1  0.88595000  0.16389000  0.43943000  1.0
  H  H10  1  0.71381000  0.15342000  0.17141000  1.0
  H  H11  1  0.94327000  0.15508000  0.17373000  1.0
  H  H12  1  0.27304000  0.77883000  0.43512000  1.0
  H  H13  1  0.15574000  0.19211000  0.81563000  1.0
  H  H14  1  0.31936000  0.54126000  0.17249000  1.0
  H  H15  1  0.31737000  0.77112000  0.16950000  1.0
  H  H16  1  0.45833000  0.15713000  0.66648000  1.0
  H  H17  1  0.43845000  0.14997000  0.79454000  1.0
  H  H18  1  0.27457000  0.54883000  0.43815000  1.0
  H  H19  1  0.07625000  0.16958000  0.53696000  1.0
  H  H20  1  0.05849000  0.18043000  0.69144000  1.0
  H  H21  1  0.45732000  0.14552000  0.51489000  1.0
  H  H22  1  0.48511000  0.88305000  0.92851000  1.0
  H  H23  1  0.47145000  0.88677000  0.08356000  1.0
  H  H24  1  0.85005000  0.75287000  0.05593000  1.0
  H  H25  1  0.84759000  0.75926000  0.90331000  1.0
  H  H26  1  0.34287000  0.83943000  0.56300000  1.0
  H  H27  1  0.11405000  0.83611000  0.56057000  1.0
  H  H28  1  0.28619000  0.84658000  0.82859000  1.0
  H  H29  1  0.05673000  0.84492000  0.82627000  1.0
  H  H30  1  0.72696000  0.22117000  0.56488000  1.0
  H  H31  1  0.84425000  0.80789000  0.18437000  1.0
  H  H32  1  0.68064000  0.45874000  0.82751000  1.0
  H  H33  1  0.68263000  0.22888000  0.83049000  1.0
  H  H34  1  0.54167000  0.84287000  0.33352000  1.0
  H  H35  1  0.56155000  0.85003000  0.20546000  1.0
  H  H36  1  0.72543000  0.45117000  0.56185000  1.0
  H  H37  1  0.92375000  0.83042000  0.46304000  1.0
  H  H38  1  0.94151000  0.81957000  0.30856000  1.0
  H  H39  1  0.54268000  0.85448000  0.48511000  1.0
  C  C40  1  0.43597000  0.14375000  0.04020000  1.0
  C  C41  1  0.44336000  0.14271000  0.95437000  1.0
  C  C42  1  0.33905000  0.17638000  0.91637000  1.0
  C  C43  1  0.23276000  0.21502000  0.96902000  1.0
  C  C44  1  0.23352000  0.21282000  0.05403000  1.0
  C  C45  1  0.72047000  0.16037000  0.37965000  1.0
  C  C46  1  0.67222000  0.15760000  0.30401000  1.0
  C  C47  1  0.84747000  0.16213000  0.38103000  1.0
  C  C48  1  0.29865000  0.39485000  0.30651000  1.0
  C  C49  1  0.29729000  0.53219000  0.30538000  1.0
  C  C50  1  0.75261000  0.15590000  0.22966000  1.0
  C  C51  1  0.92788000  0.16071000  0.30663000  1.0
  C  C52  1  0.87965000  0.15710000  0.23099000  1.0
  C  C53  1  0.06487000  0.16219000  0.30764000  1.0
  C  C54  1  0.28315000  0.72573000  0.37809000  1.0
  C  C55  1  0.29605000  0.78821000  0.30230000  1.0
  C  C56  1  0.24904000  0.17841000  0.78307000  1.0
  C  C57  1  0.30923000  0.59443000  0.22954000  1.0
  C  C58  1  0.29833000  0.92534000  0.30141000  1.0
  C  C59  1  0.53536000  0.15634000  0.30257000  1.0
  C  C60  1  0.30851000  0.72174000  0.22800000  1.0
  C  C61  1  0.37049000  0.15952000  0.64153000  1.0
  C  C62  1  0.34595000  0.16879000  0.82679000  1.0
  C  C63  1  0.28394000  0.59844000  0.37973000  1.0
  C  C64  1  0.15833000  0.16673000  0.56881000  1.0
  C  C65  1  0.14929000  0.17307000  0.65466000  1.0
  C  C66  1  0.25729000  0.17005000  0.69339000  1.0
  C  C67  1  0.37107000  0.15337000  0.55666000  1.0
  C  C68  1  0.56402000  0.85625000  0.95980000  1.0
  C  C69  1  0.55664000  0.85729000  0.04563000  1.0
  C  C70  1  0.66095000  0.82362000  0.08363000  1.0
  C  C71  1  0.76724000  0.78498000  0.03098000  1.0
  C  C72  1  0.76648000  0.78718000  0.94597000  1.0
  C  C73  1  0.27953000  0.83963000  0.62035000  1.0
  C  C74  1  0.32778000  0.84240000  0.69599000  1.0
  C  C75  1  0.15254000  0.83787000  0.61896000  1.0
  C  C76  1  0.70135000  0.60515000  0.69349000  1.0
  C  C77  1  0.70271000  0.46781000  0.69462000  1.0
  C  C78  1  0.24739000  0.84411000  0.77034000  1.0
  C  C79  1  0.07212000  0.83929000  0.69337000  1.0
  C  C80  1  0.12035000  0.84290000  0.76900000  1.0
  C  C81  1  0.93513000  0.83781000  0.69236000  1.0
  C  C82  1  0.71685000  0.27427000  0.62191000  1.0
  C  C83  1  0.70395000  0.21179000  0.69770000  1.0
  C  C84  1  0.75096000  0.82159000  0.21693000  1.0
  C  C85  1  0.69077000  0.40557000  0.77046000  1.0
  C  C86  1  0.70167000  0.07466000  0.69859000  1.0
  C  C87  1  0.46464000  0.84367000  0.69743000  1.0
  C  C88  1  0.69149000  0.27826000  0.77200000  1.0
  C  C89  1  0.62951000  0.84048000  0.35847000  1.0
  C  C90  1  0.65405000  0.83121000  0.17321000  1.0
  C  C91  1  0.71607000  0.40156000  0.62027000  1.0
  C  C92  1  0.84167000  0.83326000  0.43119000  1.0
  C  C93  1  0.85071000  0.82693000  0.34534000  1.0
  C  C94  1  0.74271000  0.82995000  0.30661000  1.0
  C  C95  1  0.62893000  0.84663000  0.44334000  1.0
  N  N96  1  0.26719000  0.15740000  0.52005000  1.0
  N  N97  1  0.33250000  0.17591000  0.08981000  1.0
  N  N98  1  0.73281000  0.84260000  0.47995000  1.0
  N  N99  1  0.66750000  0.82409000  0.91019000  1.0
  O  O100  1  0.10310000  0.16848000  0.37813000  1.0
  O  O101  1  0.30845000  0.34185000  0.23623000  1.0
  O  O102  1  0.28990000  0.34322000  0.37703000  1.0
  O  O103  1  0.32078000  0.97692000  0.23082000  1.0
  O  O104  1  0.13181000  0.15654000  0.23747000  1.0
  O  O105  1  0.27910000  0.97844000  0.37155000  1.0
  O  O106  1  0.49734000  0.15898000  0.23179000  1.0
  O  O107  1  0.46810000  0.15279000  0.37253000  1.0
  O  O108  1  0.89690000  0.83152000  0.62187000  1.0
  O  O109  1  0.69155000  0.65815000  0.76377000  1.0
  O  O110  1  0.71010000  0.65678000  0.62297000  1.0
  O  O111  1  0.67922000  0.02308000  0.76918000  1.0
  O  O112  1  0.86819000  0.84346000  0.76253000  1.0
  O  O113  1  0.72090000  0.02155000  0.62845000  1.0
  O  O114  1  0.50266000  0.84102000  0.76821000  1.0
  O  O115  1  0.53190000  0.84720000  0.62747000  1.0
