# generated using pymatgen
data_Cd2H46C46N8O9
_symmetry_space_group_name_H-M   'P 1'
_cell_length_a   9.93296000
_cell_length_b   10.54510000
_cell_length_c   15.12990000
_cell_angle_alpha   76.10350000
_cell_angle_beta   77.51100000
_cell_angle_gamma   66.31410000
_symmetry_Int_Tables_number   1
_chemical_formula_structural   Cd2H46C46N8O9
_chemical_formula_sum   'Cd2 H46 C46 N8 O9'
_cell_volume   1395.94647752
_cell_formula_units_Z   1
loop_
 _symmetry_equiv_pos_site_id
 _symmetry_equiv_pos_as_xyz
  1  'x, y, z'
loop_
 _atom_site_type_symbol
 _atom_site_label
 _atom_site_symmetry_multiplicity
 _atom_site_fract_x
 _atom_site_fract_y
 _atom_site_fract_z
 _atom_site_occupancy
  Cd  Cd0  1  0.01139000  0.20767000  0.99362000  1.0
  Cd  Cd1  1  0.00004000  0.56803000  0.04823000  1.0
  H  H2  1  0.18195000  0.34924000  0.20130000  1.0
  H  H3  1  0.49124000  0.23468000  0.95922000  1.0
  H  H4  1  0.76740000  0.22413000  0.16932000  1.0
  H  H5  1  0.21371000  0.97322000  0.14109000  1.0
  H  H6  1  0.75128000  0.18255000  0.34059000  1.0
  H  H7  1  0.69241000  0.53459000  0.38319000  1.0
  H  H8  1  0.04372000  0.99212000  0.88940000  1.0
  H  H9  1  0.99609000  0.93081000  0.99340000  1.0
  H  H10  1  0.16154000  0.28199000  0.37167000  1.0
  H  H11  1  0.57218000  0.61182000  0.87448000  1.0
  H  H12  1  0.48857000  0.49024000  0.93839000  1.0
  H  H13  1  0.22003000  0.92670000  0.30922000  1.0
  H  H14  1  0.73500000  0.59540000  0.21061000  1.0
  H  H15  1  0.36265000  0.36992000  0.08742000  1.0
  H  H16  1  0.53990000  0.27791000  0.08808000  1.0
  H  H17  1  0.22812000  0.23012000  0.81068000  1.0
  H  H18  1  0.43896000  0.84215000  0.97472000  1.0
  H  H19  1  0.27676000  0.91999000  0.94125000  1.0
  H  H20  1  0.86393000  0.07735000  0.47511000  1.0
  H  H21  1  0.29333000  0.71065000  0.89571000  1.0
  H  H22  1  0.70274000  0.02776000  0.11699000  1.0
  H  H23  1  0.73664000  0.06187000  0.99699000  1.0
  H  H24  1  0.47228000  0.99262000  0.11393000  1.0
  H  H25  1  0.51612000  0.98987000  0.99452000  1.0
  H  H26  1  0.13033000  0.32333000  0.50668000  1.0
  H  H27  1  0.79126000  0.41204000  0.52709000  1.0
  H  H28  1  0.20522000  0.95130000  0.45273000  1.0
  H  H29  1  0.31414000  0.91546000  0.58867000  1.0
  H  H30  1  0.28650000  0.91142000  0.75865000  1.0
  H  H31  1  0.83831000  0.03280000  0.61814000  1.0
  H  H32  1  0.83217000  0.02533000  0.78408000  1.0
  H  H33  1  0.77258000  0.35325000  0.84484000  1.0
  H  H34  1  0.76619000  0.39018000  0.67634000  1.0
  H  H35  1  0.24393000  0.26236000  0.63859000  1.0
  H  H36  1  0.61845000  0.64647000  0.02464000  1.0
  H  H37  1  0.52347000  0.53534000  0.08518000  1.0
  H  H38  1  0.77741000  0.72791000  0.73349000  1.0
  H  H39  1  0.79063000  0.68459000  0.89950000  1.0
  H  H40  1  0.25794000  0.56595000  0.68961000  1.0
  H  H41  1  0.24908000  0.52796000  0.86075000  1.0
  H  H42  1  0.79121000  0.73681000  0.59600000  1.0
  H  H43  1  0.12439000  0.64701000  0.40278000  1.0
  H  H44  1  0.13067000  0.64574000  0.55492000  1.0
  H  H45  1  0.65081000  0.84769000  0.47662000  1.0
  H  H46  1  0.08165000  0.71796000  0.23800000  1.0
  H  H47  1  0.62865000  0.90917000  0.30861000  1.0
  C  C48  1  0.07637000  0.38953000  0.24487000  1.0
  C  C49  1  0.43874000  0.19630000  0.02772000  1.0
  C  C50  1  0.86480000  0.15944000  0.20383000  1.0
  C  C51  1  0.11499000  0.02162000  0.18768000  1.0
  C  C52  1  0.85691000  0.13605000  0.29878000  1.0
  C  C53  1  0.80290000  0.49073000  0.34556000  1.0
  C  C54  1  0.06337000  0.35293000  0.33976000  1.0
  C  C55  1  0.50652000  0.58579000  0.94007000  1.0
  C  C56  1  0.11688000  0.99518000  0.28189000  1.0
  C  C57  1  0.82471000  0.52457000  0.25021000  1.0
  C  C58  1  0.12936000  0.26725000  0.77658000  1.0
  C  C59  1  0.98588000  0.05492000  0.34013000  1.0
  C  C60  1  0.28089000  0.22346000  0.01373000  1.0
  C  C61  1  0.97690000  0.03817000  0.43926000  1.0
  C  C62  1  0.26713000  0.67262000  0.04244000  1.0
  C  C63  1  0.35641000  0.70840000  0.94821000  1.0
  C  C64  1  0.68850000  0.00020000  0.05474000  1.0
  C  C65  1  0.52536000  0.03701000  0.04915000  1.0
  C  C66  1  0.92482000  0.40722000  0.39299000  1.0
  C  C67  1  0.01770000  0.34447000  0.54301000  1.0
  C  C68  1  0.90566000  0.38553000  0.49292000  1.0
  C  C69  1  0.09172000  0.98600000  0.48847000  1.0
  C  C70  1  0.07785000  0.97754000  0.58738000  1.0
  C  C71  1  0.20469000  0.94025000  0.62970000  1.0
  C  C72  1  0.19038000  0.93792000  0.72371000  1.0
  C  C73  1  0.94110000  0.00696000  0.64513000  1.0
  C  C74  1  0.93715000  0.00207000  0.73805000  1.0
  C  C75  1  0.87397000  0.33597000  0.79578000  1.0
  C  C76  1  0.87197000  0.35544000  0.70205000  1.0
  C  C77  1  0.00636000  0.32869000  0.64205000  1.0
  C  C78  1  0.13660000  0.28454000  0.68191000  1.0
  C  C79  1  0.73456000  0.42905000  0.01563000  1.0
  C  C80  1  0.59280000  0.55653000  0.02017000  1.0
  C  C81  1  0.78403000  0.84592000  0.05636000  1.0
  C  C82  1  0.88589000  0.68237000  0.75705000  1.0
  C  C83  1  0.01827000  0.64820000  0.69506000  1.0
  C  C84  1  0.89183000  0.65885000  0.85048000  1.0
  C  C85  1  0.15132000  0.59335000  0.73373000  1.0
  C  C86  1  0.14773000  0.57189000  0.82865000  1.0
  C  C87  1  0.89938000  0.71416000  0.55319000  1.0
  C  C88  1  0.89044000  0.74309000  0.45501000  1.0
  C  C89  1  0.01191000  0.70577000  0.38572000  1.0
  C  C90  1  0.02099000  0.66846000  0.59583000  1.0
  C  C91  1  0.74951000  0.81660000  0.42589000  1.0
  C  C92  1  0.98869000  0.74420000  0.29359000  1.0
  C  C93  1  0.73728000  0.85092000  0.33239000  1.0
  N  N94  1  0.99163000  0.10496000  0.14907000  1.0
  N  N95  1  0.95926000  0.47646000  0.20116000  1.0
  N  N96  1  0.00028000  0.29221000  0.83273000  1.0
  N  N97  1  0.43854000  0.26868000  0.09891000  1.0
  N  N98  1  0.02026000  0.60318000  0.88637000  1.0
  N  N99  1  0.37767000  0.84190000  0.92859000  1.0
  N  N100  1  0.05865000  0.96959000  0.77722000  1.0
  N  N101  1  0.85354000  0.81640000  0.26665000  1.0
  O  O102  1  0.04076000  0.00048000  0.95433000  1.0
  O  O103  1  0.85750000  0.43744000  0.02186000  1.0
  O  O104  1  0.22791000  0.56776000  0.04586000  1.0
  O  O105  1  0.73114000  0.31420000  0.00510000  1.0
  O  O106  1  0.26702000  0.15801000  0.95698000  1.0
  O  O107  1  0.24635000  0.73657000  0.10656000  1.0
  O  O108  1  0.17018000  0.30518000  0.05847000  1.0
  O  O109  1  0.72764000  0.75265000  0.07801000  1.0
  O  O110  1  0.92502000  0.81393000  0.03384000  1.0
