# generated using pymatgen
data_CdH6(C3N2)2
_symmetry_space_group_name_H-M   'P 1'
_cell_length_a   9.84007000
_cell_length_b   10.86250000
_cell_length_c   14.71950000
_cell_angle_alpha   90.00000000
_cell_angle_beta   90.00000000
_cell_angle_gamma   90.00000000
_symmetry_Int_Tables_number   1
_chemical_formula_structural   CdH6(C3N2)2
_chemical_formula_sum   'Cd8 H48 C48 N32'
_cell_volume   1573.33438884
_cell_formula_units_Z   8
loop_
 _symmetry_equiv_pos_site_id
 _symmetry_equiv_pos_as_xyz
  1  'x, y, z'
loop_
 _atom_site_type_symbol
 _atom_site_label
 _atom_site_symmetry_multiplicity
 _atom_site_fract_x
 _atom_site_fract_y
 _atom_site_fract_z
 _atom_site_occupancy
  Cd  Cd0  1  0.19834000  0.96696000  0.88997000  1.0
  Cd  Cd1  1  0.80166000  0.53304000  0.38997000  1.0
  Cd  Cd2  1  0.30166000  0.46696000  0.11003000  1.0
  Cd  Cd3  1  0.69834000  0.03304000  0.61003000  1.0
  Cd  Cd4  1  0.80166000  0.03304000  0.11003000  1.0
  Cd  Cd5  1  0.19834000  0.46696000  0.61003000  1.0
  Cd  Cd6  1  0.69834000  0.53304000  0.88997000  1.0
  Cd  Cd7  1  0.30166000  0.96696000  0.38997000  1.0
  H  H8  1  0.46743000  0.10352000  0.76937000  1.0
  H  H9  1  0.53257000  0.39648000  0.26937000  1.0
  H  H10  1  0.03257000  0.60352000  0.23063000  1.0
  H  H11  1  0.96743000  0.89648000  0.73063000  1.0
  H  H12  1  0.53257000  0.89647000  0.23063000  1.0
  H  H13  1  0.46743000  0.60353000  0.73063000  1.0
  H  H14  1  0.96743000  0.39648000  0.76937000  1.0
  H  H15  1  0.03257000  0.10353000  0.26937000  1.0
  H  H16  1  0.46566000  0.79657000  0.59443000  1.0
  H  H17  1  0.53434000  0.70343000  0.09443000  1.0
  H  H18  1  0.03434000  0.29657000  0.40557000  1.0
  H  H19  1  0.96566000  0.20343000  0.90557000  1.0
  H  H20  1  0.53433000  0.20343000  0.40557000  1.0
  H  H21  1  0.46566000  0.29657000  0.90557000  1.0
  H  H22  1  0.96566000  0.70343000  0.59443000  1.0
  H  H23  1  0.03434000  0.79657000  0.09443000  1.0
  H  H24  1  0.26055000  0.77011000  0.72264000  1.0
  H  H25  1  0.73945000  0.72989000  0.22264000  1.0
  H  H26  1  0.23945000  0.27011000  0.27736000  1.0
  H  H27  1  0.76055000  0.22989000  0.77736000  1.0
  H  H28  1  0.73945000  0.22989000  0.27736000  1.0
  H  H29  1  0.26055000  0.27011000  0.77736000  1.0
  H  H30  1  0.76055000  0.72989000  0.72264000  1.0
  H  H31  1  0.23945000  0.77011000  0.22264000  1.0
  H  H32  1  0.33161000  0.76221000  0.03879000  1.0
  H  H33  1  0.66839000  0.73779000  0.53879000  1.0
  H  H34  1  0.16839000  0.26221000  0.96121000  1.0
  H  H35  1  0.83161000  0.23779000  0.46121000  1.0
  H  H36  1  0.66838000  0.23779000  0.96121000  1.0
  H  H37  1  0.33161000  0.26221000  0.46121000  1.0
  H  H38  1  0.83161000  0.73779000  0.03879000  1.0
  H  H39  1  0.16839000  0.76221000  0.53879000  1.0
  H  H40  1  0.08274000  0.48202000  0.93150000  1.0
  H  H41  1  0.91726000  0.01798000  0.43150000  1.0
  H  H42  1  0.41726000  0.98202000  0.06850000  1.0
  H  H43  1  0.58274000  0.51798000  0.56850000  1.0
  H  H44  1  0.91726000  0.51798000  0.06850000  1.0
  H  H45  1  0.08274000  0.98202000  0.56850000  1.0
  H  H46  1  0.58274000  0.01798000  0.93150000  1.0
  H  H47  1  0.41726000  0.48202000  0.43150000  1.0
  H  H48  1  0.03177000  0.69953000  0.83963000  1.0
  H  H49  1  0.96823000  0.80047000  0.33962000  1.0
  H  H50  1  0.46823000  0.19953000  0.16037000  1.0
  H  H51  1  0.53177000  0.30047000  0.66038000  1.0
  H  H52  1  0.96823000  0.30047000  0.16037000  1.0
  H  H53  1  0.03177000  0.19953000  0.66038000  1.0
  H  H54  1  0.53177000  0.80047000  0.83963000  1.0
  H  H55  1  0.46823000  0.69953000  0.33962000  1.0
  C  C56  1  0.43941000  0.01574000  0.73940000  1.0
  C  C57  1  0.56059000  0.48426000  0.23940000  1.0
  C  C58  1  0.06059000  0.51574000  0.26060000  1.0
  C  C59  1  0.93941000  0.98426000  0.76060000  1.0
  C  C60  1  0.56059000  0.98425000  0.26060000  1.0
  C  C61  1  0.43941000  0.51574000  0.76060000  1.0
  C  C62  1  0.93941000  0.48426000  0.73940000  1.0
  C  C63  1  0.06059000  0.01574000  0.23940000  1.0
  C  C64  1  0.43754000  0.85578000  0.65068000  1.0
  C  C65  1  0.56247000  0.64421000  0.15068000  1.0
  C  C66  1  0.06246000  0.35578000  0.34932000  1.0
  C  C67  1  0.93753000  0.14422000  0.84932000  1.0
  C  C68  1  0.56246000  0.14422000  0.34932000  1.0
  C  C69  1  0.43753000  0.35578000  0.84932000  1.0
  C  C70  1  0.93754000  0.64422000  0.65068000  1.0
  C  C71  1  0.06247000  0.85578000  0.15068000  1.0
  C  C72  1  0.33409000  0.84357000  0.71340000  1.0
  C  C73  1  0.66591000  0.65643000  0.21340000  1.0
  C  C74  1  0.16592000  0.34357000  0.28660000  1.0
  C  C75  1  0.83409000  0.15643000  0.78660000  1.0
  C  C76  1  0.66591000  0.15643000  0.28660000  1.0
  C  C77  1  0.33409000  0.34357000  0.78660000  1.0
  C  C78  1  0.83409000  0.65643000  0.71340000  1.0
  C  C79  1  0.16591000  0.84357000  0.21340000  1.0
  C  C80  1  0.25763000  0.71497000  0.99672000  1.0
  C  C81  1  0.74237000  0.78503000  0.49672000  1.0
  C  C82  1  0.24237000  0.21497000  0.00328000  1.0
  C  C83  1  0.75763000  0.28503000  0.50328000  1.0
  C  C84  1  0.74237000  0.28503000  0.00328000  1.0
  C  C85  1  0.25763000  0.21497000  0.50328000  1.0
  C  C86  1  0.75763000  0.78503000  0.99672000  1.0
  C  C87  1  0.24237000  0.71497000  0.49672000  1.0
  C  C88  1  0.12737000  0.57236000  0.94040000  1.0
  C  C89  1  0.87263000  0.92763000  0.44040000  1.0
  C  C90  1  0.37263000  0.07236000  0.05960000  1.0
  C  C91  1  0.62737000  0.42763000  0.55960000  1.0
  C  C92  1  0.87263000  0.42764000  0.05960000  1.0
  C  C93  1  0.12737000  0.07237000  0.55960000  1.0
  C  C94  1  0.62737000  0.92764000  0.94040000  1.0
  C  C95  1  0.37263000  0.57237000  0.44040000  1.0
  C  C96  1  0.10232000  0.68066000  0.89457000  1.0
  C  C97  1  0.89768000  0.81934000  0.39457000  1.0
  C  C98  1  0.39768000  0.18066000  0.10543000  1.0
  C  C99  1  0.60232000  0.31934000  0.60543000  1.0
  C  C100  1  0.89768000  0.31934000  0.10543000  1.0
  C  C101  1  0.10232000  0.18066000  0.60543000  1.0
  C  C102  1  0.60232000  0.81934000  0.89457000  1.0
  C  C103  1  0.39768000  0.68066000  0.39456000  1.0
  N  N104  1  0.33605000  0.94561000  0.76937000  1.0
  N  N105  1  0.66395000  0.55439000  0.26937000  1.0
  N  N106  1  0.16395000  0.44561000  0.23063000  1.0
  N  N107  1  0.83605000  0.05439000  0.73063000  1.0
  N  N108  1  0.66395000  0.05438000  0.23063000  1.0
  N  N109  1  0.33605000  0.44561000  0.73063000  1.0
  N  N110  1  0.83605000  0.55439000  0.76937000  1.0
  N  N111  1  0.16395000  0.94561000  0.26937000  1.0
  N  N112  1  0.50399000  0.96532000  0.66769000  1.0
  N  N113  1  0.49601000  0.53468000  0.16769000  1.0
  N  N114  1  0.99600000  0.46532000  0.33231000  1.0
  N  N115  1  0.00399000  0.03468000  0.83231000  1.0
  N  N116  1  0.49600000  0.03468000  0.33231000  1.0
  N  N117  1  0.50399000  0.46532000  0.83231000  1.0
  N  N118  1  0.00399000  0.53468000  0.66769000  1.0
  N  N119  1  0.99601000  0.96532000  0.16769000  1.0
  N  N120  1  0.18538000  0.77070000  0.93099000  1.0
  N  N121  1  0.81463000  0.72930000  0.43099000  1.0
  N  N122  1  0.31462000  0.27070000  0.06901000  1.0
  N  N123  1  0.68538000  0.22930000  0.56901000  1.0
  N  N124  1  0.81463000  0.22930000  0.06901000  1.0
  N  N125  1  0.18538000  0.27070000  0.56901000  1.0
  N  N126  1  0.68538000  0.72930000  0.93099000  1.0
  N  N127  1  0.31462000  0.77070000  0.43099000  1.0
  N  N128  1  0.22565000  0.59487000  0.00550000  1.0
  N  N129  1  0.77435000  0.90513000  0.50550000  1.0
  N  N130  1  0.27435000  0.09487000  0.99450000  1.0
  N  N131  1  0.72565000  0.40513000  0.49450000  1.0
  N  N132  1  0.77435000  0.40513000  0.99450000  1.0
  N  N133  1  0.22565000  0.09487000  0.49450000  1.0
  N  N134  1  0.72565000  0.90513000  0.00550000  1.0
  N  N135  1  0.27435000  0.59487000  0.50550000  1.0
