# generated using pymatgen
data_CuH24C16(N6Cl)2
_symmetry_space_group_name_H-M   'P 1'
_cell_length_a   7.43830000
_cell_length_b   8.68372000
_cell_length_c   17.62130000
_cell_angle_alpha   89.99980000
_cell_angle_beta   90.00000000
_cell_angle_gamma   115.16700000
_symmetry_Int_Tables_number   1
_chemical_formula_structural   CuH24C16(N6Cl)2
_chemical_formula_sum   'Cu2 H48 C32 N24 Cl4'
_cell_volume   1030.15041156
_cell_formula_units_Z   2
loop_
 _symmetry_equiv_pos_site_id
 _symmetry_equiv_pos_as_xyz
  1  'x, y, z'
loop_
 _atom_site_type_symbol
 _atom_site_label
 _atom_site_symmetry_multiplicity
 _atom_site_fract_x
 _atom_site_fract_y
 _atom_site_fract_z
 _atom_site_occupancy
  Cu  Cu0  1  0.50000000  0.00000000  0.50000000  1.0
  Cu  Cu1  1  0.50000000  0.50000000  0.00000000  1.0
  H  H2  1  0.32321000  0.92233000  0.32968000  1.0
  H  H3  1  0.67678000  0.57767000  0.82968000  1.0
  H  H4  1  0.67679000  0.07767000  0.67032000  1.0
  H  H5  1  0.32321000  0.42233000  0.17032000  1.0
  H  H6  1  0.82795000  0.88439000  0.42075000  1.0
  H  H7  1  0.17205000  0.61560000  0.92075000  1.0
  H  H8  1  0.17205000  0.11561000  0.57925000  1.0
  H  H9  1  0.82794000  0.38439000  0.07925000  1.0
  H  H10  1  0.71688000  0.66426000  0.23550000  1.0
  H  H11  1  0.28312000  0.83574000  0.73550000  1.0
  H  H12  1  0.28312000  0.33574000  0.76450000  1.0
  H  H13  1  0.71688000  0.16426000  0.26450000  1.0
  H  H14  1  0.88721000  0.72531000  0.31282000  1.0
  H  H15  1  0.11279000  0.77469000  0.81282000  1.0
  H  H16  1  0.11278000  0.27469000  0.68718000  1.0
  H  H17  1  0.88722000  0.22531000  0.18718000  1.0
  H  H18  1  0.07851000  0.00867000  0.25518000  1.0
  H  H19  1  0.92149000  0.49134000  0.75519000  1.0
  H  H20  1  0.92149000  0.99133000  0.74482000  1.0
  H  H21  1  0.07851000  0.50867000  0.24481000  1.0
  H  H22  1  0.90126000  0.96476000  0.18157000  1.0
  H  H23  1  0.09874000  0.53524000  0.68157000  1.0
  H  H24  1  0.09875000  0.03524000  0.81843000  1.0
  H  H25  1  0.90126000  0.46476000  0.31843000  1.0
  H  H26  1  0.14511000  0.76025000  0.21132000  1.0
  H  H27  1  0.85489000  0.73975000  0.71132000  1.0
  H  H28  1  0.85489000  0.23975000  0.78868000  1.0
  H  H29  1  0.14511000  0.26025000  0.28868000  1.0
  H  H30  1  0.97969000  0.72988000  0.13403000  1.0
  H  H31  1  0.02031000  0.77012000  0.63403000  1.0
  H  H32  1  0.02031000  0.27012000  0.86597000  1.0
  H  H33  1  0.97969000  0.22988000  0.36597000  1.0
  H  H34  1  0.19968000  0.01294000  0.08226000  1.0
  H  H35  1  0.80032000  0.48705000  0.58227000  1.0
  H  H36  1  0.80032000  0.98706000  0.91774000  1.0
  H  H37  1  0.19968000  0.51295000  0.41773000  1.0
  H  H38  1  0.35152000  0.06021000  0.16458000  1.0
  H  H39  1  0.64848000  0.43979000  0.66459000  1.0
  H  H40  1  0.64848000  0.93979000  0.83542000  1.0
  H  H41  1  0.35152000  0.56021000  0.33541000  1.0
  H  H42  1  0.17681000  0.62455000  0.06499000  1.0
  H  H43  1  0.82319000  0.87545000  0.56499000  1.0
  H  H44  1  0.82319000  0.37545000  0.93501000  1.0
  H  H45  1  0.17681000  0.12455000  0.43501000  1.0
  H  H46  1  0.79626000  0.89788000  0.04585000  1.0
  H  H47  1  0.20374000  0.60212000  0.54586000  1.0
  H  H48  1  0.20374000  0.10212000  0.95414000  1.0
  H  H49  1  0.79626000  0.39788000  0.45414000  1.0
  C  C50  1  0.45768000  0.90323000  0.33393000  1.0
  C  C51  1  0.54232000  0.59677000  0.83393000  1.0
  C  C52  1  0.54233000  0.09677000  0.66607000  1.0
  C  C53  1  0.45768000  0.40323000  0.16607000  1.0
  C  C54  1  0.71250000  0.88680000  0.38308000  1.0
  C  C55  1  0.28749000  0.61319000  0.88308000  1.0
  C  C56  1  0.28750000  0.11320000  0.61692000  1.0
  C  C57  1  0.71250000  0.38680000  0.11692000  1.0
  C  C58  1  0.81731000  0.77253000  0.26933000  1.0
  C  C59  1  0.18269000  0.72748000  0.76933000  1.0
  C  C60  1  0.18269000  0.22747000  0.73067000  1.0
  C  C61  1  0.81731000  0.27253000  0.23067000  1.0
  C  C62  1  0.97284000  0.90656000  0.21923000  1.0
  C  C63  1  0.02716000  0.59345000  0.71923000  1.0
  C  C64  1  0.02716000  0.09345000  0.78077000  1.0
  C  C65  1  0.97285000  0.40655000  0.28077000  1.0
  C  C66  1  0.08363000  0.82577000  0.17291000  1.0
  C  C67  1  0.91637000  0.67423000  0.67291000  1.0
  C  C68  1  0.91637000  0.17423000  0.82709000  1.0
  C  C69  1  0.08364000  0.32577000  0.32709000  1.0
  C  C70  1  0.25424000  0.95691000  0.12767000  1.0
  C  C71  1  0.74576000  0.54309000  0.62767000  1.0
  C  C72  1  0.74576000  0.04309000  0.87233000  1.0
  C  C73  1  0.25424000  0.45691000  0.37233000  1.0
  C  C74  1  0.32673000  0.72422000  0.06906000  1.0
  C  C75  1  0.67326000  0.77578000  0.56906000  1.0
  C  C76  1  0.67326000  0.27578000  0.93094000  1.0
  C  C77  1  0.32673000  0.22421000  0.43094000  1.0
  C  C78  1  0.64229000  0.86685000  0.05937000  1.0
  C  C79  1  0.35771000  0.63315000  0.55937000  1.0
  C  C80  1  0.35771000  0.13315000  0.94063000  1.0
  C  C81  1  0.64229000  0.36685000  0.44063000  1.0
  N  N82  1  0.56535000  0.93148000  0.39929000  1.0
  N  N83  1  0.43465000  0.56851000  0.89929000  1.0
  N  N84  1  0.43465000  0.06852000  0.60071000  1.0
  N  N85  1  0.56535000  0.43148000  0.10071000  1.0
  N  N86  1  0.69301000  0.83578000  0.31049000  1.0
  N  N87  1  0.30699000  0.66422000  0.81049000  1.0
  N  N88  1  0.30699000  0.16422000  0.68951000  1.0
  N  N89  1  0.69301000  0.33578000  0.18951000  1.0
  N  N90  1  0.53066000  0.84440000  0.27790000  1.0
  N  N91  1  0.46934000  0.65560000  0.77790000  1.0
  N  N92  1  0.46934000  0.15560000  0.72210000  1.0
  N  N93  1  0.53066000  0.34440000  0.22210000  1.0
  N  N94  1  0.37951000  0.88260000  0.09506000  1.0
  N  N95  1  0.62049000  0.61740000  0.59506000  1.0
  N  N96  1  0.62049000  0.11740000  0.90494000  1.0
  N  N97  1  0.37951000  0.38260000  0.40494000  1.0
  N  N98  1  0.57966000  0.97559000  0.08937000  1.0
  N  N99  1  0.42033000  0.52441000  0.58937000  1.0
  N  N100  1  0.42033000  0.02441000  0.91063000  1.0
  N  N101  1  0.57967000  0.47559000  0.41063000  1.0
  N  N102  1  0.49093000  0.71003000  0.04639000  1.0
  N  N103  1  0.50907000  0.78997000  0.54639000  1.0
  N  N104  1  0.50907000  0.28997000  0.95361000  1.0
  N  N105  1  0.49093000  0.21003000  0.45361000  1.0
  Cl  Cl106  1  0.08540000  0.80291000  0.46353000  1.0
  Cl  Cl107  1  0.91460000  0.69709000  0.96353000  1.0
  Cl  Cl108  1  0.91460000  0.19709000  0.53647000  1.0
  Cl  Cl109  1  0.08540000  0.30291000  0.03647000  1.0
