# generated using pymatgen
data_Zn2H30C39(N3O4)2
_symmetry_space_group_name_H-M   'P 1'
_cell_length_a   11.88230000
_cell_length_b   11.89620000
_cell_length_c   24.17310000
_cell_angle_alpha   89.96500000
_cell_angle_beta   89.83770000
_cell_angle_gamma   89.89660000
_symmetry_Int_Tables_number   1
_chemical_formula_structural   Zn2H30C39(N3O4)2
_chemical_formula_sum   'Zn4 H60 C78 N12 O16'
_cell_volume   3416.94972921
_cell_formula_units_Z   2
loop_
 _symmetry_equiv_pos_site_id
 _symmetry_equiv_pos_as_xyz
  1  'x, y, z'
loop_
 _atom_site_type_symbol
 _atom_site_label
 _atom_site_symmetry_multiplicity
 _atom_site_fract_x
 _atom_site_fract_y
 _atom_site_fract_z
 _atom_site_occupancy
  Zn  Zn0  1  0.61686000  0.50126000  0.50037000  1.0
  Zn  Zn1  1  0.38516000  0.50164000  0.49987000  1.0
  Zn  Zn2  1  0.00227000  0.88772000  0.00035000  1.0
  Zn  Zn3  1  0.00489000  0.11931000  0.00016000  1.0
  H  H4  1  0.18108000  0.50555000  0.42524000  1.0
  H  H5  1  0.23239000  0.48906000  0.59360000  1.0
  H  H6  1  0.82094000  0.50626000  0.57503000  1.0
  H  H7  1  0.76977000  0.48695000  0.40675000  1.0
  H  H8  1  0.67974000  0.13927000  0.72079000  1.0
  H  H9  1  0.32800000  0.86412000  0.72028000  1.0
  H  H10  1  0.36577000  0.17712000  0.77944000  1.0
  H  H11  1  0.64227000  0.82534000  0.78053000  1.0
  H  H12  1  0.33653000  0.22580000  0.61338000  1.0
  H  H13  1  0.67314000  0.77467000  0.61416000  1.0
  H  H14  1  0.27954000  0.83515000  0.88798000  1.0
  H  H15  1  0.72675000  0.16935000  0.88735000  1.0
  H  H16  1  0.32969000  0.07926000  0.68671000  1.0
  H  H17  1  0.67970000  0.92041000  0.68780000  1.0
  H  H18  1  0.42463000  0.82681000  0.81372000  1.0
  H  H19  1  0.58217000  0.17600000  0.81330000  1.0
  H  H20  1  0.67735000  0.86329000  0.28041000  1.0
  H  H21  1  0.32594000  0.13979000  0.27907000  1.0
  H  H22  1  0.36435000  0.82720000  0.21934000  1.0
  H  H23  1  0.64135000  0.17760000  0.22029000  1.0
  H  H24  1  0.33021000  0.77636000  0.38526000  1.0
  H  H25  1  0.66714000  0.22634000  0.38760000  1.0
  H  H26  1  0.28162000  0.17220000  0.11250000  1.0
  H  H27  1  0.72683000  0.83377000  0.11298000  1.0
  H  H28  1  0.32588000  0.92344000  0.31215000  1.0
  H  H29  1  0.67609000  0.08096000  0.31379000  1.0
  H  H30  1  0.42607000  0.17751000  0.18671000  1.0
  H  H31  1  0.58198000  0.82713000  0.18740000  1.0
  H  H32  1  0.15844000  0.32481000  0.99958000  1.0
  H  H33  1  0.81575000  0.27098000  0.99976000  1.0
  H  H34  1  0.85056000  0.68238000  0.00054000  1.0
  H  H35  1  0.19314000  0.73670000  0.99952000  1.0
  H  H36  1  0.94727000  0.42025000  0.34625000  1.0
  H  H37  1  0.07402000  0.49235000  0.36140000  1.0
  H  H38  1  0.94975000  0.56844000  0.34551000  1.0
  H  H39  1  0.05456000  0.42229000  0.65432000  1.0
  H  H40  1  0.92781000  0.49452000  0.63879000  1.0
  H  H41  1  0.05189000  0.57052000  0.65458000  1.0
  H  H42  1  0.31751000  0.55836000  0.96280000  1.0
  H  H43  1  0.28774000  0.43395000  0.00036000  1.0
  H  H44  1  0.31768000  0.56096000  0.03584000  1.0
  H  H45  1  0.69117000  0.44920000  0.96436000  1.0
  H  H46  1  0.72158000  0.57383000  0.00145000  1.0
  H  H47  1  0.69200000  0.44708000  0.03741000  1.0
  H  H48  1  0.29423000  0.67235000  0.60736000  1.0
  H  H49  1  0.22777000  0.75540000  0.65710000  1.0
  H  H50  1  0.85786000  0.79745000  0.88358000  1.0
  H  H51  1  0.78725000  0.73436000  0.82794000  1.0
  H  H52  1  0.71329000  0.33635000  0.60964000  1.0
  H  H53  1  0.78025000  0.25328000  0.65950000  1.0
  H  H54  1  0.14926000  0.20738000  0.88256000  1.0
  H  H55  1  0.22033000  0.26923000  0.82645000  1.0
  H  H56  1  0.28939000  0.33461000  0.39096000  1.0
  H  H57  1  0.22360000  0.25191000  0.34075000  1.0
  H  H58  1  0.85766000  0.20535000  0.11698000  1.0
  H  H59  1  0.78682000  0.26822000  0.17270000  1.0
  H  H60  1  0.70827000  0.66908000  0.39252000  1.0
  H  H61  1  0.77577000  0.75222000  0.34322000  1.0
  H  H62  1  0.14803000  0.80151000  0.11671000  1.0
  H  H63  1  0.21866000  0.73791000  0.17209000  1.0
  C  C64  1  0.50051000  0.65414000  0.42080000  1.0
  C  C65  1  0.49439000  0.34741000  0.42172000  1.0
  C  C66  1  0.50798000  0.34855000  0.57930000  1.0
  C  C67  1  0.50162000  0.65539000  0.57862000  1.0
  C  C68  1  0.15766000  0.00314000  0.07795000  1.0
  C  C69  1  0.15825000  0.00738000  0.92248000  1.0
  C  C70  1  0.84928000  0.99827000  0.92232000  1.0
  C  C71  1  0.84881000  0.00406000  0.07793000  1.0
  C  C72  1  0.14152000  0.50133000  0.46591000  1.0
  C  C73  1  0.16914000  0.49436000  0.56107000  1.0
  C  C74  1  0.05541000  0.49700000  0.57339000  1.0
  C  C75  1  0.97910000  0.49964000  0.52788000  1.0
  C  C76  1  0.86055000  0.50147000  0.53438000  1.0
  C  C77  1  0.83297000  0.49296000  0.43926000  1.0
  C  C78  1  0.94667000  0.49578000  0.42693000  1.0
  C  C79  1  0.02297000  0.49932000  0.47241000  1.0
  C  C80  1  0.50412000  0.00097000  0.75028000  1.0
  C  C81  1  0.40369000  0.00200000  0.79064000  1.0
  C  C82  1  0.60388000  0.00064000  0.79081000  1.0
  C  C83  1  0.50383000  0.90075000  0.71010000  1.0
  C  C84  1  0.50471000  0.10085000  0.70980000  1.0
  C  C85  1  0.60331000  0.15805000  0.69763000  1.0
  C  C86  1  0.40487000  0.84476000  0.69738000  1.0
  C  C87  1  0.34662000  0.10083000  0.80268000  1.0
  C  C88  1  0.66098000  0.90212000  0.80338000  1.0
  C  C89  1  0.60931000  0.23981000  0.65542000  1.0
  C  C90  1  0.39892000  0.76414000  0.65471000  1.0
  C  C91  1  0.26575000  0.10777000  0.84548000  1.0
  C  C92  1  0.74140000  0.89604000  0.84623000  1.0
  C  C93  1  0.51024000  0.26538000  0.62497000  1.0
  C  C94  1  0.49857000  0.73764000  0.62467000  1.0
  C  C95  1  0.24139000  0.00926000  0.87674000  1.0
  C  C96  1  0.76566000  0.99518000  0.87692000  1.0
  C  C97  1  0.41091000  0.20666000  0.63796000  1.0
  C  C98  1  0.59829000  0.79463000  0.63842000  1.0
  C  C99  1  0.29930000  0.90952000  0.86348000  1.0
  C  C100  1  0.70737000  0.09445000  0.86327000  1.0
  C  C101  1  0.40708000  0.12565000  0.67898000  1.0
  C  C102  1  0.60198000  0.87505000  0.67965000  1.0
  C  C103  1  0.37912000  0.90468000  0.82180000  1.0
  C  C104  1  0.62785000  0.09839000  0.82163000  1.0
  C  C105  1  0.50252000  0.00216000  0.25000000  1.0
  C  C106  1  0.40331000  0.00232000  0.20916000  1.0
  C  C107  1  0.60327000  0.00242000  0.20984000  1.0
  C  C108  1  0.50113000  0.10202000  0.29040000  1.0
  C  C109  1  0.50180000  0.90191000  0.29023000  1.0
  C  C110  1  0.60005000  0.84453000  0.30305000  1.0
  C  C111  1  0.40193000  0.15864000  0.30249000  1.0
  C  C112  1  0.34599000  0.90418000  0.19648000  1.0
  C  C113  1  0.66037000  0.10088000  0.19733000  1.0
  C  C114  1  0.60475000  0.76299000  0.34538000  1.0
  C  C115  1  0.39465000  0.23956000  0.34500000  1.0
  C  C116  1  0.26557000  0.89895000  0.15363000  1.0
  C  C117  1  0.74092000  0.10685000  0.15434000  1.0
  C  C118  1  0.50453000  0.73717000  0.37505000  1.0
  C  C119  1  0.49319000  0.26504000  0.37576000  1.0
  C  C120  1  0.24172000  0.99854000  0.12309000  1.0
  C  C121  1  0.76530000  0.00769000  0.12357000  1.0
  C  C122  1  0.40552000  0.79576000  0.36128000  1.0
  C  C123  1  0.59322000  0.20718000  0.36275000  1.0
  C  C124  1  0.30057000  0.09719000  0.13668000  1.0
  C  C125  1  0.70727000  0.90846000  0.13727000  1.0
  C  C126  1  0.40310000  0.87699000  0.32035000  1.0
  C  C127  1  0.59824000  0.12688000  0.32147000  1.0
  C  C128  1  0.38003000  0.10033000  0.17833000  1.0
  C  C129  1  0.62766000  0.90462000  0.17905000  1.0
  C  C130  1  0.07529000  0.36366000  0.99966000  1.0
  C  C131  1  0.88166000  0.33471000  0.99998000  1.0
  C  C132  1  0.85613000  0.44818000  0.00032000  1.0
  C  C133  1  0.94804000  0.52527000  0.00014000  1.0
  C  C134  1  0.93377000  0.64366000  0.00027000  1.0
  C  C135  1  0.12731000  0.67288000  0.99985000  1.0
  C  C136  1  0.15301000  0.55940000  0.99978000  1.0
  C  C137  1  0.06118000  0.48213000  0.99983000  1.0
  C  C138  1  0.98267000  0.49410000  0.36721000  1.0
  C  C139  1  0.01920000  0.49601000  0.63309000  1.0
  C  C140  1  0.27484000  0.52498000  0.99971000  1.0
  C  C141  1  0.73436000  0.48279000  0.00094000  1.0
  N  N142  1  0.21082000  0.49854000  0.50868000  1.0
  N  N143  1  0.79125000  0.49786000  0.49163000  1.0
  N  N144  1  0.98858000  0.29372000  0.99970000  1.0
  N  N145  1  0.02034000  0.71369000  0.00008000  1.0
  N  N146  1  0.29712000  0.71281000  0.64450000  1.0
  N  N147  1  0.79043000  0.79408000  0.85766000  1.0
  N  N148  1  0.71021000  0.29338000  0.64614000  1.0
  N  N149  1  0.21660000  0.20991000  0.85638000  1.0
  N  N150  1  0.29315000  0.29230000  0.35431000  1.0
  N  N151  1  0.78968000  0.20892000  0.14274000  1.0
  N  N152  1  0.70600000  0.71019000  0.35552000  1.0
  N  N153  1  0.21632000  0.79717000  0.14206000  1.0
  O  O154  1  0.59444000  0.60951000  0.43599000  1.0
  O  O155  1  0.40582000  0.63113000  0.44293000  1.0
  O  O156  1  0.39957000  0.39157000  0.43634000  1.0
  O  O157  1  0.58796000  0.37050000  0.44458000  1.0
  O  O158  1  0.41411000  0.37198000  0.55672000  1.0
  O  O159  1  0.60250000  0.39295000  0.56460000  1.0
  O  O160  1  0.59606000  0.63206000  0.55625000  1.0
  O  O161  1  0.40742000  0.61163000  0.56350000  1.0
  O  O162  1  0.10381000  0.91182000  0.06697000  1.0
  O  O163  1  0.14186000  0.09577000  0.05251000  1.0
  O  O164  1  0.10558000  0.09987000  0.93337000  1.0
  O  O165  1  0.14197000  0.91591000  0.94869000  1.0
  O  O166  1  0.86563000  0.09025000  0.94799000  1.0
  O  O167  1  0.90234000  0.90611000  0.93338000  1.0
  O  O168  1  0.86484000  0.91157000  0.05241000  1.0
  O  O169  1  0.90184000  0.09580000  0.06656000  1.0
