# generated using pymatgen
data_CuSiH12C24(N2F5)2
_symmetry_space_group_name_H-M   'P 1'
_cell_length_a   8.25731000
_cell_length_b   13.84560000
_cell_length_c   13.86290000
_cell_angle_alpha   89.68350000
_cell_angle_beta   77.48300000
_cell_angle_gamma   77.31600000
_symmetry_Int_Tables_number   1
_chemical_formula_structural   CuSiH12C24(N2F5)2
_chemical_formula_sum   'Cu1 Si1 H12 C24 N4 F10'
_cell_volume   1508.00701498
_cell_formula_units_Z   1
loop_
 _symmetry_equiv_pos_site_id
 _symmetry_equiv_pos_as_xyz
  1  'x, y, z'
loop_
 _atom_site_type_symbol
 _atom_site_label
 _atom_site_symmetry_multiplicity
 _atom_site_fract_x
 _atom_site_fract_y
 _atom_site_fract_z
 _atom_site_occupancy
  Cu  Cu0  1  0.50025000  0.49938000  0.50056000  1.0
  Si  Si1  1  0.00003000  0.50152000  0.49839000  1.0
  H  H2  1  0.25713000  0.37620000  0.55856000  1.0
  H  H3  1  0.23461000  0.20236000  0.55929000  1.0
  H  H4  1  0.78203000  0.12056000  0.44479000  1.0
  H  H5  1  0.22016000  0.87763000  0.56365000  1.0
  H  H6  1  0.74057000  0.62372000  0.43320000  1.0
  H  H7  1  0.76139000  0.79801000  0.43000000  1.0
  H  H8  1  0.25927000  0.56484000  0.37576000  1.0
  H  H9  1  0.23741000  0.56773000  0.20187000  1.0
  H  H10  1  0.78100000  0.43968000  0.12209000  1.0
  H  H11  1  0.21683000  0.55223000  0.87925000  1.0
  H  H12  1  0.74327000  0.44350000  0.62460000  1.0
  H  H13  1  0.76566000  0.44296000  0.79833000  1.0
  C  C14  1  0.37097000  0.31776000  0.53419000  1.0
  C  C15  1  0.35901000  0.21956000  0.53466000  1.0
  C  C16  1  0.50690000  0.14474000  0.50153000  1.0
  C  C17  1  0.66195000  0.17380000  0.47049000  1.0
  C  C18  1  0.66005000  0.27426000  0.47279000  1.0
  C  C19  1  0.50125000  0.04340000  0.49951000  1.0
  C  C20  1  0.49696000  0.95600000  0.49772000  1.0
  C  C21  1  0.49186000  0.85455000  0.49658000  1.0
  C  C22  1  0.33912000  0.82481000  0.53394000  1.0
  C  C23  1  0.34261000  0.72412000  0.53363000  1.0
  C  C24  1  0.62759000  0.68185000  0.46076000  1.0
  C  C25  1  0.63853000  0.78024000  0.45901000  1.0
  C  C26  1  0.37247000  0.53827000  0.31768000  1.0
  C  C27  1  0.36097000  0.53987000  0.21949000  1.0
  C  C28  1  0.50806000  0.50373000  0.14524000  1.0
  C  C29  1  0.66171000  0.46814000  0.17489000  1.0
  C  C30  1  0.65886000  0.46866000  0.27538000  1.0
  C  C31  1  0.50259000  0.50243000  0.04397000  1.0
  C  C32  1  0.49816000  0.50055000  0.95668000  1.0
  C  C33  1  0.49264000  0.49829000  0.85546000  1.0
  C  C34  1  0.33723000  0.52769000  0.82621000  1.0
  C  C35  1  0.33918000  0.52508000  0.72586000  1.0
  C  C36  1  0.62911000  0.46678000  0.68284000  1.0
  C  C37  1  0.64101000  0.46647000  0.78095000  1.0
  N  N38  1  0.51999000  0.34623000  0.50204000  1.0
  N  N39  1  0.48114000  0.65267000  0.49904000  1.0
  N  N40  1  0.51985000  0.50154000  0.34680000  1.0
  N  N41  1  0.47966000  0.49736000  0.65416000  1.0
  F  F42  1  0.20104000  0.51498000  0.51124000  1.0
  F  F43  1  0.79898000  0.48783000  0.48588000  1.0
  F  F44  1  0.00047000  0.41378000  0.58765000  1.0
  F  F45  1  0.99961000  0.58918000  0.40919000  1.0
  F  F46  1  0.09717000  0.41116000  0.40972000  1.0
  F  F47  1  0.90284000  0.59184000  0.58711000  1.0
  F  F48  1  0.80806000  0.30105000  0.44395000  1.0
  F  F49  1  0.19779000  0.69635000  0.57115000  1.0
  F  F50  1  0.80499000  0.43343000  0.30288000  1.0
  F  F51  1  0.19067000  0.55179000  0.69898000  1.0
