# generated using pymatgen
data_TbAg3H6C14N2O11
_symmetry_space_group_name_H-M   'P 1'
_cell_length_a   8.08137000
_cell_length_b   13.88010000
_cell_length_c   14.59710000
_cell_angle_alpha   89.99990000
_cell_angle_beta   90.00010000
_cell_angle_gamma   89.99990000
_symmetry_Int_Tables_number   1
_chemical_formula_structural   TbAg3H6C14N2O11
_chemical_formula_sum   'Tb4 Ag12 H24 C56 N8 O44'
_cell_volume   1637.35997290
_cell_formula_units_Z   4
loop_
 _symmetry_equiv_pos_site_id
 _symmetry_equiv_pos_as_xyz
  1  'x, y, z'
loop_
 _atom_site_type_symbol
 _atom_site_label
 _atom_site_symmetry_multiplicity
 _atom_site_fract_x
 _atom_site_fract_y
 _atom_site_fract_z
 _atom_site_occupancy
  Tb  Tb0  1  0.02827000  0.75000000  0.75000000  1.0
  Tb  Tb1  1  0.47173000  0.75000000  0.25000000  1.0
  Tb  Tb2  1  0.97173000  0.25000000  0.25000000  1.0
  Tb  Tb3  1  0.52827000  0.25000000  0.75000000  1.0
  Ag  Ag4  1  0.44557000  0.82404000  0.51465000  1.0
  Ag  Ag5  1  0.05443000  0.82404000  0.48535000  1.0
  Ag  Ag6  1  0.05443000  0.67596000  0.01464000  1.0
  Ag  Ag7  1  0.44557000  0.67596000  0.98535000  1.0
  Ag  Ag8  1  0.55443000  0.17596000  0.48535000  1.0
  Ag  Ag9  1  0.94557000  0.17596000  0.51464000  1.0
  Ag  Ag10  1  0.94557000  0.32403000  0.98536000  1.0
  Ag  Ag11  1  0.55443000  0.32404000  0.01465000  1.0
  Ag  Ag12  1  0.75000000  0.94341000  0.50000000  1.0
  Ag  Ag13  1  0.75000000  0.55659000  0.00000000  1.0
  Ag  Ag14  1  0.25000000  0.05659000  0.50000000  1.0
  Ag  Ag15  1  0.25000000  0.44341000  1.00000000  1.0
  H  H16  1  0.77349000  0.76843000  0.94442000  1.0
  H  H17  1  0.72651000  0.76843000  0.05557000  1.0
  H  H18  1  0.72651000  0.73156000  0.44443000  1.0
  H  H19  1  0.77349000  0.73156000  0.55557000  1.0
  H  H20  1  0.22651000  0.23157000  0.05558000  1.0
  H  H21  1  0.27349000  0.23156000  0.94443000  1.0
  H  H22  1  0.27349000  0.26844000  0.55557000  1.0
  H  H23  1  0.22651000  0.26844000  0.44443000  1.0
  H  H24  1  0.38451000  0.47333000  0.56652000  1.0
  H  H25  1  0.11549000  0.47333000  0.43348000  1.0
  H  H26  1  0.11548000  0.02667000  0.06653000  1.0
  H  H27  1  0.38451000  0.02667000  0.93348000  1.0
  H  H28  1  0.61549000  0.52667000  0.43348000  1.0
  H  H29  1  0.88451000  0.52667000  0.56653000  1.0
  H  H30  1  0.88451000  0.97333000  0.93347000  1.0
  H  H31  1  0.61548000  0.97333000  0.06653000  1.0
  H  H32  1  0.09875000  0.35426000  0.79082000  1.0
  H  H33  1  0.40125000  0.35427000  0.20917000  1.0
  H  H34  1  0.40125000  0.14573000  0.29083000  1.0
  H  H35  1  0.09875000  0.14573000  0.70917000  1.0
  H  H36  1  0.90125000  0.64573000  0.20917000  1.0
  H  H37  1  0.59875000  0.64573000  0.79083000  1.0
  H  H38  1  0.59875000  0.85427000  0.70917000  1.0
  H  H39  1  0.90125000  0.85427000  0.29083000  1.0
  C  C40  1  0.30343000  0.66274000  0.60635000  1.0
  C  C41  1  0.19656000  0.66274000  0.39365000  1.0
  C  C42  1  0.19655000  0.83726000  0.10634000  1.0
  C  C43  1  0.30343000  0.83726000  0.89365000  1.0
  C  C44  1  0.69657000  0.33726000  0.39365000  1.0
  C  C45  1  0.80344000  0.33726000  0.60635000  1.0
  C  C46  1  0.80344000  0.16274000  0.89365000  1.0
  C  C47  1  0.69656000  0.16274000  0.10635000  1.0
  C  C48  1  0.24365000  0.57137000  0.65009000  1.0
  C  C49  1  0.25635000  0.57137000  0.34991000  1.0
  C  C50  1  0.25636000  0.92863000  0.15009000  1.0
  C  C51  1  0.24365000  0.92863000  0.84991000  1.0
  C  C52  1  0.75635000  0.42863000  0.34991000  1.0
  C  C53  1  0.74365000  0.42863000  0.65009000  1.0
  C  C54  1  0.74364000  0.07137000  0.84991000  1.0
  C  C55  1  0.75635000  0.07137000  0.15009000  1.0
  C  C56  1  0.29828000  0.48082000  0.62341000  1.0
  C  C57  1  0.20172000  0.48082000  0.37659000  1.0
  C  C58  1  0.20172000  0.01918000  0.12341000  1.0
  C  C59  1  0.29828000  0.01918000  0.87659000  1.0
  C  C60  1  0.70172000  0.51918000  0.37659000  1.0
  C  C61  1  0.79828000  0.51918000  0.62341000  1.0
  C  C62  1  0.79828000  0.98082000  0.87659000  1.0
  C  C63  1  0.70172000  0.98082000  0.12341000  1.0
  C  C64  1  0.25101000  0.39890000  0.67520000  1.0
  C  C65  1  0.24899000  0.39890000  0.32480000  1.0
  C  C66  1  0.24900000  0.10110000  0.17520000  1.0
  C  C67  1  0.25101000  0.10110000  0.82480000  1.0
  C  C68  1  0.74899000  0.60109000  0.32480000  1.0
  C  C69  1  0.75101000  0.60110000  0.67520000  1.0
  C  C70  1  0.75100000  0.89890000  0.82480000  1.0
  C  C71  1  0.74900000  0.89890000  0.17520000  1.0
  C  C72  1  0.13957000  0.41480000  0.74904000  1.0
  C  C73  1  0.36044000  0.41480000  0.25096000  1.0
  C  C74  1  0.36044000  0.08521000  0.24904000  1.0
  C  C75  1  0.13956000  0.08521000  0.75096000  1.0
  C  C76  1  0.86043000  0.58521000  0.25096000  1.0
  C  C77  1  0.63956000  0.58520000  0.74904000  1.0
  C  C78  1  0.63956000  0.91479000  0.75096000  1.0
  C  C79  1  0.86044000  0.91479000  0.24904000  1.0
  C  C80  1  0.09057000  0.50810000  0.76939000  1.0
  C  C81  1  0.40943000  0.50810000  0.23061000  1.0
  C  C82  1  0.40943000  0.99190000  0.26939000  1.0
  C  C83  1  0.09056000  0.99190000  0.73061000  1.0
  C  C84  1  0.90944000  0.49190000  0.23061000  1.0
  C  C85  1  0.59057000  0.49190000  0.76939000  1.0
  C  C86  1  0.59057000  0.00810000  0.73061000  1.0
  C  C87  1  0.90944000  0.00810000  0.26939000  1.0
  C  C88  1  0.98166000  0.53394000  0.84829000  1.0
  C  C89  1  0.51834000  0.53395000  0.15171000  1.0
  C  C90  1  0.51833000  0.96605000  0.34829000  1.0
  C  C91  1  0.98166000  0.96605000  0.65171000  1.0
  C  C92  1  0.01834000  0.46605000  0.15171000  1.0
  C  C93  1  0.48166000  0.46605000  0.84829000  1.0
  C  C94  1  0.48166000  0.03395000  0.65171000  1.0
  C  C95  1  0.01834000  0.03395000  0.34829000  1.0
  N  N96  1  0.14118000  0.58579000  0.72138000  1.0
  N  N97  1  0.35882000  0.58579000  0.27862000  1.0
  N  N98  1  0.35882000  0.91421000  0.22138000  1.0
  N  N99  1  0.14118000  0.91421000  0.77862000  1.0
  N  N100  1  0.85883000  0.41421000  0.27862000  1.0
  N  N101  1  0.64118000  0.41421000  0.72138000  1.0
  N  N102  1  0.64118000  0.08579000  0.77862000  1.0
  N  N103  1  0.85882000  0.08579000  0.22138000  1.0
  O  O104  1  0.23222000  0.74146000  0.63302000  1.0
  O  O105  1  0.26778000  0.74146000  0.36698000  1.0
  O  O106  1  0.26778000  0.75854000  0.13302000  1.0
  O  O107  1  0.23221000  0.75854000  0.86698000  1.0
  O  O108  1  0.76779000  0.25854000  0.36698000  1.0
  O  O109  1  0.73221000  0.25854000  0.63302000  1.0
  O  O110  1  0.73222000  0.24146000  0.86698000  1.0
  O  O111  1  0.76778000  0.24146000  0.13302000  1.0
  O  O112  1  0.41930000  0.65963000  0.54915000  1.0
  O  O113  1  0.08071000  0.65964000  0.45085000  1.0
  O  O114  1  0.08071000  0.84037000  0.04915000  1.0
  O  O115  1  0.41929000  0.84036000  0.95085000  1.0
  O  O116  1  0.58071000  0.34036000  0.45085000  1.0
  O  O117  1  0.91930000  0.34036000  0.54915000  1.0
  O  O118  1  0.91929000  0.15963000  0.95085000  1.0
  O  O119  1  0.58071000  0.15963000  0.04915000  1.0
  O  O120  1  0.31468000  0.31340000  0.65937000  1.0
  O  O121  1  0.18532000  0.31340000  0.34063000  1.0
  O  O122  1  0.18532000  0.18660000  0.15938000  1.0
  O  O123  1  0.31468000  0.18660000  0.84063000  1.0
  O  O124  1  0.68532000  0.68660000  0.34063000  1.0
  O  O125  1  0.81468000  0.68660000  0.65937000  1.0
  O  O126  1  0.81468000  0.81340000  0.84062000  1.0
  O  O127  1  0.68532000  0.81340000  0.15938000  1.0
  O  O128  1  0.92024000  0.46945000  0.90020000  1.0
  O  O129  1  0.57975000  0.46946000  0.09980000  1.0
  O  O130  1  0.57975000  0.03054000  0.40020000  1.0
  O  O131  1  0.92024000  0.03055000  0.59980000  1.0
  O  O132  1  0.07975000  0.53055000  0.09980000  1.0
  O  O133  1  0.42025000  0.53055000  0.90020000  1.0
  O  O134  1  0.42025000  0.96946000  0.59980000  1.0
  O  O135  1  0.07975000  0.96946000  0.40020000  1.0
  O  O136  1  0.95389000  0.62396000  0.86039000  1.0
  O  O137  1  0.54611000  0.62397000  0.13961000  1.0
  O  O138  1  0.54611000  0.87603000  0.36039000  1.0
  O  O139  1  0.95389000  0.87604000  0.63961000  1.0
  O  O140  1  0.04611000  0.37604000  0.13961000  1.0
  O  O141  1  0.45389000  0.37604000  0.86039000  1.0
  O  O142  1  0.45389000  0.12397000  0.63961000  1.0
  O  O143  1  0.04611000  0.12397000  0.36039000  1.0
  O  O144  1  0.75000000  0.72812000  1.00000000  1.0
  O  O145  1  0.75000000  0.77188000  0.50000000  1.0
  O  O146  1  0.25000000  0.27188000  0.00000000  1.0
  O  O147  1  0.25000000  0.22812000  0.50000000  1.0
