# generated using pymatgen
data_Ag2H15(C7N2)3
_symmetry_space_group_name_H-M   'P 1'
_cell_length_a   14.12670000
_cell_length_b   17.84120000
_cell_length_c   19.58330000
_cell_angle_alpha   81.74030000
_cell_angle_beta   89.84610000
_cell_angle_gamma   89.80970000
_symmetry_Int_Tables_number   1
_chemical_formula_structural   Ag2H15(C7N2)3
_chemical_formula_sum   'Ag16 H120 C168 N48'
_cell_volume   4884.48470976
_cell_formula_units_Z   8
loop_
 _symmetry_equiv_pos_site_id
 _symmetry_equiv_pos_as_xyz
  1  'x, y, z'
loop_
 _atom_site_type_symbol
 _atom_site_label
 _atom_site_symmetry_multiplicity
 _atom_site_fract_x
 _atom_site_fract_y
 _atom_site_fract_z
 _atom_site_occupancy
  Ag  Ag0  1  0.82868000  0.74692000  0.25625000  1.0
  Ag  Ag1  1  0.95528000  0.66448000  0.37686000  1.0
  Ag  Ag2  1  0.95530000  0.24373000  0.75830000  1.0
  Ag  Ag3  1  0.07776000  0.15892000  0.88013000  1.0
  Ag  Ag4  1  0.32893000  0.75431000  0.74376000  1.0
  Ag  Ag5  1  0.45535000  0.83567000  0.62399000  1.0
  Ag  Ag6  1  0.45340000  0.25649000  0.24201000  1.0
  Ag  Ag7  1  0.57740000  0.33852000  0.12116000  1.0
  Ag  Ag8  1  0.17146000  0.25303000  0.74371000  1.0
  Ag  Ag9  1  0.04483000  0.33547000  0.62310000  1.0
  Ag  Ag10  1  0.04485000  0.75622000  0.24164000  1.0
  Ag  Ag11  1  0.92230000  0.84095000  0.11993000  1.0
  Ag  Ag12  1  0.67125000  0.24566000  0.25624000  1.0
  Ag  Ag13  1  0.54475000  0.16443000  0.37592000  1.0
  Ag  Ag14  1  0.54672000  0.74348000  0.75800000  1.0
  Ag  Ag15  1  0.42272000  0.66138000  0.87894000  1.0
  H  H16  1  0.73409000  0.89014000  0.31126000  1.0
  H  H17  1  0.76556000  0.96270000  0.40706000  1.0
  H  H18  1  0.99981000  0.80629000  0.45772000  1.0
  H  H19  1  0.08177000  0.99055000  0.85033000  1.0
  H  H20  1  0.04655000  0.92251000  0.75192000  1.0
  H  H21  1  0.90251000  0.12873000  0.66242000  1.0
  H  H22  1  0.00582000  0.83358000  0.55348000  1.0
  H  H23  1  0.04119000  0.88837000  0.65540000  1.0
  H  H24  1  0.85711000  0.07853000  0.58418000  1.0
  H  H25  1  0.82038000  0.02316000  0.48283000  1.0
  H  H26  1  0.05158000  0.50022000  0.65530000  1.0
  H  H27  1  0.02440000  0.56917000  0.75457000  1.0
  H  H28  1  0.90411000  0.35847000  0.85695000  1.0
  H  H29  1  0.75080000  0.59123000  0.21417000  1.0
  H  H30  1  0.78014000  0.51918000  0.11767000  1.0
  H  H31  1  0.96313000  0.70603000  0.03553000  1.0
  H  H32  1  0.00737000  0.61247000  0.84509000  1.0
  H  H33  1  0.97125000  0.66966000  0.94556000  1.0
  H  H34  1  0.82307000  0.46589000  0.03462000  1.0
  H  H35  1  0.86067000  0.40848000  0.93477000  1.0
  H  H36  1  0.92440000  0.72092000  0.52254000  1.0
  H  H37  1  0.86386000  0.67450000  0.63828000  1.0
  H  H38  1  0.83824000  0.45720000  0.56441000  1.0
  H  H39  1  0.66784000  0.26971000  0.99109000  1.0
  H  H40  1  0.71007000  0.31260000  0.86916000  1.0
  H  H41  1  0.63052000  0.53677000  0.91102000  1.0
  H  H42  1  0.77141000  0.41454000  0.65244000  1.0
  H  H43  1  0.70229000  0.36196000  0.76191000  1.0
  H  H44  1  0.73544000  0.57724000  0.83631000  1.0
  H  H45  1  0.80459000  0.63010000  0.72726000  1.0
  H  H46  1  0.23396000  0.61151000  0.68915000  1.0
  H  H47  1  0.26562000  0.53886000  0.59324000  1.0
  H  H48  1  0.50011000  0.69404000  0.54209000  1.0
  H  H49  1  0.58456000  0.50740000  0.15049000  1.0
  H  H50  1  0.55134000  0.57550000  0.24954000  1.0
  H  H51  1  0.40124000  0.37224000  0.33792000  1.0
  H  H52  1  0.50775000  0.66566000  0.44716000  1.0
  H  H53  1  0.54417000  0.61018000  0.34558000  1.0
  H  H54  1  0.35481000  0.42372000  0.41501000  1.0
  H  H55  1  0.31798000  0.47919000  0.51644000  1.0
  H  H56  1  0.55181000  0.99969000  0.34318000  1.0
  H  H57  1  0.52453000  0.93140000  0.24364000  1.0
  H  H58  1  0.40144000  0.14237000  0.14339000  1.0
  H  H59  1  0.24933000  0.90985000  0.78601000  1.0
  H  H60  1  0.27797000  0.98193000  0.88247000  1.0
  H  H61  1  0.46310000  0.79548000  0.96371000  1.0
  H  H62  1  0.50552000  0.88819000  0.15412000  1.0
  H  H63  1  0.46938000  0.83123000  0.05373000  1.0
  H  H64  1  0.32262000  0.03616000  0.96468000  1.0
  H  H65  1  0.36008000  0.09331000  0.06454000  1.0
  H  H66  1  0.42646000  0.78161000  0.47818000  1.0
  H  H67  1  0.36507000  0.82819000  0.36285000  1.0
  H  H68  1  0.33676000  0.04502000  0.43742000  1.0
  H  H69  1  0.16859000  0.22946000  0.00872000  1.0
  H  H70  1  0.20916000  0.18796000  0.13113000  1.0
  H  H71  1  0.13067000  0.96320000  0.09149000  1.0
  H  H72  1  0.26853000  0.08751000  0.34909000  1.0
  H  H73  1  0.19895000  0.13930000  0.23958000  1.0
  H  H74  1  0.23590000  0.92380000  0.16599000  1.0
  H  H75  1  0.30532000  0.87180000  0.27496000  1.0
  H  H76  1  0.26602000  0.10977000  0.68872000  1.0
  H  H77  1  0.23450000  0.03718000  0.59294000  1.0
  H  H78  1  0.00041000  0.19374000  0.54215000  1.0
  H  H79  1  0.91800000  0.00924000  0.14976000  1.0
  H  H80  1  0.95328000  0.07731000  0.24813000  1.0
  H  H81  1  0.09766000  0.87121000  0.33751000  1.0
  H  H82  1  0.99429000  0.16633000  0.44648000  1.0
  H  H83  1  0.95879000  0.11148000  0.34461000  1.0
  H  H84  1  0.14298000  0.92137000  0.41579000  1.0
  H  H85  1  0.17980000  0.97680000  0.51707000  1.0
  H  H86  1  0.94814000  0.49984000  0.34455000  1.0
  H  H87  1  0.97550000  0.43085000  0.24534000  1.0
  H  H88  1  0.09597000  0.64148000  0.14303000  1.0
  H  H89  1  0.24923000  0.40873000  0.78576000  1.0
  H  H90  1  0.21980000  0.48083000  0.88220000  1.0
  H  H91  1  0.03690000  0.29394000  0.96444000  1.0
  H  H92  1  0.99261000  0.38753000  0.15482000  1.0
  H  H93  1  0.02874000  0.33036000  0.05435000  1.0
  H  H94  1  0.17710000  0.53409000  0.96537000  1.0
  H  H95  1  0.13947000  0.59148000  0.06522000  1.0
  H  H96  1  0.07507000  0.27953000  0.47732000  1.0
  H  H97  1  0.13567000  0.32601000  0.36160000  1.0
  H  H98  1  0.16194000  0.54312000  0.43574000  1.0
  H  H99  1  0.33196000  0.73035000  0.00881000  1.0
  H  H100  1  0.28981000  0.68763000  0.13079000  1.0
  H  H101  1  0.36954000  0.46339000  0.08919000  1.0
  H  H102  1  0.22837000  0.58593000  0.34757000  1.0
  H  H103  1  0.29767000  0.63842000  0.23812000  1.0
  H  H104  1  0.26471000  0.42302000  0.16387000  1.0
  H  H105  1  0.19539000  0.37029000  0.27289000  1.0
  H  H106  1  0.76608000  0.38862000  0.31078000  1.0
  H  H107  1  0.73430000  0.46135000  0.40660000  1.0
  H  H108  1  0.50008000  0.30595000  0.45792000  1.0
  H  H109  1  0.41545000  0.49262000  0.84946000  1.0
  H  H110  1  0.44861000  0.42458000  0.75036000  1.0
  H  H111  1  0.59881000  0.62783000  0.66208000  1.0
  H  H112  1  0.49215000  0.33451000  0.55273000  1.0
  H  H113  1  0.45580000  0.38995000  0.65434000  1.0
  H  H114  1  0.64515000  0.57643000  0.58491000  1.0
  H  H115  1  0.68198000  0.52096000  0.48348000  1.0
  H  H116  1  0.44810000  0.00024000  0.65692000  1.0
  H  H117  1  0.47533000  0.06846000  0.75651000  1.0
  H  H118  1  0.59862000  0.85749000  0.85664000  1.0
  H  H119  1  0.75072000  0.09000000  0.21402000  1.0
  H  H120  1  0.72189000  0.01788000  0.11763000  1.0
  H  H121  1  0.53704000  0.20448000  0.03632000  1.0
  H  H122  1  0.49446000  0.11168000  0.84595000  1.0
  H  H123  1  0.53059000  0.16864000  0.94633000  1.0
  H  H124  1  0.67730000  0.96370000  0.03543000  1.0
  H  H125  1  0.63979000  0.90652000  0.93559000  1.0
  H  H126  1  0.57331000  0.21817000  0.52187000  1.0
  H  H127  1  0.63475000  0.17163000  0.63718000  1.0
  H  H128  1  0.66355000  0.95489000  0.56251000  1.0
  H  H129  1  0.83122000  0.77039000  0.99142000  1.0
  H  H130  1  0.79064000  0.81183000  0.86901000  1.0
  H  H131  1  0.86942000  0.03658000  0.90852000  1.0
  H  H132  1  0.73162000  0.91237000  0.65091000  1.0
  H  H133  1  0.80109000  0.86054000  0.76044000  1.0
  H  H134  1  0.76403000  0.07600000  0.83409000  1.0
  H  H135  1  0.69471000  0.12805000  0.72508000  1.0
  C  C136  1  0.79069000  0.87346000  0.34811000  1.0
  C  C137  1  0.80941000  0.91374000  0.40119000  1.0
  C  C138  1  0.88460000  0.88937000  0.44829000  1.0
  C  C139  1  0.93586000  0.82657000  0.42984000  1.0
  C  C140  1  0.04436000  0.01832000  0.80491000  1.0
  C  C141  1  0.02453000  0.98128000  0.74974000  1.0
  C  C142  1  0.97279000  0.01963000  0.69213000  1.0
  C  C143  1  0.94463000  0.09379000  0.70112000  1.0
  C  C144  1  0.90780000  0.92222000  0.50837000  1.0
  C  C145  1  0.97173000  0.88714000  0.55956000  1.0
  C  C146  1  0.99195000  0.91828000  0.61819000  1.0
  C  C147  1  0.95184000  0.98846000  0.63056000  1.0
  C  C148  1  0.89004000  0.02453000  0.57844000  1.0
  C  C149  1  0.86827000  0.99271000  0.52062000  1.0
  C  C150  1  0.02043000  0.47227000  0.70327000  1.0
  C  C151  1  0.00483000  0.50978000  0.75885000  1.0
  C  C152  1  0.95940000  0.47137000  0.81925000  1.0
  C  C153  1  0.93765000  0.39481000  0.81442000  1.0
  C  C154  1  0.79518000  0.61433000  0.17061000  1.0
  C  C155  1  0.81239000  0.57460000  0.11678000  1.0
  C  C156  1  0.87253000  0.60656000  0.06111000  1.0
  C  C157  1  0.91160000  0.67730000  0.07161000  1.0
  C  C158  1  0.93783000  0.50463000  0.87962000  1.0
  C  C159  1  0.96686000  0.57959000  0.88634000  1.0
  C  C160  1  0.94618000  0.61220000  0.94417000  1.0
  C  C161  1  0.89346000  0.57342000  0.00063000  1.0
  C  C162  1  0.86364000  0.49876000  0.99349000  1.0
  C  C163  1  0.88541000  0.46593000  0.93612000  1.0
  C  C164  1  0.90319000  0.66202000  0.53565000  1.0
  C  C165  1  0.86866000  0.63551000  0.60047000  1.0
  C  C166  1  0.83945000  0.55901000  0.61525000  1.0
  C  C167  1  0.85482000  0.51737000  0.55918000  1.0
  C  C168  1  0.66028000  0.32909000  0.96911000  1.0
  C  C169  1  0.68373000  0.35342000  0.90107000  1.0
  C  C170  1  0.67911000  0.43182000  0.87635000  1.0
  C  C171  1  0.64227000  0.47609000  0.92543000  1.0
  C  C172  1  0.79625000  0.52705000  0.67964000  1.0
  C  C173  1  0.76516000  0.45069000  0.69253000  1.0
  C  C174  1  0.72559000  0.42079000  0.75490000  1.0
  C  C175  1  0.71291000  0.46472000  0.80926000  1.0
  C  C176  1  0.74138000  0.54147000  0.79586000  1.0
  C  C177  1  0.78168000  0.57125000  0.73368000  1.0
  C  C178  1  0.29059000  0.62795000  0.65215000  1.0
  C  C179  1  0.30941000  0.58763000  0.59900000  1.0
  C  C180  1  0.38479000  0.61155000  0.55181000  1.0
  C  C181  1  0.43610000  0.67407000  0.57010000  1.0
  C  C182  1  0.54634000  0.48029000  0.19584000  1.0
  C  C183  1  0.52764000  0.51731000  0.25133000  1.0
  C  C184  1  0.47414000  0.47993000  0.30847000  1.0
  C  C185  1  0.44422000  0.40650000  0.29931000  1.0
  C  C186  1  0.40802000  0.57846000  0.49173000  1.0
  C  C187  1  0.47307000  0.61258000  0.44090000  1.0
  C  C188  1  0.49387000  0.58106000  0.38243000  1.0
  C  C189  1  0.45286000  0.51154000  0.36992000  1.0
  C  C190  1  0.38917000  0.47680000  0.42131000  1.0
  C  C191  1  0.36719000  0.50879000  0.47914000  1.0
  C  C192  1  0.52000000  0.02785000  0.29559000  1.0
  C  C193  1  0.50431000  0.99070000  0.23989000  1.0
  C  C194  1  0.45821000  0.02954000  0.18000000  1.0
  C  C195  1  0.43576000  0.10586000  0.18544000  1.0
  C  C196  1  0.29417000  0.88695000  0.82931000  1.0
  C  C197  1  0.31107000  0.92670000  0.88309000  1.0
  C  C198  1  0.37159000  0.89487000  0.93840000  1.0
  C  C199  1  0.41135000  0.82417000  0.92783000  1.0
  C  C200  1  0.43661000  0.99656000  0.11956000  1.0
  C  C201  1  0.46529000  0.92137000  0.11293000  1.0
  C  C202  1  0.44462000  0.88889000  0.05515000  1.0
  C  C203  1  0.39231000  0.92807000  0.99879000  1.0
  C  C204  1  0.36284000  0.00300000  0.00581000  1.0
  C  C205  1  0.38457000  0.03567000  0.06316000  1.0
  C  C206  1  0.40442000  0.84045000  0.46537000  1.0
  C  C207  1  0.36940000  0.86703000  0.40076000  1.0
  C  C208  1  0.33903000  0.94336000  0.38647000  1.0
  C  C209  1  0.35419000  0.98491000  0.44247000  1.0
  C  C210  1  0.16061000  0.17037000  0.03137000  1.0
  C  C211  1  0.18318000  0.14679000  0.09964000  1.0
  C  C212  1  0.17808000  0.06869000  0.12524000  1.0
  C  C213  1  0.14225000  0.02378000  0.07657000  1.0
  C  C214  1  0.29539000  0.97510000  0.32220000  1.0
  C  C215  1  0.26313000  0.05116000  0.30913000  1.0
  C  C216  1  0.22334000  0.08064000  0.24671000  1.0
  C  C217  1  0.21178000  0.03642000  0.19256000  1.0
  C  C218  1  0.24124000  0.95985000  0.20623000  1.0
  C  C219  1  0.28167000  0.93056000  0.26840000  1.0
  C  C220  1  0.20945000  0.12648000  0.65184000  1.0
  C  C221  1  0.19070000  0.08618000  0.59878000  1.0
  C  C222  1  0.11555000  0.11058000  0.55163000  1.0
  C  C223  1  0.06436000  0.17345000  0.57003000  1.0
  C  C224  1  0.95550000  0.98150000  0.19515000  1.0
  C  C225  1  0.97536000  0.01855000  0.25031000  1.0
  C  C226  1  0.02719000  0.98023000  0.30788000  1.0
  C  C227  1  0.05547000  0.90612000  0.29883000  1.0
  C  C228  1  0.09232000  0.07770000  0.49157000  1.0
  C  C229  1  0.02836000  0.11275000  0.44040000  1.0
  C  C230  1  0.00806000  0.08158000  0.38180000  1.0
  C  C231  1  0.04816000  0.01140000  0.36944000  1.0
  C  C232  1  0.11002000  0.97537000  0.42152000  1.0
  C  C233  1  0.13185000  0.00721000  0.47932000  1.0
  C  C234  1  0.97938000  0.52776000  0.29660000  1.0
  C  C235  1  0.99506000  0.49024000  0.24105000  1.0
  C  C236  1  0.04056000  0.52863000  0.18068000  1.0
  C  C237  1  0.06235000  0.60517000  0.18553000  1.0
  C  C238  1  0.20485000  0.38563000  0.82933000  1.0
  C  C239  1  0.18761000  0.42539000  0.88314000  1.0
  C  C240  1  0.12750000  0.39342000  0.93883000  1.0
  C  C241  1  0.08845000  0.32265000  0.92837000  1.0
  C  C242  1  0.06219000  0.49536000  0.12032000  1.0
  C  C243  1  0.03315000  0.42042000  0.11359000  1.0
  C  C244  1  0.05384000  0.38781000  0.05576000  1.0
  C  C245  1  0.10658000  0.42658000  0.99931000  1.0
  C  C246  1  0.13646000  0.50123000  0.00647000  1.0
  C  C247  1  0.11468000  0.53404000  0.06385000  1.0
  C  C248  1  0.09647000  0.33840000  0.46427000  1.0
  C  C249  1  0.13101000  0.36493000  0.39947000  1.0
  C  C250  1  0.16038000  0.44141000  0.38478000  1.0
  C  C251  1  0.14515000  0.48298000  0.44091000  1.0
  C  C252  1  0.33963000  0.67102000  0.03087000  1.0
  C  C253  1  0.31622000  0.64678000  0.09893000  1.0
  C  C254  1  0.32093000  0.56842000  0.12374000  1.0
  C  C255  1  0.35778000  0.52406000  0.07473000  1.0
  C  C256  1  0.20363000  0.47338000  0.32043000  1.0
  C  C257  1  0.23472000  0.54974000  0.30753000  1.0
  C  C258  1  0.27434000  0.57959000  0.24515000  1.0
  C  C259  1  0.28709000  0.53561000  0.19084000  1.0
  C  C260  1  0.25864000  0.45885000  0.20428000  1.0
  C  C261  1  0.21828000  0.42914000  0.26644000  1.0
  C  C262  1  0.70946000  0.37216000  0.34778000  1.0
  C  C263  1  0.69058000  0.41253000  0.40089000  1.0
  C  C264  1  0.61523000  0.38858000  0.44810000  1.0
  C  C265  1  0.56404000  0.32597000  0.42988000  1.0
  C  C266  1  0.45369000  0.51975000  0.80413000  1.0
  C  C267  1  0.47236000  0.48276000  0.74861000  1.0
  C  C268  1  0.52590000  0.52014000  0.69148000  1.0
  C  C269  1  0.55584000  0.59356000  0.70068000  1.0
  C  C270  1  0.59194000  0.42169000  0.50817000  1.0
  C  C271  1  0.52689000  0.38756000  0.55900000  1.0
  C  C272  1  0.50611000  0.41906000  0.61748000  1.0
  C  C273  1  0.54714000  0.48857000  0.63000000  1.0
  C  C274  1  0.61079000  0.52334000  0.57860000  1.0
  C  C275  1  0.63276000  0.49136000  0.52077000  1.0
  C  C276  1  0.47992000  0.97206000  0.70451000  1.0
  C  C277  1  0.49557000  0.00917000  0.76024000  1.0
  C  C278  1  0.54172000  0.97030000  0.82010000  1.0
  C  C279  1  0.56426000  0.89401000  0.81462000  1.0
  C  C280  1  0.70589000  0.11293000  0.17073000  1.0
  C  C281  1  0.68890000  0.07316000  0.11699000  1.0
  C  C282  1  0.62839000  0.10502000  0.06167000  1.0
  C  C283  1  0.58876000  0.17577000  0.07221000  1.0
  C  C284  1  0.56330000  0.00328000  0.88055000  1.0
  C  C285  1  0.53464000  0.07848000  0.88716000  1.0
  C  C286  1  0.55530000  0.11095000  0.94494000  1.0
  C  C287  1  0.60762000  0.07179000  0.00131000  1.0
  C  C288  1  0.63707000  0.99684000  0.99430000  1.0
  C  C289  1  0.61532000  0.96418000  0.93696000  1.0
  C  C290  1  0.59550000  0.15935000  0.53464000  1.0
  C  C291  1  0.63054000  0.13281000  0.59925000  1.0
  C  C292  1  0.66105000  0.05651000  0.61352000  1.0
  C  C293  1  0.64601000  0.01498000  0.55749000  1.0
  C  C294  1  0.83924000  0.82947000  0.96876000  1.0
  C  C295  1  0.81666000  0.85302000  0.90048000  1.0
  C  C296  1  0.82182000  0.93111000  0.87484000  1.0
  C  C297  1  0.85775000  0.97602000  0.92348000  1.0
  C  C298  1  0.70467000  0.02476000  0.67781000  1.0
  C  C299  1  0.73694000  0.94870000  0.69088000  1.0
  C  C300  1  0.77666000  0.91920000  0.75333000  1.0
  C  C301  1  0.78817000  0.96339000  0.80750000  1.0
  C  C302  1  0.75873000  0.03997000  0.79382000  1.0
  C  C303  1  0.71834000  0.06928000  0.73163000  1.0
  N  N304  1  0.83892000  0.80996000  0.33719000  1.0
  N  N305  1  0.91466000  0.78830000  0.37909000  1.0
  N  N306  1  0.01915000  0.09095000  0.80886000  1.0
  N  N307  1  0.96702000  0.12781000  0.75462000  1.0
  N  N308  1  0.99764000  0.39874000  0.70204000  1.0
  N  N309  1  0.95674000  0.36031000  0.76055000  1.0
  N  N310  1  0.83080000  0.68450000  0.17445000  1.0
  N  N311  1  0.89192000  0.71459000  0.12341000  1.0
  N  N312  1  0.91145000  0.61941000  0.48431000  1.0
  N  N313  1  0.88771000  0.54504000  0.49728000  1.0
  N  N314  1  0.62935000  0.37543000  0.01322000  1.0
  N  N315  1  0.61822000  0.45043000  0.98983000  1.0
  N  N316  1  0.33889000  0.69118000  0.66295000  1.0
  N  N317  1  0.41472000  0.71247000  0.62086000  1.0
  N  N318  1  0.51875000  0.40844000  0.19152000  1.0
  N  N319  1  0.46592000  0.37231000  0.24561000  1.0
  N  N320  1  0.49658000  0.10121000  0.29744000  1.0
  N  N321  1  0.45481000  0.14000000  0.23951000  1.0
  N  N322  1  0.33064000  0.81693000  0.82528000  1.0
  N  N323  1  0.39201000  0.78694000  0.87606000  1.0
  N  N324  1  0.41213000  0.88281000  0.51678000  1.0
  N  N325  1  0.38758000  0.95717000  0.50415000  1.0
  N  N326  1  0.12994000  0.12353000  0.98781000  1.0
  N  N327  1  0.11877000  0.04878000  0.01196000  1.0
  N  N328  1  0.16131000  0.19004000  0.66272000  1.0
  N  N329  1  0.08562000  0.21174000  0.62075000  1.0
  N  N330  1  0.98082000  0.90891000  0.19117000  1.0
  N  N331  1  0.03308000  0.87210000  0.24535000  1.0
  N  N332  1  0.00222000  0.60128000  0.29786000  1.0
  N  N333  1  0.04325000  0.63967000  0.23939000  1.0
  N  N334  1  0.16929000  0.31543000  0.82552000  1.0
  N  N335  1  0.10818000  0.28534000  0.87658000  1.0
  N  N336  1  0.08836000  0.38093000  0.51568000  1.0
  N  N337  1  0.11225000  0.45527000  0.50279000  1.0
  N  N338  1  0.37062000  0.62462000  0.98683000  1.0
  N  N339  1  0.38180000  0.54964000  0.01031000  1.0
  N  N340  1  0.66128000  0.30885000  0.33704000  1.0
  N  N341  1  0.58548000  0.28752000  0.37916000  1.0
  N  N342  1  0.48134000  0.59157000  0.80848000  1.0
  N  N343  1  0.53417000  0.62771000  0.75440000  1.0
  N  N344  1  0.50341000  0.89872000  0.70261000  1.0
  N  N345  1  0.54523000  0.85993000  0.76052000  1.0
  N  N346  1  0.66953000  0.18299000  0.17473000  1.0
  N  N347  1  0.60817000  0.21301000  0.12395000  1.0
  N  N348  1  0.58792000  0.11704000  0.48320000  1.0
  N  N349  1  0.61262000  0.04271000  0.49580000  1.0
  N  N350  1  0.87001000  0.87631000  0.01228000  1.0
  N  N351  1  0.88126000  0.95104000  0.98809000  1.0
