# generated using pymatgen
data_H16PbC17SN2O7
_symmetry_space_group_name_H-M   'P 1'
_cell_length_a   8.09361000
_cell_length_b   9.47572000
_cell_length_c   12.45500000
_cell_angle_alpha   89.57840000
_cell_angle_beta   80.78990000
_cell_angle_gamma   78.62820000
_symmetry_Int_Tables_number   1
_chemical_formula_structural   H16PbC17SN2O7
_chemical_formula_sum   'H32 Pb2 C34 S2 N4 O14'
_cell_volume   924.09444705
_cell_formula_units_Z   2
loop_
 _symmetry_equiv_pos_site_id
 _symmetry_equiv_pos_as_xyz
  1  'x, y, z'
loop_
 _atom_site_type_symbol
 _atom_site_label
 _atom_site_symmetry_multiplicity
 _atom_site_fract_x
 _atom_site_fract_y
 _atom_site_fract_z
 _atom_site_occupancy
  H  H0  1  0.92506000  0.04631000  0.87861000  1.0
  H  H1  1  0.07494000  0.95370000  0.12139000  1.0
  H  H2  1  0.40391000  0.15849000  0.82093000  1.0
  H  H3  1  0.59609000  0.84151000  0.17907000  1.0
  H  H4  1  0.36626000  0.90783000  0.86805000  1.0
  H  H5  1  0.63375000  0.09217000  0.13196000  1.0
  H  H6  1  0.60875000  0.72762000  0.91332000  1.0
  H  H7  1  0.39125000  0.27238000  0.08668000  1.0
  H  H8  1  0.40066000  0.68384000  0.69783000  1.0
  H  H9  1  0.59934000  0.31615000  0.30216000  1.0
  H  H10  1  0.50791000  0.52438000  0.72402000  1.0
  H  H11  1  0.49209000  0.47561000  0.27598000  1.0
  H  H12  1  0.07970000  0.33842000  0.81534000  1.0
  H  H13  1  0.92030000  0.66158000  0.18466000  1.0
  H  H14  1  0.14726000  0.43616000  0.72384000  1.0
  H  H15  1  0.85274000  0.56384000  0.27616000  1.0
  H  H16  1  0.05003000  0.13925000  0.68154000  1.0
  H  H17  1  0.94997000  0.86074000  0.31845000  1.0
  H  H18  1  0.17872000  0.91152000  0.76146000  1.0
  H  H19  1  0.82129000  0.08847000  0.23853000  1.0
  H  H20  1  0.47901000  0.76505000  0.46673000  1.0
  H  H21  1  0.52099000  0.23495000  0.53326000  1.0
  H  H22  1  0.35190000  0.97848000  0.37179000  1.0
  H  H23  1  0.64810000  0.02152000  0.62821000  1.0
  H  H24  1  0.87479000  0.25808000  0.58486000  1.0
  H  H25  1  0.12521000  0.74191000  0.41514000  1.0
  H  H26  1  0.74152000  0.46240000  0.48487000  1.0
  H  H27  1  0.25848000  0.53760000  0.51514000  1.0
  H  H28  1  0.16513000  0.41850000  0.24339000  1.0
  H  H29  1  0.83487000  0.58151000  0.75662000  1.0
  H  H30  1  0.31975000  0.20917000  0.33203000  1.0
  H  H31  1  0.68025000  0.79084000  0.66797000  1.0
  Pb  Pb32  1  0.24786000  0.53737000  0.92564000  1.0
  Pb  Pb33  1  0.75215000  0.46263000  0.07436000  1.0
  C  C34  1  0.78374000  0.87430000  0.89667000  1.0
  C  C35  1  0.21626000  0.12570000  0.10333000  1.0
  C  C36  1  0.80384000  0.01541000  0.87403000  1.0
  C  C37  1  0.19616000  0.98459000  0.12598000  1.0
  C  C38  1  0.66723000  0.11541000  0.84723000  1.0
  C  C39  1  0.33277000  0.88459000  0.15277000  1.0
  C  C40  1  0.50903000  0.07831000  0.84294000  1.0
  C  C41  1  0.49097000  0.92169000  0.15707000  1.0
  C  C42  1  0.48896000  0.93842000  0.86821000  1.0
  C  C43  1  0.51104000  0.06158000  0.13179000  1.0
  C  C44  1  0.62518000  0.83696000  0.89508000  1.0
  C  C45  1  0.37482000  0.16304000  0.10492000  1.0
  C  C46  1  0.93510000  0.76460000  0.91702000  1.0
  C  C47  1  0.06491000  0.23541000  0.08298000  1.0
  C  C48  1  0.18951000  0.08025000  0.51843000  1.0
  C  C49  1  0.81049000  0.91975000  0.48156000  1.0
  C  C50  1  0.14284000  0.05865000  0.62991000  1.0
  C  C51  1  0.85717000  0.94134000  0.37009000  1.0
  C  C52  1  0.21798000  0.93292000  0.67584000  1.0
  C  C53  1  0.78202000  0.06708000  0.32415000  1.0
  C  C54  1  0.38342000  0.85020000  0.51236000  1.0
  C  C55  1  0.61658000  0.14980000  0.48764000  1.0
  C  C56  1  0.31242000  0.97133000  0.45914000  1.0
  C  C57  1  0.68758000  0.02867000  0.54086000  1.0
  C  C58  1  0.10930000  0.21053000  0.46574000  1.0
  C  C59  1  0.89069000  0.78946000  0.53426000  1.0
  C  C60  1  0.94634000  0.28778000  0.50949000  1.0
  C  C61  1  0.05366000  0.71222000  0.49052000  1.0
  C  C62  1  0.87005000  0.40342000  0.45332000  1.0
  C  C63  1  0.12995000  0.59658000  0.54668000  1.0
  C  C64  1  0.10557000  0.37845000  0.31918000  1.0
  C  C65  1  0.89443000  0.62155000  0.68082000  1.0
  C  C66  1  0.19093000  0.26056000  0.36905000  1.0
  C  C67  1  0.80906000  0.73944000  0.63095000  1.0
  S  S68  1  0.69090000  0.29633000  0.82552000  1.0
  S  S69  1  0.30910000  0.70368000  0.17448000  1.0
  N  N70  1  0.33794000  0.82985000  0.61902000  1.0
  N  N71  1  0.66206000  0.17014000  0.38098000  1.0
  N  N72  1  0.94605000  0.44776000  0.35901000  1.0
  N  N73  1  0.05395000  0.55224000  0.64100000  1.0
  O  O74  1  0.08140000  0.79861000  0.90217000  1.0
  O  O75  1  0.91860000  0.20140000  0.09782000  1.0
  O  O76  1  0.91386000  0.63757000  0.94427000  1.0
  O  O77  1  0.08615000  0.36243000  0.05572000  1.0
  O  O78  1  0.57207000  0.38050000  0.91674000  1.0
  O  O79  1  0.42792000  0.61950000  0.08326000  1.0
  O  O80  1  0.64184000  0.33769000  0.71934000  1.0
  O  O81  1  0.35816000  0.66231000  0.28066000  1.0
  O  O82  1  0.86913000  0.29952000  0.83340000  1.0
  O  O83  1  0.13087000  0.70048000  0.16661000  1.0
  O  O84  1  0.42908000  0.61199000  0.75609000  1.0
  O  O85  1  0.57093000  0.38801000  0.24391000  1.0
  O  O86  1  0.18491000  0.37294000  0.78636000  1.0
  O  O87  1  0.81509000  0.62706000  0.21364000  1.0
