# generated using pymatgen
data_Zn8H48C73O28
_symmetry_space_group_name_H-M   'P 1'
_cell_length_a   18.25300000
_cell_length_b   18.25457877
_cell_length_c   18.30160000
_cell_angle_alpha   119.70231373
_cell_angle_beta   90.27710000
_cell_angle_gamma   119.52749797
_symmetry_Int_Tables_number   1
_chemical_formula_structural   Zn8H48C73O28
_chemical_formula_sum   'Zn8 H48 C73 O28'
_cell_volume   4351.53781527
_cell_formula_units_Z   1
loop_
 _symmetry_equiv_pos_site_id
 _symmetry_equiv_pos_as_xyz
  1  'x, y, z'
loop_
 _atom_site_type_symbol
 _atom_site_label
 _atom_site_symmetry_multiplicity
 _atom_site_fract_x
 _atom_site_fract_y
 _atom_site_fract_z
 _atom_site_occupancy
  Zn  Zn0  1  0.12756000  0.58222000  0.04491000  1.0
  Zn  Zn1  1  0.95441000  0.41005000  0.86880000  1.0
  Zn  Zn2  1  0.95888000  0.59340000  0.03982000  1.0
  Zn  Zn3  1  0.94992000  0.41609000  0.04541000  1.0
  Zn  Zn4  1  0.36413000  0.40770000  0.45441000  1.0
  Zn  Zn5  1  0.54103000  0.41617000  0.44847000  1.0
  Zn  Zn6  1  0.53999000  0.58445000  0.62715000  1.0
  Zn  Zn7  1  0.53426000  0.59185000  0.45615000  1.0
  H  H8  1  0.07947000  0.32784000  0.15247000  1.0
  H  H9  1  0.86667000  0.66165000  0.27066000  1.0
  H  H10  1  0.08453000  0.42818000  0.24821000  1.0
  H  H11  1  0.70942000  0.31077000  0.01916000  1.0
  H  H12  1  0.56404000  0.15210000  0.96935000  1.0
  H  H13  1  0.46870000  0.15194000  0.06712000  1.0
  H  H14  1  0.51918000  0.31090000  0.21303000  1.0
  H  H15  1  0.76957000  0.66291000  0.36668000  1.0
  H  H16  1  0.81776000  0.09806000  0.69619000  1.0
  H  H17  1  0.75528000  0.18938000  0.97221000  1.0
  H  H18  1  0.65347000  0.09279000  0.02560000  1.0
  H  H19  1  0.37673000  0.64211000  0.34962000  1.0
  H  H20  1  0.56012000  0.90037000  0.92927000  1.0
  H  H21  1  0.56982000  0.80783000  0.78082000  1.0
  H  H22  1  0.17352000  0.42448000  0.33663000  1.0
  H  H23  1  0.72229000  0.90628000  0.59929000  1.0
  H  H24  1  0.74653000  0.53500000  0.87988000  1.0
  H  H25  1  0.96603000  0.52260000  0.74259000  1.0
  H  H26  1  0.89215000  0.49975000  0.50485000  1.0
  H  H27  1  0.75948000  0.49538000  0.53708000  1.0
  H  H28  1  0.64601000  0.52980000  0.78152000  1.0
  H  H29  1  0.13258000  0.35479000  0.73144000  1.0
  H  H30  1  0.28137000  0.49827000  0.12090000  1.0
  H  H31  1  0.22346000  0.70485000  0.92012000  1.0
  H  H32  1  0.32219000  0.86033000  0.92382000  1.0
  H  H33  1  0.17114000  0.32671000  0.24091000  1.0
  H  H34  1  0.41356000  0.85832000  0.82220000  1.0
  H  H35  1  0.40613000  0.70124000  0.71877000  1.0
  H  H36  1  0.22755000  0.35490000  0.63361000  1.0
  H  H37  1  0.19753000  0.36898000  0.07788000  1.0
  H  H38  1  0.28868000  0.37033000  0.16833000  1.0
  H  H39  1  0.28727000  0.64152000  0.25718000  1.0
  H  H40  1  0.20604000  0.61401000  0.30979000  1.0
  H  H41  1  0.37286000  0.50028000  0.21300000  1.0
  H  H42  1  0.29434000  0.61263000  0.40035000  1.0
  H  H43  1  0.35162000  0.19765000  0.21715000  1.0
  H  H44  1  0.26631000  0.19795000  0.16996000  1.0
  H  H45  1  0.21187000  0.02460000  0.02932000  1.0
  H  H46  1  0.32501000  0.11965000  0.05306000  1.0
  H  H47  1  0.29988000  0.02785000  0.07689000  1.0
  H  H48  1  0.04332000  0.46570000  0.66473000  1.0
  H  H49  1  0.10528000  0.60268000  0.72235000  1.0
  H  H50  1  0.12419000  0.52873000  0.62459000  1.0
  H  H51  1  0.13378000  0.89861000  0.12117000  1.0
  H  H52  1  0.24686000  0.81588000  0.28769000  1.0
  H  H53  1  0.36277000  0.91916000  0.43187000  1.0
  H  H54  1  0.45658000  0.11085000  0.51961000  1.0
  H  H55  1  0.43325000  0.19745000  0.46292000  1.0
  C  C56  1  0.84477000  0.22339000  0.86385000  1.0
  C  C57  1  0.39190000  0.11397000  0.42438000  1.0
  C  C58  1  0.32538000  0.05691000  0.34169000  1.0
  C  C59  1  0.14311000  0.77575000  0.14895000  1.0
  C  C60  1  0.27149000  0.94647000  0.29084000  1.0
  C  C61  1  0.20211000  0.89036000  0.20971000  1.0
  C  C62  1  0.18727000  0.94166000  0.18236000  1.0
  C  C63  1  0.24072000  0.04948000  0.23128000  1.0
  C  C64  1  0.30902000  0.10697000  0.31024000  1.0
  C  C65  1  0.66823000  0.31136000  0.06192000  1.0
  C  C66  1  0.58674000  0.22253000  0.03410000  1.0
  C  C67  1  0.24642000  0.58855000  0.27522000  1.0
  C  C68  1  0.53296000  0.22262000  0.08927000  1.0
  C  C69  1  0.56096000  0.31159000  0.17086000  1.0
  C  C70  1  0.64413000  0.40501000  0.20135000  1.0
  C  C71  1  0.13745000  0.50887000  0.86457000  1.0
  C  C72  1  0.69950000  0.40460000  0.14562000  1.0
  C  C73  1  0.78210000  0.49895000  0.17476000  1.0
  C  C74  1  0.80471000  0.59034000  0.25134000  1.0
  C  C75  1  0.75023000  0.59101000  0.30532000  1.0
  C  C76  1  0.67334000  0.50029000  0.28327000  1.0
  C  C77  1  0.71498000  0.10604000  0.92963000  1.0
  C  C78  1  0.18353000  0.47913000  0.18877000  1.0
  C  C79  1  0.65802000  0.05159000  0.95971000  1.0
  C  C80  1  0.60549000  0.94334000  0.90553000  1.0
  C  C81  1  0.61043000  0.89121000  0.82188000  1.0
  C  C82  1  0.66806000  0.94443000  0.78822000  1.0
  C  C83  1  0.84829000  0.50258000  0.12642000  1.0
  C  C84  1  0.72238000  0.05532000  0.84390000  1.0
  C  C85  1  0.77872000  0.10924000  0.80909000  1.0
  C  C86  1  0.77600000  0.05528000  0.72166000  1.0
  C  C87  1  0.72255000  0.94766000  0.66735000  1.0
  C  C88  1  0.67149000  0.89229000  0.69993000  1.0
  C  C89  1  0.28466000  0.47959000  0.29056000  1.0
  C  C90  1  0.92127000  0.51716000  0.69796000  1.0
  C  C91  1  0.93776000  0.51296000  0.62273000  1.0
  C  C92  1  0.87793000  0.50404000  0.56414000  1.0
  C  C93  1  0.80440000  0.50186000  0.58256000  1.0
  C  C94  1  0.78515000  0.50746000  0.65985000  1.0
  C  C95  1  0.87779000  0.51503000  0.85596000  1.0
  C  C96  1  0.84495000  0.51359000  0.71798000  1.0
  C  C97  1  0.82685000  0.51994000  0.79632000  1.0
  C  C98  1  0.75727000  0.52774000  0.81881000  1.0
  C  C99  1  0.70073000  0.52433000  0.76356000  1.0
  C  C100  1  0.30203000  0.44704000  0.20047000  1.0
  C  C101  1  0.71221000  0.51169000  0.68408000  1.0
  C  C102  1  0.26279000  0.70339000  0.87560000  1.0
  C  C103  1  0.31840000  0.79039000  0.87776000  1.0
  C  C104  1  0.37004000  0.78944000  0.82051000  1.0
  C  C105  1  0.36592000  0.70155000  0.76251000  1.0
  C  C106  1  0.30912000  0.61024000  0.75795000  1.0
  C  C107  1  0.12756000  0.48417000  0.13186000  1.0
  C  C108  1  0.25542000  0.61066000  0.81545000  1.0
  C  C109  1  0.19330000  0.51633000  0.80571000  1.0
  C  C110  1  0.18243000  0.42609000  0.73940000  1.0
  C  C111  1  0.30571000  0.58833000  0.33575000  1.0
  C  C112  1  0.23563000  0.42611000  0.68431000  1.0
  C  C113  1  0.29985000  0.51662000  0.69476000  1.0
  C  C114  1  0.62477000  0.50533000  0.34927000  1.0
  C  C115  1  0.35823000  0.51116000  0.63786000  1.0
  C  C116  1  0.36340000  0.22178000  0.36440000  1.0
  C  C117  1  0.62297000  0.77799000  0.63962000  1.0
  C  C118  1  0.64506000  0.50333000  0.62774000  1.0
  C  C119  1  0.12595000  0.40498000  0.21372000  1.0
  C  C120  1  0.34657000  0.48329000  0.35032000  1.0
  C  C121  1  0.18591000  0.40388000  0.27283000  1.0
  C  C122  1  0.28709000  0.89921000  0.32578000  1.0
  C  C123  1  0.24149000  0.44619000  0.13993000  1.0
  C  C124  1  0.28394000  0.14817000  0.16925000  1.0
  C  C125  1  0.27976000  0.07547000  0.07662000  1.0
  C  C126  1  0.07375000  0.52917000  0.65655000  1.0
  C  C127  1  0.35220000  0.95717000  0.40632000  1.0
  C  C128  1  0.40511000  0.06538000  0.45600000  1.0
  O  O129  1  0.99695000  0.50027000  0.99911000  1.0
  O  O130  1  0.61794000  0.73132000  0.67507000  1.0
  O  O131  1  0.62581000  0.44807000  0.54319000  1.0
  O  O132  1  0.87968000  0.26921000  0.94702000  1.0
  O  O133  1  0.42997000  0.54977000  0.37400000  1.0
  O  O134  1  0.60999000  0.55091000  0.66915000  1.0
  O  O135  1  0.31080000  0.42026000  0.37216000  1.0
  O  O136  1  0.32142000  0.26314000  0.39348000  1.0
  O  O137  1  0.59243000  0.73637000  0.55637000  1.0
  O  O138  1  0.59792000  0.43564000  0.36315000  1.0
  O  O139  1  0.44242000  0.57642000  0.67690000  1.0
  O  O140  1  0.17392000  0.58152000  0.94757000  1.0
  O  O141  1  0.17648000  0.72598000  0.14114000  1.0
  O  O142  1  0.05778000  0.42810000  0.82681000  1.0
  O  O143  1  0.88720000  0.57662000  0.11765000  1.0
  O  O144  1  0.90637000  0.45838000  0.82019000  1.0
  O  O145  1  0.04549000  0.44417000  0.12583000  1.0
  O  O146  1  0.88613000  0.56572000  0.93852000  1.0
  O  O147  1  0.16782000  0.53068000  0.09598000  1.0
  O  O148  1  0.21936000  0.09304000  0.19928000  1.0
  O  O149  1  0.00948000  0.51692000  0.59850000  1.0
  O  O150  1  0.86221000  0.43280000  0.10040000  1.0
  O  O151  1  0.86352000  0.26610000  0.82202000  1.0
  O  O152  1  0.06342000  0.73639000  0.10702000  1.0
  O  O153  1  0.49468000  0.50088000  0.49675000  1.0
  O  O154  1  0.61621000  0.57978000  0.38806000  1.0
  O  O155  1  0.31822000  0.43905000  0.55522000  1.0
  O  O156  1  0.44703000  0.26803000  0.37695000  1.0
