# generated using pymatgen
data_CdH10C12S2(N3Cl)2
_symmetry_space_group_name_H-M   'P 1'
_cell_length_a   3.76910000
_cell_length_b   12.95900000
_cell_length_c   16.05670000
_cell_angle_alpha   93.96830000
_cell_angle_beta   96.73840000
_cell_angle_gamma   98.34970000
_symmetry_Int_Tables_number   1
_chemical_formula_structural   CdH10C12S2(N3Cl)2
_chemical_formula_sum   'Cd2 H20 C24 S4 N12 Cl4'
_cell_volume   767.62231431
_cell_formula_units_Z   2
loop_
 _symmetry_equiv_pos_site_id
 _symmetry_equiv_pos_as_xyz
  1  'x, y, z'
loop_
 _atom_site_type_symbol
 _atom_site_label
 _atom_site_symmetry_multiplicity
 _atom_site_fract_x
 _atom_site_fract_y
 _atom_site_fract_z
 _atom_site_occupancy
  Cd  Cd0  1  0.84398000  0.74991000  0.74991000  1.0
  Cd  Cd1  1  0.15602000  0.25009000  0.25009000  1.0
  H  H2  1  0.42866000  0.58175000  0.57330000  1.0
  H  H3  1  0.77186000  0.91783000  0.92610000  1.0
  H  H4  1  0.57133000  0.41825000  0.42670000  1.0
  H  H5  1  0.22815000  0.08218000  0.07390000  1.0
  H  H6  1  0.16161000  0.80980000  0.27184000  1.0
  H  H7  1  0.58021000  0.69040000  0.22788000  1.0
  H  H8  1  0.83838000  0.19020000  0.72816000  1.0
  H  H9  1  0.41979000  0.30960000  0.77212000  1.0
  H  H10  1  0.44581000  0.90666000  0.33390000  1.0
  H  H11  1  0.70557000  0.59345000  0.16588000  1.0
  H  H12  1  0.55420000  0.09334000  0.66610000  1.0
  H  H13  1  0.29443000  0.40655000  0.83412000  1.0
  H  H14  1  0.09158000  0.51661000  0.43103000  1.0
  H  H15  1  0.64325000  0.98328000  0.06841000  1.0
  H  H16  1  0.90840000  0.48339000  0.56897000  1.0
  H  H17  1  0.35675000  0.01672000  0.93160000  1.0
  H  H18  1  0.05506000  0.62757000  0.31552000  1.0
  H  H19  1  0.61215000  0.87257000  0.18409000  1.0
  H  H20  1  0.94493000  0.37243000  0.68448000  1.0
  H  H21  1  0.38785000  0.12743000  0.81592000  1.0
  C  C22  1  0.59905000  0.73504000  0.53183000  1.0
  C  C23  1  0.83266000  0.76479000  0.96786000  1.0
  C  C24  1  0.40094000  0.26496000  0.46817000  1.0
  C  C25  1  0.16734000  0.23521000  0.03214000  1.0
  C  C26  1  0.42017000  0.63088000  0.52123000  1.0
  C  C27  1  0.76738000  0.86891000  0.97832000  1.0
  C  C28  1  0.57982000  0.36913000  0.47877000  1.0
  C  C29  1  0.23263000  0.13110000  0.02169000  1.0
  C  C30  1  0.23307000  0.59667000  0.44278000  1.0
  C  C31  1  0.69358000  0.90328000  0.05678000  1.0
  C  C32  1  0.76692000  0.40333000  0.55722000  1.0
  C  C33  1  0.30643000  0.09672000  0.94322000  1.0
  C  C34  1  0.21200000  0.66076000  0.37509000  1.0
  C  C35  1  0.67681000  0.83932000  0.12456000  1.0
  C  C36  1  0.78798000  0.33924000  0.62491000  1.0
  C  C37  1  0.32319000  0.16068000  0.87544000  1.0
  C  C38  1  0.38258000  0.76412000  0.38293000  1.0
  C  C39  1  0.73648000  0.73597000  0.11683000  1.0
  C  C40  1  0.61741000  0.23588000  0.61707000  1.0
  C  C41  1  0.26353000  0.26403000  0.88318000  1.0
  C  C42  1  0.58579000  0.80138000  0.46301000  1.0
  C  C43  1  0.82309000  0.69866000  0.03685000  1.0
  C  C44  1  0.41420000  0.19862000  0.53699000  1.0
  C  C45  1  0.17692000  0.30135000  0.96315000  1.0
  S  S46  1  0.95153000  0.90515000  0.58034000  1.0
  S  S47  1  0.96863000  0.59477000  0.91962000  1.0
  S  S48  1  0.04847000  0.09484000  0.41966000  1.0
  S  S49  1  0.03138000  0.40523000  0.08038000  1.0
  N  N50  1  0.79900000  0.78663000  0.60210000  1.0
  N  N51  1  0.91120000  0.71315000  0.89768000  1.0
  N  N52  1  0.20100000  0.21337000  0.39790000  1.0
  N  N53  1  0.08880000  0.28685000  0.10232000  1.0
  N  N54  1  0.77440000  0.89801000  0.48288000  1.0
  N  N55  1  0.89649000  0.60213000  0.01714000  1.0
  N  N56  1  0.22560000  0.10199000  0.51712000  1.0
  N  N57  1  0.10352000  0.39787000  0.98286000  1.0
  N  N58  1  0.37529000  0.82846000  0.31792000  1.0
  N  N59  1  0.72929000  0.67166000  0.18184000  1.0
  N  N60  1  0.62470000  0.17154000  0.68208000  1.0
  N  N61  1  0.27071000  0.32834000  0.81816000  1.0
  Cl  Cl62  1  0.26242000  0.60465000  0.73235000  1.0
  Cl  Cl63  1  0.42464000  0.89523000  0.76746000  1.0
  Cl  Cl64  1  0.73758000  0.39535000  0.26765000  1.0
  Cl  Cl65  1  0.57536000  0.10477000  0.23254000  1.0
