# generated using pymatgen
data_HgH4C8N5
_symmetry_space_group_name_H-M   'P 1'
_cell_length_a   7.18941000
_cell_length_b   7.90539000
_cell_length_c   16.95920000
_cell_angle_alpha   89.99910000
_cell_angle_beta   87.80240000
_cell_angle_gamma   89.99960000
_symmetry_Int_Tables_number   1
_chemical_formula_structural   HgH4C8N5
_chemical_formula_sum   'Hg4 H16 C32 N20'
_cell_volume   963.16874748
_cell_formula_units_Z   4
loop_
 _symmetry_equiv_pos_site_id
 _symmetry_equiv_pos_as_xyz
  1  'x, y, z'
loop_
 _atom_site_type_symbol
 _atom_site_label
 _atom_site_symmetry_multiplicity
 _atom_site_fract_x
 _atom_site_fract_y
 _atom_site_fract_z
 _atom_site_occupancy
  Hg  Hg0  1  0.22028000  0.26399000  0.80845000  1.0
  Hg  Hg1  1  0.77972000  0.76399000  0.69155000  1.0
  Hg  Hg2  1  0.77973000  0.73601000  0.19156000  1.0
  Hg  Hg3  1  0.22026000  0.23602000  0.30845000  1.0
  H  H4  1  0.62970000  0.37292000  0.89212000  1.0
  H  H5  1  0.37031000  0.87293000  0.60788000  1.0
  H  H6  1  0.37032000  0.62706000  0.10787000  1.0
  H  H7  1  0.62969000  0.12707000  0.39212000  1.0
  H  H8  1  0.81216000  0.38403000  0.01478000  1.0
  H  H9  1  0.18783000  0.88403000  0.48522000  1.0
  H  H10  1  0.18785000  0.61596000  0.98522000  1.0
  H  H11  1  0.81216000  0.11596000  0.51478000  1.0
  H  H12  1  0.67536000  0.25155000  0.13895000  1.0
  H  H13  1  0.32462000  0.75156000  0.36105000  1.0
  H  H14  1  0.32465000  0.74844000  0.86105000  1.0
  H  H15  1  0.67536000  0.24844000  0.63895000  1.0
  H  H16  1  0.36397000  0.10986000  0.13351000  1.0
  H  H17  1  0.63602000  0.60987000  0.36650000  1.0
  H  H18  1  0.63603000  0.89014000  0.86650000  1.0
  H  H19  1  0.36397000  0.39012000  0.63350000  1.0
  C  C20  1  0.57560000  0.31562000  0.94682000  1.0
  C  C21  1  0.42440000  0.81562000  0.55318000  1.0
  C  C22  1  0.42441000  0.68438000  0.05318000  1.0
  C  C23  1  0.57560000  0.18439000  0.44681000  1.0
  C  C24  1  0.67712000  0.32158000  0.01548000  1.0
  C  C25  1  0.32287000  0.82158000  0.48452000  1.0
  C  C26  1  0.32290000  0.67842000  0.98452000  1.0
  C  C27  1  0.67711000  0.17843000  0.51548000  1.0
  C  C28  1  0.60118000  0.24855000  0.08418000  1.0
  C  C29  1  0.39881000  0.74855000  0.41582000  1.0
  C  C30  1  0.39883000  0.75146000  0.91582000  1.0
  C  C31  1  0.60118000  0.25145000  0.58418000  1.0
  C  C32  1  0.42767000  0.17071000  0.08175000  1.0
  C  C33  1  0.57233000  0.67071000  0.41826000  1.0
  C  C34  1  0.57235000  0.82931000  0.91825000  1.0
  C  C35  1  0.42766000  0.32929000  0.58175000  1.0
  C  C36  1  0.33591000  0.16960000  0.01042000  1.0
  C  C37  1  0.66409000  0.66960000  0.48958000  1.0
  C  C38  1  0.66409000  0.83041000  0.98958000  1.0
  C  C39  1  0.33591000  0.33039000  0.51042000  1.0
  C  C40  1  0.15600000  0.08164000  0.00498000  1.0
  C  C41  1  0.84400000  0.58165000  0.49502000  1.0
  C  C42  1  0.84401000  0.91835000  0.99501000  1.0
  C  C43  1  0.15599000  0.41835000  0.50499000  1.0
  C  C44  1  0.37237000  0.07049000  0.75794000  1.0
  C  C45  1  0.62762000  0.57050000  0.74206000  1.0
  C  C46  1  0.62763000  0.92950000  0.24207000  1.0
  C  C47  1  0.37238000  0.42950000  0.25794000  1.0
  C  C48  1  0.05176000  0.46076000  0.84379000  1.0
  C  C49  1  0.94824000  0.96074000  0.65621000  1.0
  C  C50  1  0.94826000  0.53925000  0.15620000  1.0
  C  C51  1  0.05172000  0.03926000  0.34378000  1.0
  N  N52  1  0.40829000  0.24233000  0.94400000  1.0
  N  N53  1  0.59171000  0.74233000  0.55600000  1.0
  N  N54  1  0.59172000  0.75767000  0.05600000  1.0
  N  N55  1  0.40828000  0.25766000  0.44400000  1.0
  N  N56  1  0.07418000  0.07535000  0.93454000  1.0
  N  N57  1  0.92583000  0.57534000  0.56546000  1.0
  N  N58  1  0.92583000  0.92465000  0.06546000  1.0
  N  N59  1  0.07417000  0.42466000  0.43454000  1.0
  N  N60  1  0.91666000  0.99333000  0.92906000  1.0
  N  N61  1  0.08334000  0.49332000  0.57093000  1.0
  N  N62  1  0.08334000  0.00667000  0.07094000  1.0
  N  N63  1  0.91666000  0.50668000  0.42906000  1.0
  N  N64  1  0.46861000  0.96425000  0.73152000  1.0
  N  N65  1  0.53139000  0.46424000  0.76848000  1.0
  N  N66  1  0.53138000  0.03574000  0.26848000  1.0
  N  N67  1  0.46862000  0.53575000  0.23152000  1.0
  N  N68  1  0.96271000  0.57319000  0.86938000  1.0
  N  N69  1  0.03730000  0.07318000  0.63061000  1.0
  N  N70  1  0.03731000  0.42683000  0.13061000  1.0
  N  N71  1  0.96267000  0.92684000  0.36939000  1.0
