# generated using pymatgen
data_CuH3C5SBrN3
_symmetry_space_group_name_H-M   'P 1'
_cell_length_a   3.73681000
_cell_length_b   5.67251000
_cell_length_c   18.12380000
_cell_angle_alpha   90.00080000
_cell_angle_beta   90.00080000
_cell_angle_gamma   75.56600000
_symmetry_Int_Tables_number   1
_chemical_formula_structural   CuH3C5SBrN3
_chemical_formula_sum   'Cu2 H6 C10 S2 Br2 N6'
_cell_volume   372.04563238
_cell_formula_units_Z   2
loop_
 _symmetry_equiv_pos_site_id
 _symmetry_equiv_pos_as_xyz
  1  'x, y, z'
loop_
 _atom_site_type_symbol
 _atom_site_label
 _atom_site_symmetry_multiplicity
 _atom_site_fract_x
 _atom_site_fract_y
 _atom_site_fract_z
 _atom_site_occupancy
  Cu  Cu0  1  0.29408000  0.75486000  0.33997000  1.0
  Cu  Cu1  1  0.70588000  0.24513000  0.83999000  1.0
  H  H2  1  0.59239000  0.28121000  0.41480000  1.0
  H  H3  1  0.40762000  0.71877000  0.91481000  1.0
  H  H4  1  0.15818000  0.98363000  0.49486000  1.0
  H  H5  1  0.84186000  0.01638000  0.99486000  1.0
  H  H6  1  0.76369000  0.40718000  0.63651000  1.0
  H  H7  1  0.23631000  0.59284000  0.13652000  1.0
  C  C8  1  0.02228000  0.30083000  0.30689000  1.0
  C  C9  1  0.97769000  0.69922000  0.80690000  1.0
  C  C10  1  0.55480000  0.40778000  0.46102000  1.0
  C  C11  1  0.44521000  0.59221000  0.96103000  1.0
  C  C12  1  0.31428000  0.79633000  0.50432000  1.0
  C  C13  1  0.68574000  0.20367000  0.00432000  1.0
  C  C14  1  0.64491000  0.47624000  0.58326000  1.0
  C  C15  1  0.35509000  0.52375000  0.08327000  1.0
  C  C16  1  0.44668000  0.71815000  0.57436000  1.0
  C  C17  1  0.55328000  0.28185000  0.07437000  1.0
  S  S18  1  0.86099000  0.58555000  0.28089000  1.0
  S  S19  1  0.13905000  0.41441000  0.78088000  1.0
  Br  Br20  1  0.36452000  0.93475000  0.65500000  1.0
  Br  Br21  1  0.63553000  0.06522000  0.15500000  1.0
  N  N22  1  0.14375000  0.09656000  0.32536000  1.0
  N  N23  1  0.85623000  0.90347000  0.82536000  1.0
  N  N24  1  0.37248000  0.64046000  0.44677000  1.0
  N  N25  1  0.62749000  0.35956000  0.94678000  1.0
  N  N26  1  0.69495000  0.32162000  0.52598000  1.0
  N  N27  1  0.30502000  0.67837000  0.02598000  1.0
