# generated using pymatgen
data_Al6H68C99N3O28F3
_symmetry_space_group_name_H-M   'P 1'
_cell_length_a   12.76988807
_cell_length_b   12.78710000
_cell_length_c   27.65600000
_cell_angle_alpha   89.95030000
_cell_angle_beta   89.77726097
_cell_angle_gamma   118.52357900
_symmetry_Int_Tables_number   1
_chemical_formula_structural   Al6H68C99N3O28F3
_chemical_formula_sum   'Al6 H68 C99 N3 O28 F3'
_cell_volume   3967.75243954
_cell_formula_units_Z   1
loop_
 _symmetry_equiv_pos_site_id
 _symmetry_equiv_pos_as_xyz
  1  'x, y, z'
loop_
 _atom_site_type_symbol
 _atom_site_label
 _atom_site_symmetry_multiplicity
 _atom_site_fract_x
 _atom_site_fract_y
 _atom_site_fract_z
 _atom_site_occupancy
  Al  Al0  1  0.56186000  0.41616000  0.50350000  1.0
  Al  Al1  1  0.58496000  0.17724000  0.50358000  1.0
  Al  Al2  1  0.81013000  0.41097000  0.50205000  1.0
  Al  Al3  1  0.07906000  0.90459000  0.01443000  1.0
  Al  Al4  1  0.06987000  0.15181000  0.01888000  1.0
  Al  Al5  1  0.83817000  0.92511000  0.01703000  1.0
  H  H6  1  0.96209000  0.35780000  0.80437000  1.0
  H  H7  1  0.00825000  0.31109000  0.13759000  1.0
  H  H8  1  0.67484000  0.72568000  0.13995000  1.0
  H  H9  1  0.25182000  0.95826000  0.14141000  1.0
  H  H10  1  0.94274000  0.38039000  0.37714000  1.0
  H  H11  1  0.61098000  0.57296000  0.37773000  1.0
  H  H12  1  0.41103000  0.02304000  0.37781000  1.0
  H  H13  1  0.06842000  0.43965000  0.21115000  1.0
  H  H14  1  0.54986000  0.66278000  0.21494000  1.0
  H  H15  1  0.31276000  0.88588000  0.21441000  1.0
  H  H16  1  0.04767000  0.46268000  0.29891000  1.0
  H  H17  1  0.63865000  0.61830000  0.79830000  1.0
  H  H18  1  0.52827000  0.61123000  0.30214000  1.0
  H  H19  1  0.36764000  0.90753000  0.30104000  1.0
  H  H20  1  0.71467000  0.95572000  0.14450000  1.0
  H  H21  1  0.02245000  0.75174000  0.13932000  1.0
  H  H22  1  0.20536000  0.26872000  0.14998000  1.0
  H  H23  1  0.60871000  0.87396000  0.22259000  1.0
  H  H24  1  0.10590000  0.71546000  0.21515000  1.0
  H  H25  1  0.23072000  0.37324000  0.22868000  1.0
  H  H26  1  0.58651000  0.89771000  0.31014000  1.0
  H  H27  1  0.08551000  0.66657000  0.30251000  1.0
  H  H28  1  0.35501000  0.02268000  0.81034000  1.0
  H  H29  1  0.28644000  0.39553000  0.31525000  1.0
  H  H30  1  0.92617000  0.37441000  0.72179000  1.0
  H  H31  1  0.63741000  0.58139000  0.71492000  1.0
  H  H32  1  0.39885000  0.03456000  0.72688000  1.0
  H  H33  1  0.64771000  0.02581000  0.38383000  1.0
  H  H34  1  0.96012000  0.60255000  0.37738000  1.0
  H  H35  1  0.36355000  0.33290000  0.38642000  1.0
  H  H36  1  0.90873000  0.07353000  0.70644000  1.0
  H  H37  1  0.92959000  0.85910000  0.70106000  1.0
  H  H38  1  0.14876000  0.10553000  0.70580000  1.0
  H  H39  1  0.77278000  0.31809000  0.73510000  1.0
  H  H40  1  0.00676000  0.22708000  0.71073000  1.0
  H  H41  1  0.77421000  0.79999000  0.70001000  1.0
  H  H42  1  0.18482000  0.98986000  0.71294000  1.0
  H  H43  1  0.02106000  0.20357000  0.79434000  1.0
  H  H44  1  0.77433000  0.83271000  0.78396000  1.0
  H  H45  1  0.15143000  0.98907000  0.79675000  1.0
  H  H46  1  0.91359000  0.05211000  0.79086000  1.0
  H  H47  1  0.93024000  0.88967000  0.78494000  1.0
  H  H48  1  0.12192000  0.10933000  0.79008000  1.0
  H  H49  1  0.63221000  0.10399000  0.72544000  1.0
  H  H50  1  0.69766000  0.48549000  0.72806000  1.0
  H  H51  1  0.91615000  0.56234000  0.72608000  1.0
  H  H52  1  0.46451000  0.34915000  0.72117000  1.0
  H  H53  1  0.65009000  0.10571000  0.80920000  1.0
  H  H54  1  0.92130000  0.59667000  0.80904000  1.0
  H  H55  1  0.44276000  0.34638000  0.80495000  1.0
  H  H56  1  0.72423000  0.93488000  0.72424000  1.0
  H  H57  1  0.53115000  0.79796000  0.69840000  1.0
  H  H58  1  0.49188000  0.91333000  0.69795000  1.0
  H  H59  1  0.51371000  0.85825000  0.75440000  1.0
  H  H60  1  0.07092000  0.81812000  0.71483000  1.0
  H  H61  1  0.50983000  0.18427000  0.73513000  1.0
  H  H62  1  0.22266000  0.76806000  0.69896000  1.0
  H  H63  1  0.11841000  0.61535000  0.70598000  1.0
  H  H64  1  0.16525000  0.70996000  0.75782000  1.0
  H  H65  1  0.21752000  0.30112000  0.71760000  1.0
  H  H66  1  0.29849000  0.49322000  0.68401000  1.0
  H  H67  1  0.44160000  0.50335000  0.68405000  1.0
  H  H68  1  0.37382000  0.50891000  0.74015000  1.0
  H  H69  1  0.68954000  0.99117000  0.80402000  1.0
  H  H70  1  0.01777000  0.74978000  0.79921000  1.0
  H  H71  1  0.29700000  0.32631000  0.79712000  1.0
  H  H72  1  0.44609000  0.49939000  0.53313000  1.0
  H  H73  1  0.22227000  0.84514000  0.03224000  1.0
  C  C74  1  0.77408000  0.54984000  0.56962000  1.0
  C  C75  1  0.85273000  0.15699000  0.85999000  1.0
  C  C76  1  0.83576000  0.72674000  0.85391000  1.0
  C  C77  1  0.28215000  0.15914000  0.85903000  1.0
  C  C78  1  0.80957000  0.19369000  0.66229000  1.0
  C  C79  1  0.82282000  0.63957000  0.65778000  1.0
  C  C80  1  0.36188000  0.16703000  0.66232000  1.0
  C  C81  1  0.79806000  0.20682000  0.61944000  1.0
  C  C82  1  0.80692000  0.60734000  0.61593000  1.0
  C  C83  1  0.39102000  0.17619000  0.62005000  1.0
  C  C84  1  0.19221000  0.09794000  0.08926000  1.0
  C  C85  1  0.44394000  0.20822000  0.57267000  1.0
  C  C86  1  0.88458000  0.11054000  0.08540000  1.0
  C  C87  1  0.87164000  0.78603000  0.08452000  1.0
  C  C88  1  0.20813000  0.12197000  0.94983000  1.0
  C  C89  1  0.88673000  0.11342000  0.95049000  1.0
  C  C90  1  0.87500000  0.79346000  0.94559000  1.0
  C  C91  1  0.88569000  0.29688000  0.35887000  1.0
  C  C92  1  0.69243000  0.59364000  0.35779000  1.0
  C  C93  1  0.38413000  0.08284000  0.36033000  1.0
  C  C94  1  0.90040000  0.28446000  0.30933000  1.0
  C  C95  1  0.70395000  0.62527000  0.30881000  1.0
  C  C96  1  0.77161000  0.22941000  0.57129000  1.0
  C  C97  1  0.34747000  0.06528000  0.31194000  1.0
  C  C98  1  0.92526000  0.25694000  0.20816000  1.0
  C  C99  1  0.72927000  0.68565000  0.20858000  1.0
  C  C100  1  0.28363000  0.03988000  0.21226000  1.0
  C  C101  1  0.76226000  0.53810000  0.43221000  1.0
  C  C102  1  0.44379000  0.20711000  0.43545000  1.0
  C  C103  1  0.77213000  0.22571000  0.43608000  1.0
  C  C104  1  0.00116000  0.36627000  0.23247000  1.0
  C  C105  1  0.62224000  0.65975000  0.23465000  1.0
  C  C106  1  0.31362000  0.95786000  0.23586000  1.0
  C  C107  1  0.71228000  0.08122000  0.79145000  1.0
  C  C108  1  0.98961000  0.37909000  0.28086000  1.0
  C  C109  1  0.61020000  0.63124000  0.28264000  1.0
  C  C110  1  0.34396000  0.96985000  0.28356000  1.0
  C  C111  1  0.93798000  0.24030000  0.15881000  1.0
  C  C112  1  0.74466000  0.71786000  0.15956000  1.0
  C  C113  1  0.25450000  0.03059000  0.16313000  1.0
  C  C114  1  0.86212000  0.13224000  0.13626000  1.0
  C  C115  1  0.85001000  0.74154000  0.13526000  1.0
  C  C116  1  0.22802000  0.11363000  0.14100000  1.0
  C  C117  1  0.71853000  0.09624000  0.36269000  1.0
  C  C118  1  0.93242000  0.67432000  0.78816000  1.0
  C  C119  1  0.89028000  0.61034000  0.35776000  1.0
  C  C120  1  0.35706000  0.25842000  0.36504000  1.0
  C  C121  1  0.73119000  0.07964000  0.31332000  1.0
  C  C122  1  0.90598000  0.64341000  0.30885000  1.0
  C  C123  1  0.31911000  0.24365000  0.31692000  1.0
  C  C124  1  0.82230000  0.17499000  0.28597000  1.0
  C  C125  1  0.81138000  0.64967000  0.28370000  1.0
  C  C126  1  0.31607000  0.14732000  0.28956000  1.0
  C  C127  1  0.65463000  0.97067000  0.28894000  1.0
  C  C128  1  0.01292000  0.66914000  0.28278000  1.0
  C  C129  1  0.35723000  0.29056000  0.78716000  1.0
  C  C130  1  0.28614000  0.32393000  0.29369000  1.0
  C  C131  1  0.66679000  0.95754000  0.24062000  1.0
  C  C132  1  0.02440000  0.69651000  0.23471000  1.0
  C  C133  1  0.25566000  0.31174000  0.24600000  1.0
  C  C134  1  0.75665000  0.05185000  0.21225000  1.0
  C  C135  1  0.93076000  0.70259000  0.20853000  1.0
  C  C136  1  0.25531000  0.21820000  0.21731000  1.0
  C  C137  1  0.84873000  0.30089000  0.73937000  1.0
  C  C138  1  0.71105000  0.57625000  0.73311000  1.0
  C  C139  1  0.41530000  0.12099000  0.74134000  1.0
  C  C140  1  0.70248000  0.08164000  0.73533000  1.0
  C  C141  1  0.83469000  0.16137000  0.23559000  1.0
  C  C142  1  0.82377000  0.67928000  0.23374000  1.0
  C  C143  1  0.28451000  0.13481000  0.23990000  1.0
  C  C144  1  0.77153000  0.03938000  0.16272000  1.0
  C  C145  1  0.94161000  0.73261000  0.15940000  1.0
  C  C146  1  0.22802000  0.20631000  0.16791000  1.0
  C  C147  1  0.79485000  0.20408000  0.38528000  1.0
  C  C148  1  0.78414000  0.58477000  0.38184000  1.0
  C  C149  1  0.39071000  0.17961000  0.38630000  1.0
  C  C150  1  0.92370000  0.15468000  0.72556000  1.0
  C  C151  1  0.93388000  0.65422000  0.73270000  1.0
  C  C152  1  0.84670000  0.79263000  0.71828000  1.0
  C  C153  1  0.20593000  0.07881000  0.72608000  1.0
  C  C154  1  0.93157000  0.14219000  0.78089000  1.0
  C  C155  1  0.84648000  0.81339000  0.77338000  1.0
  C  C156  1  0.18668000  0.07891000  0.78128000  1.0
  C  C157  1  0.86333000  0.14129000  0.90265000  1.0
  C  C158  1  0.84671000  0.74999000  0.89676000  1.0
  C  C159  1  0.25749000  0.15231000  0.90177000  1.0
  C  C160  1  0.82105000  0.18238000  0.71402000  1.0
  C  C161  1  0.83005000  0.66637000  0.70895000  1.0
  C  C162  1  0.37053000  0.29199000  0.73118000  1.0
  C  C163  1  0.33776000  0.16409000  0.71368000  1.0
  C  C164  1  0.86982000  0.29584000  0.79384000  1.0
  C  C165  1  0.71066000  0.59888000  0.78755000  1.0
  C  C166  1  0.39160000  0.11379000  0.79599000  1.0
  C  C167  1  0.84001000  0.16824000  0.80829000  1.0
  C  C168  1  0.83163000  0.70295000  0.80245000  1.0
  C  C169  1  0.30517000  0.16278000  0.80750000  1.0
  C  C170  1  0.54642000  0.88037000  0.71657000  1.0
  C  C171  1  0.14247000  0.70539000  0.71892000  1.0
  C  C172  1  0.35648000  0.46682000  0.70387000  1.0
  N  N173  1  0.67162000  0.96884000  0.71172000  1.0
  N  N174  1  0.04553000  0.73091000  0.70799000  1.0
  N  N175  1  0.30254000  0.33746000  0.70451000  1.0
  O  O176  1  0.46767000  0.31029000  0.55738000  1.0
  O  O177  1  0.46220000  0.30423000  0.45427000  1.0
  O  O178  1  0.67658000  0.14776000  0.45673000  1.0
  O  O179  1  0.84390000  0.52038000  0.45211000  1.0
  O  O180  1  0.66361000  0.51424000  0.45154000  1.0
  O  O181  1  0.47234000  0.13206000  0.45475000  1.0
  O  O182  1  0.84591000  0.32456000  0.45553000  1.0
  O  O183  1  0.65340000  0.33370000  0.50348000  1.0
  O  O184  1  0.96724000  0.80295000  0.06439000  1.0
  O  O185  1  0.17492000  0.18008000  0.06969000  1.0
  O  O186  1  0.80908000  0.01338000  0.06547000  1.0
  O  O187  1  0.67361000  0.15125000  0.55283000  1.0
  O  O188  1  0.17707000  0.00404000  0.06815000  1.0
  O  O189  1  0.98183000  0.18692000  0.06520000  1.0
  O  O190  1  0.79327000  0.80980000  0.06507000  1.0
  O  O191  1  0.99496000  0.99517000  0.01661000  1.0
  O  O192  1  0.18159000  0.01891000  0.96443000  1.0
  O  O193  1  0.98640000  0.18586000  0.96939000  1.0
  O  O194  1  0.79707000  0.81224000  0.96823000  1.0
  O  O195  1  0.85251000  0.52979000  0.54797000  1.0
  O  O196  1  0.97555000  0.81371000  0.96120000  1.0
  O  O197  1  0.19031000  0.20002000  0.97286000  1.0
  O  O198  1  0.80887000  0.01525000  0.96931000  1.0
  O  O199  1  0.66996000  0.51937000  0.55504000  1.0
  O  O200  1  0.46703000  0.13241000  0.55081000  1.0
  O  O201  1  0.84481000  0.32832000  0.55161000  1.0
  O  O202  1  0.47828000  0.49240000  0.50235000  1.0
  O  O203  1  0.15418000  0.82035000  0.01130000  1.0
  F  F204  1  0.79699000  0.33127000  0.81983000  1.0
  F  F205  1  0.68939000  0.49488000  0.81312000  1.0
  F  F206  1  0.50081000  0.18169000  0.82023000  1.0
