# generated using pymatgen
data_ZnH15C15N2O5
_symmetry_space_group_name_H-M   'P 1'
_cell_length_a   8.65861000
_cell_length_b   9.61375000
_cell_length_c   10.85400000
_cell_angle_alpha   110.02200000
_cell_angle_beta   97.74760000
_cell_angle_gamma   110.31100000
_symmetry_Int_Tables_number   1
_chemical_formula_structural   ZnH15C15N2O5
_chemical_formula_sum   'Zn2 H30 C30 N4 O10'
_cell_volume   762.41592903
_cell_formula_units_Z   2
loop_
 _symmetry_equiv_pos_site_id
 _symmetry_equiv_pos_as_xyz
  1  'x, y, z'
loop_
 _atom_site_type_symbol
 _atom_site_label
 _atom_site_symmetry_multiplicity
 _atom_site_fract_x
 _atom_site_fract_y
 _atom_site_fract_z
 _atom_site_occupancy
  Zn  Zn0  1  0.11490000  0.03986000  0.19291000  1.0
  Zn  Zn1  1  0.88510000  0.96014000  0.80709000  1.0
  H  H2  1  0.31099000  0.03410000  0.45688000  1.0
  H  H3  1  0.68901000  0.96590000  0.54312000  1.0
  H  H4  1  0.64775000  0.27051000  0.60729000  1.0
  H  H5  1  0.35225000  0.72949000  0.39271000  1.0
  H  H6  1  0.48957000  0.50038000  0.28393000  1.0
  H  H7  1  0.51043000  0.49962000  0.71607000  1.0
  H  H8  1  0.35217000  0.30126000  0.15498000  1.0
  H  H9  1  0.64783000  0.69874000  0.84502000  1.0
  H  H10  1  0.57847000  0.37201000  0.19215000  1.0
  H  H11  1  0.42153000  0.62799000  0.80785000  1.0
  H  H12  1  0.95175000  0.52047000  0.77253000  1.0
  H  H13  1  0.04825000  0.47954000  0.22747000  1.0
  H  H14  1  0.38752000  0.91379000  0.10145000  1.0
  H  H15  1  0.61248000  0.08621000  0.89855000  1.0
  H  H16  1  0.79962000  0.57498000  0.59785000  1.0
  H  H17  1  0.20038000  0.42502000  0.40215000  1.0
  H  H18  1  0.76600000  0.55601000  0.42717000  1.0
  H  H19  1  0.23400000  0.44399000  0.57283000  1.0
  H  H20  1  0.88483000  0.34596000  0.36876000  1.0
  H  H21  1  0.11518000  0.65404000  0.63124000  1.0
  H  H22  1  0.91050000  0.35711000  0.53712000  1.0
  H  H23  1  0.08951000  0.64289000  0.46288000  1.0
  H  H24  1  0.30540000  0.41267000  0.99996000  1.0
  H  H25  1  0.69460000  0.58733000  0.00004000  1.0
  H  H26  1  0.66494000  0.93609000  0.16683000  1.0
  H  H27  1  0.33506000  0.06391000  0.83317000  1.0
  H  H28  1  0.73169000  0.88787000  0.30363000  1.0
  H  H29  1  0.26831000  0.11212000  0.69637000  1.0
  H  H30  1  0.55543000  0.94610000  0.29767000  1.0
  H  H31  1  0.44457000  0.05390000  0.70233000  1.0
  C  C32  1  0.10720000  0.85132000  0.91664000  1.0
  C  C33  1  0.89280000  0.14868000  0.08336000  1.0
  C  C34  1  0.39401000  0.13918000  0.44422000  1.0
  C  C35  1  0.60599000  0.86082000  0.55578000  1.0
  C  C36  1  0.47059000  0.30060000  0.33870000  1.0
  C  C37  1  0.52941000  0.69940000  0.66130000  1.0
  C  C38  1  0.16611000  0.72898000  0.93390000  1.0
  C  C39  1  0.83389000  0.27102000  0.06610000  1.0
  C  C40  1  0.55782000  0.25424000  0.51798000  1.0
  C  C41  1  0.44218000  0.74577000  0.48202000  1.0
  C  C42  1  0.47287000  0.37302000  0.23791000  1.0
  C  C43  1  0.52713000  0.62698000  0.76209000  1.0
  C  C44  1  0.06922000  0.56253000  0.85188000  1.0
  C  C45  1  0.93078000  0.43747000  0.14812000  1.0
  C  C46  1  0.31549000  0.78332000  0.03900000  1.0
  C  C47  1  0.68451000  0.21668000  0.96100000  1.0
  C  C48  1  0.77232000  0.49000000  0.49123000  1.0
  C  C49  1  0.22768000  0.51001000  0.50877000  1.0
  C  C50  1  0.11900000  0.44856000  0.87663000  1.0
  C  C51  1  0.88100000  0.55144000  0.12337000  1.0
  C  C52  1  0.36648000  0.66930000  0.06219000  1.0
  C  C53  1  0.63352000  0.33069000  0.93781000  1.0
  C  C54  1  0.91210000  0.42863000  0.47633000  1.0
  C  C55  1  0.08791000  0.57137000  0.52367000  1.0
  C  C56  1  0.26688000  0.50177000  0.98159000  1.0
  C  C57  1  0.73312000  0.49823000  0.01841000  1.0
  C  C58  1  0.00609000  0.26902000  0.79380000  1.0
  C  C59  1  0.99391000  0.73098000  0.20620000  1.0
  C  C60  1  0.62079000  0.88125000  0.23652000  1.0
  C  C61  1  0.37921000  0.11875000  0.76348000  1.0
  N  N62  1  0.34096000  0.16925000  0.33349000  1.0
  N  N63  1  0.65904000  0.83075000  0.66651000  1.0
  N  N64  1  0.60356000  0.35490000  0.45073000  1.0
  N  N65  1  0.39644000  0.64510000  0.54928000  1.0
  O  O66  1  0.17308000  0.99624000  0.01103000  1.0
  O  O67  1  0.82692000  0.00376000  0.98897000  1.0
  O  O68  1  0.95142000  0.82576000  0.16097000  1.0
  O  O69  1  0.04858000  0.17424000  0.83903000  1.0
  O  O70  1  0.00868000  0.19446000  0.19392000  1.0
  O  O71  1  0.99132000  0.80554000  0.80608000  1.0
  O  O72  1  0.51020000  0.71044000  0.16103000  1.0
  O  O73  1  0.48980000  0.28956000  0.83897000  1.0
  O  O74  1  0.88257000  0.22264000  0.69298000  1.0
  O  O75  1  0.11743000  0.77736000  0.30702000  1.0
