# generated using pymatgen
data_Al6H68C85N2O33
_symmetry_space_group_name_H-M   'P 1'
_cell_length_a   12.70730000
_cell_length_b   12.85883141
_cell_length_c   28.44070000
_cell_angle_alpha   90.58025455
_cell_angle_beta   90.42910000
_cell_angle_gamma   119.45545595
_symmetry_Int_Tables_number   1
_chemical_formula_structural   Al6H68C85N2O33
_chemical_formula_sum   'Al6 H68 C85 N2 O33'
_cell_volume   4045.90690081
_cell_formula_units_Z   1
loop_
 _symmetry_equiv_pos_site_id
 _symmetry_equiv_pos_as_xyz
  1  'x, y, z'
loop_
 _atom_site_type_symbol
 _atom_site_label
 _atom_site_symmetry_multiplicity
 _atom_site_fract_x
 _atom_site_fract_y
 _atom_site_fract_z
 _atom_site_occupancy
  Al  Al0  1  0.17666000  0.58442000  0.49984000  1.0
  Al  Al1  1  0.92234000  0.33989000  0.49884000  1.0
  Al  Al2  1  0.91664000  0.57022000  0.50017000  1.0
  Al  Al3  1  0.15341000  0.07982000  0.00282000  1.0
  Al  Al4  1  0.40803000  0.08357000  0.00108000  1.0
  Al  Al5  1  0.41117000  0.31855000  0.99885000  1.0
  H  H6  1  0.73333000  0.18560000  0.77993000  1.0
  H  H7  1  0.54909000  0.12233000  0.71006000  1.0
  H  H8  1  0.87861000  0.40235000  0.73292000  1.0
  H  H9  1  0.77591000  0.51522000  0.78752000  1.0
  H  H10  1  0.59310000  0.45172000  0.71745000  1.0
  H  H11  1  0.44771000  0.23353000  0.76403000  1.0
  H  H12  1  0.97113000  0.69258000  0.80835000  1.0
  H  H13  1  0.94095000  0.66852000  0.72644000  1.0
  H  H14  1  0.02729000  0.87910000  0.71382000  1.0
  H  H15  1  0.06077000  0.91856000  0.79481000  1.0
  H  H16  1  0.21834000  0.00649000  0.78511000  1.0
  H  H17  1  0.25227000  0.71703000  0.71654000  1.0
  H  H18  1  0.32598000  0.87133000  0.70542000  1.0
  H  H19  1  0.29428000  0.76382000  0.79692000  1.0
  H  H20  1  0.03014000  0.59837000  0.72504000  1.0
  H  H21  1  0.06667000  0.62930000  0.80623000  1.0
  H  H22  1  0.35190000  0.91733000  0.78583000  1.0
  H  H23  1  0.29605000  0.52083000  0.79182000  1.0
  H  H24  1  0.26059000  0.53026000  0.71131000  1.0
  H  H25  1  0.24019000  0.23278000  0.69538000  1.0
  H  H26  1  0.33940000  0.38771000  0.70042000  1.0
  H  H27  1  0.36075000  0.36398000  0.78091000  1.0
  H  H28  1  0.24938000  0.21171000  0.77712000  1.0
  H  H29  1  0.95784000  0.25240000  0.71680000  1.0
  H  H30  1  0.01355000  0.15194000  0.70959000  1.0
  H  H31  1  0.98505000  0.25621000  0.79863000  1.0
  H  H32  1  0.10547000  0.47587000  0.72135000  1.0
  H  H33  1  0.14317000  0.47701000  0.80234000  1.0
  H  H34  1  0.03028000  0.14757000  0.79187000  1.0
  H  H35  1  0.69739000  0.51241000  0.20705000  1.0
  H  H36  1  0.72350000  0.52295000  0.28890000  1.0
  H  H37  1  0.49189000  0.19548000  0.29500000  1.0
  H  H38  1  0.50991000  0.34075000  0.29973000  1.0
  H  H39  1  0.49536000  0.34941000  0.21762000  1.0
  H  H40  1  0.46308000  0.19855000  0.21439000  1.0
  H  H41  1  0.81816000  0.29174000  0.28010000  1.0
  H  H42  1  0.67432000  0.16644000  0.28942000  1.0
  H  H43  1  0.77846000  0.26000000  0.19947000  1.0
  H  H44  1  0.84805000  0.49803000  0.28216000  1.0
  H  H45  1  0.62650000  0.15060000  0.20903000  1.0
  H  H46  1  0.25175000  0.72822000  0.20466000  1.0
  H  H47  1  0.23056000  0.69995000  0.28679000  1.0
  H  H48  1  0.26199000  0.99797000  0.31108000  1.0
  H  H49  1  0.33827000  0.91491000  0.30697000  1.0
  H  H50  1  0.28335000  0.03851000  0.23198000  1.0
  H  H51  1  0.95584000  0.73743000  0.27880000  1.0
  H  H52  1  0.03192000  0.89046000  0.29428000  1.0
  H  H53  1  0.99518000  0.78867000  0.19913000  1.0
  H  H54  1  0.07292000  0.62108000  0.27692000  1.0
  H  H55  1  0.09534000  0.66623000  0.19729000  1.0
  H  H56  1  0.07600000  0.94119000  0.21514000  1.0
  H  H57  1  0.00315000  0.25250000  0.19585000  1.0
  H  H58  1  0.96984000  0.24878000  0.27685000  1.0
  H  H59  1  0.24740000  0.22746000  0.30200000  1.0
  H  H60  1  0.08941000  0.14357000  0.29281000  1.0
  H  H61  1  0.11621000  0.14246000  0.21135000  1.0
  H  H62  1  0.27407000  0.22022000  0.22078000  1.0
  H  H63  1  0.26814000  0.52739000  0.29214000  1.0
  H  H64  1  0.35278000  0.45517000  0.30335000  1.0
  H  H65  1  0.30611000  0.52648000  0.21159000  1.0
  H  H66  1  0.04182000  0.40646000  0.27774000  1.0
  H  H67  1  0.07861000  0.40997000  0.19748000  1.0
  H  H68  1  0.38651000  0.44982000  0.22250000  1.0
  H  H69  1  0.40232000  0.82776000  0.24019000  1.0
  H  H70  1  0.50777000  0.95428000  0.27441000  1.0
  H  H71  1  0.53511000  0.94057000  0.21354000  1.0
  H  H72  1  0.37559000  0.66610000  0.52805000  1.0
  H  H73  1  0.95281000  0.95479000  0.97837000  1.0
  C  C74  1  0.09569000  0.37507000  0.56563000  1.0
  C  C75  1  0.77765000  0.38504000  0.56387000  1.0
  C  C76  1  0.08608000  0.70005000  0.56977000  1.0
  C  C77  1  0.09582000  0.37764000  0.43244000  1.0
  C  C78  1  0.77624000  0.38120000  0.43378000  1.0
  C  C79  1  0.08565000  0.70714000  0.43473000  1.0
  C  C80  1  0.60042000  0.20932000  0.72763000  1.0
  C  C81  1  0.70211000  0.24460000  0.76574000  1.0
  C  C82  1  0.59518000  0.28399000  0.88694000  1.0
  C  C83  1  0.72830000  0.35822000  0.61023000  1.0
  C  C84  1  0.54380000  0.27207000  0.75685000  1.0
  C  C85  1  0.64511000  0.30728000  0.79661000  1.0
  C  C86  1  0.62420000  0.39270000  0.73173000  1.0
  C  C87  1  0.68124000  0.33017000  0.70080000  1.0
  C  C88  1  0.72592000  0.42812000  0.76981000  1.0
  C  C89  1  0.78264000  0.36515000  0.74053000  1.0
  C  C90  1  0.62061000  0.29500000  0.84531000  1.0
  C  C91  1  0.70481000  0.34414000  0.65201000  1.0
  C  C92  1  0.02912000  0.67923000  0.73700000  1.0
  C  C93  1  0.11676000  0.89559000  0.72522000  1.0
  C  C94  1  0.13878000  0.91864000  0.77845000  1.0
  C  C95  1  0.19876000  0.87876000  0.89258000  1.0
  C  C96  1  0.13010000  0.78592000  0.71009000  1.0
  C  C97  1  0.05041000  0.69815000  0.79078000  1.0
  C  C98  1  0.16121000  0.82222000  0.80139000  1.0
  C  C99  1  0.27460000  0.82788000  0.77913000  1.0
  C  C100  1  0.25376000  0.80083000  0.72583000  1.0
  C  C101  1  0.17966000  0.84813000  0.85145000  1.0
  C  C102  1  0.11206000  0.76357000  0.65981000  1.0
  C  C103  1  0.10082000  0.74268000  0.61781000  1.0
  C  C104  1  0.18072000  0.45868000  0.72827000  1.0
  C  C105  1  0.25636000  0.31380000  0.71462000  1.0
  C  C106  1  0.26858000  0.30227000  0.76816000  1.0
  C  C107  1  0.21165000  0.30902000  0.88647000  1.0
  C  C108  1  0.15049000  0.33789000  0.70450000  1.0
  C  C109  1  0.20270000  0.45525000  0.78167000  1.0
  C  C110  1  0.17893000  0.32936000  0.79520000  1.0
  C  C111  1  0.04847000  0.23589000  0.78002000  1.0
  C  C112  1  0.03337000  0.23740000  0.72610000  1.0
  C  C113  1  0.19650000  0.32177000  0.84517000  1.0
  C  C114  1  0.13449000  0.34402000  0.65435000  1.0
  C  C115  1  0.11956000  0.35104000  0.61253000  1.0
  C  C116  1  0.75211000  0.46255000  0.27333000  1.0
  C  C117  1  0.54340000  0.28686000  0.28182000  1.0
  C  C118  1  0.52798000  0.28793000  0.22782000  1.0
  C  C119  1  0.60819000  0.30281000  0.11014000  1.0
  C  C120  1  0.67850000  0.33663000  0.29471000  1.0
  C  C121  1  0.73471000  0.45679000  0.21955000  1.0
  C  C122  1  0.64977000  0.32557000  0.20272000  1.0
  C  C123  1  0.69695000  0.24121000  0.21887000  1.0
  C  C124  1  0.72140000  0.25372000  0.27243000  1.0
  C  C125  1  0.62957000  0.31673000  0.15216000  1.0
  C  C126  1  0.69935000  0.34595000  0.34532000  1.0
  C  C127  1  0.72382000  0.35669000  0.38715000  1.0
  C  C128  1  0.15500000  0.70673000  0.27094000  1.0
  C  C129  1  0.26513000  0.92576000  0.29129000  1.0
  C  C130  1  0.28949000  0.95758000  0.23882000  1.0
  C  C131  1  0.22481000  0.91362000  0.11745000  1.0
  C  C132  1  0.14470000  0.80773000  0.29723000  1.0
  C  C133  1  0.17326000  0.73286000  0.21782000  1.0
  C  C134  1  0.18720000  0.85696000  0.20788000  1.0
  C  C135  1  0.06787000  0.85375000  0.22224000  1.0
  C  C136  1  0.04113000  0.82139000  0.27464000  1.0
  C  C137  1  0.20985000  0.88650000  0.15862000  1.0
  C  C138  1  0.12355000  0.77980000  0.34671000  1.0
  C  C139  1  0.10713000  0.75504000  0.38811000  1.0
  C  C140  1  0.05283000  0.33004000  0.26713000  1.0
  C  C141  1  0.17154000  0.22426000  0.28194000  1.0
  C  C142  1  0.19049000  0.22219000  0.22835000  1.0
  C  C143  1  0.22932000  0.32321000  0.11349000  1.0
  C  C144  1  0.15992000  0.33498000  0.29550000  1.0
  C  C145  1  0.07568000  0.33172000  0.21381000  1.0
  C  C146  1  0.19694000  0.33414000  0.20537000  1.0
  C  C147  1  0.30041000  0.44793000  0.22894000  1.0
  C  C148  1  0.27746000  0.44960000  0.28217000  1.0
  C  C149  1  0.21604000  0.33074000  0.15540000  1.0
  C  C150  1  0.13756000  0.33767000  0.34523000  1.0
  C  C151  1  0.11863000  0.34646000  0.38648000  1.0
  C  C152  1  0.22849000  0.93755000  0.93802000  1.0
  C  C153  1  0.54520000  0.26371000  0.93323000  1.0
  C  C154  1  0.23405000  0.27882000  0.93261000  1.0
  C  C155  1  0.24222000  0.96157000  0.07093000  1.0
  C  C156  1  0.55785000  0.27423000  0.06326000  1.0
  C  C157  1  0.24794000  0.29564000  0.06633000  1.0
  C  C158  1  0.46499000  0.92434000  0.23932000  1.0
  N  N159  1  0.85428000  0.50609000  0.19462000  1.0
  N  N160  1  0.20251000  0.00411000  0.69738000  1.0
  O  O161  1  0.16414000  0.67484000  0.55496000  1.0
  O  O162  1  0.17359000  0.47113000  0.54731000  1.0
  O  O163  1  0.99319000  0.29835000  0.54700000  1.0
  O  O164  1  0.80018000  0.30899000  0.54366000  1.0
  O  O165  1  0.80117000  0.48619000  0.54705000  1.0
  O  O166  1  0.99198000  0.68685000  0.54708000  1.0
  O  O167  1  0.16569000  0.68897000  0.45305000  1.0
  O  O168  1  0.16871000  0.48163000  0.44739000  1.0
  O  O169  1  0.00065000  0.29901000  0.45363000  1.0
  O  O170  1  0.80515000  0.30660000  0.45054000  1.0
  O  O171  1  0.79598000  0.47869000  0.45381000  1.0
  O  O172  1  0.98336000  0.68229000  0.45314000  1.0
  O  O173  1  0.00307000  0.49727000  0.49991000  1.0
  O  O174  1  0.16110000  0.17583000  0.94704000  1.0
  O  O175  1  0.15285000  0.96212000  0.95607000  1.0
  O  O176  1  0.33356000  0.96524000  0.95502000  1.0
  O  O177  1  0.52344000  0.16686000  0.95341000  1.0
  O  O178  1  0.52106000  0.34241000  0.94991000  1.0
  O  O179  1  0.32999000  0.35841000  0.95449000  1.0
  O  O180  1  0.16609000  0.20006000  0.04780000  1.0
  O  O181  1  0.16735000  0.99213000  0.05653000  1.0
  O  O182  1  0.33509000  0.97297000  0.04830000  1.0
  O  O183  1  0.53034000  0.17080000  0.04686000  1.0
  O  O184  1  0.53809000  0.35093000  0.04276000  1.0
  O  O185  1  0.34988000  0.36877000  0.04762000  1.0
  O  O186  1  0.32650000  0.16144000  0.00064000  1.0
  O  O187  1  0.92633000  0.47369000  0.20858000  1.0
  O  O188  1  0.87158000  0.57323000  0.16132000  1.0
  O  O189  1  0.40929000  0.99128000  0.22392000  1.0
  O  O190  1  0.15889000  0.03097000  0.66382000  1.0
  O  O191  1  0.31080000  0.05780000  0.70945000  1.0
  O  O192  1  0.33449667  0.66783000  0.49958000  1.0
  O  O193  1  0.99559000  0.00718000  0.00469000  1.0
