# generated using pymatgen
data_CuH9C10(NO)4
_symmetry_space_group_name_H-M   'P 1'
_cell_length_a   7.92753000
_cell_length_b   8.12066000
_cell_length_c   11.93160000
_cell_angle_alpha   85.60490000
_cell_angle_beta   76.55460000
_cell_angle_gamma   61.52940000
_symmetry_Int_Tables_number   1
_chemical_formula_structural   CuH9C10(NO)4
_chemical_formula_sum   'Cu2 H18 C20 N8 O8'
_cell_volume   656.19069086
_cell_formula_units_Z   2
loop_
 _symmetry_equiv_pos_site_id
 _symmetry_equiv_pos_as_xyz
  1  'x, y, z'
loop_
 _atom_site_type_symbol
 _atom_site_label
 _atom_site_symmetry_multiplicity
 _atom_site_fract_x
 _atom_site_fract_y
 _atom_site_fract_z
 _atom_site_occupancy
  Cu  Cu0  1  0.01003000  0.05576000  0.77005000  1.0
  Cu  Cu1  1  0.98999000  0.94423000  0.22996000  1.0
  H  H2  1  0.22376000  0.67365000  0.40439000  1.0
  H  H3  1  0.77625000  0.32635000  0.59561000  1.0
  H  H4  1  0.66056000  0.69647000  0.72115000  1.0
  H  H5  1  0.33943000  0.30356000  0.27884000  1.0
  H  H6  1  0.26748000  0.43721000  0.60790000  1.0
  H  H7  1  0.73251000  0.56278000  0.39210000  1.0
  H  H8  1  0.16709000  0.52664000  0.75177000  1.0
  H  H9  1  0.83288000  0.47337000  0.24823000  1.0
  H  H10  1  0.94747000  0.68141000  0.55677000  1.0
  H  H11  1  0.05251000  0.31860000  0.44322000  1.0
  H  H12  1  0.45257000  0.82774000  0.36059000  1.0
  H  H13  1  0.54744000  0.17225000  0.63941000  1.0
  H  H14  1  0.35407000  0.03802000  0.56283000  1.0
  H  H15  1  0.64594000  0.96197000  0.43717000  1.0
  H  H16  1  0.56616000  0.16774000  0.90728000  1.0
  H  H17  1  0.43386000  0.83228000  0.09271000  1.0
  H  H18  1  0.38978000  0.95393000  0.86984000  1.0
  H  H19  1  0.61022000  0.04611000  0.13014000  1.0
  C  C20  1  0.03049000  0.38587000  0.69115000  1.0
  C  C21  1  0.96951000  0.61412000  0.30885000  1.0
  C  C22  1  0.12810000  0.51208000  0.67186000  1.0
  C  C23  1  0.87188000  0.48792000  0.32813000  1.0
  C  C24  1  0.00397000  0.70654000  0.62611000  1.0
  C  C25  1  0.99603000  0.29346000  0.37389000  1.0
  C  C26  1  0.13095000  0.79380000  0.57283000  1.0
  C  C27  1  0.86905000  0.20620000  0.42716000  1.0
  C  C28  1  0.35449000  0.83917000  0.44334000  1.0
  C  C29  1  0.64552000  0.16082000  0.55666000  1.0
  C  C30  1  0.30454000  0.94309000  0.54257000  1.0
  C  C31  1  0.69547000  0.05689000  0.45743000  1.0
  C  C32  1  0.83015000  0.83068000  0.71666000  1.0
  C  C33  1  0.16984000  0.16933000  0.28333000  1.0
  C  C34  1  0.62063000  0.04782000  0.84962000  1.0
  C  C35  1  0.37938000  0.95220000  0.15037000  1.0
  C  C36  1  0.53232000  0.94455000  0.83280000  1.0
  C  C37  1  0.46768000  0.05548000  0.16720000  1.0
  C  C38  1  0.91094000  0.10092000  0.01007000  1.0
  C  C39  1  0.08907000  0.89908000  0.98996000  1.0
  N  N40  1  0.24409000  0.74612000  0.46407000  1.0
  N  N41  1  0.75591000  0.25387000  0.53593000  1.0
  N  N42  1  0.16481000  0.91405000  0.62237000  1.0
  N  N43  1  0.83518000  0.08594000  0.37763000  1.0
  N  N44  1  0.80641000  0.97465000  0.77717000  1.0
  N  N45  1  0.19360000  0.02536000  0.22282000  1.0
  N  N46  1  0.66615000  0.80935000  0.74908000  1.0
  N  N47  1  0.33384000  0.19067000  0.25091000  1.0
  O  O48  1  0.12877000  0.22951000  0.73444000  1.0
  O  O49  1  0.87123000  0.77048000  0.26555000  1.0
  O  O50  1  0.86966000  0.43819000  0.66089000  1.0
  O  O51  1  0.13032000  0.56179000  0.33913000  1.0
  O  O52  1  0.86457000  0.19340000  0.92066000  1.0
  O  O53  1  0.13546000  0.80658000  0.07937000  1.0
  O  O54  1  0.17813000  0.83900000  0.88794000  1.0
  O  O55  1  0.82185000  0.16099000  0.11209000  1.0
