# generated using pymatgen
data_AlH9(C5O3)3
_symmetry_space_group_name_H-M   'P 1'
_cell_length_a   3.93062000
_cell_length_b   17.18755000
_cell_length_c   17.18750000
_cell_angle_alpha   119.99971130
_cell_angle_beta   90.00000000
_cell_angle_gamma   89.99970000
_symmetry_Int_Tables_number   1
_chemical_formula_structural   AlH9(C5O3)3
_chemical_formula_sum   'Al2 H18 C30 O18'
_cell_volume   1005.58697731
_cell_formula_units_Z   2
loop_
 _symmetry_equiv_pos_site_id
 _symmetry_equiv_pos_as_xyz
  1  'x, y, z'
loop_
 _atom_site_type_symbol
 _atom_site_label
 _atom_site_symmetry_multiplicity
 _atom_site_fract_x
 _atom_site_fract_y
 _atom_site_fract_z
 _atom_site_occupancy
  Al  Al0  1  0.01703000  0.50000000  0.00000000  1.0
  Al  Al1  1  0.98273000  0.83333000  0.66666000  1.0
  H  H2  1  0.25855000  0.52461000  0.41454000  1.0
  H  H3  1  0.71107000  0.52840000  0.42032000  1.0
  H  H4  1  0.74152000  0.44343000  0.25227000  1.0
  H  H5  1  0.28895000  0.44146000  0.24655000  1.0
  H  H6  1  0.25855000  0.88993000  0.97539000  1.0
  H  H7  1  0.71108000  0.89192000  0.97159000  1.0
  H  H8  1  0.74152000  0.80884000  0.05657000  1.0
  H  H9  1  0.28896000  0.80509000  0.05854000  1.0
  H  H10  1  0.25856000  0.08546000  0.61007000  1.0
  H  H11  1  0.71108000  0.07967000  0.60807000  1.0
  H  H12  1  0.74152000  0.24773000  0.69116000  1.0
  H  H13  1  0.28896000  0.25345000  0.69490000  1.0
  H  H14  1  0.38739000  0.72511000  0.18279000  1.0
  H  H15  1  0.61237000  0.87572000  0.48388000  1.0
  H  H16  1  0.38739000  0.45768000  0.77490000  1.0
  H  H17  1  0.61236000  0.60816000  0.62428000  1.0
  H  H18  1  0.38739000  0.31722000  0.04233000  1.0
  H  H19  1  0.61236000  0.01612000  0.89184000  1.0
  C  C20  1  0.51657000  0.36147000  0.93241000  1.0
  C  C21  1  0.51658000  0.57094000  0.13853000  1.0
  C  C22  1  0.51659000  0.56759000  0.92906000  1.0
  C  C23  1  0.48321000  0.76583000  0.52819000  1.0
  C  C24  1  0.48319000  0.76236000  0.73417000  1.0
  C  C25  1  0.48322000  0.97181000  0.73764000  1.0
  C  C26  1  0.49530000  0.71573000  0.42921000  1.0
  C  C27  1  0.50469000  0.61983000  0.23752000  1.0
  C  C28  1  0.48878000  0.62199000  0.37979000  1.0
  C  C29  1  0.48769000  0.71470000  0.28573000  1.0
  C  C30  1  0.51122000  0.57557000  0.28696000  1.0
  C  C31  1  0.51263000  0.76230000  0.38094000  1.0
  C  C32  1  0.48931000  0.53724000  0.38655000  1.0
  C  C33  1  0.51081000  0.48406000  0.28025000  1.0
  C  C34  1  0.49530000  0.71349000  0.78427000  1.0
  C  C35  1  0.50469000  0.61768000  0.88017000  1.0
  C  C36  1  0.48878000  0.75780000  0.87802000  1.0
  C  C37  1  0.48769000  0.57104000  0.78530000  1.0
  C  C38  1  0.51122000  0.71140000  0.92443000  1.0
  C  C39  1  0.51262000  0.61864000  0.73771000  1.0
  C  C40  1  0.48931000  0.84931000  0.96275000  1.0
  C  C41  1  0.51081000  0.79619000  0.01594000  1.0
  C  C42  1  0.49530000  0.07078000  0.78651000  1.0
  C  C43  1  0.50468000  0.26248000  0.88231000  1.0
  C  C44  1  0.48878000  0.12021000  0.74220000  1.0
  C  C45  1  0.48769000  0.21426000  0.92896000  1.0
  C  C46  1  0.51122000  0.21303000  0.78860000  1.0
  C  C47  1  0.51262000  0.11906000  0.88136000  1.0
  C  C48  1  0.48931000  0.11344000  0.65068000  1.0
  C  C49  1  0.51082000  0.21975000  0.70381000  1.0
  O  O50  1  0.75333000  0.58608000  0.98634000  1.0
  O  O51  1  0.75333000  0.40026000  0.91392000  1.0
  O  O52  1  0.75333000  0.51366000  0.09974000  1.0
  O  O53  1  0.28794000  0.50698000  0.91020000  1.0
  O  O54  1  0.28794000  0.58981000  0.09679000  1.0
  O  O55  1  0.28794000  0.40321000  0.99302000  1.0
  O  O56  1  0.71175000  0.93005000  0.75653000  1.0
  O  O57  1  0.71176000  0.82648000  0.56995000  1.0
  O  O58  1  0.71176000  0.74347000  0.67352000  1.0
  O  O59  1  0.24643000  0.93305000  0.68036000  1.0
  O  O60  1  0.24644000  0.81963000  0.75268000  1.0
  O  O61  1  0.24644000  0.74731000  0.56695000  1.0
  O  O62  1  0.46654000  0.76462000  0.24443000  1.0
  O  O63  1  0.53378000  0.85352000  0.42218000  1.0
  O  O64  1  0.46653000  0.47981000  0.73539000  1.0
  O  O65  1  0.53377000  0.56867000  0.64649000  1.0
  O  O66  1  0.46654000  0.25557000  0.02019000  1.0
  O  O67  1  0.53377000  0.07782000  0.93134000  1.0
