# generated using pymatgen
data_FeH3C7O3
_symmetry_space_group_name_H-M   'P 1'
_cell_length_a   6.68105000
_cell_length_b   21.98580000
_cell_length_c   21.98638858
_cell_angle_alpha   60.01265600
_cell_angle_beta   89.98310072
_cell_angle_gamma   89.98180000
_symmetry_Int_Tables_number   1
_chemical_formula_structural   FeH3C7O3
_chemical_formula_sum   'Fe6 H18 C42 O18'
_cell_volume   2797.22158054
_cell_formula_units_Z   6
loop_
 _symmetry_equiv_pos_site_id
 _symmetry_equiv_pos_as_xyz
  1  'x, y, z'
loop_
 _atom_site_type_symbol
 _atom_site_label
 _atom_site_symmetry_multiplicity
 _atom_site_fract_x
 _atom_site_fract_y
 _atom_site_fract_z
 _atom_site_occupancy
  Fe  Fe0  1  0.85094000  0.62682000  0.70908000  1.0
  Fe  Fe1  1  0.18440000  0.70904000  0.66414000  1.0
  Fe  Fe2  1  0.51770000  0.66413000  0.62682000  1.0
  Fe  Fe3  1  0.14907000  0.29093000  0.37317000  1.0
  Fe  Fe4  1  0.48230000  0.37319000  0.33586000  1.0
  Fe  Fe5  1  0.81560000  0.33587000  0.29096000  1.0
  H  H6  1  0.56883000  0.54695000  0.91227000  1.0
  H  H7  1  0.90319000  0.91219000  0.54082000  1.0
  H  H8  1  0.23591000  0.54084000  0.54682000  1.0
  H  H9  1  0.43119000  0.08773000  0.45305000  1.0
  H  H10  1  0.76408000  0.45320000  0.45915000  1.0
  H  H11  1  0.09682000  0.45917000  0.08781000  1.0
  H  H12  1  0.99163000  0.55494000  0.99496000  1.0
  H  H13  1  0.32614000  0.99498000  0.45021000  1.0
  H  H14  1  0.65882000  0.45016000  0.55492000  1.0
  H  H15  1  0.00837000  0.00504000  0.44504000  1.0
  H  H16  1  0.34116000  0.44507000  0.54985000  1.0
  H  H17  1  0.67387000  0.54977000  0.00503000  1.0
  H  H18  1  0.85715000  0.61971000  0.87407000  1.0
  H  H19  1  0.19151000  0.87418000  0.50622000  1.0
  H  H20  1  0.52442000  0.50626000  0.61976000  1.0
  H  H21  1  0.14284000  0.12593000  0.38028000  1.0
  H  H22  1  0.47556000  0.38023000  0.49375000  1.0
  H  H23  1  0.80849000  0.49377000  0.12582000  1.0
  C  C24  1  0.13611000  0.62402000  0.82382000  1.0
  C  C25  1  0.47025000  0.82383000  0.55214000  1.0
  C  C26  1  0.80330000  0.55215000  0.62408000  1.0
  C  C27  1  0.86390000  0.17618000  0.37598000  1.0
  C  C28  1  0.19669000  0.37594000  0.44784000  1.0
  C  C29  1  0.52975000  0.44786000  0.17617000  1.0
  C  C30  1  0.34171000  0.60283000  0.83620000  1.0
  C  C31  1  0.67582000  0.83618000  0.56097000  1.0
  C  C32  1  0.00886000  0.56099000  0.60283000  1.0
  C  C33  1  0.65829000  0.16381000  0.39717000  1.0
  C  C34  1  0.99114000  0.39719000  0.43900000  1.0
  C  C35  1  0.32417000  0.43903000  0.16381000  1.0
  C  C36  1  0.41270000  0.56340000  0.90570000  1.0
  C  C37  1  0.74705000  0.90568000  0.53090000  1.0
  C  C38  1  0.07986000  0.53093000  0.56336000  1.0
  C  C39  1  0.58732000  0.09430000  0.43660000  1.0
  C  C40  1  0.92013000  0.43665000  0.46907000  1.0
  C  C41  1  0.25294000  0.46909000  0.09432000  1.0
  C  C42  1  0.29234000  0.54566000  0.96393000  1.0
  C  C43  1  0.62689000  0.96392000  0.49041000  1.0
  C  C44  1  0.95956000  0.49039000  0.54568000  1.0
  C  C45  1  0.70766000  0.03607000  0.45433000  1.0
  C  C46  1  0.04042000  0.45433000  0.50960000  1.0
  C  C47  1  0.37312000  0.50959000  0.03606000  1.0
  C  C48  1  0.08955000  0.56671000  0.95073000  1.0
  C  C49  1  0.42406000  0.95076000  0.48259000  1.0
  C  C50  1  0.75680000  0.48257000  0.56673000  1.0
  C  C51  1  0.91046000  0.04926000  0.43328000  1.0
  C  C52  1  0.24318000  0.43327000  0.51744000  1.0
  C  C53  1  0.57595000  0.51740000  0.04925000  1.0
  C  C54  1  0.01361000  0.60372000  0.88336000  1.0
  C  C55  1  0.34794000  0.88339000  0.51293000  1.0
  C  C56  1  0.68083000  0.51292000  0.60377000  1.0
  C  C57  1  0.98641000  0.11665000  0.39627000  1.0
  C  C58  1  0.31916000  0.39623000  0.48708000  1.0
  C  C59  1  0.65206000  0.48707000  0.11660000  1.0
  C  C60  1  0.48691000  0.62048000  0.78010000  1.0
  C  C61  1  0.82070000  0.78005000  0.59945000  1.0
  C  C62  1  0.15392000  0.59945000  0.62046000  1.0
  C  C63  1  0.51309000  0.21990000  0.37952000  1.0
  C  C64  1  0.84608000  0.37957000  0.40053000  1.0
  C  C65  1  0.17930000  0.40055000  0.21995000  1.0
  O  O66  1  0.05301000  0.66152000  0.76022000  1.0
  O  O67  1  0.38695000  0.76025000  0.57822000  1.0
  O  O68  1  0.72008000  0.57822000  0.66161000  1.0
  O  O69  1  0.94700000  0.23978000  0.33848000  1.0
  O  O70  1  0.27992000  0.33841000  0.42177000  1.0
  O  O71  1  0.61304000  0.42179000  0.23975000  1.0
  O  O72  1  0.44395000  0.66959000  0.71590000  1.0
  O  O73  1  0.77741000  0.71586000  0.61458000  1.0
  O  O74  1  0.11071000  0.61460000  0.66953000  1.0
  O  O75  1  0.55605000  0.28410000  0.33042000  1.0
  O  O76  1  0.88930000  0.33049000  0.38538000  1.0
  O  O77  1  0.22259000  0.38543000  0.28413000  1.0
  O  O78  1  0.65730000  0.59081000  0.79182000  1.0
  O  O79  1  0.99108000  0.79172000  0.61741000  1.0
  O  O80  1  0.32432000  0.61737000  0.59083000  1.0
  O  O81  1  0.34271000  0.20819000  0.40918000  1.0
  O  O82  1  0.67567000  0.40920000  0.38262000  1.0
  O  O83  1  0.00892000  0.38260000  0.20828000  1.0
