# generated using pymatgen
data_LiH8C7N4ClO4
_symmetry_space_group_name_H-M   'P 1'
_cell_length_a   9.08649000
_cell_length_b   9.08792000
_cell_length_c   12.91680000
_cell_angle_alpha   89.99900000
_cell_angle_beta   89.99940000
_cell_angle_gamma   89.96090000
_symmetry_Int_Tables_number   1
_chemical_formula_structural   LiH8C7N4ClO4
_chemical_formula_sum   'Li4 H32 C28 N16 Cl4 O16'
_cell_volume   1066.63414515
_cell_formula_units_Z   4
loop_
 _symmetry_equiv_pos_site_id
 _symmetry_equiv_pos_as_xyz
  1  'x, y, z'
loop_
 _atom_site_type_symbol
 _atom_site_label
 _atom_site_symmetry_multiplicity
 _atom_site_fract_x
 _atom_site_fract_y
 _atom_site_fract_z
 _atom_site_occupancy
  Li  Li0  1  0.71048000  0.59844000  0.94054000  1.0
  Li  Li1  1  0.28952000  0.40156000  0.44054000  1.0
  Li  Li2  1  0.59860000  0.28940000  0.69077000  1.0
  Li  Li3  1  0.40140000  0.71059000  0.19077000  1.0
  H  H4  1  0.37447000  0.51550000  0.82343000  1.0
  H  H5  1  0.62553000  0.48450000  0.32344000  1.0
  H  H6  1  0.51570000  0.62550000  0.57430000  1.0
  H  H7  1  0.48429000  0.37449000  0.07430000  1.0
  H  H8  1  0.65853000  0.88258000  0.83209000  1.0
  H  H9  1  0.34147000  0.11741000  0.33208000  1.0
  H  H10  1  0.88293000  0.34103000  0.58191000  1.0
  H  H11  1  0.11708000  0.65898000  0.08190000  1.0
  H  H12  1  0.40666000  0.95705000  0.72138000  1.0
  H  H13  1  0.59334000  0.04296000  0.22138000  1.0
  H  H14  1  0.95683000  0.59290000  0.47116000  1.0
  H  H15  1  0.04317000  0.40712000  0.97115000  1.0
  H  H16  1  0.19026000  0.61907000  0.67285000  1.0
  H  H17  1  0.80975000  0.38094000  0.17284000  1.0
  H  H18  1  0.61839000  0.80945000  0.42331000  1.0
  H  H19  1  0.38161000  0.19055000  0.92332000  1.0
  H  H20  1  0.19843000  0.81334000  0.65387000  1.0
  H  H21  1  0.80158000  0.18667000  0.15387000  1.0
  H  H22  1  0.81269000  0.80104000  0.40389000  1.0
  H  H23  1  0.18731000  0.19896000  0.90389000  1.0
  H  H24  1  0.97994000  0.53201000  0.77413000  1.0
  H  H25  1  0.02006000  0.46800000  0.27412000  1.0
  H  H26  1  0.53163000  0.02002000  0.52485000  1.0
  H  H27  1  0.46837000  0.97998000  0.02486000  1.0
  H  H28  1  0.13158000  0.96106000  0.84278000  1.0
  H  H29  1  0.86843000  0.03894000  0.34278000  1.0
  H  H30  1  0.96158000  0.86873000  0.59182000  1.0
  H  H31  1  0.03841000  0.13126000  0.09182000  1.0
  H  H32  1  0.89226000  0.89427000  0.96918000  1.0
  H  H33  1  0.10774000  0.10573000  0.46918000  1.0
  H  H34  1  0.89522000  0.10785000  0.71861000  1.0
  H  H35  1  0.10477000  0.89214000  0.21862000  1.0
  C  C36  1  0.42049000  0.62456000  0.81271000  1.0
  C  C37  1  0.57952000  0.37543000  0.31271000  1.0
  C  C38  1  0.62477000  0.57942000  0.56338000  1.0
  C  C39  1  0.37523000  0.42057000  0.06338000  1.0
  C  C40  1  0.56229000  0.81674000  0.81462000  1.0
  C  C41  1  0.43771000  0.18326000  0.31462000  1.0
  C  C42  1  0.81702000  0.43741000  0.56470000  1.0
  C  C43  1  0.18298000  0.56259000  0.06470000  1.0
  C  C44  1  0.43986000  0.85600000  0.75901000  1.0
  C  C45  1  0.56014000  0.14400000  0.25901000  1.0
  C  C46  1  0.85598000  0.55985000  0.50909000  1.0
  C  C47  1  0.14402000  0.44015000  0.00908000  1.0
  C  C48  1  0.20526000  0.72502000  0.71143000  1.0
  C  C49  1  0.79474000  0.27499000  0.21143000  1.0
  C  C50  1  0.72462000  0.79447000  0.46167000  1.0
  C  C51  1  0.27539000  0.20553000  0.96168000  1.0
  C  C52  1  0.98589000  0.63828000  0.81226000  1.0
  C  C53  1  0.01411000  0.36173000  0.31226000  1.0
  C  C54  1  0.63819000  0.01399000  0.56265000  1.0
  C  C55  1  0.36180000  0.98601000  0.06266000  1.0
  C  C56  1  0.06463000  0.86316000  0.84975000  1.0
  C  C57  1  0.93537000  0.13684000  0.34975000  1.0
  C  C58  1  0.86350000  0.93545000  0.59937000  1.0
  C  C59  1  0.13649000  0.06454000  0.09938000  1.0
  C  C60  1  0.94603000  0.82771000  0.91066000  1.0
  C  C61  1  0.05397000  0.17229000  0.41066000  1.0
  C  C62  1  0.82825000  0.05407000  0.66036000  1.0
  C  C63  1  0.17175000  0.94592000  0.16037000  1.0
  N  N64  1  0.54902000  0.67223000  0.84784000  1.0
  N  N65  1  0.45098000  0.32777000  0.34784000  1.0
  N  N66  1  0.67264000  0.45080000  0.59827000  1.0
  N  N67  1  0.32736000  0.54919000  0.09827000  1.0
  N  N68  1  0.35063000  0.73243000  0.75765000  1.0
  N  N69  1  0.64938000  0.26757000  0.25765000  1.0
  N  N70  1  0.73237000  0.64924000  0.50811000  1.0
  N  N71  1  0.26763000  0.35075000  0.00811000  1.0
  N  N72  1  0.08908000  0.74158000  0.78770000  1.0
  N  N73  1  0.91092000  0.25843000  0.28770000  1.0
  N  N74  1  0.74158000  0.91090000  0.53770000  1.0
  N  N75  1  0.25842000  0.08910000  0.03771000  1.0
  N  N76  1  0.89752000  0.68728000  0.88643000  1.0
  N  N77  1  0.10248000  0.31272000  0.38643000  1.0
  N  N78  1  0.68753000  0.10244000  0.63663000  1.0
  N  N79  1  0.31247000  0.89756000  0.13664000  1.0
  Cl  Cl80  1  0.74672000  0.27057000  0.91696000  1.0
  Cl  Cl81  1  0.25329000  0.72943000  0.41696000  1.0
  Cl  Cl82  1  0.27055000  0.25349000  0.66696000  1.0
  Cl  Cl83  1  0.72944000  0.74650000  0.16696000  1.0
  O  O84  1  0.73014000  0.39230000  0.99202000  1.0
  O  O85  1  0.26985000  0.60770000  0.49203000  1.0
  O  O86  1  0.39230000  0.26923000  0.74208000  1.0
  O  O87  1  0.60770000  0.73076000  0.24209000  1.0
  O  O88  1  0.63605000  0.15942000  0.93784000  1.0
  O  O89  1  0.36396000  0.84058000  0.43785000  1.0
  O  O90  1  0.15964000  0.36448000  0.68806000  1.0
  O  O91  1  0.84036000  0.63552000  0.18807000  1.0
  O  O92  1  0.89332000  0.20823000  0.92656000  1.0
  O  O93  1  0.10668000  0.79178000  0.42656000  1.0
  O  O94  1  0.20782000  0.10713000  0.67622000  1.0
  O  O95  1  0.79217000  0.89287000  0.17621000  1.0
  O  O96  1  0.72750000  0.33284000  0.81320000  1.0
  O  O97  1  0.27251000  0.66717000  0.31320000  1.0
  O  O98  1  0.33293000  0.27299000  0.56327000  1.0
  O  O99  1  0.66706000  0.72699000  0.06328000  1.0
