# generated using pymatgen
data_UH4C6NO5
_symmetry_space_group_name_H-M   'P 1'
_cell_length_a   6.18171000
_cell_length_b   7.94305000
_cell_length_c   8.33534000
_cell_angle_alpha   79.78270000
_cell_angle_beta   88.07020000
_cell_angle_gamma   76.63740000
_symmetry_Int_Tables_number   1
_chemical_formula_structural   UH4C6NO5
_chemical_formula_sum   'U2 H8 C12 N2 O10'
_cell_volume   391.87232174
_cell_formula_units_Z   2
loop_
 _symmetry_equiv_pos_site_id
 _symmetry_equiv_pos_as_xyz
  1  'x, y, z'
loop_
 _atom_site_type_symbol
 _atom_site_label
 _atom_site_symmetry_multiplicity
 _atom_site_fract_x
 _atom_site_fract_y
 _atom_site_fract_z
 _atom_site_occupancy
  U  U0  1  0.08291000  0.37317000  0.18757000  1.0
  U  U1  1  0.91710000  0.62683000  0.81243000  1.0
  H  H2  1  0.00783000  0.10146000  0.58425000  1.0
  H  H3  1  0.99217000  0.89854000  0.41575000  1.0
  H  H4  1  0.15889000  0.03575000  0.86754000  1.0
  H  H5  1  0.84111000  0.96425000  0.13246000  1.0
  H  H6  1  0.50618000  0.13599000  0.91916000  1.0
  H  H7  1  0.49381000  0.86401000  0.08084000  1.0
  H  H8  1  0.70942000  0.25963000  0.67704000  1.0
  H  H9  1  0.29057000  0.74037000  0.32297000  1.0
  C  C10  1  0.16524000  0.13088000  0.60953000  1.0
  C  C11  1  0.83476000  0.86912000  0.39047000  1.0
  C  C12  1  0.24945000  0.09722000  0.76862000  1.0
  C  C13  1  0.75055000  0.90278000  0.23138000  1.0
  C  C14  1  0.44297000  0.14903000  0.79623000  1.0
  C  C15  1  0.55702000  0.85097000  0.20378000  1.0
  C  C16  1  0.55598000  0.21872000  0.66267000  1.0
  C  C17  1  0.44402000  0.78129000  0.33734000  1.0
  C  C18  1  0.58807000  0.29238000  0.35443000  1.0
  C  C19  1  0.41193000  0.70762000  0.64557000  1.0
  C  C20  1  0.46734000  0.23779000  0.50686000  1.0
  C  C21  1  0.53266000  0.76222000  0.49314000  1.0
  N  N22  1  0.26967000  0.20207000  0.48067000  1.0
  N  N23  1  0.73034000  0.79793000  0.51933000  1.0
  O  O24  1  0.07233000  0.56256000  0.28732000  1.0
  O  O25  1  0.92769000  0.43744000  0.71267000  1.0
  O  O26  1  0.11096000  0.15827000  0.12662000  1.0
  O  O27  1  0.88904000  0.84172000  0.87337000  1.0
  O  O28  1  0.48171000  0.31967000  0.22123000  1.0
  O  O29  1  0.51830000  0.68032000  0.77877000  1.0
  O  O30  1  0.78983000  0.30046000  0.36743000  1.0
  O  O31  1  0.21017000  0.69954000  0.63256000  1.0
  O  O32  1  0.19561000  0.49282000  0.95857000  1.0
  O  O33  1  0.80439000  0.50718000  0.04142000  1.0
