# generated using pymatgen
data_CdH24C37N2O9
_symmetry_space_group_name_H-M   'P 1'
_cell_length_a   8.98413000
_cell_length_b   10.12860000
_cell_length_c   19.93370000
_cell_angle_alpha   86.94630000
_cell_angle_beta   89.54320000
_cell_angle_gamma   75.52200000
_symmetry_Int_Tables_number   1
_chemical_formula_structural   CdH24C37N2O9
_chemical_formula_sum   'Cd2 H48 C74 N4 O18'
_cell_volume   1753.77669172
_cell_formula_units_Z   2
loop_
 _symmetry_equiv_pos_site_id
 _symmetry_equiv_pos_as_xyz
  1  'x, y, z'
loop_
 _atom_site_type_symbol
 _atom_site_label
 _atom_site_symmetry_multiplicity
 _atom_site_fract_x
 _atom_site_fract_y
 _atom_site_fract_z
 _atom_site_occupancy
  Cd  Cd0  1  0.06805000  0.12154000  0.55737000  1.0
  Cd  Cd1  1  0.93195000  0.87846000  0.44263000  1.0
  H  H2  1  0.08122000  0.05773000  0.73295000  1.0
  H  H3  1  0.91879000  0.94226000  0.26705000  1.0
  H  H4  1  0.70456000  0.59904000  0.46530000  1.0
  H  H5  1  0.29543000  0.40096000  0.53470000  1.0
  H  H6  1  0.91412000  0.38648000  0.46625000  1.0
  H  H7  1  0.08587000  0.61352000  0.53374000  1.0
  H  H8  1  0.12205000  0.36860000  0.35374000  1.0
  H  H9  1  0.87795000  0.63139000  0.64627000  1.0
  H  H10  1  0.58760000  0.46952000  0.66569000  1.0
  H  H11  1  0.41238000  0.53047000  0.33431000  1.0
  H  H12  1  0.94257000  0.72646000  0.21661000  1.0
  H  H13  1  0.05743000  0.27354000  0.78339000  1.0
  H  H14  1  0.51201000  0.74237000  0.31582000  1.0
  H  H15  1  0.48798000  0.25764000  0.68418000  1.0
  H  H16  1  0.58171000  0.78342000  0.48169000  1.0
  H  H17  1  0.41830000  0.21658000  0.51831000  1.0
  H  H18  1  0.10235000  0.39516000  0.09768000  1.0
  H  H19  1  0.89765000  0.60484000  0.90232000  1.0
  H  H20  1  0.36625000  0.98792000  0.48475000  1.0
  H  H21  1  0.63376000  0.01208000  0.51526000  1.0
  H  H22  1  0.17536000  0.83410000  0.65188000  1.0
  H  H23  1  0.82464000  0.16590000  0.34812000  1.0
  H  H24  1  0.83845000  0.86615000  0.02675000  1.0
  H  H25  1  0.16154000  0.13386000  0.97324000  1.0
  H  H26  1  0.21482000  0.42911000  0.24086000  1.0
  H  H27  1  0.78517000  0.57090000  0.75915000  1.0
  H  H28  1  0.84108000  0.65011000  0.11334000  1.0
  H  H29  1  0.15892000  0.34989000  0.88665000  1.0
  H  H30  1  0.30081000  0.73374000  0.04299000  1.0
  H  H31  1  0.69918000  0.26627000  0.95701000  1.0
  H  H32  1  0.57011000  0.37751000  0.15376000  1.0
  H  H33  1  0.42990000  0.62249000  0.84624000  1.0
  H  H34  1  0.27087000  0.94264000  0.31568000  1.0
  H  H35  1  0.72913000  0.05736000  0.68432000  1.0
  H  H36  1  0.22493000  0.60382000  0.93174000  1.0
  H  H37  1  0.77507000  0.39617000  0.06827000  1.0
  H  H38  1  0.80364000  0.26241000  0.65690000  1.0
  H  H39  1  0.19636000  0.73758000  0.34310000  1.0
  H  H40  1  0.37373000  0.00079000  0.20415000  1.0
  H  H41  1  0.62627000  0.99922000  0.79585000  1.0
  H  H42  1  0.37911000  0.61736000  0.65462000  1.0
  H  H43  1  0.62088000  0.38263000  0.34538000  1.0
  H  H44  1  0.19351000  0.77158000  0.83253000  1.0
  H  H45  1  0.80650000  0.22841000  0.16747000  1.0
  H  H46  1  0.80694000  0.03249000  0.92618000  1.0
  H  H47  1  0.19306000  0.96751000  0.07381000  1.0
  H  H48  1  0.40519000  0.67505000  0.21068000  1.0
  H  H49  1  0.59481000  0.32496000  0.78932000  1.0
  C  C50  1  0.13512000  0.11444000  0.40893000  1.0
  C  C51  1  0.86488000  0.88555000  0.59107000  1.0
  C  C52  1  0.73324000  0.73790000  0.27304000  1.0
  C  C53  1  0.26676000  0.26211000  0.72696000  1.0
  C  C54  1  0.62460000  0.55337000  0.56579000  1.0
  C  C55  1  0.37539000  0.44662000  0.43420000  1.0
  C  C56  1  0.71934000  0.52802000  0.50921000  1.0
  C  C57  1  0.28066000  0.47197000  0.49079000  1.0
  C  C58  1  0.83726000  0.40958000  0.50900000  1.0
  C  C59  1  0.16274000  0.59042000  0.49100000  1.0
  C  C60  1  0.17589000  0.28854000  0.32048000  1.0
  C  C61  1  0.82411000  0.71146000  0.67953000  1.0
  C  C62  1  0.50010000  0.67964000  0.56798000  1.0
  C  C63  1  0.49990000  0.32035000  0.43202000  1.0
  C  C64  1  0.65474000  0.45536000  0.61977000  1.0
  C  C65  1  0.34526000  0.54464000  0.38023000  1.0
  C  C66  1  0.44590000  0.56174000  0.09797000  1.0
  C  C67  1  0.55410000  0.43826000  0.90202000  1.0
  C  C68  1  0.82591000  0.71288000  0.21573000  1.0
  C  C69  1  0.17409000  0.28713000  0.78427000  1.0
  C  C70  1  0.58328000  0.72082000  0.27123000  1.0
  C  C71  1  0.41672000  0.27919000  0.72876000  1.0
  C  C72  1  0.19042000  0.15182000  0.34177000  1.0
  C  C73  1  0.80958000  0.84818000  0.65824000  1.0
  C  C74  1  0.49436000  0.78781000  0.52026000  1.0
  C  C75  1  0.50564000  0.21219000  0.47975000  1.0
  C  C76  1  0.19887000  0.44198000  0.09780000  1.0
  C  C77  1  0.80113000  0.55802000  0.90220000  1.0
  C  C78  1  0.37392000  0.90374000  0.52186000  1.0
  C  C79  1  0.62609000  0.09626000  0.47814000  1.0
  C  C80  1  0.26713000  0.81778000  0.61471000  1.0
  C  C81  1  0.73286000  0.18222000  0.38529000  1.0
  C  C82  1  0.91534000  0.84695000  0.98388000  1.0
  C  C83  1  0.08466000  0.15305000  0.01612000  1.0
  C  C84  1  0.22875000  0.32260000  0.25765000  1.0
  C  C85  1  0.77124000  0.67741000  0.74235000  1.0
  C  C86  1  0.76999000  0.67092000  0.15791000  1.0
  C  C87  1  0.23001000  0.32909000  0.84208000  1.0
  C  C88  1  0.31005000  0.63249000  0.06631000  1.0
  C  C89  1  0.68996000  0.36750000  0.93369000  1.0
  C  C90  1  0.46296000  0.43221000  0.12930000  1.0
  C  C91  1  0.53704000  0.56778000  0.87070000  1.0
  C  C92  1  0.61938000  0.65639000  0.15674000  1.0
  C  C93  1  0.38061000  0.34361000  0.84326000  1.0
  C  C94  1  0.79262000  0.78458000  0.33456000  1.0
  C  C95  1  0.20738000  0.21542000  0.66544000  1.0
  C  C96  1  0.03536000  0.72856000  0.98503000  1.0
  C  C97  1  0.96464000  0.27143000  0.01497000  1.0
  C  C98  1  0.26102000  0.04867000  0.29916000  1.0
  C  C99  1  0.73897000  0.95133000  0.70084000  1.0
  C  C100  1  0.18685000  0.57101000  0.06676000  1.0
  C  C101  1  0.81315000  0.42898000  0.93323000  1.0
  C  C102  1  0.13512000  0.69885000  0.93052000  1.0
  C  C103  1  0.86488000  0.30115000  0.06948000  1.0
  C  C104  1  0.77487000  0.33930000  0.61547000  1.0
  C  C105  1  0.22513000  0.66069000  0.38452000  1.0
  C  C106  1  0.31786000  0.08045000  0.23720000  1.0
  C  C107  1  0.68215000  0.91956000  0.76280000  1.0
  C  C108  1  0.38306000  0.69723000  0.61630000  1.0
  C  C109  1  0.61693000  0.30276000  0.38370000  1.0
  C  C110  1  0.33826000  0.37408000  0.12815000  1.0
  C  C111  1  0.66175000  0.62592000  0.87185000  1.0
  C  C112  1  0.11685000  0.79177000  0.87541000  1.0
  C  C113  1  0.88315000  0.20823000  0.12459000  1.0
  C  C114  1  0.89825000  0.93852000  0.92827000  1.0
  C  C115  1  0.10175000  0.06149000  0.07173000  1.0
  C  C116  1  0.52428000  0.68177000  0.21314000  1.0
  C  C117  1  0.47572000  0.31824000  0.78685000  1.0
  C  C118  1  0.30032000  0.21771000  0.21635000  1.0
  C  C119  1  0.69969000  0.78230000  0.78365000  1.0
  C  C120  1  0.99977000  0.91321000  0.87403000  1.0
  C  C121  1  0.00023000  0.08678000  0.12597000  1.0
  C  C122  1  0.98413000  0.01782000  0.81727000  1.0
  C  C123  1  0.01588000  0.98218000  0.18273000  1.0
  N  N124  1  0.86492000  0.31651000  0.56094000  1.0
  N  N125  1  0.13507000  0.68349000  0.43906000  1.0
  N  N126  1  0.26137000  0.91933000  0.56774000  1.0
  N  N127  1  0.73864000  0.08067000  0.43226000  1.0
  O  O128  1  0.73616000  0.76616000  0.39162000  1.0
  O  O129  1  0.26384000  0.23384000  0.60837000  1.0
  O  O130  1  0.11320000  0.20441000  0.45326000  1.0
  O  O131  1  0.88680000  0.79559000  0.54674000  1.0
  O  O132  1  0.04456000  0.63774000  0.04018000  1.0
  O  O133  1  0.95544000  0.36226000  0.95983000  1.0
  O  O134  1  0.11786000  0.99419000  0.41983000  1.0
  O  O135  1  0.88215000  0.00580000  0.58017000  1.0
  O  O136  1  0.56967000  0.62127000  0.09627000  1.0
  O  O137  1  0.43033000  0.37873000  0.90372000  1.0
  O  O138  1  0.90449000  0.84395000  0.32756000  1.0
  O  O139  1  0.09550000  0.15605000  0.67244000  1.0
  O  O140  1  0.35919000  0.24050000  0.15410000  1.0
  O  O141  1  0.64081000  0.75951000  0.84590000  1.0
  O  O142  1  0.88758000  0.12875000  0.81612000  1.0
  O  O143  1  0.11244000  0.87125000  0.18388000  1.0
  O  O144  1  0.08757000  0.97979000  0.76889000  1.0
  O  O145  1  0.91244000  0.02020000  0.23111000  1.0
