# generated using pymatgen
data_ZnH17C19(NO3)2
_symmetry_space_group_name_H-M   'P 1'
_cell_length_a   8.48987000
_cell_length_b   10.23060000
_cell_length_c   11.00920000
_cell_angle_alpha   65.28060000
_cell_angle_beta   72.19640000
_cell_angle_gamma   80.22560000
_symmetry_Int_Tables_number   1
_chemical_formula_structural   ZnH17C19(NO3)2
_chemical_formula_sum   'Zn2 H34 C38 N4 O12'
_cell_volume   826.02992239
_cell_formula_units_Z   2
loop_
 _symmetry_equiv_pos_site_id
 _symmetry_equiv_pos_as_xyz
  1  'x, y, z'
loop_
 _atom_site_type_symbol
 _atom_site_label
 _atom_site_symmetry_multiplicity
 _atom_site_fract_x
 _atom_site_fract_y
 _atom_site_fract_z
 _atom_site_occupancy
  Zn  Zn0  1  0.66894000  0.48956000  0.54798000  1.0
  Zn  Zn1  1  0.33106000  0.51043000  0.45202000  1.0
  H  H2  1  0.34062000  0.88843000  0.23156000  1.0
  H  H3  1  0.65937000  0.11157000  0.76844000  1.0
  H  H4  1  0.50537000  0.77667000  0.39923000  1.0
  H  H5  1  0.49462000  0.22333000  0.60076000  1.0
  H  H6  1  0.14168000  0.39999000  0.99981000  1.0
  H  H7  1  0.85832000  0.60002000  0.00019000  1.0
  H  H8  1  0.79041000  0.01877000  0.90157000  1.0
  H  H9  1  0.20958000  0.98124000  0.09843000  1.0
  H  H10  1  0.95182000  0.89976000  0.07254000  1.0
  H  H11  1  0.04817000  0.10025000  0.92745000  1.0
  H  H12  1  0.07478000  0.34780000  0.22189000  1.0
  H  H13  1  0.92522000  0.65220000  0.77812000  1.0
  H  H14  1  0.22657000  0.32335000  0.31102000  1.0
  H  H15  1  0.77343000  0.67665000  0.68898000  1.0
  H  H16  1  0.93321000  0.20562000  0.12312000  1.0
  H  H17  1  0.06680000  0.79439000  0.87688000  1.0
  H  H18  1  0.86633000  0.33280000  0.89215000  1.0
  H  H19  1  0.13367000  0.66720000  0.10785000  1.0
  H  H20  1  0.83565000  0.06684000  0.36835000  1.0
  H  H21  1  0.16436000  0.93316000  0.63165000  1.0
  H  H22  1  0.69168000  0.18602000  0.43154000  1.0
  H  H23  1  0.30833000  0.81399000  0.56846000  1.0
  H  H24  1  0.62292000  0.02613000  0.44269000  1.0
  H  H25  1  0.37708000  0.97387000  0.55731000  1.0
  H  H26  1  0.06208000  0.10887000  0.42185000  1.0
  H  H27  1  0.93793000  0.89113000  0.57816000  1.0
  H  H28  1  0.11101000  0.08107000  0.26508000  1.0
  H  H29  1  0.88900000  0.91892000  0.73493000  1.0
  H  H30  1  0.26914000  0.06280000  0.34723000  1.0
  H  H31  1  0.73088000  0.93720000  0.65277000  1.0
  H  H32  1  0.87652000  0.36649000  0.41980000  1.0
  H  H33  1  0.12347000  0.63350000  0.58021000  1.0
  H  H34  1  0.91060000  0.27907000  0.57731000  1.0
  H  H35  1  0.08940000  0.72093000  0.42269000  1.0
  C  C36  1  0.60322000  0.33021000  0.98508000  1.0
  C  C37  1  0.39679000  0.66979000  0.01491000  1.0
  C  C38  1  0.38511000  0.42015000  0.86251000  1.0
  C  C39  1  0.61489000  0.57984000  0.13749000  1.0
  C  C40  1  0.48197000  0.28944000  0.11313000  1.0
  C  C41  1  0.51804000  0.71056000  0.88687000  1.0
  C  C42  1  0.74110000  0.82977000  0.24764000  1.0
  C  C43  1  0.25889000  0.17023000  0.75236000  1.0
  C  C44  1  0.54998000  0.96405000  0.05101000  1.0
  C  C45  1  0.45001000  0.03595000  0.94899000  1.0
  C  C46  1  0.55940000  0.39747000  0.85366000  1.0
  C  C47  1  0.44060000  0.60253000  0.14635000  1.0
  C  C48  1  0.47468000  0.89354000  0.19356000  1.0
  C  C49  1  0.52530000  0.10647000  0.80643000  1.0
  C  C50  1  0.31312000  0.48386000  0.74100000  1.0
  C  C51  1  0.68688000  0.51614000  0.25901000  1.0
  C  C52  1  0.67483000  0.19210000  0.23907000  1.0
  C  C53  1  0.32518000  0.80790000  0.76093000  1.0
  C  C54  1  0.56799000  0.82838000  0.28974000  1.0
  C  C55  1  0.43200000  0.17162000  0.71026000  1.0
  C  C56  1  0.27367000  0.38025000  0.99265000  1.0
  C  C57  1  0.72633000  0.61974000  0.00735000  1.0
  C  C58  1  0.84412000  0.76504000  0.34981000  1.0
  C  C59  1  0.15587000  0.23496000  0.65019000  1.0
  C  C60  1  0.72458000  0.96386000  0.00980000  1.0
  C  C61  1  0.27541000  0.03615000  0.99020000  1.0
  C  C62  1  0.81739000  0.89793000  0.10606000  1.0
  C  C63  1  0.18260000  0.10208000  0.89393000  1.0
  C  C64  1  0.18670000  0.28426000  0.24691000  1.0
  C  C65  1  0.81330000  0.71574000  0.75310000  1.0
  C  C66  1  0.80563000  0.23224000  0.11631000  1.0
  C  C67  1  0.19438000  0.76776000  0.88368000  1.0
  C  C68  1  0.76989000  0.30131000  0.98960000  1.0
  C  C69  1  0.23012000  0.69869000  0.01040000  1.0
  C  C70  1  0.70876000  0.11299000  0.37781000  1.0
  C  C71  1  0.29125000  0.88701000  0.62219000  1.0
  C  C72  1  0.15609000  0.12448000  0.32356000  1.0
  C  C73  1  0.84392000  0.87552000  0.67644000  1.0
  N  N74  1  0.31549000  0.31858000  0.11363000  1.0
  N  N75  1  0.68451000  0.68142000  0.88638000  1.0
  N  N76  1  0.51609000  0.22286000  0.23651000  1.0
  N  N77  1  0.48392000  0.77714000  0.76349000  1.0
  O  O78  1  0.41416000  0.50410000  0.61876000  1.0
  O  O79  1  0.58584000  0.49590000  0.38124000  1.0
  O  O80  1  0.78223000  0.67072000  0.47108000  1.0
  O  O81  1  0.21776000  0.32928000  0.52892000  1.0
  O  O82  1  0.67763000  0.43164000  0.74366000  1.0
  O  O83  1  0.32237000  0.56837000  0.25634000  1.0
  O  O84  1  0.16066000  0.51391000  0.75784000  1.0
  O  O85  1  0.83935000  0.48609000  0.24217000  1.0
  O  O86  1  0.82489000  0.32501000  0.52048000  1.0
  O  O87  1  0.17510000  0.67499000  0.47952000  1.0
  O  O88  1  0.98802000  0.80979000  0.31415000  1.0
  O  O89  1  0.01197000  0.19020000  0.68585000  1.0
