# generated using pymatgen
data_Zn3P2H16(C10O7)2
_symmetry_space_group_name_H-M   'P 1'
_cell_length_a   8.92260000
_cell_length_b   11.34800000
_cell_length_c   14.24020715
_cell_angle_alpha   66.52419559
_cell_angle_beta   71.99055242
_cell_angle_gamma   89.98550000
_symmetry_Int_Tables_number   1
_chemical_formula_structural   Zn3P2H16(C10O7)2
_chemical_formula_sum   'Zn6 P4 H32 C40 O28'
_cell_volume   1245.18227165
_cell_formula_units_Z   2
loop_
 _symmetry_equiv_pos_site_id
 _symmetry_equiv_pos_as_xyz
  1  'x, y, z'
loop_
 _atom_site_type_symbol
 _atom_site_label
 _atom_site_symmetry_multiplicity
 _atom_site_fract_x
 _atom_site_fract_y
 _atom_site_fract_z
 _atom_site_occupancy
  Zn  Zn0  1  0.91612000  0.09010000  0.10476000  1.0
  Zn  Zn1  1  0.58382000  0.19483000  0.89521000  1.0
  Zn  Zn2  1  0.08388000  0.90990000  0.89524000  1.0
  Zn  Zn3  1  0.41618000  0.80517000  0.10479000  1.0
  Zn  Zn4  1  0.75005000  0.31355000  0.99997000  1.0
  Zn  Zn5  1  0.24995000  0.68645000  0.00003000  1.0
  P  P6  1  0.05265000  0.80868000  0.15232000  1.0
  P  P7  1  0.44730000  0.96090000  0.84782000  1.0
  P  P8  1  0.94735000  0.19132000  0.84768000  1.0
  P  P9  1  0.55270000  0.03910000  0.15218000  1.0
  H  H10  1  0.83497000  0.55071000  0.14537000  1.0
  H  H11  1  0.66465000  0.69580000  0.85490000  1.0
  H  H12  1  0.16503000  0.44929000  0.85463000  1.0
  H  H13  1  0.33535000  0.30419000  0.14511000  1.0
  H  H14  1  0.99884000  0.53309000  0.40486000  1.0
  H  H15  1  0.50132000  0.93797000  0.59521000  1.0
  H  H16  1  0.00116000  0.46691000  0.59514000  1.0
  H  H17  1  0.49868000  0.06203000  0.40479000  1.0
  H  H18  1  0.02566000  0.21353000  0.31228000  1.0
  H  H19  1  0.47415000  0.52586000  0.68773000  1.0
  H  H20  1  0.97434000  0.78648000  0.68771000  1.0
  H  H21  1  0.52585000  0.47414000  0.31227000  1.0
  H  H22  1  0.85092000  0.70972000  0.32801000  1.0
  H  H23  1  0.64910000  0.03753000  0.67216000  1.0
  H  H24  1  0.14908000  0.29029000  0.67199000  1.0
  H  H25  1  0.35090000  0.96246000  0.32784000  1.0
  H  H26  1  0.77811000  0.71736000  0.22189000  1.0
  H  H27  1  0.72189000  0.93902000  0.77828000  1.0
  H  H28  1  0.22189000  0.28265000  0.77811000  1.0
  H  H29  1  0.27811000  0.06098000  0.22172000  1.0
  H  H30  1  0.12759000  0.98943000  0.56811000  1.0
  H  H31  1  0.37257000  0.55788000  0.43167000  1.0
  H  H32  1  0.87240000  0.01057000  0.43189000  1.0
  H  H33  1  0.62743000  0.44212000  0.56833000  1.0
  H  H34  1  0.03554000  0.07703000  0.64762000  1.0
  H  H35  1  0.46465000  0.72496000  0.35230000  1.0
  H  H36  1  0.96446000  0.92297000  0.35238000  1.0
  H  H37  1  0.53535000  0.27504000  0.64770000  1.0
  H  H38  1  0.24038000  0.12449000  0.56274000  1.0
  H  H39  1  0.25976000  0.68760000  0.43706000  1.0
  H  H40  1  0.75962000  0.87551000  0.43726000  1.0
  H  H41  1  0.74024000  0.31239000  0.56294000  1.0
  C  C42  1  0.90695000  0.31609000  0.15120000  1.0
  C  C43  1  0.59273000  0.46718000  0.84892000  1.0
  C  C44  1  0.09305000  0.68391000  0.84880000  1.0
  C  C45  1  0.40727000  0.53282000  0.15108000  1.0
  C  C46  1  0.93109000  0.37761000  0.22098000  1.0
  C  C47  1  0.56862000  0.59848000  0.77915000  1.0
  C  C48  1  0.06891000  0.62240000  0.77901000  1.0
  C  C49  1  0.43137000  0.40152000  0.22085000  1.0
  C  C50  1  0.88783000  0.50053000  0.20763000  1.0
  C  C51  1  0.61192000  0.70799000  0.79255000  1.0
  C  C52  1  0.11217000  0.49947000  0.79237000  1.0
  C  C53  1  0.38808000  0.29201000  0.20745000  1.0
  C  C54  1  0.91316000  0.55835000  0.27280000  1.0
  C  C55  1  0.58678000  0.83102000  0.72734000  1.0
  C  C56  1  0.08684000  0.44165000  0.72720000  1.0
  C  C57  1  0.41322000  0.16898000  0.27266000  1.0
  C  C58  1  0.97944000  0.48981000  0.35297000  1.0
  C  C59  1  0.52062000  0.84277000  0.64710000  1.0
  C  C60  1  0.02056000  0.51019000  0.64703000  1.0
  C  C61  1  0.47938000  0.15723000  0.35290000  1.0
  C  C62  1  0.01674000  0.36466000  0.36930000  1.0
  C  C63  1  0.48324000  0.73400000  0.63073000  1.0
  C  C64  1  0.98326000  0.63534000  0.63070000  1.0
  C  C65  1  0.51676000  0.26600000  0.36927000  1.0
  C  C66  1  0.99454000  0.30934000  0.30202000  1.0
  C  C67  1  0.50531000  0.61136000  0.69803000  1.0
  C  C68  1  0.00546000  0.69066000  0.69798000  1.0
  C  C69  1  0.49468000  0.38864000  0.30197000  1.0
  C  C70  1  0.87782000  0.69478000  0.25321000  1.0
  C  C71  1  0.62218000  0.94782000  0.74695000  1.0
  C  C72  1  0.12218000  0.30523000  0.74679000  1.0
  C  C73  1  0.37782000  0.05218000  0.25305000  1.0
  C  C74  1  0.07757000  0.29186000  0.45956000  1.0
  C  C75  1  0.42239000  0.75154000  0.54046000  1.0
  C  C76  1  0.92243000  0.70813000  0.54045000  1.0
  C  C77  1  0.57761000  0.24846000  0.45954000  1.0
  C  C78  1  0.12296000  0.08416000  0.57113000  1.0
  C  C79  1  0.37716000  0.65559000  0.42875000  1.0
  C  C80  1  0.87704000  0.91583000  0.42887000  1.0
  C  C81  1  0.62284000  0.34441000  0.57125000  1.0
  O  O82  1  0.07562000  0.78726000  0.04567000  1.0
  O  O83  1  0.42424000  0.83282000  0.95444000  1.0
  O  O84  1  0.92438000  0.21274000  0.95433000  1.0
  O  O85  1  0.57576000  0.16718000  0.04556000  1.0
  O  O86  1  0.03449000  0.94994000  0.12961000  1.0
  O  O87  1  0.46532000  0.07934000  0.87067000  1.0
  O  O88  1  0.96551000  0.05006000  0.87039000  1.0
  O  O89  1  0.53468000  0.92065000  0.12933000  1.0
  O  O90  1  0.19188000  0.76720000  0.19333000  1.0
  O  O91  1  0.30817000  0.96052000  0.80672000  1.0
  O  O92  1  0.80812000  0.23280000  0.80667000  1.0
  O  O93  1  0.69183000  0.03948000  0.19328000  1.0
  O  O94  1  0.81498000  0.36597000  0.09653000  1.0
  O  O95  1  0.68482000  0.46240000  0.90351000  1.0
  O  O96  1  0.18502000  0.63403000  0.90347000  1.0
  O  O97  1  0.31518000  0.53760000  0.09649000  1.0
  O  O98  1  0.97870000  0.21874000  0.15170000  1.0
  O  O99  1  0.52094000  0.37035000  0.84847000  1.0
  O  O100  1  0.02130000  0.78126000  0.84830000  1.0
  O  O101  1  0.47906000  0.62966000  0.15152000  1.0
  O  O102  1  0.07414000  0.16454000  0.48050000  1.0
  O  O103  1  0.42583000  0.64520000  0.51945000  1.0
  O  O104  1  0.92586000  0.83546000  0.51950000  1.0
  O  O105  1  0.57417000  0.35480000  0.48055000  1.0
  O  O106  1  0.12326000  0.34032000  0.51093000  1.0
  O  O107  1  0.37667000  0.85137000  0.48914000  1.0
  O  O108  1  0.87674000  0.65968000  0.48907000  1.0
  O  O109  1  0.62333000  0.14863000  0.51086000  1.0
