# generated using pymatgen
data_ZnH9C21I3N(ClO2)2
_symmetry_space_group_name_H-M   'P 1'
_cell_length_a   11.42310000
_cell_length_b   18.33400000
_cell_length_c   19.57660000
_cell_angle_alpha   85.52520000
_cell_angle_beta   83.85160000
_cell_angle_gamma   75.54200000
_symmetry_Int_Tables_number   1
_chemical_formula_structural   ZnH9C21I3N(ClO2)2
_chemical_formula_sum   'Zn2 H18 C42 I6 N2 Cl4 O8'
_cell_volume   3941.66762595
_cell_formula_units_Z   2
loop_
 _symmetry_equiv_pos_site_id
 _symmetry_equiv_pos_as_xyz
  1  'x, y, z'
loop_
 _atom_site_type_symbol
 _atom_site_label
 _atom_site_symmetry_multiplicity
 _atom_site_fract_x
 _atom_site_fract_y
 _atom_site_fract_z
 _atom_site_occupancy
  Zn  Zn0  1  0.52604000  0.41910000  0.50659000  1.0
  Zn  Zn1  1  0.47396000  0.58090000  0.49341000  1.0
  H  H2  1  0.65616000  0.12723000  0.57497000  1.0
  H  H3  1  0.46032000  0.37714000  0.29345000  1.0
  H  H4  1  0.54341000  0.62043000  0.83389000  1.0
  H  H5  1  0.45654000  0.37960000  0.16610000  1.0
  H  H6  1  0.50496000  0.39174000  0.84952000  1.0
  H  H7  1  0.49504000  0.60827000  0.15050000  1.0
  H  H8  1  0.50747000  0.39379000  0.72151000  1.0
  H  H9  1  0.49255000  0.60620000  0.27850000  1.0
  H  H10  1  0.34632000  0.46975000  0.93460000  1.0
  H  H11  1  0.65365000  0.53028000  0.06541000  1.0
  H  H12  1  0.34387000  0.87277000  0.42502000  1.0
  H  H13  1  0.38157000  0.33735000  0.45695000  1.0
  H  H14  1  0.61840000  0.66263000  0.54306000  1.0
  H  H15  1  0.60253000  0.06645000  0.40570000  1.0
  H  H16  1  0.39750000  0.93354000  0.59429000  1.0
  H  H17  1  0.91123000  0.45489000  0.41628000  1.0
  H  H18  1  0.08876000  0.54512000  0.58371000  1.0
  H  H19  1  0.53967000  0.62286000  0.70654000  1.0
  C  C20  1  0.48271000  0.49037000  0.36965000  1.0
  C  C21  1  0.51434000  0.50427000  0.92639000  1.0
  C  C22  1  0.60172000  0.24697000  0.54953000  1.0
  C  C23  1  0.39830000  0.75303000  0.45046000  1.0
  C  C24  1  0.59424000  0.17222000  0.54775000  1.0
  C  C25  1  0.40578000  0.82778000  0.45224000  1.0
  C  C26  1  0.50723000  0.15540000  0.51060000  1.0
  C  C27  1  0.49278000  0.84458000  0.48940000  1.0
  C  C28  1  0.42821000  0.21584000  0.47753000  1.0
  C  C29  1  0.57181000  0.78415000  0.52248000  1.0
  C  C30  1  0.44102000  0.28885000  0.48171000  1.0
  C  C31  1  0.51731000  0.50963000  0.63035000  1.0
  C  C32  1  0.55897000  0.71114000  0.51829000  1.0
  C  C33  1  0.55767000  0.03744000  0.44727000  1.0
  C  C34  1  0.44234000  0.96255000  0.55272000  1.0
  C  C35  1  0.26616000  0.51511000  0.52406000  1.0
  C  C36  1  0.73384000  0.48490000  0.47594000  1.0
  C  C37  1  0.55521000  0.96258000  0.44132000  1.0
  C  C38  1  0.44480000  0.03743000  0.55868000  1.0
  C  C39  1  0.49732000  0.92423000  0.49409000  1.0
  C  C40  1  0.50268000  0.07576000  0.50592000  1.0
  C  C41  1  0.13343000  0.51981000  0.53597000  1.0
  C  C42  1  0.52284000  0.50849000  0.70650000  1.0
  C  C43  1  0.86657000  0.48018000  0.46403000  1.0
  C  C44  1  0.06480000  0.49778000  0.49383000  1.0
  C  C45  1  0.93521000  0.50219000  0.50619000  1.0
  C  C46  1  0.53370000  0.57212000  0.73831000  1.0
  C  C47  1  0.46628000  0.42788000  0.26169000  1.0
  C  C48  1  0.53548000  0.57067000  0.80944000  1.0
  C  C49  1  0.46449000  0.42935000  0.19056000  1.0
  C  C50  1  0.52336000  0.50603000  0.85032000  1.0
  C  C51  1  0.47661000  0.49399000  0.14969000  1.0
  C  C52  1  0.51309000  0.44237000  0.81806000  1.0
  C  C53  1  0.47717000  0.49151000  0.29351000  1.0
  C  C54  1  0.48689000  0.55764000  0.18195000  1.0
  C  C55  1  0.51426000  0.44320000  0.74691000  1.0
  C  C56  1  0.48574000  0.55680000  0.25310000  1.0
  C  C57  1  0.41522000  0.48219000  0.96313000  1.0
  C  C58  1  0.58475000  0.51784000  0.03687000  1.0
  C  C59  1  0.40069000  0.47793000  0.03478000  1.0
  C  C60  1  0.59929000  0.52210000  0.96522000  1.0
  C  C61  1  0.48564000  0.49577000  0.07362000  1.0
  I  I62  1  0.84971000  0.54302000  0.60309000  1.0
  I  I63  1  0.15033000  0.45690000  0.39694000  1.0
  I  I64  1  0.28937000  0.20011000  0.42258000  1.0
  I  I65  1  0.71066000  0.79986000  0.57741000  1.0
  I  I66  1  0.73406000  0.26965000  0.60543000  1.0
  I  I67  1  0.26596000  0.73036000  0.39455000  1.0
  N  N68  1  0.52721000  0.30396000  0.51662000  1.0
  N  N69  1  0.47279000  0.69603000  0.48336000  1.0
  Cl  Cl70  1  0.62607000  0.91695000  0.36853000  1.0
  Cl  Cl71  1  0.37397000  0.08303000  0.63146000  1.0
  Cl  Cl72  1  0.27139000  0.45369000  0.07441000  1.0
  Cl  Cl73  1  0.72856000  0.54635000  0.92559000  1.0
  O  O74  1  0.50148000  0.42658000  0.40290000  1.0
  O  O75  1  0.49851000  0.57342000  0.59710000  1.0
  O  O76  1  0.46974000  0.55407000  0.39520000  1.0
  O  O77  1  0.53032000  0.44592000  0.60479000  1.0
  O  O78  1  0.33650000  0.44962000  0.52299000  1.0
  O  O79  1  0.66352000  0.55038000  0.47705000  1.0
  O  O80  1  0.29621000  0.57775000  0.51825000  1.0
  O  O81  1  0.70377000  0.42226000  0.48172000  1.0
