# generated using pymatgen
data_NdH3CSO7
_symmetry_space_group_name_H-M   'P 1'
_cell_length_a   6.96244000
_cell_length_b   6.96280000
_cell_length_c   11.61430000
_cell_angle_alpha   90.00000000
_cell_angle_beta   90.00000000
_cell_angle_gamma   89.99750000
_symmetry_Int_Tables_number   1
_chemical_formula_structural   NdH3CSO7
_chemical_formula_sum   'Nd4 H12 C4 S4 O28'
_cell_volume   563.03893186
_cell_formula_units_Z   4
loop_
 _symmetry_equiv_pos_site_id
 _symmetry_equiv_pos_as_xyz
  1  'x, y, z'
loop_
 _atom_site_type_symbol
 _atom_site_label
 _atom_site_symmetry_multiplicity
 _atom_site_fract_x
 _atom_site_fract_y
 _atom_site_fract_z
 _atom_site_occupancy
  Nd  Nd0  1  0.88707000  0.63876000  0.99533000  1.0
  Nd  Nd1  1  0.11294000  0.36124000  0.49533000  1.0
  Nd  Nd2  1  0.36127000  0.88708000  0.74535000  1.0
  Nd  Nd3  1  0.63873000  0.11293000  0.24535000  1.0
  H  H4  1  0.98054000  0.15474000  0.94870000  1.0
  H  H5  1  0.01945000  0.84526000  0.44871000  1.0
  H  H6  1  0.84536000  0.98050000  0.69863000  1.0
  H  H7  1  0.15464000  0.01950000  0.19863000  1.0
  H  H8  1  0.61778000  0.46796000  0.81803000  1.0
  H  H9  1  0.38222000  0.53205000  0.31803000  1.0
  H  H10  1  0.53209000  0.61766000  0.56805000  1.0
  H  H11  1  0.46791000  0.38234000  0.06805000  1.0
  H  H12  1  0.81794000  0.40590000  0.76771000  1.0
  H  H13  1  0.18207000  0.59409000  0.26771000  1.0
  H  H14  1  0.59405000  0.81783000  0.51773000  1.0
  H  H15  1  0.40594000  0.18218000  0.01774000  1.0
  C  C16  1  0.89735000  0.14753000  0.02914000  1.0
  C  C17  1  0.10264000  0.85247000  0.52915000  1.0
  C  C18  1  0.85256000  0.89741000  0.77910000  1.0
  C  C19  1  0.14743000  0.10259000  0.27910000  1.0
  S  S20  1  0.38452000  0.75178000  0.05688000  1.0
  S  S21  1  0.61549000  0.24821000  0.55688000  1.0
  S  S22  1  0.24841000  0.38446000  0.80680000  1.0
  S  S23  1  0.75160000  0.61554000  0.30679000  1.0
  O  O24  1  0.84780000  0.98365000  0.06892000  1.0
  O  O25  1  0.15220000  0.01635000  0.56893000  1.0
  O  O26  1  0.01652000  0.84791000  0.81886000  1.0
  O  O27  1  0.98348000  0.15210000  0.31886000  1.0
  O  O28  1  0.34152000  0.87033000  0.95442000  1.0
  O  O29  1  0.65848000  0.12967000  0.45442000  1.0
  O  O30  1  0.12992000  0.34132000  0.70431000  1.0
  O  O31  1  0.87008000  0.65867000  0.20431000  1.0
  O  O32  1  0.45642000  0.87370000  0.15102000  1.0
  O  O33  1  0.54358000  0.12630000  0.65103000  1.0
  O  O34  1  0.12633000  0.45625000  0.90090000  1.0
  O  O35  1  0.87367000  0.54375000  0.40090000  1.0
  O  O36  1  0.20664000  0.65540000  0.09674000  1.0
  O  O37  1  0.79336000  0.34460000  0.59674000  1.0
  O  O38  1  0.34504000  0.20671000  0.84663000  1.0
  O  O39  1  0.65497000  0.79329000  0.34662000  1.0
  O  O40  1  0.53566000  0.60595000  0.02750000  1.0
  O  O41  1  0.46435000  0.39405000  0.52750000  1.0
  O  O42  1  0.39414000  0.53574000  0.77746000  1.0
  O  O43  1  0.60586000  0.46426000  0.27746000  1.0
  O  O44  1  0.85520000  0.30158000  0.08161000  1.0
  O  O45  1  0.14479000  0.69841000  0.58161000  1.0
  O  O46  1  0.69859000  0.85533000  0.83164000  1.0
  O  O47  1  0.30141000  0.14468000  0.33164000  1.0
  O  O48  1  0.75294000  0.44079000  0.83976000  1.0
  O  O49  1  0.24706000  0.55921000  0.33977000  1.0
  O  O50  1  0.55934000  0.75280000  0.58980000  1.0
  O  O51  1  0.44066000  0.24720000  0.08980000  1.0
