# generated using pymatgen
data_Cd2H13C18N3O7
_symmetry_space_group_name_H-M   'P 1'
_cell_length_a   9.15554000
_cell_length_b   10.16080000
_cell_length_c   11.37370000
_cell_angle_alpha   106.85000000
_cell_angle_beta   99.05710000
_cell_angle_gamma   106.11400000
_symmetry_Int_Tables_number   1
_chemical_formula_structural   Cd2H13C18N3O7
_chemical_formula_sum   'Cd4 H26 C36 N6 O14'
_cell_volume   939.73684434
_cell_formula_units_Z   2
loop_
 _symmetry_equiv_pos_site_id
 _symmetry_equiv_pos_as_xyz
  1  'x, y, z'
loop_
 _atom_site_type_symbol
 _atom_site_label
 _atom_site_symmetry_multiplicity
 _atom_site_fract_x
 _atom_site_fract_y
 _atom_site_fract_z
 _atom_site_occupancy
  Cd  Cd0  1  0.31489000  0.31711000  0.19846000  1.0
  Cd  Cd1  1  0.68510000  0.68289000  0.80154000  1.0
  Cd  Cd2  1  0.41638000  0.64453000  0.51555000  1.0
  Cd  Cd3  1  0.58362000  0.35547000  0.48445000  1.0
  H  H4  1  0.03884000  0.62050000  0.45610000  1.0
  H  H5  1  0.96116000  0.37950000  0.54390000  1.0
  H  H6  1  0.86370000  0.74146000  0.37203000  1.0
  H  H7  1  0.13631000  0.25855000  0.62797000  1.0
  H  H8  1  0.98329000  0.94459000  0.29266000  1.0
  H  H9  1  0.01672000  0.05541000  0.70734000  1.0
  H  H10  1  0.43062000  0.89625000  0.40271000  1.0
  H  H11  1  0.56938000  0.10373000  0.59729000  1.0
  H  H12  1  0.08536000  0.29239000  0.94312000  1.0
  H  H13  1  0.91464000  0.70762000  0.05687000  1.0
  H  H14  1  0.82995000  0.32441000  0.86384000  1.0
  H  H15  1  0.17005000  0.67559000  0.13616000  1.0
  H  H16  1  0.66381000  0.37132000  0.01462000  1.0
  H  H17  1  0.33619000  0.62869000  0.98538000  1.0
  H  H18  1  0.02260000  0.36912000  0.30708000  1.0
  H  H19  1  0.97740000  0.63087000  0.69291000  1.0
  H  H20  1  0.20549000  0.99020000  0.98410000  1.0
  H  H21  1  0.79450000  0.00980000  0.01590000  1.0
  H  H22  1  0.22923000  0.86976000  0.76309000  1.0
  H  H23  1  0.77077000  0.13025000  0.23692000  1.0
  H  H24  1  0.34894000  0.02761000  0.64733000  1.0
  H  H25  1  0.65106000  0.97239000  0.35267000  1.0
  H  H26  1  0.41639000  0.40262000  0.97619000  1.0
  H  H27  1  0.58362000  0.59738000  0.02381000  1.0
  H  H28  1  0.27489000  0.34411000  0.44018000  1.0
  H  H29  1  0.72511000  0.65589000  0.55982000  1.0
  C  C30  1  0.08581000  0.71003000  0.42291000  1.0
  C  C31  1  0.91419000  0.28996000  0.57709000  1.0
  C  C32  1  0.98877000  0.77741000  0.37545000  1.0
  C  C33  1  0.01123000  0.22258000  0.62455000  1.0
  C  C34  1  0.05437000  0.89014000  0.33258000  1.0
  C  C35  1  0.94563000  0.10986000  0.66742000  1.0
  C  C36  1  0.21588000  0.93492000  0.34143000  1.0
  C  C37  1  0.78412000  0.06508000  0.65857000  1.0
  C  C38  1  0.30436000  0.86327000  0.39265000  1.0
  C  C39  1  0.69564000  0.13672000  0.60736000  1.0
  C  C40  1  0.29459000  0.05718000  0.29805000  1.0
  C  C41  1  0.70542000  0.94282000  0.70196000  1.0
  C  C42  1  0.01069000  0.31649000  0.00614000  1.0
  C  C43  1  0.98930000  0.68350000  0.99385000  1.0
  C  C44  1  0.86830000  0.33222000  0.96187000  1.0
  C  C45  1  0.13170000  0.66778000  0.03813000  1.0
  C  C46  1  0.77623000  0.35932000  0.04584000  1.0
  C  C47  1  0.22377000  0.64068000  0.95416000  1.0
  C  C48  1  0.82878000  0.37089000  0.17186000  1.0
  C  C49  1  0.17123000  0.62911000  0.82814000  1.0
  C  C50  1  0.97567000  0.35833000  0.20912000  1.0
  C  C51  1  0.02433000  0.64167000  0.79087000  1.0
  C  C52  1  0.72341000  0.38679000  0.26077000  1.0
  C  C53  1  0.27660000  0.61322000  0.73923000  1.0
  C  C54  1  0.25731000  0.05376000  0.92910000  1.0
  C  C55  1  0.74269000  0.94624000  0.07090000  1.0
  C  C56  1  0.27070000  0.98821000  0.80730000  1.0
  C  C57  1  0.72930000  0.01180000  0.19270000  1.0
  C  C58  1  0.33825000  0.07642000  0.74285000  1.0
  C  C59  1  0.66175000  0.92358000  0.25714000  1.0
  C  C60  1  0.39557000  0.22856000  0.80314000  1.0
  C  C61  1  0.60443000  0.77144000  0.19686000  1.0
  C  C62  1  0.37666000  0.28504000  0.92497000  1.0
  C  C63  1  0.62334000  0.71497000  0.07503000  1.0
  C  C64  1  0.48155000  0.32864000  0.74158000  1.0
  C  C65  1  0.51845000  0.67136000  0.25842000  1.0
  N  N66  1  0.24128000  0.75168000  0.43059000  1.0
  N  N67  1  0.75871000  0.24832000  0.56942000  1.0
  N  N68  1  0.06429000  0.33066000  0.12785000  1.0
  N  N69  1  0.93571000  0.66934000  0.87215000  1.0
  N  N70  1  0.30820000  0.20019000  0.98612000  1.0
  N  N71  1  0.69181000  0.79982000  0.01388000  1.0
  O  O72  1  0.44319000  0.11619000  0.33960000  1.0
  O  O73  1  0.55682000  0.88381000  0.66040000  1.0
  O  O74  1  0.20456000  0.09058000  0.22319000  1.0
  O  O75  1  0.79544000  0.90942000  0.77681000  1.0
  O  O76  1  0.77918000  0.40134000  0.37578000  1.0
  O  O77  1  0.22082000  0.59865000  0.62421000  1.0
  O  O78  1  0.58687000  0.38049000  0.21236000  1.0
  O  O79  1  0.41313000  0.61952000  0.78765000  1.0
  O  O80  1  0.43096000  0.28863000  0.62152000  1.0
  O  O81  1  0.56903000  0.71137000  0.37848000  1.0
  O  O82  1  0.59824000  0.43917000  0.81476000  1.0
  O  O83  1  0.40176000  0.56083000  0.18524000  1.0
  O  O84  1  0.35130000  0.40322000  0.40881000  1.0
  O  O85  1  0.64870000  0.59677000  0.59119000  1.0
