# generated using pymatgen
data_Zn4H8C24S4O17
_symmetry_space_group_name_H-M   'P 1'
_cell_length_a   19.68800000
_cell_length_b   19.68650000
_cell_length_c   33.43450000
_cell_angle_alpha   79.01890000
_cell_angle_beta   79.01370000
_cell_angle_gamma   63.84490000
_symmetry_Int_Tables_number   1
_chemical_formula_structural   Zn4H8C24S4O17
_chemical_formula_sum   'Zn16 H32 C96 S16 O68'
_cell_volume   11335.01828868
_cell_formula_units_Z   4
loop_
 _symmetry_equiv_pos_site_id
 _symmetry_equiv_pos_as_xyz
  1  'x, y, z'
loop_
 _atom_site_type_symbol
 _atom_site_label
 _atom_site_symmetry_multiplicity
 _atom_site_fract_x
 _atom_site_fract_y
 _atom_site_fract_z
 _atom_site_occupancy
  Zn  Zn0  1  0.59882000  0.94380000  0.52124000  1.0
  Zn  Zn1  1  0.51754000  0.01746000  0.43998000  1.0
  Zn  Zn2  1  0.44000000  0.93993000  0.51753000  1.0
  Zn  Zn3  1  0.44383000  0.09880000  0.52124000  1.0
  Zn  Zn4  1  0.65116000  0.30628000  0.72874000  1.0
  Zn  Zn5  1  0.80999000  0.31009000  0.73249000  1.0
  Zn  Zn6  1  0.73246000  0.23253000  0.81001000  1.0
  Zn  Zn7  1  0.80624000  0.15121000  0.72874000  1.0
  Zn  Zn8  1  0.23247000  0.73253000  0.30999000  1.0
  Zn  Zn9  1  0.30622000  0.65121000  0.22872000  1.0
  Zn  Zn10  1  0.15119000  0.80627000  0.22871000  1.0
  Zn  Zn11  1  0.31001000  0.81009000  0.23246000  1.0
  Zn  Zn12  1  0.94001000  0.43993000  0.01750000  1.0
  Zn  Zn13  1  0.94382000  0.59879000  0.02124000  1.0
  Zn  Zn14  1  0.09885000  0.44379000  0.02122000  1.0
  Zn  Zn15  1  0.01754000  0.51743000  0.93998000  1.0
  H  H16  1  0.48942000  0.71371000  0.59066000  1.0
  H  H17  1  0.76060000  0.53636000  0.65938000  1.0
  H  H18  1  0.45268000  0.22845000  0.35151000  1.0
  H  H19  1  0.29731000  0.52147000  0.39850000  1.0
  H  H20  1  0.72847000  0.95266000  0.35154000  1.0
  H  H21  1  0.02147000  0.79731000  0.39847000  1.0
  H  H22  1  0.22096000  0.19915000  0.59785000  1.0
  H  H23  1  0.02904000  0.05096000  0.65210000  1.0
  H  H24  1  0.52147000  0.29726000  0.89848000  1.0
  H  H25  1  0.22847000  0.45271000  0.85154000  1.0
  H  H26  1  0.89122000  0.91311000  0.79003000  1.0
  H  H27  1  0.85881000  0.83688000  0.96000000  1.0
  H  H28  1  0.52904000  0.55093000  0.15212000  1.0
  H  H29  1  0.72096000  0.69911000  0.09788000  1.0
  H  H30  1  0.26059000  0.03637000  0.15937000  1.0
  H  H31  1  0.98942000  0.21372000  0.09065000  1.0
  H  H32  1  0.47282000  0.18996000  0.58129000  1.0
  H  H33  1  0.77705000  0.06025000  0.66866000  1.0
  H  H34  1  0.55994000  0.27725000  0.66862000  1.0
  H  H35  1  0.69013000  0.97264000  0.58136000  1.0
  H  H36  1  0.36424000  0.86438000  0.47292000  1.0
  H  H37  1  0.38575000  0.88561000  0.27711000  1.0
  H  H38  1  0.27709000  0.77706000  0.38552000  1.0
  H  H39  1  0.47288000  0.97290000  0.36448000  1.0
  H  H40  1  0.77712000  0.27694000  0.88559000  1.0
  H  H41  1  0.97285000  0.47301000  0.86441000  1.0
  H  H42  1  0.86424000  0.36440000  0.97292000  1.0
  H  H43  1  0.88576000  0.38558000  0.77711000  1.0
  H  H44  1  0.05995000  0.77725000  0.16862000  1.0
  H  H45  1  0.19013000  0.47265000  0.08135000  1.0
  H  H46  1  0.97287000  0.68981000  0.08132000  1.0
  H  H47  1  0.27710000  0.56009000  0.16869000  1.0
  C  C48  1  0.68417000  0.93870000  0.43828000  1.0
  C  C49  1  0.42996000  0.93003000  0.43008000  1.0
  C  C50  1  0.56106000  0.81564000  0.56143000  1.0
  C  C51  1  0.31565000  0.06197000  0.56145000  1.0
  C  C52  1  0.57005000  0.06993000  0.56990000  1.0
  C  C53  1  0.43871000  0.18417000  0.43826000  1.0
  C  C54  1  0.68891000  0.43446000  0.68855000  1.0
  C  C55  1  0.82003000  0.31989000  0.81994000  1.0
  C  C56  1  0.56582000  0.31122000  0.81169000  1.0
  C  C57  1  0.81166000  0.06536000  0.81127000  1.0
  C  C58  1  0.67995000  0.18008000  0.68006000  1.0
  C  C59  1  0.93447000  0.18810000  0.68854000  1.0
  C  C60  1  0.31125000  0.56580000  0.31171000  1.0
  C  C61  1  0.17996000  0.68005000  0.18007000  1.0
  C  C62  1  0.06582000  0.81124000  0.31170000  1.0
  C  C63  1  0.18890000  0.93448000  0.18856000  1.0
  C  C64  1  0.32003000  0.81994000  0.31993000  1.0
  C  C65  1  0.43446000  0.68809000  0.18856000  1.0
  C  C66  1  0.81565000  0.56196000  0.06147000  1.0
  C  C67  1  0.07005000  0.56991000  0.06992000  1.0
  C  C68  1  0.06105000  0.31566000  0.06143000  1.0
  C  C69  1  0.18417000  0.43872000  0.93828000  1.0
  C  C70  1  0.92994000  0.43008000  0.93007000  1.0
  C  C71  1  0.93827000  0.68462000  0.93872000  1.0
  C  C72  1  0.59796000  0.09788000  0.59795000  1.0
  C  C73  1  0.65194000  0.15201000  0.65210000  1.0
  C  C74  1  0.55215000  0.17088000  0.61160000  1.0
  C  C75  1  0.69773000  0.07901000  0.63846000  1.0
  C  C76  1  0.57895000  0.19774000  0.63845000  1.0
  C  C77  1  0.67097000  0.05212000  0.61160000  1.0
  C  C78  1  0.40199000  0.90200000  0.40208000  1.0
  C  C79  1  0.34798000  0.84794000  0.34795000  1.0
  C  C80  1  0.35869000  0.85863000  0.41813000  1.0
  C  C81  1  0.39127000  0.89132000  0.33191000  1.0
  C  C82  1  0.33187000  0.83180000  0.39127000  1.0
  C  C83  1  0.41808000  0.91812000  0.35878000  1.0
  C  C84  1  0.54617000  0.69639000  0.59876000  1.0
  C  C85  1  0.70385000  0.55373000  0.65126000  1.0
  C  C86  1  0.58641000  0.74097000  0.58635000  1.0
  C  C87  1  0.66362000  0.50913000  0.66361000  1.0
  C  C88  1  0.66120000  0.62195000  0.62764000  1.0
  C  C89  1  0.58885000  0.62822000  0.62240000  1.0
  C  C90  1  0.42378000  0.27362000  0.37121000  1.0
  C  C91  1  0.32620000  0.47633000  0.37878000  1.0
  C  C92  1  0.41363000  0.25908000  0.41360000  1.0
  C  C93  1  0.33637000  0.49089000  0.33639000  1.0
  C  C94  1  0.35803000  0.39725000  0.39150000  1.0
  C  C95  1  0.39200000  0.35269000  0.35847000  1.0
  C  C96  1  0.77365000  0.92375000  0.37123000  1.0
  C  C97  1  0.97632000  0.82620000  0.37877000  1.0
  C  C98  1  0.75909000  0.91361000  0.41362000  1.0
  C  C99  1  0.99090000  0.83636000  0.33638000  1.0
  C  C100  1  0.89725000  0.85801000  0.39151000  1.0
  C  C101  1  0.85271000  0.89198000  0.35847000  1.0
  C  C102  1  0.20012000  0.15511000  0.60246000  1.0
  C  C103  1  0.04995000  0.09495000  0.64750000  1.0
  C  C104  1  0.24096000  0.08643000  0.58635000  1.0
  C  C105  1  0.00914000  0.16364000  0.66361000  1.0
  C  C106  1  0.11953000  0.09171000  0.62525000  1.0
  C  C107  1  0.13060000  0.15826000  0.62476000  1.0
  C  C108  1  0.84797000  0.34792000  0.84796000  1.0
  C  C109  1  0.90199000  0.40202000  0.90208000  1.0
  C  C110  1  0.83184000  0.33182000  0.89127000  1.0
  C  C111  1  0.91810000  0.41810000  0.85877000  1.0
  C  C112  1  0.85867000  0.35867000  0.91813000  1.0
  C  C113  1  0.89129000  0.39128000  0.83192000  1.0
  C  C114  1  0.47633000  0.32618000  0.87877000  1.0
  C  C115  1  0.27364000  0.42377000  0.87123000  1.0
  C  C116  1  0.49091000  0.33636000  0.83638000  1.0
  C  C117  1  0.25908000  0.41362000  0.91362000  1.0
  C  C118  1  0.35271000  0.39199000  0.85847000  1.0
  C  C119  1  0.39725000  0.35800000  0.89151000  1.0
  C  C120  1  0.87512000  0.92007000  0.82247000  1.0
  C  C121  1  0.87498000  0.82995000  0.92756000  1.0
  C  C122  1  0.83644000  0.99092000  0.83641000  1.0
  C  C123  1  0.91361000  0.75910000  0.91361000  1.0
  C  C124  1  0.86094000  0.88864000  0.89442000  1.0
  C  C125  1  0.88922000  0.86142000  0.85562000  1.0
  C  C126  1  0.15196000  0.65201000  0.15210000  1.0
  C  C127  1  0.09798000  0.59788000  0.09796000  1.0
  C  C128  1  0.07896000  0.69774000  0.13845000  1.0
  C  C129  1  0.17097000  0.55213000  0.11160000  1.0
  C  C130  1  0.05217000  0.67089000  0.11159000  1.0
  C  C131  1  0.19775000  0.57901000  0.13845000  1.0
  C  C132  1  0.54993000  0.59493000  0.14751000  1.0
  C  C133  1  0.70010000  0.65509000  0.10247000  1.0
  C  C134  1  0.50912000  0.66362000  0.16361000  1.0
  C  C135  1  0.74094000  0.58640000  0.08636000  1.0
  C  C136  1  0.63058000  0.65825000  0.12476000  1.0
  C  C137  1  0.61951000  0.59169000  0.12525000  1.0
  C  C138  1  0.20384000  0.05374000  0.15126000  1.0
  C  C139  1  0.04616000  0.19640000  0.09876000  1.0
  C  C140  1  0.16361000  0.00914000  0.16361000  1.0
  C  C141  1  0.08640000  0.24098000  0.08635000  1.0
  C  C142  1  0.08884000  0.12823000  0.12239000  1.0
  C  C143  1  0.16120000  0.12196000  0.12763000  1.0
  S  S144  1  0.67586000  0.70059000  0.60324000  1.0
  S  S145  1  0.57418000  0.54957000  0.64673000  1.0
  S  S146  1  0.36569000  0.34088000  0.43812000  1.0
  S  S147  1  0.38431000  0.40908000  0.31187000  1.0
  S  S148  1  0.84088000  0.86565000  0.43814000  1.0
  S  S149  1  0.90911000  0.88432000  0.31185000  1.0
  S  S150  1  0.19541000  0.02561000  0.59811000  1.0
  S  S151  1  0.05475000  0.22439000  0.65188000  1.0
  S  S152  1  0.40911000  0.38434000  0.81186000  1.0
  S  S153  1  0.34088000  0.36564000  0.93814000  1.0
  S  S154  1  0.81706000  0.98676000  0.88957000  1.0
  S  S155  1  0.93298000  0.76329000  0.86046000  1.0
  S  S156  1  0.55473000  0.72438000  0.15188000  1.0
  S  S157  1  0.69539000  0.52559000  0.09811000  1.0
  S  S158  1  0.07418000  0.04957000  0.14673000  1.0
  S  S159  1  0.17585000  0.20060000  0.10324000  1.0
  O  O160  1  0.50001000  0.00000000  0.49997000  1.0
  O  O161  1  0.68403000  0.92286000  0.47728000  1.0
  O  O162  1  0.46910000  0.96912000  0.41483000  1.0
  O  O163  1  0.49476000  0.84294000  0.54989000  1.0
  O  O164  1  0.62581000  0.97404000  0.41880000  1.0
  O  O165  1  0.60790000  0.84685000  0.55346000  1.0
  O  O166  1  0.41465000  0.91483000  0.46918000  1.0
  O  O167  1  0.34310000  0.99553000  0.54985000  1.0
  O  O168  1  0.50381000  0.11243000  0.55793000  1.0
  O  O169  1  0.34668000  0.10878000  0.55353000  1.0
  O  O170  1  0.61250000  0.00367000  0.55796000  1.0
  O  O171  1  0.47405000  0.12580000  0.41880000  1.0
  O  O172  1  0.42284000  0.18407000  0.47727000  1.0
  O  O173  1  0.75000000  0.24999000  0.74999000  1.0
  O  O174  1  0.64202000  0.40329000  0.69652000  1.0
  O  O175  1  0.83533000  0.33514000  0.78084000  1.0
  O  O176  1  0.62420000  0.27591000  0.83115000  1.0
  O  O177  1  0.75519000  0.40710000  0.70011000  1.0
  O  O178  1  0.56592000  0.32706000  0.77268000  1.0
  O  O179  1  0.78095000  0.28073000  0.83519000  1.0
  O  O180  1  0.77623000  0.12395000  0.83072000  1.0
  O  O181  1  0.74627000  0.13766000  0.69196000  1.0
  O  O182  1  0.82750000  0.06534000  0.77236000  1.0
  O  O183  1  0.63757000  0.24637000  0.69196000  1.0
  O  O184  1  0.90698000  0.25451000  0.70016000  1.0
  O  O185  1  0.90347000  0.14124000  0.69648000  1.0
  O  O186  1  0.25000000  0.75001000  0.24999000  1.0
  O  O187  1  0.27594000  0.62418000  0.33116000  1.0
  O  O188  1  0.24625000  0.63762000  0.19200000  1.0
  O  O189  1  0.06595000  0.82706000  0.27269000  1.0
  O  O190  1  0.32712000  0.56590000  0.27270000  1.0
  O  O191  1  0.12418000  0.77594000  0.33117000  1.0
  O  O192  1  0.13756000  0.74636000  0.19197000  1.0
  O  O193  1  0.14201000  0.90331000  0.19654000  1.0
  O  O194  1  0.33534000  0.83515000  0.28084000  1.0
  O  O195  1  0.25518000  0.90713000  0.20013000  1.0
  O  O196  1  0.28089000  0.78083000  0.33519000  1.0
  O  O197  1  0.40342000  0.64128000  0.19650000  1.0
  O  O198  1  0.40701000  0.75451000  0.20018000  1.0
  O  O199  1  0.00000000  0.50002000  0.99999000  1.0
  O  O200  1  0.84314000  0.49552000  0.04987000  1.0
  O  O201  1  0.00379000  0.61239000  0.05798000  1.0
  O  O202  1  0.10790000  0.34686000  0.05347000  1.0
  O  O203  1  0.84664000  0.60881000  0.05356000  1.0
  O  O204  1  0.99474000  0.34297000  0.04990000  1.0
  O  O205  1  0.11250000  0.50366000  0.05797000  1.0
  O  O206  1  0.18406000  0.42288000  0.97729000  1.0
  O  O207  1  0.96903000  0.46922000  0.91482000  1.0
  O  O208  1  0.12579000  0.47406000  0.91883000  1.0
  O  O209  1  0.91466000  0.41485000  0.96917000  1.0
  O  O210  1  0.92238000  0.68465000  0.97763000  1.0
  O  O211  1  0.97370000  0.62603000  0.91927000  1.0
  O  O212  1  0.48242000  0.21750000  0.60003000  1.0
  O  O213  1  0.76748000  0.03249000  0.65003000  1.0
  O  O214  1  0.53236000  0.26746000  0.65000000  1.0
  O  O215  1  0.71765000  0.98241000  0.60003000  1.0
  O  O216  1  0.34120000  0.84109000  0.45878000  1.0
  O  O217  1  0.40876000  0.90889000  0.29128000  1.0
  O  O218  1  0.29121000  0.79111000  0.40873000  1.0
  O  O219  1  0.45874000  0.95883000  0.34129000  1.0
  O  O220  1  0.79116000  0.29117000  0.90876000  1.0
  O  O221  1  0.95878000  0.45876000  0.84126000  1.0
  O  O222  1  0.84117000  0.34114000  0.95878000  1.0
  O  O223  1  0.90880000  0.40882000  0.79128000  1.0
  O  O224  1  0.03236000  0.76747000  0.14999000  1.0
  O  O225  1  0.21764000  0.48242000  0.10002000  1.0
  O  O226  1  0.98243000  0.71749000  0.10000000  1.0
  O  O227  1  0.26749000  0.53248000  0.15000000  1.0
