# generated using pymatgen
data_CoH3(C2O)3
_symmetry_space_group_name_H-M   'P 1'
_cell_length_a   6.87633000
_cell_length_b   15.17260000
_cell_length_c   15.17449687
_cell_angle_alpha   117.73232566
_cell_angle_beta   98.68886707
_cell_angle_gamma   98.67070000
_symmetry_Int_Tables_number   1
_chemical_formula_structural   CoH3(C2O)3
_chemical_formula_sum   'Co6 H18 C36 O18'
_cell_volume   1340.30469512
_cell_formula_units_Z   6
loop_
 _symmetry_equiv_pos_site_id
 _symmetry_equiv_pos_as_xyz
  1  'x, y, z'
loop_
 _atom_site_type_symbol
 _atom_site_label
 _atom_site_symmetry_multiplicity
 _atom_site_fract_x
 _atom_site_fract_y
 _atom_site_fract_z
 _atom_site_occupancy
  Co  Co0  1  0.19964000  0.72964000  0.32024000  1.0
  Co  Co1  1  0.87911000  0.67962000  0.40912000  1.0
  Co  Co2  1  0.47014000  0.59108000  0.27054000  1.0
  Co  Co3  1  0.80035000  0.27035000  0.67975000  1.0
  Co  Co4  1  0.12089000  0.32038000  0.59088000  1.0
  Co  Co5  1  0.52985000  0.40892000  0.72946000  1.0
  H  H6  1  0.18136000  0.52926000  0.55220000  1.0
  H  H7  1  0.62927000  0.44770000  0.97713000  1.0
  H  H8  1  0.65225000  0.02308000  0.47076000  1.0
  H  H9  1  0.81864000  0.47074000  0.44780000  1.0
  H  H10  1  0.37074000  0.55231000  0.02287000  1.0
  H  H11  1  0.34773000  0.97691000  0.52923000  1.0
  H  H12  1  0.30531000  0.86024000  0.23197000  1.0
  H  H13  1  0.07259000  0.76735000  0.62798000  1.0
  H  H14  1  0.44414000  0.37222000  0.13959000  1.0
  H  H15  1  0.69470000  0.13977000  0.76804000  1.0
  H  H16  1  0.92743000  0.23267000  0.37203000  1.0
  H  H17  1  0.55587000  0.62778000  0.86041000  1.0
  H  H18  1  0.82688000  0.75502000  0.21641000  1.0
  H  H19  1  0.61026000  0.78348000  0.53826000  1.0
  H  H20  1  0.07137000  0.46180000  0.24537000  1.0
  H  H21  1  0.17312000  0.24497000  0.78358000  1.0
  H  H22  1  0.38975000  0.21652000  0.46174000  1.0
  H  H23  1  0.92865000  0.53820000  0.75463000  1.0
  C  C24  1  0.26054000  0.61306000  0.43857000  1.0
  C  C25  1  0.82209000  0.56135000  0.17444000  1.0
  C  C26  1  0.64770000  0.82566000  0.38676000  1.0
  C  C27  1  0.73946000  0.38694000  0.56143000  1.0
  C  C28  1  0.17791000  0.43864000  0.82555000  1.0
  C  C29  1  0.35229000  0.17433000  0.61324000  1.0
  C  C30  1  0.38497000  0.55372000  0.46663000  1.0
  C  C31  1  0.91838000  0.53327000  0.08706000  1.0
  C  C32  1  0.83135000  0.91298000  0.44608000  1.0
  C  C33  1  0.61501000  0.44628000  0.53337000  1.0
  C  C34  1  0.08162000  0.46673000  0.91294000  1.0
  C  C35  1  0.16865000  0.08702000  0.55392000  1.0
  C  C36  1  0.56810000  0.53622000  0.43573000  1.0
  C  C37  1  0.13238000  0.56422000  0.10039000  1.0
  C  C38  1  0.03192000  0.89953000  0.46366000  1.0
  C  C39  1  0.43189000  0.46378000  0.56427000  1.0
  C  C40  1  0.86762000  0.43578000  0.89961000  1.0
  C  C41  1  0.96809000  0.10047000  0.53634000  1.0
  C  C42  1  0.32169000  0.51666000  0.52921000  1.0
  C  C43  1  0.79255000  0.47073000  0.98750000  1.0
  C  C44  1  0.80513000  0.01262000  0.48333000  1.0
  C  C45  1  0.67830000  0.48334000  0.47079000  1.0
  C  C46  1  0.20746000  0.52928000  0.01250000  1.0
  C  C47  1  0.19486000  0.98737000  0.51666000  1.0
  C  C48  1  0.15602000  0.82371000  0.22817000  1.0
  C  C49  1  0.92725000  0.77124000  0.59516000  1.0
  C  C50  1  0.33140000  0.40486000  0.17625000  1.0
  C  C51  1  0.84398000  0.17628000  0.77183000  1.0
  C  C52  1  0.07276000  0.22877000  0.40485000  1.0
  C  C53  1  0.66861000  0.59515000  0.82375000  1.0
  C  C54  1  0.98245000  0.78499000  0.22164000  1.0
  C  C55  1  0.76046000  0.77805000  0.56293000  1.0
  C  C56  1  0.19676000  0.43700000  0.21523000  1.0
  C  C57  1  0.01756000  0.21501000  0.77836000  1.0
  C  C58  1  0.23954000  0.22195000  0.43707000  1.0
  C  C59  1  0.80325000  0.56300000  0.78477000  1.0
  O  O60  1  0.33528000  0.66142000  0.39493000  1.0
  O  O61  1  0.94055000  0.60531000  0.26641000  1.0
  O  O62  1  0.67417000  0.73365000  0.33864000  1.0
  O  O63  1  0.66471000  0.33858000  0.60507000  1.0
  O  O64  1  0.05944000  0.39468000  0.73358000  1.0
  O  O65  1  0.32582000  0.26634000  0.66135000  1.0
  O  O66  1  0.08974000  0.61705000  0.45995000  1.0
  O  O67  1  0.62993000  0.53976000  0.15713000  1.0
  O  O68  1  0.47285000  0.84301000  0.38256000  1.0
  O  O69  1  0.91027000  0.38296000  0.54006000  1.0
  O  O70  1  0.37007000  0.46024000  0.84287000  1.0
  O  O71  1  0.52713000  0.15699000  0.61744000  1.0
  O  O72  1  0.63925000  0.56593000  0.37352000  1.0
  O  O73  1  0.26568000  0.62632000  0.19227000  1.0
  O  O74  1  0.07342000  0.80760000  0.43386000  1.0
  O  O75  1  0.36074000  0.43407000  0.62648000  1.0
  O  O76  1  0.73433000  0.37368000  0.80773000  1.0
  O  O77  1  0.92657000  0.19240000  0.56614000  1.0
