# generated using pymatgen
data_Cu3H6C4(BrN2)3
_symmetry_space_group_name_H-M   'P 1'
_cell_length_a   7.68824000
_cell_length_b   8.00016000
_cell_length_c   10.93810000
_cell_angle_alpha   92.12710000
_cell_angle_beta   104.19200000
_cell_angle_gamma   117.22900000
_symmetry_Int_Tables_number   1
_chemical_formula_structural   Cu3H6C4(BrN2)3
_chemical_formula_sum   'Cu6 H12 C8 Br6 N12'
_cell_volume   571.19657798
_cell_formula_units_Z   2
loop_
 _symmetry_equiv_pos_site_id
 _symmetry_equiv_pos_as_xyz
  1  'x, y, z'
loop_
 _atom_site_type_symbol
 _atom_site_label
 _atom_site_symmetry_multiplicity
 _atom_site_fract_x
 _atom_site_fract_y
 _atom_site_fract_z
 _atom_site_occupancy
  Cu  Cu0  1  0.95938000  0.34368000  0.92445000  1.0
  Cu  Cu1  1  0.04062000  0.65632000  0.07554000  1.0
  Cu  Cu2  1  0.90836000  0.02943000  0.57998000  1.0
  Cu  Cu3  1  0.09165000  0.97057000  0.42002000  1.0
  Cu  Cu4  1  0.50773000  0.07522000  0.70002000  1.0
  Cu  Cu5  1  0.49227000  0.92477000  0.29998000  1.0
  H  H6  1  0.90137000  0.01505000  0.11632000  1.0
  H  H7  1  0.09862000  0.98495000  0.88368000  1.0
  H  H8  1  0.54532000  0.70992000  0.05785000  1.0
  H  H9  1  0.45467000  0.29008000  0.94215000  1.0
  H  H10  1  0.31869000  0.70720000  0.84188000  1.0
  H  H11  1  0.68131000  0.29280000  0.15812000  1.0
  H  H12  1  0.63448000  0.67575000  0.70593000  1.0
  H  H13  1  0.36552000  0.32426000  0.29406000  1.0
  H  H14  1  0.15024000  0.56733000  0.37449000  1.0
  H  H15  1  0.84976000  0.43268000  0.62551000  1.0
  H  H16  1  0.24933000  0.46003000  0.59092000  1.0
  H  H17  1  0.75067000  0.53997000  0.40908000  1.0
  C  C18  1  0.77613000  0.97509000  0.02976000  1.0
  C  C19  1  0.22386000  0.02491000  0.97024000  1.0
  C  C20  1  0.47473000  0.81744000  0.88933000  1.0
  C  C21  1  0.52527000  0.18256000  0.11067000  1.0
  C  C22  1  0.54922000  0.69033000  0.61555000  1.0
  C  C23  1  0.45079000  0.30967000  0.38445000  1.0
  C  C24  1  0.30016000  0.63188000  0.44448000  1.0
  C  C25  1  0.69985000  0.36813000  0.55552000  1.0
  Br  Br26  1  0.74973000  0.50808000  0.87804000  1.0
  Br  Br27  1  0.25026000  0.49192000  0.12196000  1.0
  Br  Br28  1  0.11153000  0.30849000  0.75039000  1.0
  Br  Br29  1  0.88848000  0.69151000  0.24961000  1.0
  Br  Br30  1  0.10722000  0.84390000  0.62902000  1.0
  Br  Br31  1  0.89279000  0.15611000  0.37097000  1.0
  N  N32  1  0.77240000  0.07705000  0.93750000  1.0
  N  N33  1  0.22759000  0.92294000  0.06250000  1.0
  N  N34  1  0.58069000  0.97635000  0.84777000  1.0
  N  N35  1  0.41931000  0.02364000  0.15223000  1.0
  N  N36  1  0.62472000  0.82185000  0.54541000  1.0
  N  N37  1  0.37528000  0.17815000  0.45459000  1.0
  N  N38  1  0.59330000  0.81319000  0.00195000  1.0
  N  N39  1  0.40670000  0.18681000  0.99805000  1.0
  N  N40  1  0.46592000  0.78378000  0.43614000  1.0
  N  N41  1  0.53408000  0.21622000  0.56386000  1.0
  N  N42  1  0.34818000  0.56987000  0.55478000  1.0
  N  N43  1  0.65183000  0.43014000  0.44522000  1.0
