# generated using pymatgen
data_Zn4H67C80(BrN4)5
_symmetry_space_group_name_H-M   'P 1'
_cell_length_a   20.12830000
_cell_length_b   20.53230000
_cell_length_c   20.73930000
_cell_angle_alpha   105.31300000
_cell_angle_beta   106.69900000
_cell_angle_gamma   112.69800000
_symmetry_Int_Tables_number   1
_chemical_formula_structural   Zn4H67C80(BrN4)5
_chemical_formula_sum   'Zn4 H67 C80 Br5 N20'
_cell_volume   6858.12677310
_cell_formula_units_Z   1
loop_
 _symmetry_equiv_pos_site_id
 _symmetry_equiv_pos_as_xyz
  1  'x, y, z'
loop_
 _atom_site_type_symbol
 _atom_site_label
 _atom_site_symmetry_multiplicity
 _atom_site_fract_x
 _atom_site_fract_y
 _atom_site_fract_z
 _atom_site_occupancy
  Zn  Zn0  1  0.40104000  0.38037000  0.49836000  1.0
  Zn  Zn1  1  0.62317000  0.61470000  0.52358000  1.0
  Zn  Zn2  1  0.42874000  0.50813000  0.41963000  1.0
  Zn  Zn3  1  0.60112000  0.49538000  0.61846000  1.0
  H  H4  1  0.28705000  0.22646000  0.35235000  1.0
  H  H5  1  0.72244000  0.56536000  0.45281000  1.0
  H  H6  1  0.54332000  0.08323000  0.54601000  1.0
  H  H7  1  0.50155000  0.95117000  0.51418000  1.0
  H  H8  1  0.60298000  0.97827000  0.53731000  1.0
  H  H9  1  0.55971000  0.03749000  0.33752000  1.0
  H  H10  1  0.64864000  0.09748000  0.42121000  1.0
  H  H11  1  0.42858000  0.00519000  0.33558000  1.0
  H  H12  1  0.43377000  0.89009000  0.31024000  1.0
  H  H13  1  0.65071000  0.98923000  0.43892000  1.0
  H  H14  1  0.42350000  0.48731000  0.26698000  1.0
  H  H15  1  0.38354000  0.60627000  0.53269000  1.0
  H  H16  1  0.01911000  0.59161000  0.65849000  1.0
  H  H17  1  0.97278000  0.57214000  0.46188000  1.0
  H  H18  1  0.07582000  0.55494000  0.46303000  1.0
  H  H19  1  0.92541000  0.39827000  0.50731000  1.0
  H  H20  1  0.91707000  0.42377000  0.43172000  1.0
  H  H21  1  0.98394000  0.49116000  0.63348000  1.0
  H  H22  1  0.62606000  0.33601000  0.62128000  1.0
  H  H23  1  0.04440000  0.44678000  0.44772000  1.0
  H  H24  1  0.42488000  0.59527000  0.21749000  1.0
  H  H25  1  0.32650000  0.49229000  0.73903000  1.0
  H  H26  1  0.73998000  0.64874000  0.79197000  1.0
  H  H27  1  0.65601000  0.62447000  0.24303000  1.0
  H  H28  1  0.57430000  0.69545000  0.96704000  1.0
  H  H29  1  0.63646000  0.65190000  0.13090000  1.0
  H  H30  1  0.57877000  0.66149000  0.84500000  1.0
  H  H31  1  0.76744000  0.76136000  0.90033000  1.0
  H  H32  1  0.84364000  0.88880000  0.01159000  1.0
  H  H33  1  0.01385000  0.03417000  0.18843000  1.0
  H  H34  1  0.15030000  0.13944000  0.28522000  1.0
  H  H35  1  0.77853000  0.88401000  0.76026000  1.0
  H  H36  1  0.12875000  0.29103000  0.18100000  1.0
  H  H37  1  0.68962000  0.76995000  0.65966000  1.0
  H  H38  1  0.42647000  0.24711000  0.40939000  1.0
  H  H39  1  0.71679000  0.43264000  0.58444000  1.0
  H  H40  1  0.25578000  0.38933000  0.26802000  1.0
  H  H41  1  0.34717000  0.42022000  0.64238000  1.0
  H  H42  1  0.16740000  0.64883000  0.74724000  1.0
  H  H43  1  0.22511000  0.65334000  0.69613000  1.0
  H  H44  1  0.15017000  0.68118000  0.67654000  1.0
  H  H45  1  0.21215000  0.66027000  0.54299000  1.0
  H  H46  1  0.14498000  0.69228000  0.50731000  1.0
  H  H47  1  0.18044000  0.70856000  0.60169000  1.0
  H  H48  1  0.22242000  0.37521000  0.50255000  1.0
  H  H49  1  0.07617000  0.44201000  0.64330000  1.0
  H  H50  1  0.17981000  0.51144000  0.68371000  1.0
  H  H51  1  0.12045000  0.52337000  0.72996000  1.0
  H  H52  1  0.34041000  0.56969000  0.04450000  1.0
  H  H53  1  0.35409000  0.62596000  0.13438000  1.0
  H  H54  1  0.39587000  0.67156000  0.08232000  1.0
  H  H55  1  0.24876000  0.48850000  0.80606000  1.0
  H  H56  1  0.29701000  0.47043000  0.88022000  1.0
  H  H57  1  0.29176000  0.55677000  0.90061000  1.0
  H  H58  1  0.73109000  0.65770000  0.37229000  1.0
  H  H59  1  0.58580000  0.61766000  0.73546000  1.0
  H  H60  1  0.69991000  0.72797000  0.37739000  1.0
  H  H61  1  0.73052000  0.70814000  0.45595000  1.0
  H  H62  1  0.98336000  0.17489000  0.01891000  1.0
  H  H63  1  0.91812000  0.16861000  0.06061000  1.0
  H  H64  1  0.00717000  0.25962000  0.09438000  1.0
  H  H65  1  0.83766000  0.01826000  0.80786000  1.0
  H  H66  1  0.82990000  0.06298000  0.88955000  1.0
  H  H67  1  0.92179000  0.06950000  0.89706000  1.0
  H  H68  1  0.38254000  0.64006000  0.38930000  1.0
  H  H69  1  0.39780000  0.87894000  0.37724000  1.0
  H  H70  1  0.63562000  0.10387000  0.54236000  1.0
  C  C71  1  0.29240000  0.27637000  0.34060000  1.0
  C  C72  1  0.26977000  0.42647000  0.50544000  1.0
  C  C73  1  0.52940000  0.56320000  0.70335000  1.0
  C  C74  1  0.71041000  0.53452000  0.48693000  1.0
  C  C75  1  0.44466000  0.66472000  0.42767000  1.0
  C  C76  1  0.46111000  0.53605000  0.71619000  1.0
  C  C77  1  0.51036000  0.73806000  0.45010000  1.0
  C  C78  1  0.28403000  0.50370000  0.53071000  1.0
  C  C79  1  0.73110000  0.74078000  0.75564000  1.0
  C  C80  1  0.45165000  0.99799000  0.38632000  1.0
  C  C81  1  0.57083000  0.06254000  0.51299000  1.0
  C  C82  1  0.74964000  0.49805000  0.51665000  1.0
  C  C83  1  0.55165000  0.97929000  0.50137000  1.0
  C  C84  1  0.51340000  0.79894000  0.43029000  1.0
  C  C85  1  0.53925000  0.06496000  0.43673000  1.0
  C  C86  1  0.48503000  0.52929000  0.30782000  1.0
  C  C87  1  0.44649000  0.91801000  0.36884000  1.0
  C  C88  1  0.52653000  0.92802000  0.41882000  1.0
  C  C89  1  0.59214000  0.97429000  0.39869000  1.0
  C  C90  1  0.58814000  0.04690000  0.39549000  1.0
  C  C91  1  0.51936000  0.85427000  0.41627000  1.0
  C  C92  1  0.54521000  0.14071000  0.45035000  1.0
  C  C93  1  0.54642000  0.58467000  0.30004000  1.0
  C  C94  1  0.54157000  0.19964000  0.47384000  1.0
  C  C95  1  0.01646000  0.54013000  0.62186000  1.0
  C  C96  1  0.01123000  0.58409000  0.51802000  1.0
  C  C97  1  0.09032000  0.58708000  0.52153000  1.0
  C  C98  1  0.57459000  0.32486000  0.57483000  1.0
  C  C99  1  0.23352000  0.52740000  0.55173000  1.0
  C  C100  1  0.96617000  0.52045000  0.54014000  1.0
  C  C101  1  0.10250000  0.55436000  0.63714000  1.0
  C  C102  1  0.10725000  0.53416000  0.56028000  1.0
  C  C103  1  0.03775000  0.45167000  0.49903000  1.0
  C  C104  1  0.53228000  0.26426000  0.50220000  1.0
  C  C105  1  0.95615000  0.44268000  0.49019000  1.0
  C  C106  1  0.18171000  0.53730000  0.56405000  1.0
  C  C107  1  0.88727000  0.50991000  0.52810000  1.0
  C  C108  1  0.82120000  0.50088000  0.51835000  1.0
  C  C109  1  0.45386000  0.56981000  0.78345000  1.0
  C  C110  1  0.61398000  0.62009000  0.36931000  1.0
  C  C111  1  0.52248000  0.63155000  0.84807000  1.0
  C  C112  1  0.52047000  0.65123000  0.91630000  1.0
  C  C113  1  0.44957000  0.61073000  0.92229000  1.0
  C  C114  1  0.37735000  0.55670000  0.85712000  1.0
  C  C115  1  0.40773000  0.46220000  0.65552000  1.0
  C  C116  1  0.38132000  0.53705000  0.78900000  1.0
  C  C117  1  0.45789000  0.61986000  0.13370000  1.0
  C  C118  1  0.47047000  0.60512000  0.19684000  1.0
  C  C119  1  0.51882000  0.63416000  0.10864000  1.0
  C  C120  1  0.53969000  0.60410000  0.23639000  1.0
  C  C121  1  0.60124000  0.62383000  0.21349000  1.0
  C  C122  1  0.47273000  0.27913000  0.46628000  1.0
  C  C123  1  0.59069000  0.63908000  0.15118000  1.0
  C  C124  1  0.15205000  0.22180000  0.23716000  1.0
  C  C125  1  0.10441000  0.23400000  0.18230000  1.0
  C  C126  1  0.57398000  0.73685000  0.50022000  1.0
  C  C127  1  0.02774000  0.17627000  0.12781000  1.0
  C  C128  1  0.99751000  0.10133000  0.12848000  1.0
  C  C129  1  0.04094000  0.09138000  0.18812000  1.0
  C  C130  1  0.11711000  0.14987000  0.24121000  1.0
  C  C131  1  0.82772000  0.88620000  0.95574000  1.0
  C  C132  1  0.78612000  0.81563000  0.89358000  1.0
  C  C133  1  0.85314000  0.95700000  0.94840000  1.0
  C  C134  1  0.70708000  0.46627000  0.55401000  1.0
  C  C135  1  0.76909000  0.81342000  0.82184000  1.0
  C  C136  1  0.79130000  0.88438000  0.81524000  1.0
  C  C137  1  0.35235000  0.54525000  0.52167000  1.0
  C  C138  1  0.83223000  0.95608000  0.87670000  1.0
  C  C139  1  0.27617000  0.35901000  0.29736000  1.0
  C  C140  1  0.23461000  0.28174000  0.28826000  1.0
  C  C141  1  0.16510000  0.63974000  0.69177000  1.0
  C  C142  1  0.16138000  0.66706000  0.54561000  1.0
  C  C143  1  0.12041000  0.50418000  0.67514000  1.0
  C  C144  1  0.38299000  0.62188000  0.09701000  1.0
  C  C145  1  0.29940000  0.51608000  0.86106000  1.0
  C  C146  1  0.69815000  0.68165000  0.39507000  1.0
  C  C147  1  0.98174000  0.19609000  0.07263000  1.0
  C  C148  1  0.72197000  0.66725000  0.74870000  1.0
  C  C149  1  0.85657000  0.03050000  0.86695000  1.0
  C  C150  1  0.69639000  0.72925000  0.68155000  1.0
  Br  Br151  1  0.68193000  0.81580000  0.54905000  1.0
  Br  Br152  1  0.37874000  0.00630000  0.43135000  1.0
  Br  Br153  1  0.58297000  0.90906000  0.30351000  1.0
  Br  Br154  1  0.02294000  0.68519000  0.57700000  1.0
  Br  Br155  1  0.04392000  0.35902000  0.50603000  1.0
  N  N156  1  0.36220000  0.34496000  0.37882000  1.0
  N  N157  1  0.51620000  0.63959000  0.04200000  1.0
  N  N158  1  0.93133000  0.03075000  0.07187000  1.0
  N  N159  1  0.65076000  0.52656000  0.50727000  1.0
  N  N160  1  0.90698000  0.03084000  0.00798000  1.0
  N  N161  1  0.51285000  0.53165000  0.37652000  1.0
  N  N162  1  0.54257000  0.37143000  0.58197000  1.0
  N  N163  1  0.59180000  0.58864000  0.41414000  1.0
  N  N164  1  0.47906000  0.34244000  0.51422000  1.0
  N  N165  1  0.64885000  0.48448000  0.54807000  1.0
  N  N166  1  0.35138000  0.39573000  0.35106000  1.0
  N  N167  1  0.54908000  0.66944000  0.50730000  1.0
  N  N168  1  0.44241000  0.44629000  0.61177000  1.0
  N  N169  1  0.37577000  0.49603000  0.49232000  1.0
  N  N170  1  0.68541000  0.61652000  0.67659000  1.0
  N  N171  1  0.66946000  0.65561000  0.63489000  1.0
  N  N172  1  0.32429000  0.42272000  0.48233000  1.0
  N  N173  1  0.51759000  0.50893000  0.64108000  1.0
  N  N174  1  0.46837000  0.62477000  0.46160000  1.0
  N  N175  1  0.44751000  0.61451000  0.99052000  1.0
