# generated using pymatgen
data_ZnH7C11(NO)5
_symmetry_space_group_name_H-M   'P 1'
_cell_length_a   14.58470000
_cell_length_b   18.14210000
_cell_length_c   18.42150000
_cell_angle_alpha   90.42490000
_cell_angle_beta   91.84510000
_cell_angle_gamma   90.71800000
_symmetry_Int_Tables_number   1
_chemical_formula_structural   ZnH7C11(NO)5
_chemical_formula_sum   'Zn8 H56 C88 N40 O40'
_cell_volume   4871.21641166
_cell_formula_units_Z   8
loop_
 _symmetry_equiv_pos_site_id
 _symmetry_equiv_pos_as_xyz
  1  'x, y, z'
loop_
 _atom_site_type_symbol
 _atom_site_label
 _atom_site_symmetry_multiplicity
 _atom_site_fract_x
 _atom_site_fract_y
 _atom_site_fract_z
 _atom_site_occupancy
  Zn  Zn0  1  0.98185000  0.98114000  0.38518000  1.0
  Zn  Zn1  1  0.02661000  0.98073000  0.62432000  1.0
  Zn  Zn2  1  0.47328000  0.47997000  0.87918000  1.0
  Zn  Zn3  1  0.51836000  0.48693000  0.11661000  1.0
  Zn  Zn4  1  0.83675000  0.99310000  0.51793000  1.0
  Zn  Zn5  1  0.17196000  0.99523000  0.49015000  1.0
  Zn  Zn6  1  0.32799000  0.49538000  0.01308000  1.0
  Zn  Zn7  1  0.66488000  0.49569000  0.98430000  1.0
  H  H8  1  0.68885000  0.05281000  0.63792000  1.0
  H  H9  1  0.22439000  0.82726000  0.50401000  1.0
  H  H10  1  0.32025000  0.05771000  0.36842000  1.0
  H  H11  1  0.78246000  0.82615000  0.50016000  1.0
  H  H12  1  0.17895000  0.55271000  0.13651000  1.0
  H  H13  1  0.71636000  0.32975000  0.00034000  1.0
  H  H14  1  0.81270000  0.55406000  0.86282000  1.0
  H  H15  1  0.27505000  0.32520000  0.00044000  1.0
  H  H16  1  0.12936000  0.18774000  0.21034000  1.0
  H  H17  1  0.95306000  0.65762000  0.64171000  1.0
  H  H18  1  0.87391000  0.18961000  0.80066000  1.0
  H  H19  1  0.04596000  0.65763000  0.36216000  1.0
  H  H20  1  0.62745000  0.68811000  0.70514000  1.0
  H  H21  1  0.45496000  0.16445000  0.14444000  1.0
  H  H22  1  0.36946000  0.69165000  0.29257000  1.0
  H  H23  1  0.54439000  0.15873000  0.85436000  1.0
  H  H24  1  0.69824000  0.77567000  0.62330000  1.0
  H  H25  1  0.38771000  0.07477000  0.22859000  1.0
  H  H26  1  0.30339000  0.77763000  0.37832000  1.0
  H  H27  1  0.61778000  0.06889000  0.77393000  1.0
  H  H28  1  0.19562000  0.27560000  0.12584000  1.0
  H  H29  1  0.88084000  0.56794000  0.72348000  1.0
  H  H30  1  0.80178000  0.27760000  0.88089000  1.0
  H  H31  1  0.11383000  0.56883000  0.27719000  1.0
  H  H32  1  0.72624000  0.88204000  0.18576000  1.0
  H  H33  1  0.04666000  0.27715000  0.68040000  1.0
  H  H34  1  0.28424000  0.87959000  0.81773000  1.0
  H  H35  1  0.94208000  0.28909000  0.33184000  1.0
  H  H36  1  0.21265000  0.38326000  0.68299000  1.0
  H  H37  1  0.55630000  0.77994000  0.17888000  1.0
  H  H38  1  0.74896000  0.34521000  0.29355000  1.0
  H  H39  1  0.44794000  0.77432000  0.81762000  1.0
  H  H40  1  0.97696000  0.11569000  0.28998000  1.0
  H  H41  1  0.10007000  0.85833000  0.72580000  1.0
  H  H42  1  0.02909000  0.11658000  0.71566000  1.0
  H  H43  1  0.90728000  0.85941000  0.27926000  1.0
  H  H44  1  0.47175000  0.61347000  0.78629000  1.0
  H  H45  1  0.58721000  0.37713000  0.22921000  1.0
  H  H46  1  0.52337000  0.62076000  0.20895000  1.0
  H  H47  1  0.39581000  0.35689000  0.77650000  1.0
  H  H48  1  0.93561000  0.08554000  0.81891000  1.0
  H  H49  1  0.01583000  0.76202000  0.30834000  1.0
  H  H50  1  0.06988000  0.08171000  0.19017000  1.0
  H  H51  1  0.98503000  0.76217000  0.69845000  1.0
  H  H52  1  0.43160000  0.58973000  0.31146000  1.0
  H  H53  1  0.51297000  0.26248000  0.80090000  1.0
  H  H54  1  0.56416000  0.58286000  0.68430000  1.0
  H  H55  1  0.48442000  0.27127000  0.19774000  1.0
  H  H56  1  0.19977000  0.22130000  0.45683000  1.0
  H  H57  1  0.57955000  0.92711000  0.41383000  1.0
  H  H58  1  0.79024000  0.22069000  0.54171000  1.0
  H  H59  1  0.42685000  0.93114000  0.58957000  1.0
  H  H60  1  0.71544000  0.72152000  0.95860000  1.0
  H  H61  1  0.07050000  0.43280000  0.91160000  1.0
  H  H62  1  0.29601000  0.72014000  0.04260000  1.0
  H  H63  1  0.92531000  0.45274000  0.10531000  1.0
  C  C64  1  0.92356000  0.14415000  0.38200000  1.0
  C  C65  1  0.20445000  0.91095000  0.69197000  1.0
  C  C66  1  0.07566000  0.14642000  0.62155000  1.0
  C  C67  1  0.80367000  0.91041000  0.31371000  1.0
  C  C68  1  0.42378000  0.64472000  0.87963000  1.0
  C  C69  1  0.69314000  0.42437000  0.19178000  1.0
  C  C70  1  0.57592000  0.65042000  0.11683000  1.0
  C  C71  1  0.29306000  0.40979000  0.81050000  1.0
  C  C72  1  0.75746000  0.04636000  0.66157000  1.0
  C  C73  1  0.16387000  0.83406000  0.46879000  1.0
  C  C74  1  0.25107000  0.04980000  0.34582000  1.0
  C  C75  1  0.84226000  0.83326000  0.53643000  1.0
  C  C76  1  0.24884000  0.54813000  0.15807000  1.0
  C  C77  1  0.65652000  0.33561000  0.96421000  1.0
  C  C78  1  0.74362000  0.54671000  0.83986000  1.0
  C  C79  1  0.33550000  0.33442000  0.03558000  1.0
  C  C80  1  0.88574000  0.05122000  0.72653000  1.0
  C  C81  1  0.05052000  0.82551000  0.38769000  1.0
  C  C82  1  0.12140000  0.05134000  0.28267000  1.0
  C  C83  1  0.95344000  0.82507000  0.61913000  1.0
  C  C84  1  0.37940000  0.55502000  0.22002000  1.0
  C  C85  1  0.54510000  0.32530000  0.88157000  1.0
  C  C86  1  0.61449000  0.54950000  0.77603000  1.0
  C  C87  1  0.44912000  0.33069000  0.11675000  1.0
  C  C88  1  0.12917000  0.15604000  0.50995000  1.0
  C  C89  1  0.70080000  0.94813000  0.39179000  1.0
  C  C90  1  0.86055000  0.15327000  0.49047000  1.0
  C  C91  1  0.30681000  0.95138000  0.61436000  1.0
  C  C92  1  0.63641000  0.65904000  0.00753000  1.0
  C  C93  1  0.19194000  0.45136000  0.88819000  1.0
  C  C94  1  0.36935000  0.65621000  0.99081000  1.0
  C  C95  1  0.79844000  0.45283000  0.11188000  1.0
  C  C96  1  0.87233000  0.19429000  0.42510000  1.0
  C  C97  1  0.30107000  0.91142000  0.68090000  1.0
  C  C98  1  0.11475000  0.19977000  0.57380000  1.0
  C  C99  1  0.70680000  0.91054000  0.32348000  1.0
  C  C100  1  0.38302000  0.69823000  0.92617000  1.0
  C  C101  1  0.79032000  0.42268000  0.18339000  1.0
  C  C102  1  0.62219000  0.70244000  0.07172000  1.0
  C  C103  1  0.19634000  0.41183000  0.82082000  1.0
  C  C104  1  0.79401000  0.07389000  0.72812000  1.0
  C  C105  1  0.12773000  0.78693000  0.41387000  1.0
  C  C106  1  0.21300000  0.07586000  0.27986000  1.0
  C  C107  1  0.87557000  0.78640000  0.59134000  1.0
  C  C108  1  0.28724000  0.57588000  0.22392000  1.0
  C  C109  1  0.62302000  0.28804000  0.90861000  1.0
  C  C110  1  0.70654000  0.57290000  0.77367000  1.0
  C  C111  1  0.37164000  0.28985000  0.09138000  1.0
  C  C112  1  0.19965000  0.17960000  0.19336000  1.0
  C  C113  1  0.88171000  0.66502000  0.65646000  1.0
  C  C114  1  0.80257000  0.17978000  0.81475000  1.0
  C  C115  1  0.11696000  0.66570000  0.34623000  1.0
  C  C116  1  0.69756000  0.67820000  0.68860000  1.0
  C  C117  1  0.38355000  0.17037000  0.15965000  1.0
  C  C118  1  0.29993000  0.68083000  0.31057000  1.0
  C  C119  1  0.61657000  0.16645000  0.84159000  1.0
  C  C120  1  0.73788000  0.72888000  0.64299000  1.0
  C  C121  1  0.34549000  0.11907000  0.20650000  1.0
  C  C122  1  0.26224000  0.73069000  0.35828000  1.0
  C  C123  1  0.65807000  0.11500000  0.79697000  1.0
  C  C124  1  0.23727000  0.23026000  0.14630000  1.0
  C  C125  1  0.84087000  0.61375000  0.70182000  1.0
  C  C126  1  0.76150000  0.23073000  0.85955000  1.0
  C  C127  1  0.15523000  0.61495000  0.29894000  1.0
  C  C128  1  0.83151000  0.72446000  0.62738000  1.0
  C  C129  1  0.25317000  0.12364000  0.22560000  1.0
  C  C130  1  0.16917000  0.72534000  0.37573000  1.0
  C  C131  1  0.75147000  0.12163000  0.78121000  1.0
  C  C132  1  0.33072000  0.22794000  0.12972000  1.0
  C  C133  1  0.74851000  0.62038000  0.72013000  1.0
  C  C134  1  0.66697000  0.22637000  0.87252000  1.0
  C  C135  1  0.24701000  0.62263000  0.27890000  1.0
  C  C136  1  0.13651000  0.27465000  0.59400000  1.0
  C  C137  1  0.63877000  0.87925000  0.27354000  1.0
  C  C138  1  0.83289000  0.26023000  0.39664000  1.0
  C  C139  1  0.36884000  0.87798000  0.72826000  1.0
  C  C140  1  0.64827000  0.77594000  0.09407000  1.0
  C  C141  1  0.12734000  0.38010000  0.77212000  1.0
  C  C142  1  0.35975000  0.77176000  0.90492000  1.0
  C  C143  1  0.85504000  0.38994000  0.23498000  1.0
  C  C144  1  0.10454000  0.30604000  0.65769000  1.0
  C  C145  1  0.66061000  0.86018000  0.20259000  1.0
  C  C146  1  0.86994000  0.29974000  0.33976000  1.0
  C  C147  1  0.34796000  0.85708000  0.79872000  1.0
  C  C148  1  0.61610000  0.80748000  0.15766000  1.0
  C  C149  1  0.14812000  0.36041000  0.70111000  1.0
  C  C150  1  0.39083000  0.80284000  0.84097000  1.0
  C  C151  1  0.82331000  0.34637000  0.29120000  1.0
  N  N152  1  0.93848000  0.08165000  0.41743000  1.0
  N  N153  1  0.15972000  0.94815000  0.64020000  1.0
  N  N154  1  0.06803000  0.08077000  0.58949000  1.0
  N  N155  1  0.84847000  0.94560000  0.36796000  1.0
  N  N156  1  0.43289000  0.58047000  0.91298000  1.0
  N  N157  1  0.65064000  0.45398000  0.13446000  1.0
  N  N158  1  0.56411000  0.58605000  0.08297000  1.0
  N  N159  1  0.33921000  0.44594000  0.86341000  1.0
  N  N160  1  0.82200000  0.01145000  0.62450000  1.0
  N  N161  1  0.11209000  0.89485000  0.47405000  1.0
  N  N162  1  0.18734000  0.01401000  0.38370000  1.0
  N  N163  1  0.89615000  0.89398000  0.53264000  1.0
  N  N164  1  0.31304000  0.51481000  0.11918000  1.0
  N  N165  1  0.60290000  0.39536000  0.96902000  1.0
  N  N166  1  0.67896000  0.51184000  0.87750000  1.0
  N  N167  1  0.38755000  0.39583000  0.02896000  1.0
  N  N168  1  0.90295000  0.01410000  0.66579000  1.0
  N  N169  1  0.04155000  0.88954000  0.42308000  1.0
  N  N170  1  0.10561000  0.01466000  0.34350000  1.0
  N  N171  1  0.96527000  0.88892000  0.58461000  1.0
  N  N172  1  0.39533000  0.51885000  0.15860000  1.0
  N  N173  1  0.53356000  0.38888000  0.91715000  1.0
  N  N174  1  0.59747000  0.51325000  0.83693000  1.0
  N  N175  1  0.45818000  0.39344000  0.07986000  1.0
  N  N176  1  0.10308000  0.08600000  0.52021000  1.0
  N  N177  1  0.78395000  0.96818000  0.41772000  1.0
  N  N178  1  0.89889000  0.08694000  0.48531000  1.0
  N  N179  1  0.22387000  0.97255000  0.59061000  1.0
  N  N180  1  0.60343000  0.59046000  0.01513000  1.0
  N  N181  1  0.27573000  0.47097000  0.91298000  1.0
  N  N182  1  0.39738000  0.58684000  0.98207000  1.0
  N  N183  1  0.71631000  0.47137000  0.08391000  1.0
  N  N184  1  0.54883000  0.86035000  0.29935000  1.0
  N  N185  1  0.20188000  0.31737000  0.55227000  1.0
  N  N186  1  0.45724000  0.85919000  0.70022000  1.0
  N  N187  1  0.74639000  0.28460000  0.42718000  1.0
  N  N188  1  0.03790000  0.36148000  0.79902000  1.0
  N  N189  1  0.71781000  0.81670000  0.05469000  1.0
  N  N190  1  0.95258000  0.40291000  0.22950000  1.0
  N  N191  1  0.29409000  0.81347000  0.94675000  1.0
  O  O192  1  0.94919000  0.15836000  0.31433000  1.0
  O  O193  1  0.15971000  0.87745000  0.74579000  1.0
  O  O194  1  0.05199000  0.16039000  0.69001000  1.0
  O  O195  1  0.84875000  0.87888000  0.25898000  1.0
  O  O196  1  0.44758000  0.65729000  0.81107000  1.0
  O  O197  1  0.64419000  0.40118000  0.24865000  1.0
  O  O198  1  0.54983000  0.66417000  0.18469000  1.0
  O  O199  1  0.33661000  0.37542000  0.75662000  1.0
  O  O200  1  0.95805000  0.06161000  0.77540000  1.0
  O  O201  1  0.99239000  0.80715000  0.33028000  1.0
  O  O202  1  0.04813000  0.05939000  0.23463000  1.0
  O  O203  1  0.00994000  0.80717000  0.67704000  1.0
  O  O204  1  0.45295000  0.56580000  0.26754000  1.0
  O  O205  1  0.48804000  0.30662000  0.82354000  1.0
  O  O206  1  0.54195000  0.55835000  0.72750000  1.0
  O  O207  1  0.50750000  0.31589000  0.17444000  1.0
  O  O208  1  0.16237000  0.17557000  0.44611000  1.0
  O  O209  1  0.62754000  0.96410000  0.43063000  1.0
  O  O210  1  0.81975000  0.17213000  0.55154000  1.0
  O  O211  1  0.37965000  0.96852000  0.57515000  1.0
  O  O212  1  0.67560000  0.67767000  0.94565000  1.0
  O  O213  1  0.11952000  0.46939000  0.92710000  1.0
  O  O214  1  0.33514000  0.67655000  0.05416000  1.0
  O  O215  1  0.87147000  0.46086000  0.07066000  1.0
  O  O216  1  0.53745000  0.85764000  0.36751000  1.0
  O  O217  1  0.48444000  0.84669000  0.25518000  1.0
  O  O218  1  0.25016000  0.28443000  0.50662000  1.0
  O  O219  1  0.20856000  0.38485000  0.56246000  1.0
  O  O220  1  0.46753000  0.86008000  0.63190000  1.0
  O  O221  1  0.52147000  0.84228000  0.74271000  1.0
  O  O222  1  0.74056000  0.28576000  0.49538000  1.0
  O  O223  1  0.68330000  0.30533000  0.38627000  1.0
  O  O224  1  0.02674000  0.36203000  0.86725000  1.0
  O  O225  1  0.97357000  0.34514000  0.75563000  1.0
  O  O226  1  0.76682000  0.78237000  0.01051000  1.0
  O  O227  1  0.72738000  0.88391000  0.06546000  1.0
  O  O228  1  0.00669000  0.37891000  0.27695000  1.0
  O  O229  1  0.98284000  0.44084000  0.17724000  1.0
  O  O230  1  0.24434000  0.77964000  0.99095000  1.0
  O  O231  1  0.28856000  0.88091000  0.93781000  1.0
