# generated using pymatgen
data_SmAgH11C15(NO6)2
_symmetry_space_group_name_H-M   'P 1'
_cell_length_a   7.59751000
_cell_length_b   8.23454000
_cell_length_c   14.21150000
_cell_angle_alpha   97.78720000
_cell_angle_beta   100.80600000
_cell_angle_gamma   94.12980000
_symmetry_Int_Tables_number   1
_chemical_formula_structural   SmAgH11C15(NO6)2
_chemical_formula_sum   'Sm2 Ag2 H22 C30 N4 O24'
_cell_volume   860.93417965
_cell_formula_units_Z   2
loop_
 _symmetry_equiv_pos_site_id
 _symmetry_equiv_pos_as_xyz
  1  'x, y, z'
loop_
 _atom_site_type_symbol
 _atom_site_label
 _atom_site_symmetry_multiplicity
 _atom_site_fract_x
 _atom_site_fract_y
 _atom_site_fract_z
 _atom_site_occupancy
  Sm  Sm0  1  0.81216000  0.29757000  0.08197000  1.0
  Sm  Sm1  1  0.18784000  0.70243000  0.91803000  1.0
  Ag  Ag2  1  0.17192000  0.40993000  0.53225000  1.0
  Ag  Ag3  1  0.82808000  0.59007000  0.46775000  1.0
  H  H4  1  0.20789000  0.18885000  0.12909000  1.0
  H  H5  1  0.79211000  0.81115000  0.87091000  1.0
  H  H6  1  0.13133000  0.11421000  0.01970000  1.0
  H  H7  1  0.86867000  0.88579000  0.98030000  1.0
  H  H8  1  0.78416000  0.55208000  0.95670000  1.0
  H  H9  1  0.21584000  0.44792000  0.04330000  1.0
  H  H10  1  0.63937000  0.62502000  0.01682000  1.0
  H  H11  1  0.36063000  0.37498000  0.98318000  1.0
  H  H12  1  0.97465000  0.00756000  0.82644000  1.0
  H  H13  1  0.02535000  0.99244000  0.17356000  1.0
  H  H14  1  0.03593000  0.46504000  0.71498000  1.0
  H  H15  1  0.96407000  0.53496000  0.28502000  1.0
  H  H16  1  0.52393000  0.70426000  0.24091000  1.0
  H  H17  1  0.47607000  0.29575000  0.75909000  1.0
  H  H18  1  0.32951000  0.29403000  0.36469000  1.0
  H  H19  1  0.67049000  0.70597000  0.63531000  1.0
  H  H20  1  0.16579000  0.03817000  0.56154000  1.0
  H  H21  1  0.83420000  0.96183000  0.43846000  1.0
  H  H22  1  0.27960000  0.76777000  0.49345000  1.0
  H  H23  1  0.72040000  0.23224000  0.50655000  1.0
  H  H24  1  0.45785000  0.08897000  0.26840000  1.0
  H  H25  1  0.54216000  0.91103000  0.73160000  1.0
  C  C26  1  0.92697000  0.33360000  0.86398000  1.0
  C  C27  1  0.07303000  0.66640000  0.13602000  1.0
  C  C28  1  0.49864000  0.36991000  0.21885000  1.0
  C  C29  1  0.50136000  0.63009000  0.78115000  1.0
  C  C30  1  0.56572000  0.93882000  0.01890000  1.0
  C  C31  1  0.43428000  0.06118000  0.98110000  1.0
  C  C32  1  0.99573000  0.24618000  0.78096000  1.0
  C  C33  1  0.00427000  0.75381000  0.21904000  1.0
  C  C34  1  0.43792000  0.48558000  0.29436000  1.0
  C  C35  1  0.56207000  0.51442000  0.70564000  1.0
  C  C36  1  0.01197000  0.07737000  0.77224000  1.0
  C  C37  1  0.98802000  0.92263000  0.22776000  1.0
  C  C38  1  0.04492000  0.33276000  0.71064000  1.0
  C  C39  1  0.95508000  0.66724000  0.28936000  1.0
  C  C40  1  0.46289000  0.65528000  0.29594000  1.0
  C  C41  1  0.53711000  0.34471000  0.70406000  1.0
  C  C42  1  0.35358000  0.42593000  0.36361000  1.0
  C  C43  1  0.64642000  0.57407000  0.63639000  1.0
  C  C44  1  0.07545000  0.99942000  0.69361000  1.0
  C  C45  1  0.92455000  0.00058000  0.30639000  1.0
  C  C46  1  0.40316000  0.76013000  0.36655000  1.0
  C  C47  1  0.59684000  0.23987000  0.63345000  1.0
  C  C48  1  0.11753000  0.09404000  0.62478000  1.0
  C  C49  1  0.88247000  0.90596000  0.37522000  1.0
  C  C50  1  0.09692000  0.81716000  0.68375000  1.0
  C  C51  1  0.90308000  0.18284000  0.31625000  1.0
  C  C52  1  0.32694000  0.69164000  0.43621000  1.0
  C  C53  1  0.67306000  0.30836000  0.56379000  1.0
  C  C54  1  0.40551000  0.94068000  0.36179000  1.0
  C  C55  1  0.59449000  0.05932000  0.63821000  1.0
  N  N56  1  0.10310000  0.25782000  0.63348000  1.0
  N  N57  1  0.89690000  0.74219000  0.36652000  1.0
  N  N58  1  0.30207000  0.52730000  0.43417000  1.0
  N  N59  1  0.69793000  0.47270000  0.56583000  1.0
  O  O60  1  0.86271000  0.24732000  0.91896000  1.0
  O  O61  1  0.13729000  0.75268000  0.08104000  1.0
  O  O62  1  0.61592000  0.42828000  0.17686000  1.0
  O  O63  1  0.38408000  0.57172000  0.82315000  1.0
  O  O64  1  0.72770000  0.99749000  0.05368000  1.0
  O  O65  1  0.27230000  0.00251000  0.94632000  1.0
  O  O66  1  0.09600000  0.16834000  0.07859000  1.0
  O  O67  1  0.90400000  0.83166000  0.92141000  1.0
  O  O68  1  0.71893000  0.53591000  0.00927000  1.0
  O  O69  1  0.28106000  0.46409000  0.99073000  1.0
  O  O70  1  0.49785000  0.20957000  0.98889000  1.0
  O  O71  1  0.50215000  0.79043000  0.01111000  1.0
  O  O72  1  0.06439000  0.50853000  0.12557000  1.0
  O  O73  1  0.93561000  0.49147000  0.87443000  1.0
  O  O74  1  0.91452000  0.25137000  0.24139000  1.0
  O  O75  1  0.08548000  0.74863000  0.75861000  1.0
  O  O76  1  0.42709000  0.22070000  0.20067000  1.0
  O  O77  1  0.57291000  0.77930000  0.79933000  1.0
  O  O78  1  0.12184000  0.74435000  0.60429000  1.0
  O  O79  1  0.87815000  0.25565000  0.39571000  1.0
  O  O80  1  0.48132000  0.97750000  0.28925000  1.0
  O  O81  1  0.51868000  0.02250000  0.71075000  1.0
  O  O82  1  0.33891000  0.03800000  0.41548000  1.0
  O  O83  1  0.66109000  0.96200000  0.58452000  1.0
