# generated using pymatgen
data_CdH7C7N7O
_symmetry_space_group_name_H-M   'P 1'
_cell_length_a   6.82850000
_cell_length_b   8.42422000
_cell_length_c   10.63669980
_cell_angle_alpha   93.62150870
_cell_angle_beta   108.35734068
_cell_angle_gamma   113.80860000
_symmetry_Int_Tables_number   1
_chemical_formula_structural   CdH7C7N7O
_chemical_formula_sum   'Cd2 H14 C14 N14 O2'
_cell_volume   518.39857102
_cell_formula_units_Z   2
loop_
 _symmetry_equiv_pos_site_id
 _symmetry_equiv_pos_as_xyz
  1  'x, y, z'
loop_
 _atom_site_type_symbol
 _atom_site_label
 _atom_site_symmetry_multiplicity
 _atom_site_fract_x
 _atom_site_fract_y
 _atom_site_fract_z
 _atom_site_occupancy
  Cd  Cd0  1  0.19971000  0.95297000  0.43775000  1.0
  Cd  Cd1  1  0.80029000  0.04702000  0.56225000  1.0
  H  H2  1  0.71356000  0.45469000  0.97553000  1.0
  H  H3  1  0.28645000  0.54530000  0.02447000  1.0
  H  H4  1  0.76402000  0.20543000  0.06807000  1.0
  H  H5  1  0.23599000  0.79456000  0.93193000  1.0
  H  H6  1  0.02034000  0.26452000  0.31399000  1.0
  H  H7  1  0.97966000  0.73548000  0.68601000  1.0
  H  H8  1  0.20978000  0.57392000  0.45502000  1.0
  H  H9  1  0.79023000  0.42608000  0.54499000  1.0
  H  H10  1  0.68422000  0.87785000  0.97391000  1.0
  H  H11  1  0.31578000  0.12215000  0.02609000  1.0
  H  H12  1  0.63958000  0.65469000  0.92161000  1.0
  H  H13  1  0.36041000  0.34530000  0.07838000  1.0
  H  H14  1  0.89015000  0.83756000  0.92764000  1.0
  H  H15  1  0.10985000  0.16244000  0.07236000  1.0
  C  C16  1  0.92942000  0.64552000  0.16798000  1.0
  C  C17  1  0.07059000  0.35447000  0.83202000  1.0
  C  C18  1  0.82162000  0.47786000  0.08158000  1.0
  C  C19  1  0.17838000  0.52214000  0.91842000  1.0
  C  C20  1  0.85172000  0.33758000  0.13360000  1.0
  C  C21  1  0.14828000  0.66242000  0.86640000  1.0
  C  C22  1  0.99066000  0.36922000  0.26903000  1.0
  C  C23  1  0.00935000  0.63079000  0.73098000  1.0
  C  C24  1  0.09673000  0.54142000  0.34851000  1.0
  C  C25  1  0.90327000  0.45859000  0.65149000  1.0
  C  C26  1  0.89724000  0.80169000  0.12361000  1.0
  C  C27  1  0.10275000  0.19831000  0.87638000  1.0
  C  C28  1  0.76647000  0.78912000  0.97889000  1.0
  C  C29  1  0.23353000  0.21088000  0.02111000  1.0
  N  N30  1  0.17726000  0.19017000  0.53684000  1.0
  N  N31  1  0.82272000  0.80983000  0.46315000  1.0
  N  N32  1  0.33372000  0.30608000  0.63165000  1.0
  N  N33  1  0.66628000  0.69392000  0.36835000  1.0
  N  N34  1  0.47946000  0.42014000  0.72279000  1.0
  N  N35  1  0.52053000  0.57986000  0.27720000  1.0
  N  N36  1  0.46218000  0.91654000  0.62060000  1.0
  N  N37  1  0.53783000  0.08346000  0.37941000  1.0
  N  N38  1  0.49162000  0.98390000  0.73331000  1.0
  N  N39  1  0.50838000  0.01610000  0.26669000  1.0
  N  N40  1  0.52147000  0.04673000  0.84239000  1.0
  N  N41  1  0.47854000  0.95328000  0.15761000  1.0
  N  N42  1  0.06580000  0.67501000  0.29929000  1.0
  N  N43  1  0.93420000  0.32499000  0.70071000  1.0
  O  O44  1  0.98301000  0.94401000  0.20794000  1.0
  O  O45  1  0.01698000  0.05599000  0.79205000  1.0
