# generated using pymatgen
data_NiH7C9NO5
_symmetry_space_group_name_H-M   'P 1'
_cell_length_a   9.63345000
_cell_length_b   10.85820000
_cell_length_c   11.60610000
_cell_angle_alpha   109.25400000
_cell_angle_beta   89.99170000
_cell_angle_gamma   89.91730000
_symmetry_Int_Tables_number   1
_chemical_formula_structural   NiH7C9NO5
_chemical_formula_sum   'Ni4 H28 C36 N4 O20'
_cell_volume   1146.11396412
_cell_formula_units_Z   4
loop_
 _symmetry_equiv_pos_site_id
 _symmetry_equiv_pos_as_xyz
  1  'x, y, z'
loop_
 _atom_site_type_symbol
 _atom_site_label
 _atom_site_symmetry_multiplicity
 _atom_site_fract_x
 _atom_site_fract_y
 _atom_site_fract_z
 _atom_site_occupancy
  Ni  Ni0  1  0.22574000  0.18650000  0.45865000  1.0
  Ni  Ni1  1  0.72562000  0.31355000  0.54104000  1.0
  Ni  Ni2  1  0.77489000  0.81347000  0.54154000  1.0
  Ni  Ni3  1  0.27502000  0.68647000  0.45876000  1.0
  H  H4  1  0.35291000  0.45692000  0.70681000  1.0
  H  H5  1  0.10848000  0.45828000  0.76298000  1.0
  H  H6  1  0.12607000  0.56175000  0.67260000  1.0
  H  H7  1  0.09404000  0.30158000  0.30160000  1.0
  H  H8  1  0.98902000  0.23056000  0.09671000  1.0
  H  H9  1  0.09099000  0.83317000  0.07170000  1.0
  H  H10  1  0.19157000  0.92248000  0.27872000  1.0
  H  H11  1  0.85278000  0.04264000  0.29292000  1.0
  H  H12  1  0.60841000  0.04146000  0.23691000  1.0
  H  H13  1  0.62624000  0.93825000  0.32755000  1.0
  H  H14  1  0.59384000  0.19859000  0.69785000  1.0
  H  H15  1  0.48905000  0.26953000  0.90293000  1.0
  H  H16  1  0.59110000  0.66682000  0.92853000  1.0
  H  H17  1  0.69159000  0.57757000  0.72132000  1.0
  H  H18  1  0.64779000  0.54415000  0.29241000  1.0
  H  H19  1  0.89241000  0.54339000  0.23634000  1.0
  H  H20  1  0.87465000  0.43873000  0.32553000  1.0
  H  H21  1  0.90870000  0.69808000  0.69752000  1.0
  H  H22  1  0.01376000  0.76894000  0.90244000  1.0
  H  H23  1  0.90257000  0.16550000  0.93140000  1.0
  H  H24  1  0.80473000  0.07662000  0.72332000  1.0
  H  H25  1  0.14793000  0.95629000  0.70789000  1.0
  H  H26  1  0.39250000  0.95673000  0.76377000  1.0
  H  H27  1  0.37451000  0.06126000  0.67443000  1.0
  H  H28  1  0.40877000  0.80176000  0.30292000  1.0
  H  H29  1  0.51368000  0.73098000  0.09786000  1.0
  H  H30  1  0.40273000  0.33453000  0.06840000  1.0
  H  H31  1  0.30490000  0.42333000  0.27664000  1.0
  C  C32  1  0.31834000  0.43544000  0.51791000  1.0
  C  C33  1  0.28003000  0.40424000  0.63373000  1.0
  C  C34  1  0.13245000  0.45973000  0.67072000  1.0
  C  C35  1  0.02000000  0.38003000  0.58685000  1.0
  C  C36  1  0.09202000  0.19896000  0.24621000  1.0
  C  C37  1  0.03326000  0.15699000  0.13077000  1.0
  C  C38  1  0.03054000  0.02354000  0.06205000  1.0
  C  C39  1  0.09001000  0.93832000  0.11691000  1.0
  C  C40  1  0.14839000  0.98649000  0.23251000  1.0
  C  C41  1  0.81836000  0.06459000  0.48196000  1.0
  C  C42  1  0.77989000  0.09555000  0.36608000  1.0
  C  C43  1  0.63236000  0.04022000  0.32925000  1.0
  C  C44  1  0.51974000  0.12021000  0.41310000  1.0
  C  C45  1  0.59192000  0.30116000  0.75341000  1.0
  C  C46  1  0.53326000  0.34310000  0.86896000  1.0
  C  C47  1  0.53061000  0.47649000  0.93791000  1.0
  C  C48  1  0.59006000  0.56169000  0.88316000  1.0
  C  C49  1  0.64837000  0.51357000  0.76744000  1.0
  C  C50  1  0.68261000  0.56446000  0.48104000  1.0
  C  C51  1  0.72078000  0.59636000  0.36554000  1.0
  C  C52  1  0.86833000  0.54101000  0.32831000  1.0
  C  C53  1  0.98068000  0.62007000  0.41277000  1.0
  C  C54  1  0.90916000  0.80048000  0.75359000  1.0
  C  C55  1  0.96755000  0.84233000  0.86922000  1.0
  C  C56  1  0.96777000  0.97551000  0.93901000  1.0
  C  C57  1  0.90623000  0.06058000  0.88504000  1.0
  C  C58  1  0.84902000  0.01260000  0.76898000  1.0
  C  C59  1  0.18259000  0.93553000  0.51913000  1.0
  C  C60  1  0.22091000  0.90385000  0.63467000  1.0
  C  C61  1  0.36841000  0.95901000  0.67176000  1.0
  C  C62  1  0.48093000  0.87969000  0.58729000  1.0
  C  C63  1  0.40924000  0.69940000  0.24672000  1.0
  C  C64  1  0.46756000  0.65760000  0.13100000  1.0
  C  C65  1  0.46785000  0.52448000  0.06104000  1.0
  C  C66  1  0.40638000  0.43942000  0.11492000  1.0
  C  C67  1  0.34916000  0.48734000  0.23105000  1.0
  N  N68  1  0.14951000  0.11492000  0.29575000  1.0
  N  N69  1  0.64940000  0.38519000  0.70398000  1.0
  N  N70  1  0.85033000  0.88444000  0.70470000  1.0
  N  N71  1  0.35047000  0.61545000  0.29553000  1.0
  O  O72  1  0.30173000  0.34120000  0.41731000  1.0
  O  O73  1  0.35386000  0.54968000  0.52823000  1.0
  O  O74  1  0.28866000  0.27084000  0.61522000  1.0
  O  O75  1  0.04738000  0.27466000  0.50188000  1.0
  O  O76  1  0.89579000  0.42391000  0.60745000  1.0
  O  O77  1  0.80174000  0.15929000  0.58242000  1.0
  O  O78  1  0.85411000  0.95054000  0.47218000  1.0
  O  O79  1  0.78851000  0.22893000  0.38446000  1.0
  O  O80  1  0.54697000  0.22557000  0.49784000  1.0
  O  O81  1  0.39559000  0.07636000  0.39244000  1.0
  O  O82  1  0.69883000  0.65855000  0.58186000  1.0
  O  O83  1  0.64769000  0.44997000  0.47030000  1.0
  O  O84  1  0.71225000  0.72992000  0.38475000  1.0
  O  O85  1  0.95330000  0.72501000  0.49822000  1.0
  O  O86  1  0.10481000  0.57606000  0.39208000  1.0
  O  O87  1  0.19882000  0.84100000  0.41842000  1.0
  O  O88  1  0.14740000  0.04982000  0.52932000  1.0
  O  O89  1  0.21239000  0.77030000  0.61556000  1.0
  O  O90  1  0.45373000  0.77476000  0.50203000  1.0
  O  O91  1  0.60501000  0.92368000  0.60799000  1.0
