# generated using pymatgen
data_ZnH3C2SN3O4
_symmetry_space_group_name_H-M   'P 1'
_cell_length_a   5.19156000
_cell_length_b   7.81388000
_cell_length_c   14.98920000
_cell_angle_alpha   87.57840000
_cell_angle_beta   88.28340000
_cell_angle_gamma   85.74970000
_symmetry_Int_Tables_number   1
_chemical_formula_structural   ZnH3C2SN3O4
_chemical_formula_sum   'Zn4 H12 C8 S4 N12 O16'
_cell_volume   605.62189410
_cell_formula_units_Z   4
loop_
 _symmetry_equiv_pos_site_id
 _symmetry_equiv_pos_as_xyz
  1  'x, y, z'
loop_
 _atom_site_type_symbol
 _atom_site_label
 _atom_site_symmetry_multiplicity
 _atom_site_fract_x
 _atom_site_fract_y
 _atom_site_fract_z
 _atom_site_occupancy
  Zn  Zn0  1  0.50000000  0.50000000  0.00000000  1.0
  Zn  Zn1  1  0.17388000  0.10046000  0.73417000  1.0
  Zn  Zn2  1  0.82611000  0.89954000  0.26583000  1.0
  Zn  Zn3  1  0.50000000  0.00000000  0.50000000  1.0
  H  H4  1  0.67291000  0.09645000  0.85645000  1.0
  H  H5  1  0.32709000  0.90356000  0.14355000  1.0
  H  H6  1  0.13854000  0.71792000  0.83889000  1.0
  H  H7  1  0.86146000  0.28209000  0.16111000  1.0
  H  H8  1  0.14761000  0.66684000  0.48218000  1.0
  H  H9  1  0.85238000  0.33316000  0.51781000  1.0
  H  H10  1  0.59224000  0.54996000  0.24883000  1.0
  H  H11  1  0.40776000  0.45004000  0.75117000  1.0
  H  H12  1  0.77821000  0.84619000  0.97443000  1.0
  H  H13  1  0.22179000  0.15381000  0.02557000  1.0
  H  H14  1  0.20927000  0.45377000  0.35206000  1.0
  H  H15  1  0.79073000  0.54623000  0.64794000  1.0
  C  C16  1  0.56794000  0.98225000  0.86709000  1.0
  C  C17  1  0.43205000  0.01774000  0.13291000  1.0
  C  C18  1  0.29763000  0.78834000  0.85947000  1.0
  C  C19  1  0.70237000  0.21166000  0.14053000  1.0
  C  C20  1  0.29529000  0.66939000  0.42968000  1.0
  C  C21  1  0.70471000  0.33061000  0.57032000  1.0
  C  C22  1  0.52046000  0.60896000  0.30980000  1.0
  C  C23  1  0.47954000  0.39104000  0.69020000  1.0
  S  S24  1  0.02855000  0.33139000  0.89481000  1.0
  S  S25  1  0.97145000  0.66861000  0.10519000  1.0
  S  S26  1  0.00114000  0.84150000  0.62593000  1.0
  S  S27  1  0.99886000  0.15849000  0.37407000  1.0
  N  N28  1  0.45611000  0.73407000  0.92410000  1.0
  N  N29  1  0.54389000  0.26593000  0.07590000  1.0
  N  N30  1  0.62537000  0.85780000  0.92793000  1.0
  N  N31  1  0.37462000  0.14221000  0.07206000  1.0
  N  N32  1  0.36125000  0.94239000  0.82256000  1.0
  N  N33  1  0.63875000  0.05762000  0.17744000  1.0
  N  N34  1  0.45990000  0.78991000  0.41720000  1.0
  N  N35  1  0.54009000  0.21009000  0.58280000  1.0
  N  N36  1  0.60291000  0.75117000  0.34104000  1.0
  N  N37  1  0.39709000  0.24882000  0.65896000  1.0
  N  N38  1  0.32914000  0.55484000  0.36415000  1.0
  N  N39  1  0.67086000  0.44516000  0.63585000  1.0
  O  O40  1  0.84448000  0.47719000  0.91822000  1.0
  O  O41  1  0.15552000  0.52281000  0.08178000  1.0
  O  O42  1  0.29995000  0.38389000  0.89468000  1.0
  O  O43  1  0.70005000  0.61611000  0.10532000  1.0
  O  O44  1  0.00119000  0.17890000  0.95570000  1.0
  O  O45  1  0.99881000  0.82110000  0.04430000  1.0
  O  O46  1  0.97052000  0.28417000  0.80104000  1.0
  O  O47  1  0.02949000  0.71583000  0.19896000  1.0
  O  O48  1  0.89210000  0.97597000  0.68945000  1.0
  O  O49  1  0.10790000  0.02403000  0.31055000  1.0
  O  O50  1  0.00258000  0.66948000  0.67136000  1.0
  O  O51  1  0.99742000  0.33052000  0.32865000  1.0
  O  O52  1  0.84155000  0.84775000  0.54530000  1.0
  O  O53  1  0.15845000  0.15224000  0.45470000  1.0
  O  O54  1  0.27402000  0.87965000  0.60317000  1.0
  O  O55  1  0.72598000  0.12034000  0.39683000  1.0
