# generated using pymatgen
data_ZnB2H12C4(N8O)2
_symmetry_space_group_name_H-M   'P 1'
_cell_length_a   8.82521000
_cell_length_b   9.82150000
_cell_length_c   9.96418358
_cell_angle_alpha   89.96530946
_cell_angle_beta   64.32296649
_cell_angle_gamma   89.97700000
_symmetry_Int_Tables_number   1
_chemical_formula_structural   ZnB2H12C4(N8O)2
_chemical_formula_sum   'Zn2 B4 H24 C8 N32 O4'
_cell_volume   778.37729145
_cell_formula_units_Z   2
loop_
 _symmetry_equiv_pos_site_id
 _symmetry_equiv_pos_as_xyz
  1  'x, y, z'
loop_
 _atom_site_type_symbol
 _atom_site_label
 _atom_site_symmetry_multiplicity
 _atom_site_fract_x
 _atom_site_fract_y
 _atom_site_fract_z
 _atom_site_occupancy
  Zn  Zn0  1  0.24848000  0.91675000  0.00130000  1.0
  Zn  Zn1  1  0.75082000  0.41694000  0.99991000  1.0
  B  B2  1  0.80249000  0.66836000  0.50338000  1.0
  B  B3  1  0.31026000  0.66513000  0.50162000  1.0
  B  B4  1  0.68901000  0.16347000  0.50010000  1.0
  B  B5  1  0.19711000  0.16946000  0.49724000  1.0
  H  H6  1  0.88695000  0.76998000  0.48323000  1.0
  H  H7  1  0.37308000  0.76531000  0.52642000  1.0
  H  H8  1  0.62574000  0.26343000  0.47530000  1.0
  H  H9  1  0.11311000  0.27140000  0.51741000  1.0
  H  H10  1  0.86861000  0.56782000  0.52416000  1.0
  H  H11  1  0.39522000  0.56365000  0.47724000  1.0
  H  H12  1  0.60417000  0.06190000  0.52512000  1.0
  H  H13  1  0.13041000  0.06918000  0.47679000  1.0
  H  H14  1  0.65104000  0.90243000  0.70134000  1.0
  H  H15  1  0.33750000  0.90892000  0.31514000  1.0
  H  H16  1  0.65910000  0.40743000  0.68660000  1.0
  H  H17  1  0.35092000  0.40348000  0.29956000  1.0
  H  H18  1  0.85746000  0.43364000  0.30329000  1.0
  H  H19  1  0.14575000  0.42330000  0.68821000  1.0
  H  H20  1  0.85390000  0.92159000  0.31356000  1.0
  H  H21  1  0.13979000  0.93490000  0.69811000  1.0
  H  H22  1  0.54839000  0.05505000  0.97668000  1.0
  H  H23  1  0.45009000  0.55515000  0.02606000  1.0
  H  H24  1  0.41113000  0.14284000  0.95489000  1.0
  H  H25  1  0.59095000  0.64370000  0.04002000  1.0
  H  H26  1  0.11282000  0.68629000  0.99003000  1.0
  H  H27  1  0.89776000  0.18688000  0.99306000  1.0
  H  H28  1  0.97777000  0.77677000  0.97021000  1.0
  H  H29  1  0.02109000  0.27587000  0.03147000  1.0
  C  C30  1  0.57798000  0.80922000  0.72190000  1.0
  C  C31  1  0.29562000  0.81328000  0.28781000  1.0
  C  C32  1  0.70315000  0.31247000  0.71333000  1.0
  C  C33  1  0.42286000  0.30959000  0.27872000  1.0
  C  C34  1  0.80144000  0.52532000  0.28274000  1.0
  C  C35  1  0.08046000  0.52034000  0.71514000  1.0
  C  C36  1  0.91849000  0.01890000  0.28600000  1.0
  C  C37  1  0.19710000  0.02597000  0.71819000  1.0
  N  N38  1  0.63154000  0.69539000  0.64100000  1.0
  N  N39  1  0.27592000  0.69700000  0.36414000  1.0
  N  N40  1  0.72429000  0.19606000  0.63700000  1.0
  N  N41  1  0.36802000  0.19584000  0.35956000  1.0
  N  N42  1  0.50889000  0.60042000  0.70152000  1.0
  N  N43  1  0.23006000  0.59942000  0.29332000  1.0
  N  N44  1  0.77327000  0.09949000  0.70680000  1.0
  N  N45  1  0.48942000  0.09989000  0.29863000  1.0
  N  N46  1  0.38510000  0.65597000  0.81407000  1.0
  N  N47  1  0.22197000  0.65483000  0.17807000  1.0
  N  N48  1  0.78189000  0.15575000  0.82141000  1.0
  N  N49  1  0.61368000  0.15468000  0.18581000  1.0
  N  N50  1  0.42501000  0.78707000  0.83019000  1.0
  N  N51  1  0.26273000  0.78944000  0.17155000  1.0
  N  N52  1  0.73823000  0.28970000  0.82861000  1.0
  N  N53  1  0.57533000  0.28641000  0.17006000  1.0
  N  N54  1  0.76927000  0.63923000  0.36437000  1.0
  N  N55  1  0.13980000  0.63572000  0.63819000  1.0
  N  N56  1  0.85896000  0.13420000  0.36292000  1.0
  N  N57  1  0.23057000  0.13980000  0.63609000  1.0
  N  N58  1  0.70240000  0.73115000  0.30365000  1.0
  N  N59  1  0.02784000  0.73548000  0.70804000  1.0
  N  N60  1  0.96973000  0.23438000  0.29208000  1.0
  N  N61  1  0.29925000  0.23082000  0.69597000  1.0
  N  N62  1  0.69319000  0.67366000  0.19009000  1.0
  N  N63  1  0.90456000  0.68236000  0.82336000  1.0
  N  N64  1  0.09254000  0.18165000  0.17619000  1.0
  N  N65  1  0.30825000  0.17289000  0.80947000  1.0
  N  N66  1  0.75536000  0.54454000  0.17345000  1.0
  N  N67  1  0.93418000  0.54685000  0.83079000  1.0
  N  N68  1  0.06383000  0.04587000  0.16941000  1.0
  N  N69  1  0.24406000  0.04442000  0.82701000  1.0
  O  O70  1  0.42730000  0.06493000  0.00965000  1.0
  O  O71  1  0.57191000  0.56403000  0.98943000  1.0
  O  O72  1  0.05263000  0.77315000  0.01958000  1.0
  O  O73  1  0.95114000  0.27660000  0.97719000  1.0
