# generated using pymatgen
data_Tb2H20C24N2O17
_symmetry_space_group_name_H-M   'P 1'
_cell_length_a   8.54248000
_cell_length_b   15.45260000
_cell_length_c   28.23910000
_cell_angle_alpha   89.99990000
_cell_angle_beta   89.99990000
_cell_angle_gamma   90.00000000
_symmetry_Int_Tables_number   1
_chemical_formula_structural   Tb2H20C24N2O17
_chemical_formula_sum   'Tb8 H80 C96 N8 O68'
_cell_volume   3727.66078371
_cell_formula_units_Z   4
loop_
 _symmetry_equiv_pos_site_id
 _symmetry_equiv_pos_as_xyz
  1  'x, y, z'
loop_
 _atom_site_type_symbol
 _atom_site_label
 _atom_site_symmetry_multiplicity
 _atom_site_fract_x
 _atom_site_fract_y
 _atom_site_fract_z
 _atom_site_occupancy
  Tb  Tb0  1  0.05423000  0.79593000  0.41251000  1.0
  Tb  Tb1  1  0.44577000  0.29593000  0.58749000  1.0
  Tb  Tb2  1  0.55423000  0.70407000  0.08749000  1.0
  Tb  Tb3  1  0.94577000  0.20407000  0.91251000  1.0
  Tb  Tb4  1  0.94577000  0.20407000  0.58749000  1.0
  Tb  Tb5  1  0.55423000  0.70407000  0.41250000  1.0
  Tb  Tb6  1  0.44577000  0.29593000  0.91251000  1.0
  Tb  Tb7  1  0.05423000  0.79593000  0.08749000  1.0
  H  H8  1  0.03862000  0.00875000  0.45299000  1.0
  H  H9  1  0.46138000  0.50875000  0.54701000  1.0
  H  H10  1  0.53861000  0.49125000  0.04701000  1.0
  H  H11  1  0.96139000  0.99125000  0.95299000  1.0
  H  H12  1  0.96139000  0.99125000  0.54701000  1.0
  H  H13  1  0.53861000  0.49125000  0.45299000  1.0
  H  H14  1  0.46139000  0.50875000  0.95299000  1.0
  H  H15  1  0.03861000  0.00875000  0.04701000  1.0
  H  H16  1  0.93123000  0.19869000  0.41163000  1.0
  H  H17  1  0.56877000  0.69869000  0.58837000  1.0
  H  H18  1  0.43123000  0.30131000  0.08837000  1.0
  H  H19  1  0.06877000  0.80131000  0.91163000  1.0
  H  H20  1  0.06877000  0.80131000  0.58837000  1.0
  H  H21  1  0.43123000  0.30131000  0.41163000  1.0
  H  H22  1  0.56877000  0.69869000  0.91163000  1.0
  H  H23  1  0.93123000  0.19868000  0.08837000  1.0
  H  H24  1  0.12988000  0.21584000  0.42837000  1.0
  H  H25  1  0.37013000  0.71584000  0.57163000  1.0
  H  H26  1  0.62987000  0.28416000  0.07163000  1.0
  H  H27  1  0.87012000  0.78416000  0.92837000  1.0
  H  H28  1  0.87013000  0.78416000  0.57163000  1.0
  H  H29  1  0.62987000  0.28416000  0.42837000  1.0
  H  H30  1  0.37012000  0.71584000  0.92837000  1.0
  H  H31  1  0.12988000  0.21584000  0.07163000  1.0
  H  H32  1  0.00730000  0.14702000  0.46312000  1.0
  H  H33  1  0.49270000  0.64702000  0.53688000  1.0
  H  H34  1  0.50730000  0.35298000  0.03688000  1.0
  H  H35  1  0.99270000  0.85298000  0.96312000  1.0
  H  H36  1  0.99270000  0.85298000  0.53688000  1.0
  H  H37  1  0.50730000  0.35298000  0.46312000  1.0
  H  H38  1  0.49270000  0.64702000  0.96312000  1.0
  H  H39  1  0.00730000  0.14702000  0.03688000  1.0
  H  H40  1  0.18641000  0.05178000  0.33567000  1.0
  H  H41  1  0.31358000  0.55178000  0.66433000  1.0
  H  H42  1  0.68641000  0.44822000  0.16433000  1.0
  H  H43  1  0.81358000  0.94822000  0.83567000  1.0
  H  H44  1  0.81358000  0.94822000  0.66433000  1.0
  H  H45  1  0.68642000  0.44822000  0.33567000  1.0
  H  H46  1  0.31358000  0.55178000  0.83567000  1.0
  H  H47  1  0.18642000  0.05178000  0.16433000  1.0
  H  H48  1  0.20862000  0.16500000  0.34834000  1.0
  H  H49  1  0.29138000  0.66500000  0.65166000  1.0
  H  H50  1  0.70862000  0.33500000  0.15166000  1.0
  H  H51  1  0.79138000  0.83500000  0.84834000  1.0
  H  H52  1  0.79138000  0.83500000  0.65166000  1.0
  H  H53  1  0.70862000  0.33500000  0.34834000  1.0
  H  H54  1  0.29138000  0.66500000  0.84834000  1.0
  H  H55  1  0.20862000  0.16500000  0.15166000  1.0
  H  H56  1  0.02502000  0.12409000  0.32771000  1.0
  H  H57  1  0.47498000  0.62409000  0.67229000  1.0
  H  H58  1  0.52502000  0.37591000  0.17229000  1.0
  H  H59  1  0.97498000  0.87591000  0.82771000  1.0
  H  H60  1  0.97498000  0.87591000  0.67229000  1.0
  H  H61  1  0.52502000  0.37591000  0.32771000  1.0
  H  H62  1  0.47498000  0.62409000  0.82771000  1.0
  H  H63  1  0.02502000  0.12409000  0.17229000  1.0
  H  H64  1  0.89862000  0.52253000  0.40079000  1.0
  H  H65  1  0.60138000  0.02253000  0.59921000  1.0
  H  H66  1  0.39862000  0.97747000  0.09921000  1.0
  H  H67  1  0.10138000  0.47747000  0.90079000  1.0
  H  H68  1  0.10138000  0.47747000  0.59921000  1.0
  H  H69  1  0.39862000  0.97747000  0.40079000  1.0
  H  H70  1  0.60138000  0.02253000  0.90079000  1.0
  H  H71  1  0.89862000  0.52253000  0.09921000  1.0
  H  H72  1  0.86179000  0.37121000  0.45260000  1.0
  H  H73  1  0.63821000  0.87121000  0.54740000  1.0
  H  H74  1  0.36179000  0.12879000  0.04740000  1.0
  H  H75  1  0.13821000  0.62879000  0.95260000  1.0
  H  H76  1  0.13821000  0.62879000  0.54740000  1.0
  H  H77  1  0.36179000  0.12879000  0.45260000  1.0
  H  H78  1  0.63821000  0.87121000  0.95260000  1.0
  H  H79  1  0.86179000  0.37121000  0.04740000  1.0
  H  H80  1  0.64817000  0.59129000  0.29890000  1.0
  H  H81  1  0.85183000  0.09129000  0.70110000  1.0
  H  H82  1  0.14817000  0.90871000  0.20110000  1.0
  H  H83  1  0.35183000  0.40871000  0.79890000  1.0
  H  H84  1  0.35183000  0.40871000  0.70110000  1.0
  H  H85  1  0.14817000  0.90871000  0.29890000  1.0
  H  H86  1  0.85183000  0.09129000  0.79890000  1.0
  H  H87  1  0.64817000  0.59129000  0.20110000  1.0
  C  C88  1  0.07533000  0.01270000  0.41566000  1.0
  C  C89  1  0.42467000  0.51270000  0.58434000  1.0
  C  C90  1  0.57533000  0.48729000  0.08434000  1.0
  C  C91  1  0.92467000  0.98729000  0.91566000  1.0
  C  C92  1  0.92467000  0.98729000  0.58434000  1.0
  C  C93  1  0.57533000  0.48729000  0.41566000  1.0
  C  C94  1  0.42467000  0.51271000  0.91566000  1.0
  C  C95  1  0.07533000  0.01271000  0.08434000  1.0
  C  C96  1  0.03544000  0.16748000  0.42700000  1.0
  C  C97  1  0.46456000  0.66748000  0.57300000  1.0
  C  C98  1  0.53544000  0.33252000  0.07300000  1.0
  C  C99  1  0.96456000  0.83252000  0.92700000  1.0
  C  C100  1  0.96456000  0.83252000  0.57300000  1.0
  C  C101  1  0.53544000  0.33252000  0.42700000  1.0
  C  C102  1  0.46456000  0.66748000  0.92700000  1.0
  C  C103  1  0.03544000  0.16748000  0.07300000  1.0
  C  C104  1  0.12828000  0.10949000  0.34969000  1.0
  C  C105  1  0.37172000  0.60949000  0.65031000  1.0
  C  C106  1  0.62828000  0.39051000  0.15031000  1.0
  C  C107  1  0.87172000  0.89051000  0.84969000  1.0
  C  C108  1  0.87172000  0.89051000  0.65031000  1.0
  C  C109  1  0.62828000  0.39051000  0.34969000  1.0
  C  C110  1  0.37172000  0.60949000  0.84969000  1.0
  C  C111  1  0.12828000  0.10949000  0.15031000  1.0
  C  C112  1  0.14705000  0.33581000  0.51055000  1.0
  C  C113  1  0.35295000  0.83581000  0.48945000  1.0
  C  C114  1  0.64705000  0.16419000  0.98945000  1.0
  C  C115  1  0.85295000  0.66419000  0.01055000  1.0
  C  C116  1  0.85296000  0.66419000  0.48945000  1.0
  C  C117  1  0.64704000  0.16419000  0.51055000  1.0
  C  C118  1  0.35295000  0.83581000  0.01055000  1.0
  C  C119  1  0.14705000  0.33581000  0.98945000  1.0
  C  C120  1  0.20658000  0.60249000  0.42092000  1.0
  C  C121  1  0.29342000  0.10249000  0.57908000  1.0
  C  C122  1  0.70658000  0.89751000  0.07908000  1.0
  C  C123  1  0.79342000  0.39751000  0.92092000  1.0
  C  C124  1  0.79342000  0.39751000  0.57908000  1.0
  C  C125  1  0.70658000  0.89751000  0.42092000  1.0
  C  C126  1  0.29342000  0.10249000  0.92092000  1.0
  C  C127  1  0.20658000  0.60249000  0.07908000  1.0
  C  C128  1  0.10239000  0.39941000  0.47400000  1.0
  C  C129  1  0.39761000  0.89941000  0.52600000  1.0
  C  C130  1  0.60239000  0.10059000  0.02600000  1.0
  C  C131  1  0.89761000  0.60059000  0.97400000  1.0
  C  C132  1  0.89761000  0.60059000  0.52600000  1.0
  C  C133  1  0.60239000  0.10059000  0.47400000  1.0
  C  C134  1  0.39761000  0.89941000  0.97400000  1.0
  C  C135  1  0.10239000  0.39941000  0.02600000  1.0
  C  C136  1  0.98301000  0.48937000  0.42306000  1.0
  C  C137  1  0.51699000  0.98937000  0.57693000  1.0
  C  C138  1  0.48301000  0.01063000  0.07694000  1.0
  C  C139  1  0.01699000  0.51063000  0.92306000  1.0
  C  C140  1  0.01699000  0.51063000  0.57694000  1.0
  C  C141  1  0.48301000  0.01063000  0.42307000  1.0
  C  C142  1  0.51699000  0.98937000  0.92307000  1.0
  C  C143  1  0.98301000  0.48937000  0.07693000  1.0
  C  C144  1  0.96442000  0.41208000  0.44957000  1.0
  C  C145  1  0.53559000  0.91208000  0.55043000  1.0
  C  C146  1  0.46441000  0.08792000  0.05043000  1.0
  C  C147  1  0.03559000  0.58792000  0.94957000  1.0
  C  C148  1  0.03559000  0.58792000  0.55043000  1.0
  C  C149  1  0.46441000  0.08792000  0.44957000  1.0
  C  C150  1  0.53559000  0.91208000  0.94957000  1.0
  C  C151  1  0.96441000  0.41208000  0.05043000  1.0
  C  C152  1  0.85506000  0.73456000  0.33519000  1.0
  C  C153  1  0.64494000  0.23456000  0.66481000  1.0
  C  C154  1  0.35506000  0.76544000  0.16481000  1.0
  C  C155  1  0.14494000  0.26544000  0.83519000  1.0
  C  C156  1  0.14494000  0.26544000  0.66481000  1.0
  C  C157  1  0.35506000  0.76544000  0.33519000  1.0
  C  C158  1  0.64494000  0.23456000  0.83519000  1.0
  C  C159  1  0.85506000  0.73456000  0.16481000  1.0
  C  C160  1  0.80834000  0.70050000  0.28889000  1.0
  C  C161  1  0.69166000  0.20050000  0.71111000  1.0
  C  C162  1  0.30834000  0.79950000  0.21111000  1.0
  C  C163  1  0.19166000  0.29950000  0.78889000  1.0
  C  C164  1  0.19166000  0.29950000  0.71111000  1.0
  C  C165  1  0.30834000  0.79950000  0.28889000  1.0
  C  C166  1  0.69166000  0.20050000  0.78889000  1.0
  C  C167  1  0.80835000  0.70050000  0.21111000  1.0
  C  C168  1  0.71332000  0.63271000  0.27504000  1.0
  C  C169  1  0.78668000  0.13271000  0.72496000  1.0
  C  C170  1  0.21332000  0.86729000  0.22496000  1.0
  C  C171  1  0.28668000  0.36729000  0.77504000  1.0
  C  C172  1  0.28668000  0.36729000  0.72496000  1.0
  C  C173  1  0.21332000  0.86729000  0.27504000  1.0
  C  C174  1  0.78668000  0.13271000  0.77504000  1.0
  C  C175  1  0.71333000  0.63271000  0.22496000  1.0
  C  C176  1  0.13130000  0.51961000  0.43301000  1.0
  C  C177  1  0.36870000  0.01961000  0.56699000  1.0
  C  C178  1  0.63130000  0.98039000  0.06699000  1.0
  C  C179  1  0.86870000  0.48039000  0.93301000  1.0
  C  C180  1  0.86870000  0.48039000  0.56699000  1.0
  C  C181  1  0.63130000  0.98039000  0.43301000  1.0
  C  C182  1  0.36870000  0.01961000  0.93301000  1.0
  C  C183  1  0.13130000  0.51961000  0.06699000  1.0
  N  N184  1  0.08272000  0.09365000  0.39851000  1.0
  N  N185  1  0.41728000  0.59365000  0.60149000  1.0
  N  N186  1  0.58272000  0.40635000  0.10149000  1.0
  N  N187  1  0.91728000  0.90635000  0.89851000  1.0
  N  N188  1  0.91728000  0.90635000  0.60149000  1.0
  N  N189  1  0.58272000  0.40635000  0.39851000  1.0
  N  N190  1  0.41728000  0.59365000  0.89851000  1.0
  N  N191  1  0.08272000  0.09365000  0.10149000  1.0
  O  O192  1  0.10789000  0.94698000  0.39175000  1.0
  O  O193  1  0.39211000  0.44698000  0.60825000  1.0
  O  O194  1  0.60788000  0.55302000  0.10825000  1.0
  O  O195  1  0.89211000  0.05302000  0.89175000  1.0
  O  O196  1  0.89211000  0.05302000  0.60825000  1.0
  O  O197  1  0.60789000  0.55302000  0.39175000  1.0
  O  O198  1  0.39211000  0.44697000  0.89175000  1.0
  O  O199  1  0.10789000  0.94698000  0.10825000  1.0
  O  O200  1  0.28566000  0.33965000  0.52677000  1.0
  O  O201  1  0.21434000  0.83965000  0.47323000  1.0
  O  O202  1  0.78566000  0.16035000  0.97322000  1.0
  O  O203  1  0.71434000  0.66035000  0.02677000  1.0
  O  O204  1  0.71434000  0.66035000  0.47323000  1.0
  O  O205  1  0.78567000  0.16034000  0.52678000  1.0
  O  O206  1  0.21433000  0.83966000  0.02678000  1.0
  O  O207  1  0.28566000  0.33965000  0.97322000  1.0
  O  O208  1  0.04095000  0.28281000  0.52279000  1.0
  O  O209  1  0.45905000  0.78281000  0.47721000  1.0
  O  O210  1  0.54095000  0.21719000  0.97721000  1.0
  O  O211  1  0.95905000  0.71719000  0.02279000  1.0
  O  O212  1  0.95905000  0.71719000  0.47721000  1.0
  O  O213  1  0.54095000  0.21719000  0.52279000  1.0
  O  O214  1  0.45905000  0.78281000  0.02279000  1.0
  O  O215  1  0.04095000  0.28281000  0.97721000  1.0
  O  O216  1  0.20607000  0.46444000  0.46360000  1.0
  O  O217  1  0.29393000  0.96444000  0.53639000  1.0
  O  O218  1  0.70607000  0.03556000  0.03639000  1.0
  O  O219  1  0.79393000  0.53556000  0.96361000  1.0
  O  O220  1  0.79393000  0.53556000  0.53640000  1.0
  O  O221  1  0.70607000  0.03556000  0.46361000  1.0
  O  O222  1  0.29393000  0.96444000  0.96361000  1.0
  O  O223  1  0.20607000  0.46444000  0.03639000  1.0
  O  O224  1  0.12317000  0.65367000  0.39642000  1.0
  O  O225  1  0.37683000  0.15368000  0.60358000  1.0
  O  O226  1  0.62317000  0.84632000  0.10358000  1.0
  O  O227  1  0.87683000  0.34632000  0.89642000  1.0
  O  O228  1  0.87683000  0.34632000  0.60358000  1.0
  O  O229  1  0.62316000  0.84633000  0.39642000  1.0
  O  O230  1  0.37683000  0.15368000  0.89642000  1.0
  O  O231  1  0.12317000  0.65367000  0.10358000  1.0
  O  O232  1  0.34351000  0.61785000  0.43655000  1.0
  O  O233  1  0.15649000  0.11785000  0.56345000  1.0
  O  O234  1  0.84351000  0.88215000  0.06345000  1.0
  O  O235  1  0.65649000  0.38215000  0.93655000  1.0
  O  O236  1  0.65650000  0.38215000  0.56345000  1.0
  O  O237  1  0.84350000  0.88215000  0.43655000  1.0
  O  O238  1  0.15650000  0.11785000  0.93655000  1.0
  O  O239  1  0.34350000  0.61785000  0.06345000  1.0
  O  O240  1  0.95497000  0.79588000  0.33651000  1.0
  O  O241  1  0.54504000  0.29588000  0.66349000  1.0
  O  O242  1  0.45497000  0.70412000  0.16349000  1.0
  O  O243  1  0.04503000  0.20412000  0.83651000  1.0
  O  O244  1  0.04503000  0.20412000  0.66349000  1.0
  O  O245  1  0.45496000  0.70412000  0.33651000  1.0
  O  O246  1  0.54503000  0.29588000  0.83651000  1.0
  O  O247  1  0.95496000  0.79588000  0.16349000  1.0
  O  O248  1  0.79850000  0.70065000  0.37294000  1.0
  O  O249  1  0.70150000  0.20065000  0.62706000  1.0
  O  O250  1  0.29850000  0.79934000  0.12706000  1.0
  O  O251  1  0.20150000  0.29935000  0.87294000  1.0
  O  O252  1  0.20150000  0.29934000  0.62706000  1.0
  O  O253  1  0.29850000  0.79935000  0.37294000  1.0
  O  O254  1  0.70150000  0.20065000  0.87294000  1.0
  O  O255  1  0.79850000  0.70065000  0.12706000  1.0
  O  O256  1  0.86758000  0.74180000  0.25000000  1.0
  O  O257  1  0.63243000  0.24180000  0.75000000  1.0
  O  O258  1  0.36758000  0.75820000  0.25000000  1.0
  O  O259  1  0.13242000  0.25820000  0.75000000  1.0
