# generated using pymatgen
data_Tl2H12PtC20N2(OF5)2
_symmetry_space_group_name_H-M   'P 1'
_cell_length_a   7.78825000
_cell_length_b   12.29940000
_cell_length_c   13.65210000
_cell_angle_alpha   101.43300000
_cell_angle_beta   89.99920000
_cell_angle_gamma   89.99980000
_symmetry_Int_Tables_number   1
_chemical_formula_structural   Tl2H12PtC20N2(OF5)2
_chemical_formula_sum   'Tl4 H24 Pt2 C40 N4 O4 F20'
_cell_volume   1281.79623417
_cell_formula_units_Z   2
loop_
 _symmetry_equiv_pos_site_id
 _symmetry_equiv_pos_as_xyz
  1  'x, y, z'
loop_
 _atom_site_type_symbol
 _atom_site_label
 _atom_site_symmetry_multiplicity
 _atom_site_fract_x
 _atom_site_fract_y
 _atom_site_fract_z
 _atom_site_occupancy
  Tl  Tl0  1  0.13112000  0.99994000  0.36012000  1.0
  Tl  Tl1  1  0.63112000  0.00006000  0.13988000  1.0
  Tl  Tl2  1  0.86890000  0.00006000  0.63988000  1.0
  Tl  Tl3  1  0.36890000  0.99994000  0.86012000  1.0
  H  H4  1  0.19227000  0.65605000  0.31203000  1.0
  H  H5  1  0.69226000  0.34395000  0.18796000  1.0
  H  H6  1  0.80772000  0.34395000  0.68797000  1.0
  H  H7  1  0.30772000  0.65604000  0.81204000  1.0
  H  H8  1  0.99126000  0.59430000  0.31998000  1.0
  H  H9  1  0.49125000  0.40570000  0.18002000  1.0
  H  H10  1  0.00873000  0.40570000  0.68003000  1.0
  H  H11  1  0.50873000  0.59430000  0.81998000  1.0
  H  H12  1  0.00263000  0.72423000  0.27945000  1.0
  H  H13  1  0.50262000  0.27577000  0.22055000  1.0
  H  H14  1  0.99736000  0.27577000  0.72055000  1.0
  H  H15  1  0.49736000  0.72422000  0.77944000  1.0
  H  H16  1  0.10121000  0.73128000  0.59075000  1.0
  H  H17  1  0.60120000  0.26871000  0.90924000  1.0
  H  H18  1  0.89879000  0.26873000  0.40925000  1.0
  H  H19  1  0.39880000  0.73128000  0.09075000  1.0
  H  H20  1  0.01820000  0.60399000  0.51942000  1.0
  H  H21  1  0.51819000  0.39601000  0.98058000  1.0
  H  H22  1  0.98180000  0.39602000  0.48059000  1.0
  H  H23  1  0.48180000  0.60399000  0.01941000  1.0
  H  H24  1  0.23134000  0.64219000  0.49967000  1.0
  H  H25  1  0.73133000  0.35780000  0.00033000  1.0
  H  H26  1  0.76866000  0.35782000  0.50034000  1.0
  H  H27  1  0.26866000  0.64219000  0.99967000  1.0
  Pt  Pt28  1  0.00005000  0.99998000  0.00001000  1.0
  Pt  Pt29  1  0.50005000  0.00001000  0.49998000  1.0
  C  C30  1  0.16999000  0.97734000  0.10038000  1.0
  C  C31  1  0.66999000  0.02265000  0.39962000  1.0
  C  C32  1  0.83004000  0.02266000  0.89962000  1.0
  C  C33  1  0.33002000  0.97734000  0.60040000  1.0
  C  C34  1  0.96250000  0.82907000  0.96326000  1.0
  C  C35  1  0.46249000  0.17094000  0.53675000  1.0
  C  C36  1  0.03753000  0.17095000  0.03675000  1.0
  C  C37  1  0.53753000  0.82906000  0.46326000  1.0
  C  C38  1  0.97574000  0.77003000  0.86517000  1.0
  C  C39  1  0.47573000  0.22997000  0.63482000  1.0
  C  C40  1  0.02430000  0.22997000  0.13483000  1.0
  C  C41  1  0.52429000  0.77003000  0.36517000  1.0
  C  C42  1  0.93843000  0.65742000  0.83594000  1.0
  C  C43  1  0.43843000  0.34258000  0.66407000  1.0
  C  C44  1  0.06156000  0.34258000  0.16406000  1.0
  C  C45  1  0.56155000  0.65742000  0.33594000  1.0
  C  C46  1  0.88420000  0.59821000  0.90745000  1.0
  C  C47  1  0.38420000  0.40179000  0.59255000  1.0
  C  C48  1  0.11577000  0.40180000  0.09254000  1.0
  C  C49  1  0.61577000  0.59820000  0.40745000  1.0
  C  C50  1  0.87246000  0.65271000  0.00698000  1.0
  C  C51  1  0.37247000  0.34730000  0.49303000  1.0
  C  C52  1  0.12751000  0.34731000  0.99303000  1.0
  C  C53  1  0.62753000  0.65269000  0.50697000  1.0
  C  C54  1  0.91328000  0.76519000  0.03226000  1.0
  C  C55  1  0.41328000  0.23482000  0.46773000  1.0
  C  C56  1  0.08674000  0.23484000  0.96773000  1.0
  C  C57  1  0.58674000  0.76517000  0.53227000  1.0
  C  C58  1  0.05666000  0.67502000  0.33064000  1.0
  C  C59  1  0.55665000  0.32498000  0.16935000  1.0
  C  C60  1  0.94333000  0.32498000  0.66936000  1.0
  C  C61  1  0.44334000  0.67502000  0.83064000  1.0
  C  C62  1  0.04101000  0.73478000  0.43761000  1.0
  C  C63  1  0.54100000  0.26523000  0.06239000  1.0
  C  C64  1  0.95899000  0.26523000  0.56240000  1.0
  C  C65  1  0.45899000  0.73477000  0.93760000  1.0
  C  C66  1  0.10174000  0.67572000  0.51748000  1.0
  C  C67  1  0.60173000  0.32428000  0.98252000  1.0
  C  C68  1  0.89826000  0.32429000  0.48253000  1.0
  C  C69  1  0.39826000  0.67572000  0.01748000  1.0
  N  N70  1  0.27190000  0.96170000  0.15979000  1.0
  N  N71  1  0.77191000  0.03828000  0.34020000  1.0
  N  N72  1  0.72811000  0.03829000  0.84020000  1.0
  N  N73  1  0.22812000  0.96172000  0.65980000  1.0
  O  O74  1  0.98026000  0.82949000  0.45850000  1.0
  O  O75  1  0.48025000  0.17050000  0.04150000  1.0
  O  O76  1  0.01976000  0.17052000  0.54150000  1.0
  O  O77  1  0.51976000  0.82948000  0.95849000  1.0
  F  F78  1  0.02869000  0.82203000  0.79064000  1.0
  F  F79  1  0.52867000  0.17797000  0.70936000  1.0
  F  F80  1  0.97136000  0.17796000  0.20937000  1.0
  F  F81  1  0.47134000  0.82203000  0.29064000  1.0
  F  F82  1  0.95350000  0.60476000  0.73904000  1.0
  F  F83  1  0.45350000  0.39524000  0.76096000  1.0
  F  F84  1  0.04648000  0.39524000  0.26095000  1.0
  F  F85  1  0.54646000  0.60476000  0.23905000  1.0
  F  F86  1  0.84155000  0.48968000  0.88046000  1.0
  F  F87  1  0.34157000  0.51032000  0.61954000  1.0
  F  F88  1  0.15837000  0.51034000  0.11953000  1.0
  F  F89  1  0.65838000  0.48966000  0.38046000  1.0
  F  F90  1  0.81773000  0.59601000  0.07693000  1.0
  F  F91  1  0.31775000  0.40399000  0.42307000  1.0
  F  F92  1  0.18222000  0.40401000  0.92307000  1.0
  F  F93  1  0.68224000  0.59599000  0.57693000  1.0
  F  F94  1  0.89614000  0.81247000  0.13169000  1.0
  F  F95  1  0.39614000  0.18753000  0.36831000  1.0
  F  F96  1  0.10388000  0.18754000  0.86831000  1.0
  F  F97  1  0.60389000  0.81246000  0.63170000  1.0
