# generated using pymatgen
data_AgBH10C16(NF2)2
_symmetry_space_group_name_H-M   'P 1'
_cell_length_a   5.49102000
_cell_length_b   13.51430000
_cell_length_c   18.83640000
_cell_angle_alpha   90.00100000
_cell_angle_beta   89.99920000
_cell_angle_gamma   89.99940000
_symmetry_Int_Tables_number   1
_chemical_formula_structural   AgBH10C16(NF2)2
_chemical_formula_sum   'Ag4 B4 H40 C64 N8 F16'
_cell_volume   1397.79822680
_cell_formula_units_Z   4
loop_
 _symmetry_equiv_pos_site_id
 _symmetry_equiv_pos_as_xyz
  1  'x, y, z'
loop_
 _atom_site_type_symbol
 _atom_site_label
 _atom_site_symmetry_multiplicity
 _atom_site_fract_x
 _atom_site_fract_y
 _atom_site_fract_z
 _atom_site_occupancy
  Ag  Ag0  1  0.93864000  0.19417000  0.29484000  1.0
  Ag  Ag1  1  0.56136000  0.69417000  0.29484000  1.0
  Ag  Ag2  1  0.43863000  0.30583000  0.79484000  1.0
  Ag  Ag3  1  0.06137000  0.80583000  0.79484000  1.0
  B  B4  1  0.41724000  0.13905000  0.39407000  1.0
  B  B5  1  0.08272000  0.63904000  0.39408000  1.0
  B  B6  1  0.91725000  0.36096000  0.89408000  1.0
  B  B7  1  0.58274000  0.86096000  0.89408000  1.0
  H  H8  1  0.03463000  0.00165000  0.38129000  1.0
  H  H9  1  0.46536000  0.50164000  0.38129000  1.0
  H  H10  1  0.53463000  0.49836000  0.88129000  1.0
  H  H11  1  0.96539000  0.99836000  0.88129000  1.0
  H  H12  1  0.84376000  0.83111000  0.38566000  1.0
  H  H13  1  0.65622000  0.33110000  0.38566000  1.0
  H  H14  1  0.34376000  0.66889000  0.88566000  1.0
  H  H15  1  0.15624000  0.16889000  0.88567000  1.0
  H  H16  1  0.08804000  0.13104000  0.17977000  1.0
  H  H17  1  0.41195000  0.63103000  0.17977000  1.0
  H  H18  1  0.58805000  0.36896000  0.67977000  1.0
  H  H19  1  0.91197000  0.86896000  0.67978000  1.0
  H  H20  1  0.09591000  0.21443000  0.06316000  1.0
  H  H21  1  0.40406000  0.71442000  0.06316000  1.0
  H  H22  1  0.59595000  0.28558000  0.56316000  1.0
  H  H23  1  0.90409000  0.78557000  0.56316000  1.0
  H  H24  1  0.77049000  0.17860000  0.97442000  1.0
  H  H25  1  0.72950000  0.67859000  0.97442000  1.0
  H  H26  1  0.27053000  0.32140000  0.47442000  1.0
  H  H27  1  0.22951000  0.82140000  0.47442000  1.0
  H  H28  1  0.45614000  0.05525000  0.99995000  1.0
  H  H29  1  0.04387000  0.55524000  0.99995000  1.0
  H  H30  1  0.95616000  0.44474000  0.49995000  1.0
  H  H31  1  0.54386000  0.94475000  0.49994000  1.0
  H  H32  1  0.20771000  0.95967000  0.02129000  1.0
  H  H33  1  0.29231000  0.45967000  0.02130000  1.0
  H  H34  1  0.70771000  0.54033000  0.52130000  1.0
  H  H35  1  0.79229000  0.04032000  0.52129000  1.0
  H  H36  1  0.90437000  0.83318000  0.04736000  1.0
  H  H37  1  0.59565000  0.33318000  0.04737000  1.0
  H  H38  1  0.40439000  0.66683000  0.54737000  1.0
  H  H39  1  0.09561000  0.16683000  0.54736000  1.0
  H  H40  1  0.90396000  0.74781000  0.16560000  1.0
  H  H41  1  0.59605000  0.24781000  0.16561000  1.0
  H  H42  1  0.40398000  0.75218000  0.66562000  1.0
  H  H43  1  0.09603000  0.25219000  0.66560000  1.0
  H  H44  1  0.21865000  0.78745000  0.25364000  1.0
  H  H45  1  0.28135000  0.28746000  0.25365000  1.0
  H  H46  1  0.71867000  0.71254000  0.75366000  1.0
  H  H47  1  0.78134000  0.21254000  0.75365000  1.0
  C  C48  1  0.92023000  0.97440000  0.33834000  1.0
  C  C49  1  0.57975000  0.47440000  0.33834000  1.0
  C  C50  1  0.42024000  0.52560000  0.83834000  1.0
  C  C51  1  0.07977000  0.02560000  0.83835000  1.0
  C  C52  1  0.80650000  0.88218000  0.34228000  1.0
  C  C53  1  0.69346000  0.38218000  0.34228000  1.0
  C  C54  1  0.30651000  0.61782000  0.84229000  1.0
  C  C55  1  0.19349000  0.11782000  0.84229000  1.0
  C  C56  1  0.75063000  0.99955000  0.22727000  1.0
  C  C57  1  0.74935000  0.49955000  0.22728000  1.0
  C  C58  1  0.25064000  0.50045000  0.72728000  1.0
  C  C59  1  0.24936000  0.00045000  0.72728000  1.0
  C  C60  1  0.60207000  0.91434000  0.23701000  1.0
  C  C61  1  0.89791000  0.41433000  0.23702000  1.0
  C  C62  1  0.10209000  0.58567000  0.73701000  1.0
  C  C63  1  0.39792000  0.08567000  0.73701000  1.0
  C  C64  1  0.75504000  0.04948000  0.15909000  1.0
  C  C65  1  0.74495000  0.54947000  0.15909000  1.0
  C  C66  1  0.25505000  0.45052000  0.65909000  1.0
  C  C67  1  0.24496000  0.95052000  0.65909000  1.0
  C  C68  1  0.94185000  0.11717000  0.14185000  1.0
  C  C69  1  0.55815000  0.61716000  0.14186000  1.0
  C  C70  1  0.44186000  0.38283000  0.64185000  1.0
  C  C71  1  0.05817000  0.88283000  0.64186000  1.0
  C  C72  1  0.94997000  0.16276000  0.07597000  1.0
  C  C73  1  0.55001000  0.66276000  0.07597000  1.0
  C  C74  1  0.45000000  0.33723000  0.57597000  1.0
  C  C75  1  0.05003000  0.83723000  0.57597000  1.0
  C  C76  1  0.76922000  0.14126000  0.02564000  1.0
  C  C77  1  0.73076000  0.64125000  0.02564000  1.0
  C  C78  1  0.26924000  0.35875000  0.52564000  1.0
  C  C79  1  0.23077000  0.85874000  0.52564000  1.0
  C  C80  1  0.58887000  0.07264000  0.04080000  1.0
  C  C81  1  0.91112000  0.57263000  0.04080000  1.0
  C  C82  1  0.08888000  0.42736000  0.54080000  1.0
  C  C83  1  0.41112000  0.92736000  0.54080000  1.0
  C  C84  1  0.58016000  0.02332000  0.10670000  1.0
  C  C85  1  0.91983000  0.52332000  0.10670000  1.0
  C  C86  1  0.08017000  0.47667000  0.60670000  1.0
  C  C87  1  0.41984000  0.97668000  0.60670000  1.0
  C  C88  1  0.39961000  0.94661000  0.12150000  1.0
  C  C89  1  0.10039000  0.44661000  0.12150000  1.0
  C  C90  1  0.89963000  0.55339000  0.62150000  1.0
  C  C91  1  0.60039000  0.05339000  0.62150000  1.0
  C  C92  1  0.21565000  0.92220000  0.07226000  1.0
  C  C93  1  0.28437000  0.42219000  0.07227000  1.0
  C  C94  1  0.71566000  0.57781000  0.57227000  1.0
  C  C95  1  0.78434000  0.07780000  0.57227000  1.0
  C  C96  1  0.04222000  0.85057000  0.08702000  1.0
  C  C97  1  0.45779000  0.35057000  0.08702000  1.0
  C  C98  1  0.54224000  0.64943000  0.58703000  1.0
  C  C99  1  0.95776000  0.14943000  0.58702000  1.0
  C  C100  1  0.04411000  0.80211000  0.15287000  1.0
  C  C101  1  0.45590000  0.30211000  0.15288000  1.0
  C  C102  1  0.54413000  0.69789000  0.65288000  1.0
  C  C103  1  0.95589000  0.19789000  0.65287000  1.0
  C  C104  1  0.22472000  0.82358000  0.20192000  1.0
  C  C105  1  0.27528000  0.32358000  0.20193000  1.0
  C  C106  1  0.72473000  0.67642000  0.70193000  1.0
  C  C107  1  0.77528000  0.17642000  0.70193000  1.0
  C  C108  1  0.40846000  0.89326000  0.18662000  1.0
  C  C109  1  0.09154000  0.39325000  0.18662000  1.0
  C  C110  1  0.90847000  0.60675000  0.68662000  1.0
  C  C111  1  0.59154000  0.10675000  0.68662000  1.0
  N  N112  1  0.89329000  0.03218000  0.28136000  1.0
  N  N113  1  0.60669000  0.53218000  0.28137000  1.0
  N  N114  1  0.39330000  0.46782000  0.78137000  1.0
  N  N115  1  0.10671000  0.96782000  0.78137000  1.0
  N  N116  1  0.64475000  0.85362000  0.29324000  1.0
  N  N117  1  0.85522000  0.35361000  0.29324000  1.0
  N  N118  1  0.14478000  0.64639000  0.79324000  1.0
  N  N119  1  0.35522000  0.14639000  0.79324000  1.0
  F  F120  1  0.17767000  0.16244000  0.41763000  1.0
  F  F121  1  0.32230000  0.66241000  0.41763000  1.0
  F  F122  1  0.67768000  0.33757000  0.91764000  1.0
  F  F123  1  0.82231000  0.83757000  0.91764000  1.0
  F  F124  1  0.59043000  0.19160000  0.43436000  1.0
  F  F125  1  0.90955000  0.69158000  0.43437000  1.0
  F  F126  1  0.09044000  0.30842000  0.93436000  1.0
  F  F127  1  0.40956000  0.80842000  0.93436000  1.0
  F  F128  1  0.43748000  0.16817000  0.32099000  1.0
  F  F129  1  0.06248000  0.66815000  0.32100000  1.0
  F  F130  1  0.93749000  0.33184000  0.82100000  1.0
  F  F131  1  0.56251000  0.83184000  0.82100000  1.0
  F  F132  1  0.45606000  0.03644000  0.39907000  1.0
  F  F133  1  0.04389000  0.53642000  0.39907000  1.0
  F  F134  1  0.95608000  0.46357000  0.89907000  1.0
  F  F135  1  0.54393000  0.96358000  0.89907000  1.0
