# generated using pymatgen
data_ZnH27C31I4NO4
_symmetry_space_group_name_H-M   'P 1'
_cell_length_a   10.74720000
_cell_length_b   18.79420000
_cell_length_c   19.51430000
_cell_angle_alpha   88.83770000
_cell_angle_beta   85.43740000
_cell_angle_gamma   89.06000000
_symmetry_Int_Tables_number   1
_chemical_formula_structural   ZnH27C31I4NO4
_chemical_formula_sum   'Zn2 H54 C62 I8 N2 O8'
_cell_volume   3927.86443031
_cell_formula_units_Z   2
loop_
 _symmetry_equiv_pos_site_id
 _symmetry_equiv_pos_as_xyz
  1  'x, y, z'
loop_
 _atom_site_type_symbol
 _atom_site_label
 _atom_site_symmetry_multiplicity
 _atom_site_fract_x
 _atom_site_fract_y
 _atom_site_fract_z
 _atom_site_occupancy
  Zn  Zn0  1  0.49575000  0.58556000  0.50188000  1.0
  Zn  Zn1  1  0.50855000  0.41534000  0.49661000  1.0
  H  H2  1  0.08788000  0.38277000  0.45824000  1.0
  H  H3  1  0.91763000  0.61479000  0.53883000  1.0
  H  H4  1  0.48812000  0.37626000  0.84805000  1.0
  H  H5  1  0.46698000  0.60263000  0.14466000  1.0
  H  H6  1  0.36470000  0.38406000  0.17724000  1.0
  H  H7  1  0.51293000  0.60372000  0.84718000  1.0
  H  H8  1  0.34082000  0.83620000  0.57542000  1.0
  H  H9  1  0.65453000  0.16419000  0.42260000  1.0
  H  H10  1  0.66383000  0.83483000  0.43060000  1.0
  H  H11  1  0.33504000  0.16764000  0.56980000  1.0
  H  H12  1  0.70073000  0.93469000  0.49508000  1.0
  H  H13  1  0.29578000  0.06690000  0.50455000  1.0
  H  H14  1  0.29877000  0.93531000  0.50604000  1.0
  H  H15  1  0.69765000  0.06625000  0.49345000  1.0
  H  H16  1  0.14187000  0.41149000  0.94803000  1.0
  H  H17  1  0.09598000  0.45375000  0.87140000  1.0
  H  H18  1  0.24107000  0.40711000  0.87107000  1.0
  H  H19  1  0.17030000  0.54602000  0.94698000  1.0
  H  H20  1  0.27226000  0.53892000  0.87261000  1.0
  H  H21  1  0.80309000  0.53067000  0.05578000  1.0
  H  H22  1  0.70253000  0.55631000  0.12792000  1.0
  H  H23  1  0.82092000  0.49071000  0.13758000  1.0
  H  H24  1  0.61993000  0.43084000  0.13810000  1.0
  H  H25  1  0.71437000  0.40701000  0.06476000  1.0
  H  H26  1  0.17336000  0.61748000  0.04051000  1.0
  H  H27  1  0.07266000  0.58966000  0.11258000  1.0
  H  H28  1  0.23201000  0.60719000  0.12263000  1.0
  H  H29  1  0.13116000  0.48399000  0.04227000  1.0
  H  H30  1  0.19616000  0.47618000  0.12183000  1.0
  H  H31  1  0.72004000  0.56724000  0.87551000  1.0
  H  H32  1  0.76762000  0.57360000  0.95995000  1.0
  H  H33  1  0.86498000  0.52920000  0.89577000  1.0
  H  H34  1  0.76386000  0.43638000  0.96847000  1.0
  H  H35  1  0.69912000  0.43644000  0.88865000  1.0
  H  H36  1  0.16016000  0.77090000  0.56493000  1.0
  H  H37  1  0.17279000  0.69360000  0.51356000  1.0
  H  H38  1  0.11172000  0.68722000  0.60089000  1.0
  H  H39  1  0.32959000  0.63999000  0.59019000  1.0
  H  H40  1  0.31928000  0.71627000  0.64073000  1.0
  H  H41  1  0.82936000  0.30448000  0.48046000  1.0
  H  H42  1  0.83642000  0.22770000  0.42834000  1.0
  H  H43  1  0.88510000  0.31129000  0.39232000  1.0
  H  H44  1  0.67324000  0.28507000  0.35645000  1.0
  H  H45  1  0.66894000  0.36058000  0.40784000  1.0
  H  H46  1  0.72458000  0.76173000  0.33490000  1.0
  H  H47  1  0.83304000  0.77323000  0.39820000  1.0
  H  H48  1  0.84391000  0.69719000  0.34620000  1.0
  H  H49  1  0.74909000  0.66447000  0.46295000  1.0
  H  H50  1  0.64913000  0.64855000  0.39926000  1.0
  H  H51  1  0.16979000  0.22932000  0.60688000  1.0
  H  H52  1  0.28426000  0.24263000  0.66666667  1.0
  H  H53  1  0.16294000  0.30641000  0.65730000  1.0
  H  H54  1  0.35177000  0.35523000  0.59861000  1.0
  H  H55  1  0.24870000  0.33596000  0.53727000  1.0
  C  C56  1  0.48877000  0.50676000  0.36791000  1.0
  C  C57  1  0.50229000  0.49550000  0.63258000  1.0
  C  C58  1  0.34884000  0.49836000  0.96424000  1.0
  C  C59  1  0.55579000  0.47222000  0.04404000  1.0
  C  C60  1  0.33045000  0.49615000  0.03661000  1.0
  C  C61  1  0.57458000  0.47567000  0.97170000  1.0
  C  C62  1  0.43436000  0.48490000  0.07525000  1.0
  C  C63  1  0.47067000  0.48870000  0.93302000  1.0
  C  C64  1  0.41303000  0.73431000  0.54292000  1.0
  C  C65  1  0.58514000  0.26650000  0.45555000  1.0
  C  C66  1  0.59189000  0.73354000  0.46528000  1.0
  C  C67  1  0.40795000  0.26850000  0.53445000  1.0
  C  C68  1  0.41191000  0.80869000  0.54246000  1.0
  C  C69  1  0.58501000  0.19218000  0.45614000  1.0
  C  C70  1  0.59248000  0.80762000  0.46351000  1.0
  C  C71  1  0.40618000  0.19440000  0.53637000  1.0
  C  C72  1  0.50124000  0.84705000  0.50217000  1.0
  C  C73  1  0.49597000  0.15443000  0.49723000  1.0
  C  C74  1  0.61174000  0.96356000  0.49614000  1.0
  C  C75  1  0.38473000  0.03799000  0.50348000  1.0
  C  C76  1  0.38641000  0.96398000  0.50437000  1.0
  C  C77  1  0.61004000  0.03755000  0.49521000  1.0
  C  C78  1  0.49659000  0.07602000  0.49883000  1.0
  C  C79  1  0.49990000  0.92549000  0.50079000  1.0
  C  C80  1  0.73765000  0.49696000  0.50199000  1.0
  C  C81  1  0.26709000  0.50035000  0.49620000  1.0
  C  C82  1  0.96560000  0.48600000  0.43592000  1.0
  C  C83  1  0.03959000  0.51137000  0.56160000  1.0
  C  C84  1  0.04598000  0.55089000  0.45488000  1.0
  C  C85  1  0.95943000  0.44638000  0.54261000  1.0
  C  C86  1  0.04885000  0.43363000  0.47645000  1.0
  C  C87  1  0.95639000  0.56373000  0.52099000  1.0
  C  C88  1  0.12897000  0.49781000  0.49517000  1.0
  C  C89  1  0.87609000  0.49939000  0.50256000  1.0
  C  C90  1  0.50975000  0.42788000  0.74828000  1.0
  C  C91  1  0.46052000  0.56357000  0.24941000  1.0
  C  C92  1  0.40680000  0.44118000  0.26714000  1.0
  C  C93  1  0.52387000  0.55492000  0.74789000  1.0
  C  C94  1  0.49489000  0.42694000  0.82001000  1.0
  C  C95  1  0.45017000  0.55681000  0.17902000  1.0
  C  C96  1  0.39345000  0.43452000  0.19701000  1.0
  C  C97  1  0.50882000  0.55414000  0.81955000  1.0
  C  C98  1  0.48996000  0.49023000  0.85649000  1.0
  C  C99  1  0.42228000  0.49143000  0.15154000  1.0
  C  C100  1  0.51578000  0.49230000  0.70915000  1.0
  C  C101  1  0.44868000  0.50458000  0.29542000  1.0
  C  C102  1  0.23982000  0.51057000  0.92038000  1.0
  C  C103  1  0.17602000  0.44181000  0.90175000  1.0
  C  C104  1  0.66095000  0.45181000  0.08860000  1.0
  C  C105  1  0.75182000  0.51088000  0.10302000  1.0
  C  C106  1  0.20175000  0.50659000  0.07298000  1.0
  C  C107  1  0.16794000  0.58473000  0.08793000  1.0
  C  C108  1  0.70396000  0.46739000  0.93554000  1.0
  C  C109  1  0.76755000  0.53848000  0.91566000  1.0
  C  C110  1  0.31289000  0.69743000  0.58804000  1.0
  C  C111  1  0.18175000  0.71350000  0.56540000  1.0
  C  C112  1  0.68389000  0.30297000  0.40909000  1.0
  C  C113  1  0.81642000  0.28526000  0.42881000  1.0
  C  C114  1  0.69281000  0.69177000  0.42541000  1.0
  C  C115  1  0.77759000  0.73382000  0.37352000  1.0
  C  C116  1  0.30790000  0.31070000  0.57466000  1.0
  C  C117  1  0.22735000  0.26936000  0.62919000  1.0
  I  I118  1  0.90224000  0.47095000  0.33749000  1.0
  I  I119  1  0.10306000  0.52693000  0.66001000  1.0
  I  I120  1  0.11904000  0.62741000  0.38241000  1.0
  I  I121  1  0.88837000  0.36907000  0.61464000  1.0
  I  I122  1  0.53428000  0.32394000  0.70835000  1.0
  I  I123  1  0.49620000  0.66938000  0.27679000  1.0
  I  I124  1  0.35090000  0.34957000  0.32626000  1.0
  I  I125  1  0.57621000  0.65657000  0.70664000  1.0
  N  N126  1  0.50127000  0.69707000  0.50416000  1.0
  N  N127  1  0.49869000  0.30424000  0.49499000  1.0
  O  O128  1  0.48296000  0.56630000  0.39772000  1.0
  O  O129  1  0.49723000  0.43696000  0.60162000  1.0
  O  O130  1  0.49161000  0.55697000  0.60558000  1.0
  O  O131  1  0.52840000  0.44846000  0.39247000  1.0
  O  O132  1  0.68049000  0.55634000  0.50146000  1.0
  O  O133  1  0.32587000  0.44181000  0.48819000  1.0
  O  O134  1  0.30932000  0.56128000  0.50673000  1.0
  O  O135  1  0.69372000  0.43496000  0.50013000  1.0
