# generated using pymatgen
data_ZnH14C21(N2O3)2
_symmetry_space_group_name_H-M   'P 1'
_cell_length_a   8.70150000
_cell_length_b   10.33770000
_cell_length_c   27.04520000
_cell_angle_alpha   90.00000000
_cell_angle_beta   90.00000000
_cell_angle_gamma   95.58070000
_symmetry_Int_Tables_number   1
_chemical_formula_structural   ZnH14C21(N2O3)2
_chemical_formula_sum   'Zn4 H56 C84 N16 O24'
_cell_volume   2421.27930510
_cell_formula_units_Z   4
loop_
 _symmetry_equiv_pos_site_id
 _symmetry_equiv_pos_as_xyz
  1  'x, y, z'
loop_
 _atom_site_type_symbol
 _atom_site_label
 _atom_site_symmetry_multiplicity
 _atom_site_fract_x
 _atom_site_fract_y
 _atom_site_fract_z
 _atom_site_occupancy
  Zn  Zn0  1  0.30862000  0.42782000  0.43285000  1.0
  Zn  Zn1  1  0.19138000  0.57218000  0.93285000  1.0
  Zn  Zn2  1  0.69138000  0.57218000  0.56715000  1.0
  Zn  Zn3  1  0.80862000  0.42782000  0.06715000  1.0
  H  H4  1  0.94737000  0.34375000  0.57817000  1.0
  H  H5  1  0.55263000  0.65625000  0.07817000  1.0
  H  H6  1  0.05263000  0.65625000  0.42183000  1.0
  H  H7  1  0.44737000  0.34375000  0.92183000  1.0
  H  H8  1  0.99597000  0.29388000  0.48901000  1.0
  H  H9  1  0.50403000  0.70611000  0.98901000  1.0
  H  H10  1  0.00403000  0.70611000  0.51099000  1.0
  H  H11  1  0.49597000  0.29388000  0.01099000  1.0
  H  H12  1  0.36370000  0.66333000  0.61286000  1.0
  H  H13  1  0.13630000  0.33667000  0.11286000  1.0
  H  H14  1  0.63630000  0.33667000  0.38714000  1.0
  H  H15  1  0.86370000  0.66333000  0.88714000  1.0
  H  H16  1  0.35269000  0.57717000  0.53275000  1.0
  H  H17  1  0.14730000  0.42283000  0.03275000  1.0
  H  H18  1  0.64731000  0.42283000  0.46725000  1.0
  H  H19  1  0.85270000  0.57717000  0.96725000  1.0
  H  H20  1  0.41723000  0.71705000  0.69904000  1.0
  H  H21  1  0.08277000  0.28295000  0.19904000  1.0
  H  H22  1  0.58277000  0.28295000  0.30096000  1.0
  H  H23  1  0.91723000  0.71705000  0.80096000  1.0
  H  H24  1  0.06189000  0.41832000  0.74424000  1.0
  H  H25  1  0.43811000  0.58167000  0.24424000  1.0
  H  H26  1  0.93811000  0.58167000  0.25576000  1.0
  H  H27  1  0.56189000  0.41832000  0.75576000  1.0
  H  H28  1  0.00869000  0.36404000  0.65745000  1.0
  H  H29  1  0.49131000  0.63596000  0.15745000  1.0
  H  H30  1  0.99131000  0.63596000  0.34255000  1.0
  H  H31  1  0.50869000  0.36404000  0.84255000  1.0
  H  H32  1  0.25438000  0.92246000  0.42825000  1.0
  H  H33  1  0.24562000  0.07755000  0.92825000  1.0
  H  H34  1  0.74562000  0.07755000  0.57175000  1.0
  H  H35  1  0.75438000  0.92245000  0.07175000  1.0
  H  H36  1  0.68805000  0.75411000  0.42364000  1.0
  H  H37  1  0.81195000  0.24589000  0.92364000  1.0
  H  H38  1  0.31195000  0.24589000  0.57636000  1.0
  H  H39  1  0.18806000  0.75411000  0.07636000  1.0
  H  H40  1  0.68166000  0.16634000  0.44557000  1.0
  H  H41  1  0.81834000  0.83366000  0.94557000  1.0
  H  H42  1  0.31834000  0.83366000  0.55443000  1.0
  H  H43  1  0.18166000  0.16634000  0.05443000  1.0
  H  H44  1  0.45526000  0.75672000  0.77645000  1.0
  H  H45  1  0.04474000  0.24328000  0.27645000  1.0
  H  H46  1  0.54474000  0.24328000  0.22355000  1.0
  H  H47  1  0.95526000  0.75672000  0.72355000  1.0
  H  H48  1  0.12112000  0.46468000  0.82784000  1.0
  H  H49  1  0.37888000  0.53532000  0.32784000  1.0
  H  H50  1  0.87888000  0.53532000  0.17216000  1.0
  H  H51  1  0.62112000  0.46468000  0.67216000  1.0
  H  H52  1  0.05471000  0.09831000  0.44674000  1.0
  H  H53  1  0.44529000  0.90169000  0.94674000  1.0
  H  H54  1  0.94529000  0.90169000  0.55326000  1.0
  H  H55  1  0.55471000  0.09831000  0.05326000  1.0
  H  H56  1  0.45144000  0.76916000  0.87054000  1.0
  H  H57  1  0.04856000  0.23084000  0.37054000  1.0
  H  H58  1  0.54856000  0.23084000  0.12946000  1.0
  H  H59  1  0.95144000  0.76916000  0.62946000  1.0
  C  C60  1  0.18130000  0.51028000  0.62818000  1.0
  C  C61  1  0.31870000  0.48972000  0.12818000  1.0
  C  C62  1  0.81870000  0.48972000  0.37182000  1.0
  C  C63  1  0.68130000  0.51028000  0.87182000  1.0
  C  C64  1  0.24338000  0.57203000  0.72903000  1.0
  C  C65  1  0.25662000  0.42797000  0.22903000  1.0
  C  C66  1  0.75662000  0.42797000  0.27097000  1.0
  C  C67  1  0.74338000  0.57203000  0.77097000  1.0
  C  C68  1  0.06807000  0.36270000  0.51118000  1.0
  C  C69  1  0.43193000  0.63730000  0.01118000  1.0
  C  C70  1  0.93193000  0.63730000  0.48881000  1.0
  C  C71  1  0.56807000  0.36270000  0.98882000  1.0
  C  C72  1  0.29532000  0.61034000  0.64146000  1.0
  C  C73  1  0.20468000  0.38966000  0.14146000  1.0
  C  C74  1  0.70468000  0.38966000  0.35854000  1.0
  C  C75  1  0.79533000  0.61034000  0.85854000  1.0
  C  C76  1  0.27384000  0.60086000  0.78094000  1.0
  C  C77  1  0.22616000  0.39914000  0.28094000  1.0
  C  C78  1  0.72616000  0.39914000  0.21906000  1.0
  C  C79  1  0.77384000  0.60086000  0.71906000  1.0
  C  C80  1  0.15883000  0.47548000  0.57646000  1.0
  C  C81  1  0.34118000  0.52453000  0.07646000  1.0
  C  C82  1  0.84118000  0.52452000  0.42354000  1.0
  C  C83  1  0.65883000  0.47548000  0.92354000  1.0
  C  C84  1  0.24959000  0.50981000  0.53544000  1.0
  C  C85  1  0.25041000  0.49019000  0.03544000  1.0
  C  C86  1  0.75041000  0.49019000  0.46456000  1.0
  C  C87  1  0.74959000  0.50981000  0.96456000  1.0
  C  C88  1  0.32562000  0.64026000  0.69076000  1.0
  C  C89  1  0.17438000  0.35974000  0.19076000  1.0
  C  C90  1  0.67438000  0.35974000  0.30924000  1.0
  C  C91  1  0.82562000  0.64026000  0.80924000  1.0
  C  C92  1  0.12851000  0.47268000  0.71558000  1.0
  C  C93  1  0.37149000  0.52732000  0.21559000  1.0
  C  C94  1  0.87149000  0.52732000  0.28441000  1.0
  C  C95  1  0.62851000  0.47268000  0.78442000  1.0
  C  C96  1  0.09779000  0.44216000  0.66633000  1.0
  C  C97  1  0.40221000  0.55784000  0.16633000  1.0
  C  C98  1  0.90221000  0.55783000  0.33367000  1.0
  C  C99  1  0.59779000  0.44217000  0.83367000  1.0
  C  C100  1  0.37173000  0.17477000  0.44083000  1.0
  C  C101  1  0.12827000  0.82523000  0.94083000  1.0
  C  C102  1  0.62827000  0.82523000  0.55917000  1.0
  C  C103  1  0.87173000  0.17477000  0.05917000  1.0
  C  C104  1  0.38022000  0.93419000  0.43059000  1.0
  C  C105  1  0.11978000  0.06581000  0.93059000  1.0
  C  C106  1  0.61978000  0.06581000  0.56941000  1.0
  C  C107  1  0.88022000  0.93419000  0.06941000  1.0
  C  C108  1  0.87548000  0.97676000  0.43218000  1.0
  C  C109  1  0.62452000  0.02324000  0.93218000  1.0
  C  C110  1  0.12452000  0.02324000  0.56782000  1.0
  C  C111  1  0.37548000  0.97676000  0.06782000  1.0
  C  C112  1  0.46245000  0.82472000  0.42611000  1.0
  C  C113  1  0.03755000  0.17528000  0.92611000  1.0
  C  C114  1  0.53755000  0.17528000  0.57389000  1.0
  C  C115  1  0.96245000  0.82472000  0.07389000  1.0
  C  C116  1  0.45902000  0.05733000  0.43771000  1.0
  C  C117  1  0.04098000  0.94267000  0.93771000  1.0
  C  C118  1  0.54098000  0.94267000  0.56229000  1.0
  C  C119  1  0.95902000  0.05733000  0.06229000  1.0
  C  C120  1  0.62385000  0.83883000  0.42770000  1.0
  C  C121  1  0.87615000  0.16117000  0.92770000  1.0
  C  C122  1  0.37616000  0.16117000  0.57230000  1.0
  C  C123  1  0.12384000  0.83883000  0.07230000  1.0
  C  C124  1  0.70332000  0.96232000  0.43399000  1.0
  C  C125  1  0.79668000  0.03768000  0.93400000  1.0
  C  C126  1  0.29668000  0.03768000  0.56601000  1.0
  C  C127  1  0.20332000  0.96232000  0.06601000  1.0
  C  C128  1  0.62052000  0.07072000  0.43983000  1.0
  C  C129  1  0.87948000  0.92928000  0.93983000  1.0
  C  C130  1  0.37948000  0.92928000  0.56017000  1.0
  C  C131  1  0.12052000  0.07073000  0.06017000  1.0
  C  C132  1  0.20949000  0.54515000  0.82360000  1.0
  C  C133  1  0.29051000  0.45485000  0.32360000  1.0
  C  C134  1  0.79051000  0.45485000  0.17640000  1.0
  C  C135  1  0.70949000  0.54515000  0.67640000  1.0
  C  C136  1  0.37390000  0.69401000  0.41877000  1.0
  C  C137  1  0.12610000  0.30599000  0.91877000  1.0
  C  C138  1  0.62611000  0.30599000  0.58123000  1.0
  C  C139  1  0.87390000  0.69401000  0.08123000  1.0
  C  C140  1  0.37973000  0.70113000  0.84789000  1.0
  C  C141  1  0.12026000  0.29887000  0.34789000  1.0
  C  C142  1  0.62026000  0.29887000  0.15211000  1.0
  C  C143  1  0.87973000  0.70113000  0.65211000  1.0
  N  N144  1  0.19240000  0.43826000  0.49544000  1.0
  N  N145  1  0.30760000  0.56174000  0.99544000  1.0
  N  N146  1  0.80760000  0.56174000  0.50456000  1.0
  N  N147  1  0.69240000  0.43826000  0.00456000  1.0
  N  N148  1  0.04488000  0.38336000  0.55940000  1.0
  N  N149  1  0.45512000  0.61664000  0.05940000  1.0
  N  N150  1  0.95512000  0.61664000  0.44060000  1.0
  N  N151  1  0.54488000  0.38336000  0.94060000  1.0
  N  N152  1  0.38118000  0.69950000  0.79783000  1.0
  N  N153  1  0.11882000  0.30050000  0.29783000  1.0
  N  N154  1  0.61882000  0.30050000  0.20217000  1.0
  N  N155  1  0.88118000  0.69950000  0.70217000  1.0
  N  N156  1  0.27549000  0.60839000  0.86435000  1.0
  N  N157  1  0.22451000  0.39161000  0.36435000  1.0
  N  N158  1  0.72451000  0.39161000  0.13565000  1.0
  N  N159  1  0.77549000  0.60839000  0.63565000  1.0
  O  O160  1  0.22618000  0.16424000  0.44197000  1.0
  O  O161  1  0.27382000  0.83576000  0.94197000  1.0
  O  O162  1  0.77382000  0.83576000  0.55803000  1.0
  O  O163  1  0.72618000  0.16424000  0.05803000  1.0
  O  O164  1  0.45223000  0.28655000  0.44043000  1.0
  O  O165  1  0.04777000  0.71345000  0.94043000  1.0
  O  O166  1  0.54777000  0.71345000  0.55957000  1.0
  O  O167  1  0.95223000  0.28655000  0.05957000  1.0
  O  O168  1  0.93806000  0.09217000  0.44954000  1.0
  O  O169  1  0.56195000  0.90783000  0.94954000  1.0
  O  O170  1  0.06195000  0.90783000  0.55046000  1.0
  O  O171  1  0.43805000  0.09217000  0.05046000  1.0
  O  O172  1  0.95265000  0.89334000  0.41555000  1.0
  O  O173  1  0.54735000  0.10666000  0.91555000  1.0
  O  O174  1  0.04735000  0.10667000  0.58445000  1.0
  O  O175  1  0.45265000  0.89334000  0.08445000  1.0
  O  O176  1  0.44572000  0.59375000  0.42944000  1.0
  O  O177  1  0.05428000  0.40625000  0.92944000  1.0
  O  O178  1  0.55428000  0.40625000  0.57056000  1.0
  O  O179  1  0.94572000  0.59375000  0.07056000  1.0
  O  O180  1  0.23770000  0.68871000  0.40282000  1.0
  O  O181  1  0.26230000  0.31129000  0.90282000  1.0
  O  O182  1  0.76230000  0.31128000  0.59718000  1.0
  O  O183  1  0.73770000  0.68872000  0.09718000  1.0
