# generated using pymatgen
data_AgH28C20SN7O6
_symmetry_space_group_name_H-M   'P 1'
_cell_length_a   11.98520000
_cell_length_b   13.49310000
_cell_length_c   16.06960000
_cell_angle_alpha   89.99990000
_cell_angle_beta   70.94400000
_cell_angle_gamma   89.99980000
_symmetry_Int_Tables_number   1
_chemical_formula_structural   AgH28C20SN7O6
_chemical_formula_sum   'Ag4 H112 C80 S4 N28 O24'
_cell_volume   2456.32465169
_cell_formula_units_Z   4
loop_
 _symmetry_equiv_pos_site_id
 _symmetry_equiv_pos_as_xyz
  1  'x, y, z'
loop_
 _atom_site_type_symbol
 _atom_site_label
 _atom_site_symmetry_multiplicity
 _atom_site_fract_x
 _atom_site_fract_y
 _atom_site_fract_z
 _atom_site_occupancy
  Ag  Ag0  1  0.76256000  0.66704000  0.21416000  1.0
  Ag  Ag1  1  0.23744000  0.16704000  0.28585000  1.0
  Ag  Ag2  1  0.23744000  0.33296000  0.78584000  1.0
  Ag  Ag3  1  0.76256000  0.83297000  0.71416000  1.0
  H  H4  1  0.88665000  0.55378000  0.04541000  1.0
  H  H5  1  0.11335000  0.05377000  0.45460000  1.0
  H  H6  1  0.11335000  0.44622000  0.95459000  1.0
  H  H7  1  0.88665000  0.94623000  0.54541000  1.0
  H  H8  1  0.97918000  0.59052000  0.88281000  1.0
  H  H9  1  0.02082000  0.09051000  0.61720000  1.0
  H  H10  1  0.02082000  0.40948000  0.11719000  1.0
  H  H11  1  0.97918000  0.90949000  0.38281000  1.0
  H  H12  1  0.98842000  0.76524000  0.83174000  1.0
  H  H13  1  0.01158000  0.26523000  0.66826000  1.0
  H  H14  1  0.01158000  0.23476000  0.16825000  1.0
  H  H15  1  0.98842000  0.73477000  0.33174000  1.0
  H  H16  1  0.82444000  0.85344000  0.10230000  1.0
  H  H17  1  0.17557000  0.35344000  0.39770000  1.0
  H  H18  1  0.17556000  0.14656000  0.89769000  1.0
  H  H19  1  0.82443000  0.64657000  0.60230000  1.0
  H  H20  1  0.86431000  0.19466000  0.02628000  1.0
  H  H21  1  0.13570000  0.69465000  0.47371000  1.0
  H  H22  1  0.13569000  0.80533000  0.97371000  1.0
  H  H23  1  0.86430000  0.30535000  0.52631000  1.0
  H  H24  1  0.83087000  0.25023000  0.85128000  1.0
  H  H25  1  0.16913000  0.75023000  0.64871000  1.0
  H  H26  1  0.16913000  0.74977000  0.14871000  1.0
  H  H27  1  0.83088000  0.24978000  0.35130000  1.0
  H  H28  1  0.96424000  0.26424000  0.87554000  1.0
  H  H29  1  0.03576000  0.76424000  0.62445000  1.0
  H  H30  1  0.03575000  0.73575000  0.12445000  1.0
  H  H31  1  0.96425000  0.23577000  0.37557000  1.0
  H  H32  1  0.86642000  0.38260000  0.99665000  1.0
  H  H33  1  0.13359000  0.88260000  0.50333000  1.0
  H  H34  1  0.13358000  0.61739000  0.00334000  1.0
  H  H35  1  0.86641000  0.11741000  0.49668000  1.0
  H  H36  1  0.85127000  0.42474000  0.89629000  1.0
  H  H37  1  0.14872000  0.92474000  0.60370000  1.0
  H  H38  1  0.14872000  0.57525000  0.10371000  1.0
  H  H39  1  0.85129000  0.07527000  0.39631000  1.0
  H  H40  1  0.64852000  0.35637000  0.94004000  1.0
  H  H41  1  0.35148000  0.85637000  0.55996000  1.0
  H  H42  1  0.35147000  0.64362000  0.05996000  1.0
  H  H43  1  0.64853000  0.14364000  0.44004000  1.0
  H  H44  1  0.55441000  0.28701000  0.08931000  1.0
  H  H45  1  0.44559000  0.78701000  0.41068000  1.0
  H  H46  1  0.44559000  0.71298000  0.91069000  1.0
  H  H47  1  0.55440000  0.21299000  0.58932000  1.0
  H  H48  1  0.68908000  0.29775000  0.11163000  1.0
  H  H49  1  0.31093000  0.79775000  0.38837000  1.0
  H  H50  1  0.31093000  0.70224000  0.88837000  1.0
  H  H51  1  0.68906000  0.20225000  0.61164000  1.0
  H  H52  1  0.66121000  0.12478000  0.06047000  1.0
  H  H53  1  0.33880000  0.62478000  0.43953000  1.0
  H  H54  1  0.33879000  0.87521000  0.93953000  1.0
  H  H55  1  0.66120000  0.37522000  0.56048000  1.0
  H  H56  1  0.65332000  0.17439000  0.96067000  1.0
  H  H57  1  0.34668000  0.67439000  0.53933000  1.0
  H  H58  1  0.34668000  0.82560000  0.03933000  1.0
  H  H59  1  0.65332000  0.32561000  0.46067000  1.0
  H  H60  1  0.70785000  0.67711000  0.84734000  1.0
  H  H61  1  0.29215000  0.17711000  0.65266000  1.0
  H  H62  1  0.29215000  0.32288000  0.15266000  1.0
  H  H63  1  0.70785000  0.82289000  0.34734000  1.0
  H  H64  1  0.66306000  0.98313000  0.87586000  1.0
  H  H65  1  0.33695000  0.48313000  0.62414000  1.0
  H  H66  1  0.33694000  0.01686000  0.12415000  1.0
  H  H67  1  0.66305000  0.51687000  0.37585000  1.0
  H  H68  1  0.57013000  0.96634000  0.03841000  1.0
  H  H69  1  0.42988000  0.46634000  0.46159000  1.0
  H  H70  1  0.42987000  0.03366000  0.96159000  1.0
  H  H71  1  0.57012000  0.53367000  0.53841000  1.0
  H  H72  1  0.54342000  0.79716000  0.10690000  1.0
  H  H73  1  0.45657000  0.29717000  0.39310000  1.0
  H  H74  1  0.45657000  0.20283000  0.89310000  1.0
  H  H75  1  0.54343000  0.70284000  0.60690000  1.0
  H  H76  1  0.31640000  0.70661000  0.25466000  1.0
  H  H77  1  0.68360000  0.20661000  0.24535000  1.0
  H  H78  1  0.68359000  0.29339000  0.74534000  1.0
  H  H79  1  0.31641000  0.79339000  0.75465000  1.0
  H  H80  1  0.24650000  0.59828000  0.31606000  1.0
  H  H81  1  0.75350000  0.09829000  0.18394000  1.0
  H  H82  1  0.75350000  0.40172000  0.68394000  1.0
  H  H83  1  0.24650000  0.90172000  0.81605000  1.0
  H  H84  1  0.31509000  0.59019000  0.19760000  1.0
  H  H85  1  0.68491000  0.09019000  0.30240000  1.0
  H  H86  1  0.68491000  0.40981000  0.80240000  1.0
  H  H87  1  0.31510000  0.90981000  0.69760000  1.0
  H  H88  1  0.43811000  0.44578000  0.19625000  1.0
  H  H89  1  0.56189000  0.94578000  0.30374000  1.0
  H  H90  1  0.56189000  0.55423000  0.80375000  1.0
  H  H91  1  0.43812000  0.05422000  0.69625000  1.0
  H  H92  1  0.37265000  0.43291000  0.31409000  1.0
  H  H93  1  0.62736000  0.93292000  0.18591000  1.0
  H  H94  1  0.62734000  0.56709000  0.68592000  1.0
  H  H95  1  0.37265000  0.06708000  0.81408000  1.0
  H  H96  1  0.53149000  0.42970000  0.26491000  1.0
  H  H97  1  0.46852000  0.92970000  0.23508000  1.0
  H  H98  1  0.46851000  0.57031000  0.73509000  1.0
  H  H99  1  0.53149000  0.07030000  0.76491000  1.0
  H  H100  1  0.87804000  0.07890000  0.86741000  1.0
  H  H101  1  0.12196000  0.57890000  0.63258000  1.0
  H  H102  1  0.12195000  0.92110000  0.13258000  1.0
  H  H103  1  0.87803000  0.42111000  0.36743000  1.0
  H  H104  1  0.65723000  0.47893000  0.09012000  1.0
  H  H105  1  0.34278000  0.97893000  0.40988000  1.0
  H  H106  1  0.34277000  0.52106000  0.90989000  1.0
  H  H107  1  0.65722000  0.02107000  0.59012000  1.0
  H  H108  1  0.93900000  0.92951000  0.86687000  1.0
  H  H109  1  0.06100000  0.42951000  0.63313000  1.0
  H  H110  1  0.06100000  0.07048000  0.13312000  1.0
  H  H111  1  0.93899000  0.57049000  0.36688000  1.0
  H  H112  1  0.58173000  0.62881000  0.08892000  1.0
  H  H113  1  0.41827000  0.12882000  0.41108000  1.0
  H  H114  1  0.41827000  0.37118000  0.91108000  1.0
  H  H115  1  0.58173000  0.87119000  0.58892000  1.0
  C  C116  1  0.89420000  0.62884000  0.01934000  1.0
  C  C117  1  0.10580000  0.12883000  0.48066000  1.0
  C  C118  1  0.10580000  0.37116000  0.98066000  1.0
  C  C119  1  0.89421000  0.87117000  0.51934000  1.0
  C  C120  1  0.94436000  0.65001000  0.93004000  1.0
  C  C121  1  0.05564000  0.15000000  0.56996000  1.0
  C  C122  1  0.05564000  0.34999000  0.06995000  1.0
  C  C123  1  0.94436000  0.85000000  0.43004000  1.0
  C  C124  1  0.95016000  0.74764000  0.90165000  1.0
  C  C125  1  0.04984000  0.24763000  0.59835000  1.0
  C  C126  1  0.04985000  0.25236000  0.09834000  1.0
  C  C127  1  0.95016000  0.75237000  0.40166000  1.0
  C  C128  1  0.90511000  0.82404000  0.96314000  1.0
  C  C129  1  0.09489000  0.32404000  0.53686000  1.0
  C  C130  1  0.09490000  0.17596000  0.03685000  1.0
  C  C131  1  0.90510000  0.67597000  0.46315000  1.0
  C  C132  1  0.85740000  0.79681000  0.05243000  1.0
  C  C133  1  0.14260000  0.29681000  0.44758000  1.0
  C  C134  1  0.14260000  0.20319000  0.94757000  1.0
  C  C135  1  0.85740000  0.70320000  0.55243000  1.0
  C  C136  1  0.86693000  0.00598000  0.98310000  1.0
  C  C137  1  0.13307000  0.50598000  0.51690000  1.0
  C  C138  1  0.13308000  0.99401000  0.01689000  1.0
  C  C139  1  0.86692000  0.49403000  0.48311000  1.0
  C  C140  1  0.82613000  0.18271000  0.97324000  1.0
  C  C141  1  0.17388000  0.68270000  0.52675000  1.0
  C  C142  1  0.17387000  0.81729000  0.02675000  1.0
  C  C143  1  0.82612000  0.31730000  0.47326000  1.0
  C  C144  1  0.86759000  0.26503000  0.90465000  1.0
  C  C145  1  0.13241000  0.76503000  0.59534000  1.0
  C  C146  1  0.13240000  0.73496000  0.09534000  1.0
  C  C147  1  0.86760000  0.23497000  0.40467000  1.0
  C  C148  1  0.82524000  0.36588000  0.94616000  1.0
  C  C149  1  0.17476000  0.86588000  0.55383000  1.0
  C  C150  1  0.17475000  0.63411000  0.05384000  1.0
  C  C151  1  0.82525000  0.13413000  0.44618000  1.0
  C  C152  1  0.69070000  0.36822000  0.99067000  1.0
  C  C153  1  0.30931000  0.86822000  0.50932000  1.0
  C  C154  1  0.30930000  0.63177000  0.00932000  1.0
  C  C155  1  0.69070000  0.13178000  0.49068000  1.0
  C  C156  1  0.65083000  0.28543000  0.05866000  1.0
  C  C157  1  0.34918000  0.78543000  0.44133000  1.0
  C  C158  1  0.34917000  0.71456000  0.94134000  1.0
  C  C159  1  0.65082000  0.21457000  0.55867000  1.0
  C  C160  1  0.69146000  0.18592000  0.01368000  1.0
  C  C161  1  0.30854000  0.68592000  0.48631000  1.0
  C  C162  1  0.30854000  0.81407000  0.98631000  1.0
  C  C163  1  0.69145000  0.31408000  0.51370000  1.0
  C  C164  1  0.64336000  0.54130000  0.97652000  1.0
  C  C165  1  0.35664000  0.04130000  0.52348000  1.0
  C  C166  1  0.35664000  0.45870000  0.02348000  1.0
  C  C167  1  0.64337000  0.95871000  0.47652000  1.0
  C  C168  1  0.62247000  0.72316000  0.98200000  1.0
  C  C169  1  0.37753000  0.22316000  0.51800000  1.0
  C  C170  1  0.37753000  0.27683000  0.01800000  1.0
  C  C171  1  0.62247000  0.77684000  0.48200000  1.0
  C  C172  1  0.67564000  0.73957000  0.89103000  1.0
  C  C173  1  0.32436000  0.23957000  0.60896000  1.0
  C  C174  1  0.32436000  0.26042000  0.10897000  1.0
  C  C175  1  0.67564000  0.76043000  0.39103000  1.0
  C  C176  1  0.65054000  0.91062000  0.90725000  1.0
  C  C177  1  0.34946000  0.41062000  0.59276000  1.0
  C  C178  1  0.34945000  0.08938000  0.09276000  1.0
  C  C179  1  0.65054000  0.58938000  0.40724000  1.0
  C  C180  1  0.59851000  0.90039000  0.99797000  1.0
  C  C181  1  0.40149000  0.40039000  0.50203000  1.0
  C  C182  1  0.40148000  0.09960000  0.00203000  1.0
  C  C183  1  0.59851000  0.59961000  0.49797000  1.0
  C  C184  1  0.58374000  0.80691000  0.03601000  1.0
  C  C185  1  0.41626000  0.30691000  0.46399000  1.0
  C  C186  1  0.41625000  0.19309000  0.96400000  1.0
  C  C187  1  0.58374000  0.69309000  0.53600000  1.0
  C  C188  1  0.31812000  0.62542000  0.25841000  1.0
  C  C189  1  0.68188000  0.12542000  0.24159000  1.0
  C  C190  1  0.68187000  0.37458000  0.74159000  1.0
  C  C191  1  0.31813000  0.87458000  0.75840000  1.0
  C  C192  1  0.44894000  0.46072000  0.26033000  1.0
  C  C193  1  0.55107000  0.96073000  0.23967000  1.0
  C  C194  1  0.55106000  0.53929000  0.73968000  1.0
  C  C195  1  0.44894000  0.03928000  0.76032000  1.0
  S  S196  1  0.45387000  0.59249000  0.27598000  1.0
  S  S197  1  0.54613000  0.09250000  0.22402000  1.0
  S  S198  1  0.54612000  0.40751000  0.72402000  1.0
  S  S199  1  0.45387000  0.90750000  0.77598000  1.0
  N  N200  1  0.85184000  0.70157000  0.07874000  1.0
  N  N201  1  0.14816000  0.20157000  0.42126000  1.0
  N  N202  1  0.14816000  0.29843000  0.92125000  1.0
  N  N203  1  0.85184000  0.79844000  0.57874000  1.0
  N  N204  1  0.90771000  0.92041000  0.93328000  1.0
  N  N205  1  0.09229000  0.42041000  0.56672000  1.0
  N  N206  1  0.09230000  0.07958000  0.06671000  1.0
  N  N207  1  0.90770000  0.57960000  0.43328000  1.0
  N  N208  1  0.86832000  0.08718000  0.93320000  1.0
  N  N209  1  0.13169000  0.58718000  0.56679000  1.0
  N  N210  1  0.13168000  0.91282000  0.06679000  1.0
  N  N211  1  0.86831000  0.41283000  0.43322000  1.0
  N  N212  1  0.65062000  0.46473000  0.02956000  1.0
  N  N213  1  0.34938000  0.96473000  0.47043000  1.0
  N  N214  1  0.34938000  0.53526000  0.97044000  1.0
  N  N215  1  0.65062000  0.03527000  0.52957000  1.0
  N  N216  1  0.61028000  0.63064000  0.02034000  1.0
  N  N217  1  0.38971000  0.13064000  0.47966000  1.0
  N  N218  1  0.38972000  0.36935000  0.97966000  1.0
  N  N219  1  0.61029000  0.86936000  0.52034000  1.0
  N  N220  1  0.68919000  0.83082000  0.85516000  1.0
  N  N221  1  0.31081000  0.33082000  0.64484000  1.0
  N  N222  1  0.31080000  0.16918000  0.14485000  1.0
  N  N223  1  0.68919000  0.66918000  0.35515000  1.0
  N  N224  1  0.79243000  0.42996000  0.23581000  1.0
  N  N225  1  0.20757000  0.92995000  0.26419000  1.0
  N  N226  1  0.20756000  0.57004000  0.76419000  1.0
  N  N227  1  0.79243000  0.07005000  0.73581000  1.0
  O  O228  1  0.83432000  0.00591000  0.06508000  1.0
  O  O229  1  0.16568000  0.50590000  0.43492000  1.0
  O  O230  1  0.16570000  0.99409000  0.93491000  1.0
  O  O231  1  0.83431000  0.49410000  0.56509000  1.0
  O  O232  1  0.66259000  0.53133000  0.89589000  1.0
  O  O233  1  0.33741000  0.03133000  0.60411000  1.0
  O  O234  1  0.33742000  0.46867000  0.10412000  1.0
  O  O235  1  0.66259000  0.96868000  0.39588000  1.0
  O  O236  1  0.77575000  0.46861000  0.16878000  1.0
  O  O237  1  0.22425000  0.96861000  0.33122000  1.0
  O  O238  1  0.22424000  0.53138000  0.83122000  1.0
  O  O239  1  0.77574000  0.03139000  0.66878000  1.0
  O  O240  1  0.71726000  0.37100000  0.28468000  1.0
  O  O241  1  0.28274000  0.87100000  0.21532000  1.0
  O  O242  1  0.28273000  0.62900000  0.71532000  1.0
  O  O243  1  0.71726000  0.12901000  0.78468000  1.0
  O  O244  1  0.88558000  0.45260000  0.25387000  1.0
  O  O245  1  0.11441000  0.95260000  0.24613000  1.0
  O  O246  1  0.11441000  0.54740000  0.74613000  1.0
  O  O247  1  0.88558000  0.04740000  0.75387000  1.0
  O  O248  1  0.55385000  0.63318000  0.19755000  1.0
  O  O249  1  0.44615000  0.13319000  0.30245000  1.0
  O  O250  1  0.44614000  0.36683000  0.80246000  1.0
  O  O251  1  0.55385000  0.86681000  0.69755000  1.0
