# generated using pymatgen
data_CdH4C4(N3Cl)2
_symmetry_space_group_name_H-M   'P 1'
_cell_length_a   6.49301000
_cell_length_b   11.19320851
_cell_length_c   13.76660000
_cell_angle_alpha   106.51026445
_cell_angle_beta   90.00100000
_cell_angle_gamma   106.84305283
_symmetry_Int_Tables_number   1
_chemical_formula_structural   CdH4C4(N3Cl)2
_chemical_formula_sum   'Cd4 H16 C16 N24 Cl8'
_cell_volume   914.41465164
_cell_formula_units_Z   4
loop_
 _symmetry_equiv_pos_site_id
 _symmetry_equiv_pos_as_xyz
  1  'x, y, z'
loop_
 _atom_site_type_symbol
 _atom_site_label
 _atom_site_symmetry_multiplicity
 _atom_site_fract_x
 _atom_site_fract_y
 _atom_site_fract_z
 _atom_site_occupancy
  Cd  Cd0  1  0.33445000  0.00009000  0.89439000  1.0
  Cd  Cd1  1  0.33418000  0.99969000  0.60560000  1.0
  Cd  Cd2  1  0.66555000  0.99991000  0.10561000  1.0
  Cd  Cd3  1  0.66582000  0.00031000  0.39440000  1.0
  H  H4  1  0.12431000  0.27863000  0.97034000  1.0
  H  H5  1  0.84555000  0.72095000  0.52972000  1.0
  H  H6  1  0.87569000  0.72137000  0.02966000  1.0
  H  H7  1  0.15445000  0.27905000  0.47028000  1.0
  H  H8  1  0.06255000  0.24790000  0.65528000  1.0
  H  H9  1  0.81451000  0.75213000  0.84488000  1.0
  H  H10  1  0.93744000  0.75209000  0.34472000  1.0
  H  H11  1  0.18549000  0.24787000  0.15512000  1.0
  H  H12  1  0.61798000  0.24535000  0.80495000  1.0
  H  H13  1  0.37243000  0.75452000  0.69511000  1.0
  H  H14  1  0.38202000  0.75465000  0.19505000  1.0
  H  H15  1  0.62757000  0.24548000  0.30490000  1.0
  H  H16  1  0.18471000  0.57109000  0.89177000  1.0
  H  H17  1  0.61382000  0.42886000  0.60840000  1.0
  H  H18  1  0.81529000  0.42891000  0.10823000  1.0
  H  H19  1  0.38617000  0.57114000  0.39160000  1.0
  C  C20  1  0.13761000  0.24639000  0.88872000  1.0
  C  C21  1  0.89113000  0.75327000  0.61136000  1.0
  C  C22  1  0.86239000  0.75361000  0.11128000  1.0
  C  C23  1  0.10887000  0.24673000  0.38865000  1.0
  C  C24  1  0.10633000  0.23162000  0.72539000  1.0
  C  C25  1  0.87445000  0.76832000  0.77472000  1.0
  C  C26  1  0.89366000  0.76837000  0.27461000  1.0
  C  C27  1  0.12555000  0.23168000  0.22528000  1.0
  C  C28  1  0.71808000  0.34649000  0.83154000  1.0
  C  C29  1  0.37154000  0.65341000  0.66857000  1.0
  C  C30  1  0.28193000  0.65351000  0.16847000  1.0
  C  C31  1  0.62846000  0.34660000  0.33143000  1.0
  C  C32  1  0.01494000  0.51412000  0.87648000  1.0
  C  C33  1  0.50092000  0.48577000  0.62368000  1.0
  C  C34  1  0.98507000  0.48588000  0.12352000  1.0
  C  C35  1  0.49907000  0.51423000  0.37632000  1.0
  N  N36  1  0.23224000  0.16168000  0.83853000  1.0
  N  N37  1  0.07047000  0.83794000  0.66152000  1.0
  N  N38  1  0.76776000  0.83832000  0.16147000  1.0
  N  N39  1  0.92953000  0.16205000  0.33849000  1.0
  N  N40  1  0.21281000  0.15245000  0.73659000  1.0
  N  N41  1  0.06011000  0.84734000  0.76348000  1.0
  N  N42  1  0.78720000  0.84755000  0.26341000  1.0
  N  N43  1  0.93989000  0.15266000  0.23652000  1.0
  N  N44  1  0.05874000  0.29357000  0.81983000  1.0
  N  N45  1  0.76506000  0.70627000  0.68028000  1.0
  N  N46  1  0.94126000  0.70643000  0.18017000  1.0
  N  N47  1  0.23494000  0.29373000  0.31973000  1.0
  N  N48  1  0.65954000  0.45315000  0.85975000  1.0
  N  N49  1  0.20646000  0.54675000  0.64028000  1.0
  N  N50  1  0.34046000  0.54685000  0.14025000  1.0
  N  N51  1  0.79354000  0.45325000  0.35972000  1.0
  N  N52  1  0.84789000  0.55920000  0.88863000  1.0
  N  N53  1  0.28880000  0.44070000  0.61146000  1.0
  N  N54  1  0.15211000  0.44080000  0.11137000  1.0
  N  N55  1  0.71119000  0.55930000  0.38854000  1.0
  N  N56  1  0.93991000  0.38001000  0.84075000  1.0
  N  N57  1  0.55985000  0.61986000  0.65938000  1.0
  N  N58  1  0.06010000  0.61999000  0.15925000  1.0
  N  N59  1  0.44014000  0.38014000  0.34062000  1.0
  Cl  Cl60  1  0.00000000  0.00000000  0.00000000  1.0
  Cl  Cl61  1  0.00000000  0.00000000  0.50000000  1.0
  Cl  Cl62  1  0.60239000  0.99992000  0.75000000  1.0
  Cl  Cl63  1  0.39762000  0.00008000  0.25000000  1.0
  Cl  Cl64  1  0.58426000  0.18538000  0.04666000  1.0
  Cl  Cl65  1  0.39901000  0.81471000  0.45321000  1.0
  Cl  Cl66  1  0.41574000  0.81462000  0.95334000  1.0
  Cl  Cl67  1  0.60099000  0.18529000  0.54679000  1.0
