# generated using pymatgen
data_Al2H13C26O10F3
_symmetry_space_group_name_H-M   'P 1'
_cell_length_a   6.64414000
_cell_length_b   11.13760000
_cell_length_c   17.70548790
_cell_angle_alpha   89.40426683
_cell_angle_beta   79.64337254
_cell_angle_gamma   73.08620000
_symmetry_Int_Tables_number   1
_chemical_formula_structural   Al2H13C26O10F3
_chemical_formula_sum   'Al2 H13 C26 O10 F3'
_cell_volume   1231.88181821
_cell_formula_units_Z   1
loop_
 _symmetry_equiv_pos_site_id
 _symmetry_equiv_pos_as_xyz
  1  'x, y, z'
loop_
 _atom_site_type_symbol
 _atom_site_label
 _atom_site_symmetry_multiplicity
 _atom_site_fract_x
 _atom_site_fract_y
 _atom_site_fract_z
 _atom_site_occupancy
  Al  Al0  1  0.99317000  0.50381000  0.49353000  1.0
  Al  Al1  1  0.49191000  0.50533000  0.49510000  1.0
  H  H2  1  0.14601000  0.63775000  0.55895000  1.0
  H  H3  1  0.83291000  0.36769000  0.43402000  1.0
  H  H4  1  0.06608000  0.47963000  0.26109000  1.0
  H  H5  1  0.15103000  0.46397000  0.11727000  1.0
  H  H6  1  0.64310000  0.58025000  0.26528000  1.0
  H  H7  1  0.35874000  0.41890000  0.72695000  1.0
  H  H8  1  0.94788000  0.50991000  0.72264000  1.0
  H  H9  1  0.88837000  0.51198000  0.86649000  1.0
  H  H10  1  0.86312000  0.88356000  0.42894000  1.0
  H  H11  1  0.14169000  0.90013000  0.62729000  1.0
  H  H12  1  0.05143000  0.88813000  0.53929000  1.0
  H  H13  1  0.93540000  0.12400000  0.53461000  1.0
  H  H14  1  0.02732000  0.13556000  0.62204000  1.0
  C  C15  1  0.63722000  0.72991000  0.49722000  1.0
  C  C16  1  0.68291000  0.47824000  0.63129000  1.0
  C  C17  1  0.34976000  0.27887000  0.48721000  1.0
  C  C18  1  0.30877000  0.52703000  0.35731000  1.0
  C  C19  1  0.34964000  0.52921000  0.27175000  1.0
  C  C20  1  0.20987000  0.49834000  0.22985000  1.0
  C  C21  1  0.25751000  0.48907000  0.15019000  1.0
  C  C22  1  0.44644000  0.51103000  0.10973000  1.0
  C  C23  1  0.57882000  0.54646000  0.15366000  1.0
  C  C24  1  0.53491000  0.55521000  0.23308000  1.0
  C  C25  1  0.50083000  0.49614000  0.02900000  1.0
  C  C26  1  0.54294000  0.48042000  0.95919000  1.0
  C  C27  1  0.58825000  0.46929000  0.87830000  1.0
  C  C28  1  0.44569000  0.43978000  0.83654000  1.0
  C  C29  1  0.47515000  0.43893000  0.75721000  1.0
  C  C30  1  0.65641000  0.46658000  0.71625000  1.0
  C  C31  1  0.80709000  0.49026000  0.75579000  1.0
  C  C32  1  0.77375000  0.49184000  0.83542000  1.0
  C  C33  1  0.56134000  0.86863000  0.49298000  1.0
  C  C34  1  0.42306000  0.13960000  0.48607000  1.0
  C  C35  1  0.35360000  0.94032000  0.52428000  1.0
  C  C36  1  0.63091000  0.06456000  0.45280000  1.0
  C  C37  1  0.28869000  0.07092000  0.52101000  1.0
  C  C38  1  0.70015000  0.93459000  0.45608000  1.0
  C  C39  1  0.13887000  0.93625000  0.56937000  1.0
  C  C40  1  0.06586000  0.08437000  0.56609000  1.0
  O  O41  1  0.83848000  0.67733000  0.48492000  1.0
  O  O42  1  0.53475000  0.46404000  0.59866000  1.0
  O  O43  1  0.49086000  0.33682000  0.47655000  1.0
  O  O44  1  0.13894000  0.50151000  0.38923000  1.0
  O  O45  1  0.14785000  0.33010000  0.50022000  1.0
  O  O46  1  0.44979000  0.54651000  0.39175000  1.0
  O  O47  1  0.49350000  0.67402000  0.51373000  1.0
  O  O48  1  0.84977000  0.50575000  0.59822000  1.0
  O  O49  1  0.19835000  0.55660000  0.53164000  1.0
  O  O50  1  0.78507000  0.45191000  0.45743000  1.0
  F  F51  1  0.75915000  0.57098000  0.11589000  1.0
  F  F52  1  0.26911000  0.41389000  0.87660000  1.0
  F  F53  1  0.77495000  0.11963000  0.41394000  1.0
