# generated using pymatgen
data_Gd2H18(CO2)9
_symmetry_space_group_name_H-M   'P 1'
_cell_length_a   10.48490000
_cell_length_b   10.48570000
_cell_length_c   10.76440507
_cell_angle_alpha   117.88149196
_cell_angle_beta   101.39150891
_cell_angle_gamma   108.48400000
_symmetry_Int_Tables_number   1
_chemical_formula_structural   Gd2H18(CO2)9
_chemical_formula_sum   'Gd4 H36 C18 O36'
_cell_volume   903.78818839
_cell_formula_units_Z   2
loop_
 _symmetry_equiv_pos_site_id
 _symmetry_equiv_pos_as_xyz
  1  'x, y, z'
loop_
 _atom_site_type_symbol
 _atom_site_label
 _atom_site_symmetry_multiplicity
 _atom_site_fract_x
 _atom_site_fract_y
 _atom_site_fract_z
 _atom_site_occupancy
  Gd  Gd0  1  0.36428000  0.04916000  0.11968000  1.0
  Gd  Gd1  1  0.92943000  0.74470000  0.38034000  1.0
  Gd  Gd2  1  0.63572000  0.95084000  0.88032000  1.0
  Gd  Gd3  1  0.07057000  0.25530000  0.61966000  1.0
  H  H4  1  0.37014000  0.44851000  0.16597000  1.0
  H  H5  1  0.28238000  0.70413000  0.33408000  1.0
  H  H6  1  0.62986000  0.55149000  0.83403000  1.0
  H  H7  1  0.71760000  0.29586000  0.66591000  1.0
  H  H8  1  0.48755000  0.62187000  0.35761000  1.0
  H  H9  1  0.26422000  0.62999000  0.14247000  1.0
  H  H10  1  0.51245000  0.37813000  0.64239000  1.0
  H  H11  1  0.73579000  0.37002000  0.85754000  1.0
  H  H12  1  0.53513000  0.89253000  0.28598000  1.0
  H  H13  1  0.60653000  0.74933000  0.21412000  1.0
  H  H14  1  0.46486000  0.10746000  0.71401000  1.0
  H  H15  1  0.39347000  0.25067000  0.78588000  1.0
  H  H16  1  0.16316000  0.67284000  0.85687000  1.0
  H  H17  1  0.81610000  0.80632000  0.64333000  1.0
  H  H18  1  0.83684000  0.32716000  0.14313000  1.0
  H  H19  1  0.18390000  0.19368000  0.35667000  1.0
  H  H20  1  0.31223000  0.73441000  0.84104000  1.0
  H  H21  1  0.89334000  0.97116000  0.65901000  1.0
  H  H22  1  0.68777000  0.26559000  0.15896000  1.0
  H  H23  1  0.10666000  0.02884000  0.34099000  1.0
  H  H24  1  0.59649000  0.30697000  0.44877000  1.0
  H  H25  1  0.85818000  0.64782000  0.05123000  1.0
  H  H26  1  0.40351000  0.69303000  0.55123000  1.0
  H  H27  1  0.14182000  0.35218000  0.94877000  1.0
  H  H28  1  0.64272000  0.16986000  0.39291000  1.0
  H  H29  1  0.77694000  0.74999000  0.10701000  1.0
  H  H30  1  0.35728000  0.83014000  0.60709000  1.0
  H  H31  1  0.22305000  0.25001000  0.89298000  1.0
  H  H32  1  0.05032000  0.94207000  0.93298000  1.0
  H  H33  1  0.00922000  0.61749000  0.56699000  1.0
  H  H34  1  0.94968000  0.05793000  0.06702000  1.0
  H  H35  1  0.99078000  0.38250000  0.43301000  1.0
  H  H36  1  0.04020000  0.81580000  0.97799000  1.0
  H  H37  1  0.83791000  0.56222000  0.52195000  1.0
  H  H38  1  0.95979000  0.18419000  0.02200000  1.0
  H  H39  1  0.16209000  0.43777000  0.47805000  1.0
  C  C40  1  0.57056000  0.45408000  0.25888000  1.0
  C  C41  1  0.19518000  0.81175000  0.24119000  1.0
  C  C42  1  0.42945000  0.54592000  0.74112000  1.0
  C  C43  1  0.80481000  0.18825000  0.75881000  1.0
  C  C44  1  0.44394000  0.48928000  0.28038000  1.0
  C  C45  1  0.20882000  0.66361000  0.21968000  1.0
  C  C46  1  0.55606000  0.51072000  0.71962000  1.0
  C  C47  1  0.79118000  0.33639000  0.78032000  1.0
  C  C48  1  0.34777000  0.40445000  0.33486000  1.0
  C  C49  1  0.06944000  0.51299000  0.16510000  1.0
  C  C50  1  0.65223000  0.59555000  0.66514000  1.0
  C  C51  1  0.93055000  0.48701000  0.83490000  1.0
  C  C52  1  0.62328000  0.89614000  0.12240000  1.0
  C  C53  1  0.77370000  0.00102000  0.37766000  1.0
  C  C54  1  0.37672000  0.10385000  0.87760000  1.0
  C  C55  1  0.22630000  0.99898000  0.62234000  1.0
  C  C56  1  0.62147000  0.87157000  0.25005000  1.0
  C  C57  1  0.37853000  0.12843000  0.74995000  1.0
  O  O58  1  0.55689000  0.31209000  0.20920000  1.0
  O  O59  1  0.10290000  0.84782000  0.29091000  1.0
  O  O60  1  0.44311000  0.68791000  0.79080000  1.0
  O  O61  1  0.89709000  0.15218000  0.70909000  1.0
  O  O62  1  0.68459000  0.57152000  0.28825000  1.0
  O  O63  1  0.28325000  0.89638000  0.21177000  1.0
  O  O64  1  0.31541000  0.42848000  0.71175000  1.0
  O  O65  1  0.71675000  0.10362000  0.78823000  1.0
  O  O66  1  0.30887000  0.25439000  0.28138000  1.0
  O  O67  1  0.97273000  0.52753000  0.21840000  1.0
  O  O68  1  0.69113000  0.74561000  0.71862000  1.0
  O  O69  1  0.02726000  0.47247000  0.78160000  1.0
  O  O70  1  0.30621000  0.48846000  0.43141000  1.0
  O  O71  1  0.05703000  0.37491000  0.06866000  1.0
  O  O72  1  0.69380000  0.51154000  0.56860000  1.0
  O  O73  1  0.94298000  0.62510000  0.93135000  1.0
  O  O74  1  0.54786000  0.95829000  0.08854000  1.0
  O  O75  1  0.86970000  0.95944000  0.41150000  1.0
  O  O76  1  0.45212000  0.04170000  0.91145000  1.0
  O  O77  1  0.13030000  0.04056000  0.58850000  1.0
  O  O78  1  0.70805000  0.86352000  0.05693000  1.0
  O  O79  1  0.80655000  0.15124000  0.44307000  1.0
  O  O80  1  0.29195000  0.13648000  0.94307000  1.0
  O  O81  1  0.19345000  0.84876000  0.55693000  1.0
  O  O82  1  0.24497000  0.77321000  0.88203000  1.0
  O  O83  1  0.89119000  0.86294000  0.61803000  1.0
  O  O84  1  0.75503000  0.22679000  0.11797000  1.0
  O  O85  1  0.10881000  0.13706000  0.38197000  1.0
  O  O86  1  0.55337000  0.18506000  0.38329000  1.0
  O  O87  1  0.80178000  0.67032000  0.11673000  1.0
  O  O88  1  0.44663000  0.81493000  0.61671000  1.0
  O  O89  1  0.19822000  0.32968000  0.88327000  1.0
  O  O90  1  0.09461000  0.93320000  0.01545000  1.0
  O  O91  1  0.91786000  0.57925000  0.48451000  1.0
  O  O92  1  0.90539000  0.06680000  0.98455000  1.0
  O  O93  1  0.08214000  0.42075000  0.51549000  1.0
