# generated using pymatgen
data_AgH9C8N5O2
_symmetry_space_group_name_H-M   'P 1'
_cell_length_a   8.29966000
_cell_length_b   10.61340000
_cell_length_c   12.27417814
_cell_angle_alpha   65.50221400
_cell_angle_beta   89.99974059
_cell_angle_gamma   89.99970000
_symmetry_Int_Tables_number   1
_chemical_formula_structural   AgH9C8N5O2
_chemical_formula_sum   'Ag4 H36 C32 N20 O8'
_cell_volume   983.87021254
_cell_formula_units_Z   4
loop_
 _symmetry_equiv_pos_site_id
 _symmetry_equiv_pos_as_xyz
  1  'x, y, z'
loop_
 _atom_site_type_symbol
 _atom_site_label
 _atom_site_symmetry_multiplicity
 _atom_site_fract_x
 _atom_site_fract_y
 _atom_site_fract_z
 _atom_site_occupancy
  Ag  Ag0  1  0.30010000  0.44746000  0.62677000  1.0
  Ag  Ag1  1  0.80010000  0.05255000  0.87323000  1.0
  Ag  Ag2  1  0.69990000  0.55254000  0.37324000  1.0
  Ag  Ag3  1  0.19991000  0.94746000  0.12676000  1.0
  H  H4  1  0.57146000  0.15953000  0.20493000  1.0
  H  H5  1  0.07146000  0.34048000  0.29507000  1.0
  H  H6  1  0.42854000  0.84048000  0.79507000  1.0
  H  H7  1  0.92853000  0.65953000  0.70492000  1.0
  H  H8  1  0.44600000  0.01630000  0.22055000  1.0
  H  H9  1  0.94600000  0.48371000  0.27945000  1.0
  H  H10  1  0.55400000  0.98371000  0.77945000  1.0
  H  H11  1  0.05399000  0.51629000  0.72055000  1.0
  H  H12  1  0.36577000  0.15876000  0.24333000  1.0
  H  H13  1  0.86577000  0.34124000  0.25667000  1.0
  H  H14  1  0.63423000  0.84124000  0.75667000  1.0
  H  H15  1  0.13422000  0.65876000  0.74333000  1.0
  H  H16  1  0.65101000  0.21714000  0.38907000  1.0
  H  H17  1  0.15100000  0.28286000  0.11093000  1.0
  H  H18  1  0.34899000  0.78286000  0.61093000  1.0
  H  H19  1  0.84899000  0.71714000  0.88907000  1.0
  H  H20  1  0.24514000  0.00777000  0.60272000  1.0
  H  H21  1  0.74514000  0.49223000  0.89728000  1.0
  H  H22  1  0.75486000  0.99223000  0.39728000  1.0
  H  H23  1  0.25485000  0.50777000  0.10272000  1.0
  H  H24  1  0.49644000  0.57986000  0.88511000  1.0
  H  H25  1  0.99644000  0.92014000  0.61490000  1.0
  H  H26  1  0.50355000  0.42013000  0.11490000  1.0
  H  H27  1  0.00355000  0.07987000  0.38510000  1.0
  H  H28  1  0.47990000  0.57947000  0.73908000  1.0
  H  H29  1  0.97990000  0.92053000  0.76092000  1.0
  H  H30  1  0.52010000  0.42053000  0.26092000  1.0
  H  H31  1  0.02010000  0.07947000  0.23908000  1.0
  H  H32  1  0.25692000  0.16879000  0.73364000  1.0
  H  H33  1  0.75691000  0.33120000  0.76637000  1.0
  H  H34  1  0.74308000  0.83120000  0.26637000  1.0
  H  H35  1  0.24309000  0.66879000  0.23364000  1.0
  H  H36  1  0.20751000  0.03012000  0.87217000  1.0
  H  H37  1  0.70751000  0.46987000  0.62784000  1.0
  H  H38  1  0.79249000  0.96988000  0.12783000  1.0
  H  H39  1  0.29250000  0.53013000  0.37216000  1.0
  C  C40  1  0.42804000  0.39718000  0.88487000  1.0
  C  C41  1  0.92804000  0.10282000  0.61513000  1.0
  C  C42  1  0.57197000  0.60281000  0.11513000  1.0
  C  C43  1  0.07197000  0.89718000  0.38487000  1.0
  C  C44  1  0.41240000  0.20179000  0.05894000  1.0
  C  C45  1  0.91241000  0.29822000  0.44106000  1.0
  C  C46  1  0.58759000  0.79822000  0.94106000  1.0
  C  C47  1  0.08759000  0.70178000  0.55894000  1.0
  C  C48  1  0.45063000  0.12915000  0.18912000  1.0
  C  C49  1  0.95063000  0.37085000  0.31088000  1.0
  C  C50  1  0.54937000  0.87085000  0.81088000  1.0
  C  C51  1  0.04936000  0.62914000  0.68912000  1.0
  C  C52  1  0.32185000  0.19661000  0.88330000  1.0
  C  C53  1  0.82185000  0.30339000  0.61670000  1.0
  C  C54  1  0.67816000  0.80339000  0.11670000  1.0
  C  C55  1  0.17817000  0.69661000  0.38330000  1.0
  C  C56  1  0.38152000  0.26137000  0.49275000  1.0
  C  C57  1  0.88151000  0.23863000  0.00725000  1.0
  C  C58  1  0.61849000  0.73863000  0.50725000  1.0
  C  C59  1  0.11848000  0.76137000  0.99275000  1.0
  C  C60  1  0.58574000  0.12130000  0.43798000  1.0
  C  C61  1  0.08574000  0.37870000  0.06202000  1.0
  C  C62  1  0.41426000  0.87870000  0.56202000  1.0
  C  C63  1  0.91426000  0.62130000  0.93798000  1.0
  C  C64  1  0.44194000  0.12658000  0.49545000  1.0
  C  C65  1  0.94194000  0.37342000  0.00455000  1.0
  C  C66  1  0.55806000  0.87342000  0.50455000  1.0
  C  C67  1  0.05806000  0.62658000  0.99545000  1.0
  C  C68  1  0.35646000  0.00367000  0.55764000  1.0
  C  C69  1  0.85646000  0.49633000  0.94236000  1.0
  C  C70  1  0.64354000  0.99633000  0.44236000  1.0
  C  C71  1  0.14354000  0.50367000  0.05764000  1.0
  N  N72  1  0.36858000  0.33024000  0.82023000  1.0
  N  N73  1  0.86858000  0.16976000  0.67977000  1.0
  N  N74  1  0.63141000  0.66976000  0.17977000  1.0
  N  N75  1  0.13142000  0.83024000  0.32023000  1.0
  N  N76  1  0.45505000  0.33411000  0.00490000  1.0
  N  N77  1  0.95505000  0.16589000  0.49510000  1.0
  N  N78  1  0.54495000  0.66589000  0.99510000  1.0
  N  N79  1  0.04495000  0.83411000  0.50490000  1.0
  N  N80  1  0.46228000  0.53210000  0.83047000  1.0
  N  N81  1  0.96228000  0.96790000  0.66953000  1.0
  N  N82  1  0.53772000  0.46790000  0.16953000  1.0
  N  N83  1  0.03772000  0.03210000  0.33047000  1.0
  N  N84  1  0.33826000  0.13020000  0.00512000  1.0
  N  N85  1  0.83826000  0.36979000  0.49489000  1.0
  N  N86  1  0.66174000  0.86980000  0.99488000  1.0
  N  N87  1  0.16174000  0.63020000  0.50512000  1.0
  N  N88  1  0.25737000  0.12676000  0.82584000  1.0
  N  N89  1  0.75737000  0.37325000  0.67416000  1.0
  N  N90  1  0.74263000  0.87324000  0.17416000  1.0
  N  N91  1  0.24264000  0.62676000  0.32584000  1.0
  O  O92  1  0.28370000  0.25485000  0.57496000  1.0
  O  O93  1  0.78369000  0.24516000  0.92504000  1.0
  O  O94  1  0.71630000  0.74515000  0.42504000  1.0
  O  O95  1  0.21631000  0.75484000  0.07496000  1.0
  O  O96  1  0.43042000  0.37453000  0.40977000  1.0
  O  O97  1  0.93042000  0.12546000  0.09023000  1.0
  O  O98  1  0.56959000  0.62546000  0.59023000  1.0
  O  O99  1  0.06958000  0.87454000  0.90977000  1.0
