# generated using pymatgen
data_Cd3H8C14S6(N5O)2
_symmetry_space_group_name_H-M   'P 1'
_cell_length_a   11.15800000
_cell_length_b   11.15790000
_cell_length_c   12.86690000
_cell_angle_alpha   115.43000000
_cell_angle_beta   115.43100000
_cell_angle_gamma   90.53570000
_symmetry_Int_Tables_number   1
_chemical_formula_structural   Cd3H8C14S6(N5O)2
_chemical_formula_sum   'Cd6 H16 C28 S12 N20 O4'
_cell_volume   1269.13516257
_cell_formula_units_Z   2
loop_
 _symmetry_equiv_pos_site_id
 _symmetry_equiv_pos_as_xyz
  1  'x, y, z'
loop_
 _atom_site_type_symbol
 _atom_site_label
 _atom_site_symmetry_multiplicity
 _atom_site_fract_x
 _atom_site_fract_y
 _atom_site_fract_z
 _atom_site_occupancy
  Cd  Cd0  1  0.52303000  0.02299000  0.50019000  1.0
  Cd  Cd1  1  0.27299000  0.27303000  0.00019000  1.0
  Cd  Cd2  1  0.86339000  0.58099000  0.39106000  1.0
  Cd  Cd3  1  0.18996000  0.47197000  0.60891000  1.0
  Cd  Cd4  1  0.72197000  0.93997000  0.10891000  1.0
  Cd  Cd5  1  0.83099000  0.61339000  0.89106000  1.0
  H  H6  1  0.95030000  0.19434000  0.45191000  1.0
  H  H7  1  0.74289000  0.49801000  0.54798000  1.0
  H  H8  1  0.74801000  0.49289000  0.04798000  1.0
  H  H9  1  0.44434000  0.70030000  0.95191000  1.0
  H  H10  1  0.79435000  0.03645000  0.46041000  1.0
  H  H11  1  0.57641000  0.33372000  0.53948000  1.0
  H  H12  1  0.58373000  0.32641000  0.03948000  1.0
  H  H13  1  0.28645000  0.54434000  0.96041000  1.0
  H  H14  1  0.26469000  0.53436000  0.40090000  1.0
  H  H15  1  0.13335000  0.86372000  0.59920000  1.0
  H  H16  1  0.11372000  0.88334000  0.09920000  1.0
  H  H17  1  0.78436000  0.01469000  0.90091000  1.0
  H  H18  1  0.42798000  0.69694000  0.40268000  1.0
  H  H19  1  0.29436000  0.02543000  0.59782000  1.0
  H  H20  1  0.27544000  0.04435000  0.09782000  1.0
  H  H21  1  0.94694000  0.17797000  0.90268000  1.0
  C  C22  1  0.86865000  0.22381000  0.47476000  1.0
  C  C23  1  0.74940000  0.39348000  0.52505000  1.0
  C  C24  1  0.64348000  0.49940000  0.02505000  1.0
  C  C25  1  0.47381000  0.61864000  0.97475000  1.0
  C  C26  1  0.78059000  0.13848000  0.47762000  1.0
  C  C27  1  0.66118000  0.30265000  0.52222000  1.0
  C  C28  1  0.55265000  0.41117000  0.02222000  1.0
  C  C29  1  0.38848000  0.53059000  0.97762000  1.0
  C  C30  1  0.27479000  0.64424000  0.44446000  1.0
  C  C31  1  0.19978000  0.83033000  0.55575000  1.0
  C  C32  1  0.08033000  0.94978000  0.05575000  1.0
  C  C33  1  0.89424000  0.02478000  0.94446000  1.0
  C  C34  1  0.36241000  0.73481000  0.44656000  1.0
  C  C35  1  0.28842000  0.91598000  0.55389000  1.0
  C  C36  1  0.16598000  0.03841000  0.05389000  1.0
  C  C37  1  0.98481000  0.11241000  0.94656000  1.0
  C  C38  1  0.84251000  0.26182000  0.18631000  1.0
  C  C39  1  0.07526000  0.65611000  0.81331000  1.0
  C  C40  1  0.90611000  0.82526000  0.31331000  1.0
  C  C41  1  0.51182000  0.59252000  0.68632000  1.0
  C  C42  1  0.76580000  0.84116000  0.55596000  1.0
  C  C43  1  0.28543000  0.20985000  0.44397000  1.0
  C  C44  1  0.45985000  0.03544000  0.94398000  1.0
  C  C45  1  0.09116000  0.51580000  0.05596000  1.0
  C  C46  1  0.68641000  0.29067000  0.79217000  1.0
  C  C47  1  0.49802000  0.89451000  0.20788000  1.0
  C  C48  1  0.14451000  0.24802000  0.70788000  1.0
  C  C49  1  0.54067000  0.43641000  0.29217000  1.0
  S  S50  1  0.91269000  0.39869000  0.19766000  1.0
  S  S51  1  0.20075000  0.71480000  0.80185000  1.0
  S  S52  1  0.96480000  0.95075000  0.30185000  1.0
  S  S53  1  0.64868000  0.66269000  0.69767000  1.0
  S  S54  1  0.89283000  0.77932000  0.62037000  1.0
  S  S55  1  0.15909000  0.27239000  0.37951000  1.0
  S  S56  1  0.52238000  0.90909000  0.87952000  1.0
  S  S57  1  0.02932000  0.64283000  0.12038000  1.0
  S  S58  1  0.62342000  0.14422000  0.76931000  1.0
  S  S59  1  0.37469000  0.85415000  0.23099000  1.0
  S  S60  1  0.10417000  0.12469000  0.73099000  1.0
  S  S61  1  0.39422000  0.37342000  0.26931000  1.0
  N  N62  1  0.85270000  0.35227000  0.49994000  1.0
  N  N63  1  0.60227000  0.60270000  0.99994000  1.0
  N  N64  1  0.67629000  0.17602000  0.49996000  1.0
  N  N65  1  0.42602000  0.42629000  0.99996000  1.0
  N  N66  1  0.19402000  0.69402000  0.50002000  1.0
  N  N67  1  0.94402000  0.94402000  0.00002000  1.0
  N  N68  1  0.36957000  0.86956000  0.50028000  1.0
  N  N69  1  0.11956000  0.11957000  0.00028000  1.0
  N  N70  1  0.79296000  0.16165000  0.17769000  1.0
  N  N71  1  0.98382000  0.61515000  0.82206000  1.0
  N  N72  1  0.86515000  0.73383000  0.32205000  1.0
  N  N73  1  0.41164000  0.54296000  0.67770000  1.0
  N  N74  1  0.67490000  0.88798000  0.51165000  1.0
  N  N75  1  0.37664000  0.16345000  0.48845000  1.0
  N  N76  1  0.41345000  0.12666000  0.98846000  1.0
  N  N77  1  0.13797000  0.42490000  0.01165000  1.0
  N  N78  1  0.73127000  0.39764000  0.80878000  1.0
  N  N79  1  0.58820000  0.92289000  0.19112000  1.0
  N  N80  1  0.17289000  0.33820000  0.69111000  1.0
  N  N81  1  0.64763000  0.48127000  0.30878000  1.0
  O  O82  1  0.93618000  0.43575000  0.50002000  1.0
  O  O83  1  0.68575000  0.68618000  0.00002000  1.0
  O  O84  1  0.11077000  0.61073000  0.49986000  1.0
  O  O85  1  0.86074000  0.86077000  0.99986000  1.0
