# generated using pymatgen
data_CdH16C15(N3O2)2
_symmetry_space_group_name_H-M   'P 1'
_cell_length_a   8.12571000
_cell_length_b   9.78875000
_cell_length_c   10.61680000
_cell_angle_alpha   101.80000000
_cell_angle_beta   98.68080000
_cell_angle_gamma   94.43810000
_symmetry_Int_Tables_number   1
_chemical_formula_structural   CdH16C15(N3O2)2
_chemical_formula_sum   'Cd2 H32 C30 N12 O8'
_cell_volume   812.02202969
_cell_formula_units_Z   2
loop_
 _symmetry_equiv_pos_site_id
 _symmetry_equiv_pos_as_xyz
  1  'x, y, z'
loop_
 _atom_site_type_symbol
 _atom_site_label
 _atom_site_symmetry_multiplicity
 _atom_site_fract_x
 _atom_site_fract_y
 _atom_site_fract_z
 _atom_site_occupancy
  Cd  Cd0  1  0.15124000  0.13420000  0.12156000  1.0
  Cd  Cd1  1  0.84876000  0.86580000  0.87844000  1.0
  H  H2  1  0.92242000  0.62963000  0.21072000  1.0
  H  H3  1  0.07758000  0.37037000  0.78928000  1.0
  H  H4  1  0.06567000  0.14187000  0.63175000  1.0
  H  H5  1  0.93432000  0.85813000  0.36825000  1.0
  H  H6  1  0.02295000  0.96786000  0.65211000  1.0
  H  H7  1  0.97705000  0.03214000  0.34789000  1.0
  H  H8  1  0.32796000  0.95733000  0.72191000  1.0
  H  H9  1  0.67204000  0.04267000  0.27809000  1.0
  H  H10  1  0.28709000  0.99853000  0.56575000  1.0
  H  H11  1  0.71291000  0.00147000  0.43425000  1.0
  H  H12  1  0.42028000  0.21060000  0.82404000  1.0
  H  H13  1  0.57972000  0.78940000  0.17596000  1.0
  H  H14  1  0.36235000  0.25601000  0.67322000  1.0
  H  H15  1  0.63765000  0.74399000  0.32678000  1.0
  H  H16  1  0.66657000  0.25060000  0.71697000  1.0
  H  H17  1  0.33343000  0.74940000  0.28303000  1.0
  H  H18  1  0.57846000  0.11651000  0.57956000  1.0
  H  H19  1  0.42154000  0.88349000  0.42044000  1.0
  H  H20  1  0.28796000  0.26840000  0.42426000  1.0
  H  H21  1  0.71204000  0.73160000  0.57574000  1.0
  H  H22  1  0.41734000  0.46028000  0.61491000  1.0
  H  H23  1  0.58266000  0.53972000  0.38509000  1.0
  H  H24  1  0.33445000  0.70047000  0.63766000  1.0
  H  H25  1  0.66555000  0.29953000  0.36234000  1.0
  H  H26  1  0.11700000  0.75901000  0.47188000  1.0
  H  H27  1  0.88300000  0.24099000  0.52812000  1.0
  H  H28  1  0.81319000  0.44577000  0.98958000  1.0
  H  H29  1  0.18681000  0.55423000  0.01041000  1.0
  H  H30  1  0.83022000  0.26499000  0.99131000  1.0
  H  H31  1  0.16978000  0.73501000  0.00869000  1.0
  H  H32  1  0.57521000  0.13187000  0.05363000  1.0
  H  H33  1  0.42479000  0.86813000  0.94637000  1.0
  C  C34  1  0.09867000  0.12037000  0.83071000  1.0
  C  C35  1  0.90133000  0.87963000  0.16929000  1.0
  C  C36  1  0.10816000  0.06513000  0.68823000  1.0
  C  C37  1  0.89184000  0.93487000  0.31177000  1.0
  C  C38  1  0.28789000  0.03926000  0.67045000  1.0
  C  C39  1  0.71211000  0.96074000  0.32955000  1.0
  C  C40  1  0.41095000  0.17221000  0.71817000  1.0
  C  C41  1  0.58905000  0.82779000  0.28183000  1.0
  C  C42  1  0.58496000  0.15032000  0.68548000  1.0
  C  C43  1  0.41504000  0.84968000  0.31452000  1.0
  C  C44  1  0.67048000  0.04533000  0.75218000  1.0
  C  C45  1  0.32952000  0.95467000  0.24782000  1.0
  C  C46  1  0.13067000  0.40766000  0.33999000  1.0
  C  C47  1  0.86933000  0.59234000  0.66001000  1.0
  C  C48  1  0.25080000  0.37419000  0.43470000  1.0
  C  C49  1  0.74920000  0.62581000  0.56530000  1.0
  C  C50  1  0.32106000  0.48172000  0.54086000  1.0
  C  C51  1  0.67894000  0.51828000  0.45914000  1.0
  C  C52  1  0.27425000  0.61891000  0.55378000  1.0
  C  C53  1  0.72575000  0.38108000  0.44622000  1.0
  C  C54  1  0.15384000  0.65326000  0.46113000  1.0
  C  C55  1  0.84616000  0.34674000  0.53887000  1.0
  C  C56  1  0.08388000  0.54581000  0.35366000  1.0
  C  C57  1  0.91612000  0.45419000  0.64634000  1.0
  C  C58  1  0.94387000  0.41004000  0.17018000  1.0
  C  C59  1  0.05613000  0.58996000  0.82982000  1.0
  C  C60  1  0.81318000  0.36716000  0.05008000  1.0
  C  C61  1  0.18682000  0.63284000  0.94992000  1.0
  C  C62  1  0.54499000  0.23802000  0.08520000  1.0
  C  C63  1  0.45501000  0.76198000  0.91480000  1.0
  N  N64  1  0.04066000  0.32504000  0.22363000  1.0
  N  N65  1  0.95934000  0.67496000  0.77637000  1.0
  N  N66  1  0.96566000  0.54262000  0.24464000  1.0
  N  N67  1  0.03434000  0.45738000  0.75536000  1.0
  N  N68  1  0.64505000  0.35399000  0.08493000  1.0
  N  N69  1  0.35495000  0.64601000  0.91507000  1.0
  N  N70  1  0.56694000  0.46833000  0.12577000  1.0
  N  N71  1  0.43307000  0.53167000  0.87423000  1.0
  N  N72  1  0.42291000  0.42236000  0.14868000  1.0
  N  N73  1  0.57710000  0.57764000  0.85132000  1.0
  N  N74  1  0.40567000  0.27904000  0.12450000  1.0
  N  N75  1  0.59433000  0.72096000  0.87550000  1.0
  O  O76  1  0.10123000  0.02916000  0.90384000  1.0
  O  O77  1  0.89877000  0.97084000  0.09616000  1.0
  O  O78  1  0.09571000  0.24927000  0.87702000  1.0
  O  O79  1  0.90429000  0.75073000  0.12298000  1.0
  O  O80  1  0.67557000  0.05813000  0.87520000  1.0
  O  O81  1  0.32443000  0.94187000  0.12480000  1.0
  O  O82  1  0.73861000  0.94870000  0.68567000  1.0
  O  O83  1  0.26139000  0.05130000  0.31433000  1.0
