# generated using pymatgen
data_CuH8C12N2ClO4
_symmetry_space_group_name_H-M   'P 1'
_cell_length_a   3.62274000
_cell_length_b   9.92046000
_cell_length_c   16.53080000
_cell_angle_alpha   89.99790000
_cell_angle_beta   87.44760000
_cell_angle_gamma   89.99710000
_symmetry_Int_Tables_number   1
_chemical_formula_structural   CuH8C12N2ClO4
_chemical_formula_sum   'Cu2 H16 C24 N4 Cl2 O8'
_cell_volume   593.51510329
_cell_formula_units_Z   2
loop_
 _symmetry_equiv_pos_site_id
 _symmetry_equiv_pos_as_xyz
  1  'x, y, z'
loop_
 _atom_site_type_symbol
 _atom_site_label
 _atom_site_symmetry_multiplicity
 _atom_site_fract_x
 _atom_site_fract_y
 _atom_site_fract_z
 _atom_site_occupancy
  Cu  Cu0  1  0.86492000  0.97225000  0.72376000  1.0
  Cu  Cu1  1  0.36492000  0.02774000  0.22376000  1.0
  H  H2  1  0.51237000  0.71195000  0.74552000  1.0
  H  H3  1  0.01233000  0.28805000  0.24553000  1.0
  H  H4  1  0.70996000  0.61388000  0.36598000  1.0
  H  H5  1  0.20991000  0.38612000  0.86597000  1.0
  H  H6  1  0.58543000  0.25093000  0.78908000  1.0
  H  H7  1  0.08547000  0.74906000  0.28909000  1.0
  H  H8  1  0.81499000  0.52024000  0.58702000  1.0
  H  H9  1  0.31489000  0.47977000  0.08703000  1.0
  H  H10  1  0.03448000  0.32545000  0.50741000  1.0
  H  H11  1  0.53439000  0.67457000  0.00741000  1.0
  H  H12  1  0.30833000  0.15886000  0.45586000  1.0
  H  H13  1  0.80829000  0.84115000  0.95586000  1.0
  H  H14  1  0.51251000  0.94511000  0.39213000  1.0
  H  H15  1  0.01245000  0.05490000  0.89212000  1.0
  H  H16  1  0.08947000  0.73603000  0.60578000  1.0
  H  H17  1  0.58950000  0.26396000  0.10578000  1.0
  C  C18  1  0.68847000  0.27183000  0.72753000  1.0
  C  C19  1  0.18849000  0.72816000  0.22754000  1.0
  C  C20  1  0.68401000  0.40227000  0.69536000  1.0
  C  C21  1  0.18398000  0.59773000  0.19536000  1.0
  C  C22  1  0.81501000  0.42127000  0.61500000  1.0
  C  C23  1  0.31495000  0.57874000  0.11500000  1.0
  C  C24  1  0.94082000  0.31089000  0.57029000  1.0
  C  C25  1  0.44079000  0.68912000  0.07029000  1.0
  C  C26  1  0.94717000  0.18386000  0.60710000  1.0
  C  C27  1  0.44717000  0.81614000  0.10711000  1.0
  C  C28  1  0.08278000  0.06172000  0.56494000  1.0
  C  C29  1  0.58274000  0.93827000  0.06494000  1.0
  C  C30  1  0.25888000  0.06428000  0.48786000  1.0
  C  C31  1  0.75881000  0.93573000  0.98786000  1.0
  C  C32  1  0.37391000  0.94419000  0.45186000  1.0
  C  C33  1  0.87385000  0.05582000  0.95185000  1.0
  C  C34  1  0.31298000  0.82314000  0.49391000  1.0
  C  C35  1  0.81297000  0.17686000  0.99391000  1.0
  C  C36  1  0.13876000  0.82810000  0.57096000  1.0
  C  C37  1  0.63876000  0.17189000  0.07096000  1.0
  C  C38  1  0.54584000  0.51736000  0.74554000  1.0
  C  C39  1  0.04579000  0.48264000  0.24555000  1.0
  C  C40  1  0.42570000  0.69025000  0.45907000  1.0
  C  C41  1  0.92569000  0.30976000  0.95908000  1.0
  N  N42  1  0.82518000  0.16586000  0.68573000  1.0
  N  N43  1  0.32518000  0.83413000  0.18574000  1.0
  N  N44  1  0.02466000  0.94364000  0.60584000  1.0
  N  N45  1  0.52468000  0.05635000  0.10584000  1.0
  Cl  Cl46  1  0.35702000  0.88975000  0.79450000  1.0
  Cl  Cl47  1  0.85701000  0.11024000  0.29450000  1.0
  O  O48  1  0.38250000  0.50775000  0.81271000  1.0
  O  O49  1  0.88249000  0.49225000  0.31272000  1.0
  O  O50  1  0.61352000  0.63605000  0.71027000  1.0
  O  O51  1  0.11348000  0.36396000  0.21028000  1.0
  O  O52  1  0.34288000  0.58180000  0.49082000  1.0
  O  O53  1  0.84286000  0.41820000  0.99082000  1.0
  O  O54  1  0.62684000  0.70374000  0.38955000  1.0
  O  O55  1  0.12675000  0.29626000  0.88954000  1.0
