# generated using pymatgen
data_MnH27C30(N3O2)2
_symmetry_space_group_name_H-M   'P 1'
_cell_length_a   10.21200000
_cell_length_b   11.07410000
_cell_length_c   13.91000000
_cell_angle_alpha   107.70000000
_cell_angle_beta   95.82600000
_cell_angle_gamma   97.25640000
_symmetry_Int_Tables_number   1
_chemical_formula_structural   MnH27C30(N3O2)2
_chemical_formula_sum   'Mn2 H54 C60 N12 O8'
_cell_volume   1470.21289969
_cell_formula_units_Z   2
loop_
 _symmetry_equiv_pos_site_id
 _symmetry_equiv_pos_as_xyz
  1  'x, y, z'
loop_
 _atom_site_type_symbol
 _atom_site_label
 _atom_site_symmetry_multiplicity
 _atom_site_fract_x
 _atom_site_fract_y
 _atom_site_fract_z
 _atom_site_occupancy
  Mn  Mn0  1  0.19254000  0.36119000  0.81862000  1.0
  Mn  Mn1  1  0.80746000  0.63880000  0.18138000  1.0
  H  H2  1  0.83755000  0.02931000  0.65125000  1.0
  H  H3  1  0.16245000  0.97069000  0.34874000  1.0
  H  H4  1  0.41728000  0.05226000  0.64633000  1.0
  H  H5  1  0.58273000  0.94775000  0.35367000  1.0
  H  H6  1  0.71176000  0.37630000  0.82208000  1.0
  H  H7  1  0.28824000  0.62370000  0.17792000  1.0
  H  H8  1  0.64281000  0.87033000  0.50579000  1.0
  H  H9  1  0.35718000  0.12967000  0.49420000  1.0
  H  H10  1  0.48192000  0.85915000  0.54218000  1.0
  H  H11  1  0.51808000  0.14086000  0.45782000  1.0
  H  H12  1  0.61610000  0.81853000  0.61189000  1.0
  H  H13  1  0.38390000  0.18148000  0.38811000  1.0
  H  H14  1  0.43702000  0.62079000  0.89463000  1.0
  H  H15  1  0.56298000  0.37921000  0.10537000  1.0
  H  H16  1  0.04639000  0.58932000  0.96638000  1.0
  H  H17  1  0.95362000  0.41068000  0.03362000  1.0
  H  H18  1  0.15794000  0.84870000  0.03074000  1.0
  H  H19  1  0.84206000  0.15129000  0.96926000  1.0
  H  H20  1  0.43467000  0.93156000  0.14452000  1.0
  H  H21  1  0.56533000  0.06843000  0.85547000  1.0
  H  H22  1  0.10369000  0.61074000  0.73806000  1.0
  H  H23  1  0.89631000  0.38926000  0.26194000  1.0
  H  H24  1  0.12749000  0.61884000  0.54129000  1.0
  H  H25  1  0.87251000  0.38116000  0.45872000  1.0
  H  H26  1  0.24438000  0.27836000  0.57472000  1.0
  H  H27  1  0.75562000  0.72164000  0.42528000  1.0
  H  H28  1  0.36580000  0.47190000  0.24057000  1.0
  H  H29  1  0.63420000  0.52810000  0.75944000  1.0
  H  H30  1  0.06024000  0.22773000  0.39616000  1.0
  H  H31  1  0.93976000  0.77228000  0.60384000  1.0
  H  H32  1  0.99333000  0.11892000  0.11812000  1.0
  H  H33  1  0.00667000  0.88108000  0.88188000  1.0
  H  H34  1  0.95026000  0.09393000  0.23244000  1.0
  H  H35  1  0.04974000  0.90607000  0.76756000  1.0
  H  H36  1  0.08283000  0.02703000  0.17773000  1.0
  H  H37  1  0.91716000  0.97296000  0.82228000  1.0
  H  H38  1  0.33138000  0.67299000  0.44908000  1.0
  H  H39  1  0.66862000  0.32701000  0.55092000  1.0
  H  H40  1  0.47210000  0.60684000  0.40797000  1.0
  H  H41  1  0.52791000  0.39316000  0.59203000  1.0
  H  H42  1  0.41554000  0.59169000  0.52191000  1.0
  H  H43  1  0.58446000  0.40831000  0.47809000  1.0
  H  H44  1  0.18484000  0.45071000  0.08275000  1.0
  H  H45  1  0.81516000  0.54930000  0.91725000  1.0
  H  H46  1  0.24327000  0.10189000  0.87483000  1.0
  H  H47  1  0.75672000  0.89810000  0.12517000  1.0
  H  H48  1  0.24896000  0.07585000  0.06899000  1.0
  H  H49  1  0.75103000  0.92415000  0.93101000  1.0
  H  H50  1  0.70600000  0.20707000  0.21906000  1.0
  H  H51  1  0.29400000  0.79293000  0.78093000  1.0
  H  H52  1  0.59391000  0.10442000  0.26212000  1.0
  H  H53  1  0.40609000  0.89558000  0.73788000  1.0
  H  H54  1  0.54463000  0.24132000  0.23709000  1.0
  H  H55  1  0.45538000  0.75868000  0.76291000  1.0
  C  C56  1  0.93224000  0.27147000  0.77465000  1.0
  C  C57  1  0.06776000  0.72854000  0.22535000  1.0
  C  C58  1  0.78902000  0.20864000  0.73991000  1.0
  C  C59  1  0.21098000  0.79137000  0.26009000  1.0
  C  C60  1  0.75619000  0.08134000  0.67503000  1.0
  C  C61  1  0.24381000  0.91866000  0.32497000  1.0
  C  C62  1  0.62267000  0.02254000  0.64065000  1.0
  C  C63  1  0.37733000  0.97746000  0.35935000  1.0
  C  C64  1  0.52236000  0.09451000  0.67213000  1.0
  C  C65  1  0.47764000  0.90550000  0.32788000  1.0
  C  C66  1  0.55366000  0.22233000  0.73687000  1.0
  C  C67  1  0.44634000  0.77768000  0.26313000  1.0
  C  C68  1  0.68720000  0.27806000  0.77089000  1.0
  C  C69  1  0.31281000  0.72195000  0.22911000  1.0
  C  C70  1  0.44622000  0.30070000  0.76983000  1.0
  C  C71  1  0.55378000  0.69930000  0.23018000  1.0
  C  C72  1  0.58874000  0.88539000  0.57172000  1.0
  C  C73  1  0.41126000  0.11461000  0.42827000  1.0
  C  C74  1  0.34529000  0.64688000  0.92168000  1.0
  C  C75  1  0.65471000  0.35311000  0.07831000  1.0
  C  C76  1  0.14381000  0.63506000  0.96064000  1.0
  C  C77  1  0.85619000  0.36494000  0.03936000  1.0
  C  C78  1  0.19707000  0.76317000  0.99241000  1.0
  C  C79  1  0.80293000  0.23683000  0.00758000  1.0
  C  C80  1  0.41528000  0.88568000  0.98184000  1.0
  C  C81  1  0.58473000  0.11431000  0.01815000  1.0
  C  C82  1  0.46316000  0.96390000  0.08179000  1.0
  C  C83  1  0.53684000  0.03609000  0.91821000  1.0
  C  C84  1  0.54927000  0.08035000  0.10268000  1.0
  C  C85  1  0.45072000  0.91965000  0.89732000  1.0
  C  C86  1  0.13862000  0.54400000  0.67518000  1.0
  C  C87  1  0.86139000  0.45600000  0.32483000  1.0
  C  C88  1  0.14977000  0.55002000  0.57906000  1.0
  C  C89  1  0.85023000  0.44998000  0.42094000  1.0
  C  C90  1  0.20923000  0.36991000  0.59392000  1.0
  C  C91  1  0.79077000  0.63009000  0.40608000  1.0
  C  C92  1  0.20762000  0.39493000  0.42177000  1.0
  C  C93  1  0.79238000  0.60507000  0.57823000  1.0
  C  C94  1  0.29533000  0.46718000  0.38066000  1.0
  C  C95  1  0.70467000  0.53282000  0.61934000  1.0
  C  C96  1  0.29708000  0.41962000  0.27550000  1.0
  C  C97  1  0.70292000  0.58038000  0.72450000  1.0
  C  C98  1  0.21338000  0.30690000  0.21422000  1.0
  C  C99  1  0.78662000  0.69309000  0.78578000  1.0
  C  C100  1  0.12709000  0.23280000  0.25540000  1.0
  C  C101  1  0.87290000  0.76720000  0.74460000  1.0
  C  C102  1  0.12760000  0.27986000  0.36073000  1.0
  C  C103  1  0.87240000  0.72014000  0.63927000  1.0
  C  C104  1  0.03367000  0.11237000  0.19221000  1.0
  C  C105  1  0.96632000  0.88763000  0.80779000  1.0
  C  C106  1  0.38366000  0.59070000  0.44389000  1.0
  C  C107  1  0.61634000  0.40930000  0.55611000  1.0
  C  C108  1  0.20351000  0.35314000  0.05035000  1.0
  C  C109  1  0.79648000  0.64686000  0.94965000  1.0
  C  C110  1  0.23074000  0.16946000  0.94681000  1.0
  C  C111  1  0.76925000  0.83054000  0.05319000  1.0
  C  C112  1  0.23191000  0.15453000  0.04124000  1.0
  C  C113  1  0.76808000  0.84547000  0.95876000  1.0
  C  C114  1  0.60150000  0.16232000  0.21085000  1.0
  C  C115  1  0.39850000  0.83768000  0.78914000  1.0
  N  N116  1  0.23680000  0.56383000  0.91686000  1.0
  N  N117  1  0.76320000  0.43617000  0.08314000  1.0
  N  N118  1  0.32512000  0.76973000  0.96665000  1.0
  N  N119  1  0.67488000  0.23026000  0.03334000  1.0
  N  N120  1  0.17693000  0.43208000  0.68353000  1.0
  N  N121  1  0.82307000  0.56791000  0.31647000  1.0
  N  N122  1  0.19485000  0.43823000  0.52763000  1.0
  N  N123  1  0.80515000  0.56178000  0.47237000  1.0
  N  N124  1  0.21466000  0.27205000  0.10690000  1.0
  N  N125  1  0.78535000  0.72795000  0.89311000  1.0
  N  N126  1  0.21240000  0.29319000  0.95359000  1.0
  N  N127  1  0.78760000  0.70681000  0.04642000  1.0
  O  O128  1  0.02277000  0.20358000  0.74705000  1.0
  O  O129  1  0.97723000  0.79643000  0.25296000  1.0
  O  O130  1  0.95958000  0.38937000  0.82916000  1.0
  O  O131  1  0.04043000  0.61063000  0.17084000  1.0
  O  O132  1  0.32604000  0.23849000  0.75099000  1.0
  O  O133  1  0.67396000  0.76152000  0.24901000  1.0
  O  O134  1  0.47808000  0.42042000  0.81274000  1.0
  O  O135  1  0.52192000  0.57958000  0.18726000  1.0
