# generated using pymatgen
data_CsH14C6ClO4
_symmetry_space_group_name_H-M   'P 1'
_cell_length_a   8.71921000
_cell_length_b   8.77741000
_cell_length_c   16.03860000
_cell_angle_alpha   90.00000000
_cell_angle_beta   90.00000000
_cell_angle_gamma   107.61700000
_symmetry_Int_Tables_number   1
_chemical_formula_structural   CsH14C6ClO4
_chemical_formula_sum   'Cs4 H56 C24 Cl4 O16'
_cell_volume   1169.90033044
_cell_formula_units_Z   4
loop_
 _symmetry_equiv_pos_site_id
 _symmetry_equiv_pos_as_xyz
  1  'x, y, z'
loop_
 _atom_site_type_symbol
 _atom_site_label
 _atom_site_symmetry_multiplicity
 _atom_site_fract_x
 _atom_site_fract_y
 _atom_site_fract_z
 _atom_site_occupancy
  Cs  Cs0  1  0.10343000  0.10348000  0.40328000  1.0
  Cs  Cs1  1  0.89661000  0.89648000  0.90328000  1.0
  Cs  Cs2  1  0.10342000  0.10350000  0.09672000  1.0
  Cs  Cs3  1  0.89661000  0.89647000  0.59672000  1.0
  H  H4  1  0.43367000  0.25772000  0.67490000  1.0
  H  H5  1  0.56635000  0.74225000  0.17490000  1.0
  H  H6  1  0.25938000  0.43222000  0.82487000  1.0
  H  H7  1  0.74066000  0.56776000  0.32487000  1.0
  H  H8  1  0.56635000  0.74225000  0.32510000  1.0
  H  H9  1  0.43367000  0.25771000  0.82509000  1.0
  H  H10  1  0.74065000  0.56776000  0.17512000  1.0
  H  H11  1  0.25937000  0.43222000  0.67513000  1.0
  H  H12  1  0.42638000  0.25841000  0.56409000  1.0
  H  H13  1  0.57363000  0.74157000  0.06408000  1.0
  H  H14  1  0.25993000  0.42539000  0.93568000  1.0
  H  H15  1  0.74009000  0.57459000  0.43568000  1.0
  H  H16  1  0.57364000  0.74157000  0.43592000  1.0
  H  H17  1  0.42639000  0.25841000  0.93591000  1.0
  H  H18  1  0.74009000  0.57459000  0.06432000  1.0
  H  H19  1  0.25993000  0.42539000  0.56433000  1.0
  H  H20  1  0.48308000  0.01432000  0.62774000  1.0
  H  H21  1  0.51693000  0.98566000  0.12774000  1.0
  H  H22  1  0.01420000  0.48223000  0.87232000  1.0
  H  H23  1  0.98582000  0.51774000  0.37233000  1.0
  H  H24  1  0.51693000  0.98565000  0.37226000  1.0
  H  H25  1  0.48308000  0.01431000  0.87226000  1.0
  H  H26  1  0.98581000  0.51773000  0.12767000  1.0
  H  H27  1  0.01420000  0.48223000  0.62769000  1.0
  H  H28  1  0.28977000  0.95987000  0.67404000  1.0
  H  H29  1  0.71023000  0.04010000  0.17404000  1.0
  H  H30  1  0.95910000  0.29014000  0.82598000  1.0
  H  H31  1  0.04093000  0.70983000  0.32598000  1.0
  H  H32  1  0.71023000  0.04010000  0.32597000  1.0
  H  H33  1  0.28977000  0.95987000  0.82597000  1.0
  H  H34  1  0.04093000  0.70982000  0.17402000  1.0
  H  H35  1  0.95909000  0.29014000  0.67402000  1.0
  H  H36  1  0.21669000  0.71985000  0.59404000  1.0
  H  H37  1  0.78335000  0.28012000  0.09404000  1.0
  H  H38  1  0.71844000  0.21645000  0.90628000  1.0
  H  H39  1  0.28159000  0.78351000  0.40628000  1.0
  H  H40  1  0.78335000  0.28012000  0.40596000  1.0
  H  H41  1  0.21669000  0.71985000  0.90597000  1.0
  H  H42  1  0.28159000  0.78352000  0.09372000  1.0
  H  H43  1  0.71843000  0.21646000  0.59372000  1.0
  H  H44  1  0.41080000  0.77753000  0.54641000  1.0
  H  H45  1  0.58924000  0.22247000  0.04641000  1.0
  H  H46  1  0.77550000  0.40897000  0.95428000  1.0
  H  H47  1  0.22454000  0.59101000  0.45429000  1.0
  H  H48  1  0.58924000  0.22247000  0.45358000  1.0
  H  H49  1  0.41080000  0.77753000  0.95359000  1.0
  H  H50  1  0.22455000  0.59101000  0.04572000  1.0
  H  H51  1  0.77550000  0.40897000  0.54571000  1.0
  H  H52  1  0.31002000  0.41805000  0.32497000  1.0
  H  H53  1  0.68976000  0.58203000  0.82496000  1.0
  H  H54  1  0.41875000  0.31031000  0.17512000  1.0
  H  H55  1  0.58119000  0.68996000  0.67511000  1.0
  H  H56  1  0.68980000  0.58201000  0.67503000  1.0
  H  H57  1  0.30996000  0.41808000  0.17504000  1.0
  H  H58  1  0.58118000  0.69001000  0.82488000  1.0
  H  H59  1  0.41875000  0.31022000  0.32488000  1.0
  C  C60  1  0.36494000  0.19610000  0.62034000  1.0
  C  C61  1  0.63507000  0.80387000  0.12033000  1.0
  C  C62  1  0.19703000  0.36435000  0.87947000  1.0
  C  C63  1  0.80300000  0.63563000  0.37947000  1.0
  C  C64  1  0.63508000  0.80387000  0.37967000  1.0
  C  C65  1  0.36494000  0.19610000  0.87966000  1.0
  C  C66  1  0.80299000  0.63562000  0.12053000  1.0
  C  C67  1  0.19703000  0.36435000  0.62053000  1.0
  C  C68  1  0.36046000  0.02353000  0.62030000  1.0
  C  C69  1  0.63955000  0.97645000  0.12030000  1.0
  C  C70  1  0.02346000  0.36038000  0.87964000  1.0
  C  C71  1  0.97656000  0.63959000  0.37965000  1.0
  C  C72  1  0.63955000  0.97644000  0.37971000  1.0
  C  C73  1  0.36046000  0.02353000  0.87970000  1.0
  C  C74  1  0.97656000  0.63959000  0.12035000  1.0
  C  C75  1  0.02346000  0.36038000  0.62036000  1.0
  C  C76  1  0.28728000  0.78604000  0.54095000  1.0
  C  C77  1  0.71275000  0.21393000  0.04095000  1.0
  C  C78  1  0.78494000  0.28651000  0.95940000  1.0
  C  C79  1  0.21509000  0.71346000  0.45941000  1.0
  C  C80  1  0.71275000  0.21393000  0.45905000  1.0
  C  C81  1  0.28728000  0.78604000  0.95905000  1.0
  C  C82  1  0.21509000  0.71346000  0.04060000  1.0
  C  C83  1  0.78494000  0.28651000  0.54060000  1.0
  Cl  Cl84  1  0.36197000  0.07720000  0.24999000  1.0
  Cl  Cl85  1  0.63817000  0.92307000  0.75000000  1.0
  Cl  Cl86  1  0.07617000  0.36157000  0.25001000  1.0
  Cl  Cl87  1  0.92353000  0.63826000  0.75000000  1.0
  O  O88  1  0.20352000  0.20356000  0.62283000  1.0
  O  O89  1  0.79650000  0.79641000  0.12282000  1.0
  O  O90  1  0.20353000  0.20356000  0.87717000  1.0
  O  O91  1  0.79650000  0.79642000  0.37718000  1.0
  O  O92  1  0.28965000  0.94961000  0.54395000  1.0
  O  O93  1  0.71037000  0.05037000  0.04394000  1.0
  O  O94  1  0.94975000  0.28990000  0.95608000  1.0
  O  O95  1  0.05028000  0.71007000  0.45609000  1.0
  O  O96  1  0.71036000  0.05036000  0.45606000  1.0
  O  O97  1  0.28965000  0.94961000  0.95606000  1.0
  O  O98  1  0.05028000  0.71007000  0.04391000  1.0
  O  O99  1  0.94975000  0.28990000  0.54392000  1.0
  O  O100  1  0.39834000  0.39781000  0.35731000  1.0
  O  O101  1  0.60147000  0.60236000  0.85730000  1.0
  O  O102  1  0.39831000  0.39790000  0.14270000  1.0
  O  O103  1  0.60151000  0.60233000  0.64269000  1.0
