# generated using pymatgen
data_ZnH9C16N2ClO4
_symmetry_space_group_name_H-M   'P 1'
_cell_length_a   13.95180000
_cell_length_b   14.00340000
_cell_length_c   15.30960000
_cell_angle_alpha   90.71820000
_cell_angle_beta   90.41520000
_cell_angle_gamma   82.21700000
_symmetry_Int_Tables_number   1
_chemical_formula_structural   ZnH9C16N2ClO4
_chemical_formula_sum   'Zn2 H18 C32 N4 Cl2 O8'
_cell_volume   2963.24400013
_cell_formula_units_Z   2
loop_
 _symmetry_equiv_pos_site_id
 _symmetry_equiv_pos_as_xyz
  1  'x, y, z'
loop_
 _atom_site_type_symbol
 _atom_site_label
 _atom_site_symmetry_multiplicity
 _atom_site_fract_x
 _atom_site_fract_y
 _atom_site_fract_z
 _atom_site_occupancy
  Zn  Zn0  1  0.59987000  0.50012000  0.50178000  1.0
  Zn  Zn1  1  0.40003000  0.50000000  0.49987000  1.0
  H  H2  1  0.61476000  0.97430000  0.49306000  1.0
  H  H3  1  0.73517000  0.63537000  0.56419000  1.0
  H  H4  1  0.24250000  0.54948000  0.62734000  1.0
  H  H5  1  0.76746000  0.37223000  0.43477000  1.0
  H  H6  1  0.06159000  0.55597000  0.63226000  1.0
  H  H7  1  0.94813000  0.36522000  0.43018000  1.0
  H  H8  1  0.37068000  0.40252000  0.98337000  1.0
  H  H9  1  0.32552000  0.36591000  0.07880000  1.0
  H  H10  1  0.65352000  0.40380000  0.01420000  1.0
  H  H11  1  0.70736000  0.36759000  0.91733000  1.0
  H  H12  1  0.39275000  0.02540000  0.50358000  1.0
  H  H13  1  0.60683000  0.59494000  0.22755000  1.0
  H  H14  1  0.36194000  0.59702000  0.77773000  1.0
  H  H15  1  0.38928000  0.40461000  0.22081000  1.0
  H  H16  1  0.63181000  0.40775000  0.77680000  1.0
  H  H17  1  0.07435000  0.44301000  0.36776000  1.0
  H  H18  1  0.91472000  0.63968000  0.56729000  1.0
  H  H19  1  0.25451000  0.44320000  0.37428000  1.0
  C  C20  1  0.49641000  0.49891000  0.33118000  1.0
  C  C21  1  0.78597000  0.57698000  0.53637000  1.0
  C  C22  1  0.20115000  0.52770000  0.57152000  1.0
  C  C23  1  0.80404000  0.42991000  0.46230000  1.0
  C  C24  1  0.10116000  0.53110000  0.57332000  1.0
  C  C25  1  0.90393000  0.42693000  0.46015000  1.0
  C  C26  1  0.05275000  0.50008000  0.49981000  1.0
  C  C27  1  0.94668000  0.50200000  0.49920000  1.0
  C  C28  1  0.53202000  0.31257000  0.49829000  1.0
  C  C29  1  0.47507000  0.68732000  0.50190000  1.0
  C  C30  1  0.46454000  0.79142000  0.50052000  1.0
  C  C31  1  0.49744000  0.50107000  0.67024000  1.0
  C  C32  1  0.54259000  0.20846000  0.49671000  1.0
  C  C33  1  0.46236000  0.97905000  0.50028000  1.0
  C  C34  1  0.54520000  0.02074000  0.49642000  1.0
  C  C35  1  0.54481000  0.12097000  0.49618000  1.0
  C  C36  1  0.46271000  0.87884000  0.49997000  1.0
  C  C37  1  0.55781000  0.55497000  0.09937000  1.0
  C  C38  1  0.42304000  0.55575000  0.90417000  1.0
  C  C39  1  0.55970000  0.55369000  0.19025000  1.0
  C  C40  1  0.42065000  0.55520000  0.81328000  1.0
  C  C41  1  0.49747000  0.49950000  0.23321000  1.0
  C  C42  1  0.43753000  0.44543000  0.09404000  1.0
  C  C43  1  0.49723000  0.50154000  0.76824000  1.0
  C  C44  1  0.43673000  0.44659000  0.18576000  1.0
  C  C45  1  0.57312000  0.44874000  0.81367000  1.0
  C  C46  1  0.57352000  0.44685000  0.90538000  1.0
  C  C47  1  0.49813000  0.50205000  0.04921000  1.0
  C  C48  1  0.49776000  0.50270000  0.95233000  1.0
  C  C49  1  0.10851000  0.46664000  0.42699000  1.0
  C  C50  1  0.88543000  0.57846000  0.53780000  1.0
  C  C51  1  0.20810000  0.46655000  0.42971000  1.0
  N  N52  1  0.25343000  0.49658000  0.50072000  1.0
  N  N53  1  0.74631000  0.50355000  0.49988000  1.0
  N  N54  1  0.38248000  0.38725000  0.04743000  1.0
  N  N55  1  0.64502000  0.38860000  0.94991000  1.0
  Cl  Cl56  1  0.63175000  0.62609000  0.04621000  1.0
  Cl  Cl57  1  0.32997000  0.62610000  0.95981000  1.0
  O  O58  1  0.57067000  0.52203000  0.37064000  1.0
  O  O59  1  0.41625000  0.52414000  0.63187000  1.0
  O  O60  1  0.42123000  0.47541000  0.36784000  1.0
  O  O61  1  0.57845000  0.47763000  0.63260000  1.0
  O  O62  1  0.60614000  0.35252000  0.47968000  1.0
  O  O63  1  0.40161000  0.64680000  0.48148000  1.0
  O  O64  1  0.44826000  0.35472000  0.51835000  1.0
  O  O65  1  0.55890000  0.64589000  0.52364000  1.0
