# generated using pymatgen
data_NdH16C9O8
_symmetry_space_group_name_H-M   'P 1'
_cell_length_a   9.03126000
_cell_length_b   9.24038723
_cell_length_c   10.33190000
_cell_angle_alpha   101.49020889
_cell_angle_beta   101.42460000
_cell_angle_gamma   114.75305159
_symmetry_Int_Tables_number   1
_chemical_formula_structural   NdH16C9O8
_chemical_formula_sum   'Nd2 H32 C18 O16'
_cell_volume   727.91367389
_cell_formula_units_Z   2
loop_
 _symmetry_equiv_pos_site_id
 _symmetry_equiv_pos_as_xyz
  1  'x, y, z'
loop_
 _atom_site_type_symbol
 _atom_site_label
 _atom_site_symmetry_multiplicity
 _atom_site_fract_x
 _atom_site_fract_y
 _atom_site_fract_z
 _atom_site_occupancy
  Nd  Nd0  1  0.75695000  0.53942000  0.00962000  1.0
  Nd  Nd1  1  0.24305000  0.46058000  0.99039000  1.0
  H  H2  1  0.44311000  0.07253000  0.15489000  1.0
  H  H3  1  0.55688000  0.92746000  0.84510000  1.0
  H  H4  1  0.48650000  0.03336000  0.31491000  1.0
  H  H5  1  0.51350000  0.96664000  0.68508000  1.0
  H  H6  1  0.76450000  0.30223000  0.41609000  1.0
  H  H7  1  0.23549000  0.69775000  0.58392000  1.0
  H  H8  1  0.71852000  0.35025000  0.26148000  1.0
  H  H9  1  0.28148000  0.64974000  0.73853000  1.0
  H  H10  1  0.02685000  0.51653000  0.39814000  1.0
  H  H11  1  0.97315000  0.48346000  0.60188000  1.0
  H  H12  1  0.04712000  0.33220000  0.38801000  1.0
  H  H13  1  0.95288000  0.66779000  0.61200000  1.0
  H  H14  1  0.68044000  0.75794000  0.46835000  1.0
  H  H15  1  0.31958000  0.24209000  0.53164000  1.0
  H  H16  1  0.46393000  0.65608000  0.35277000  1.0
  H  H17  1  0.53608000  0.34394000  0.64724000  1.0
  H  H18  1  0.76422000  0.04382000  0.28072000  1.0
  H  H19  1  0.23578000  0.95617000  0.71927000  1.0
  H  H20  1  0.71562000  0.09360000  0.12573000  1.0
  H  H21  1  0.28437000  0.90641000  0.87426000  1.0
  H  H22  1  0.65005000  0.81769000  0.02693000  1.0
  H  H23  1  0.34994000  0.18230000  0.97307000  1.0
  H  H24  1  0.85738000  0.91062000  0.07339000  1.0
  H  H25  1  0.14260000  0.08937000  0.92660000  1.0
  H  H26  1  0.01162000  0.79844000  0.24726000  1.0
  H  H27  1  0.98839000  0.20156000  0.75274000  1.0
  H  H28  1  0.14323000  0.77646000  0.17451000  1.0
  H  H29  1  0.85677000  0.22354000  0.82548000  1.0
  H  H30  1  0.65189000  0.47875000  0.47413000  1.0
  H  H31  1  0.34813000  0.52128000  0.52588000  1.0
  H  H32  1  0.44052000  0.37597000  0.35375000  1.0
  H  H33  1  0.55951000  0.62407000  0.64627000  1.0
  C  C34  1  0.01897000  0.39759000  0.20012000  1.0
  C  C35  1  0.98101000  0.60238000  0.79987000  1.0
  C  C36  1  0.50794000  0.01606000  0.21315000  1.0
  C  C37  1  0.49206000  0.98393000  0.78685000  1.0
  C  C38  1  0.78383000  0.29044000  0.31330000  1.0
  C  C39  1  0.21616000  0.70954000  0.68670000  1.0
  C  C40  1  0.64289000  0.61570000  0.26305000  1.0
  C  C41  1  0.35709000  0.38430000  0.73692000  1.0
  C  C42  1  0.97589000  0.38556000  0.33345000  1.0
  C  C43  1  0.02410000  0.61442000  0.66656000  1.0
  C  C44  1  0.57972000  0.64278000  0.38562000  1.0
  C  C45  1  0.42028000  0.35724000  0.61439000  1.0
  C  C46  1  0.41880000  0.83040000  0.13587000  1.0
  C  C47  1  0.58118000  0.16959000  0.86412000  1.0
  C  C48  1  0.69949000  0.10514000  0.22942000  1.0
  C  C49  1  0.30051000  0.89486000  0.77057000  1.0
  C  C50  1  0.53565000  0.49102000  0.43970000  1.0
  C  C51  1  0.46438000  0.50902000  0.56032000  1.0
  O  O52  1  0.92857000  0.43110000  0.11153000  1.0
  O  O53  1  0.07143000  0.56891000  0.88848000  1.0
  O  O54  1  0.53258000  0.53349000  0.14002000  1.0
  O  O55  1  0.46741000  0.46650000  0.86000000  1.0
  O  O56  1  0.45797000  0.77380000  0.03186000  1.0
  O  O57  1  0.54204000  0.22621000  0.96814000  1.0
  O  O58  1  0.14570000  0.37865000  0.18215000  1.0
  O  O59  1  0.85430000  0.62135000  0.81786000  1.0
  O  O60  1  0.30198000  0.72826000  0.17414000  1.0
  O  O61  1  0.69802000  0.27174000  0.82586000  1.0
  O  O62  1  0.80126000  0.66483000  0.27972000  1.0
  O  O63  1  0.19872000  0.33514000  0.72027000  1.0
  O  O64  1  0.75352000  0.80882000  0.01411000  1.0
  O  O65  1  0.24647000  0.19117000  0.98588000  1.0
  O  O66  1  0.04304000  0.79903000  0.16178000  1.0
  O  O67  1  0.95695000  0.20096000  0.83821000  1.0
