# generated using pymatgen
data_CuH4C4N2Cl
_symmetry_space_group_name_H-M   'P 1'
_cell_length_a   3.62374000
_cell_length_b   8.37620000
_cell_length_c   8.86202000
_cell_angle_alpha   90.29710000
_cell_angle_beta   94.79740000
_cell_angle_gamma   92.27260000
_symmetry_Int_Tables_number   1
_chemical_formula_structural   CuH4C4N2Cl
_chemical_formula_sum   'Cu2 H8 C8 N4 Cl2'
_cell_volume   267.82745193
_cell_formula_units_Z   2
loop_
 _symmetry_equiv_pos_site_id
 _symmetry_equiv_pos_as_xyz
  1  'x, y, z'
loop_
 _atom_site_type_symbol
 _atom_site_label
 _atom_site_symmetry_multiplicity
 _atom_site_fract_x
 _atom_site_fract_y
 _atom_site_fract_z
 _atom_site_occupancy
  Cu  Cu0  1  0.94933000  0.64979000  0.11044000  1.0
  Cu  Cu1  1  0.05069000  0.35021000  0.88957000  1.0
  H  H2  1  0.18454000  0.07356000  0.09718000  1.0
  H  H3  1  0.81549000  0.92644000  0.90282000  1.0
  H  H4  1  0.05303000  0.01163000  0.36135000  1.0
  H  H5  1  0.94696000  0.98837000  0.63864000  1.0
  H  H6  1  0.80912000  0.23829000  0.52003000  1.0
  H  H7  1  0.19082000  0.76170000  0.47995000  1.0
  H  H8  1  0.74188000  0.50522000  0.39000000  1.0
  H  H9  1  0.25808000  0.49478000  0.60999000  1.0
  C  C10  1  0.08444000  0.16470000  0.17001000  1.0
  C  C11  1  0.91556000  0.83533000  0.83000000  1.0
  C  C12  1  0.01097000  0.13146000  0.31855000  1.0
  C  C13  1  0.98908000  0.86852000  0.68146000  1.0
  C  C14  1  0.88059000  0.25385000  0.40352000  1.0
  C  C15  1  0.11939000  0.74613000  0.59647000  1.0
  C  C16  1  0.84310000  0.40156000  0.33374000  1.0
  C  C17  1  0.15685000  0.59843000  0.66626000  1.0
  N  N18  1  0.92761000  0.43027000  0.19158000  1.0
  N  N19  1  0.07243000  0.56974000  0.80843000  1.0
  N  N20  1  0.04198000  0.30909000  0.10704000  1.0
  N  N21  1  0.95805000  0.69093000  0.89296000  1.0
  Cl  Cl22  1  0.48279000  0.78265000  0.22644000  1.0
  Cl  Cl23  1  0.51725000  0.21735000  0.77356000  1.0
