# generated using pymatgen
data_NiH12(CN)8
_symmetry_space_group_name_H-M   'P 1'
_cell_length_a   7.04398000
_cell_length_b   11.68150000
_cell_length_c   15.44480000
_cell_angle_alpha   90.00000000
_cell_angle_beta   90.00000000
_cell_angle_gamma   90.00000000
_symmetry_Int_Tables_number   1
_chemical_formula_structural   NiH12(CN)8
_chemical_formula_sum   'Ni4 H48 C32 N32'
_cell_volume   1270.86382100
_cell_formula_units_Z   4
loop_
 _symmetry_equiv_pos_site_id
 _symmetry_equiv_pos_as_xyz
  1  'x, y, z'
loop_
 _atom_site_type_symbol
 _atom_site_label
 _atom_site_symmetry_multiplicity
 _atom_site_fract_x
 _atom_site_fract_y
 _atom_site_fract_z
 _atom_site_occupancy
  Ni  Ni0  1  0.62378000  0.52434000  0.65528000  1.0
  Ni  Ni1  1  0.87624000  0.47567000  0.15528000  1.0
  Ni  Ni2  1  0.37623000  0.02434000  0.84472000  1.0
  Ni  Ni3  1  0.12377000  0.97566000  0.34472000  1.0
  H  H4  1  0.48988000  0.47367000  0.80902000  1.0
  H  H5  1  0.01012000  0.52633000  0.30902000  1.0
  H  H6  1  0.51012000  0.97366000  0.69097000  1.0
  H  H7  1  0.98988000  0.02634000  0.19098000  1.0
  H  H8  1  0.35809000  0.57656000  0.76484000  1.0
  H  H9  1  0.14192000  0.42343000  0.26484000  1.0
  H  H10  1  0.64193000  0.07656000  0.73516000  1.0
  H  H11  1  0.85808000  0.92344000  0.23516000  1.0
  H  H12  1  0.15162000  0.41981000  0.76346000  1.0
  H  H13  1  0.34839000  0.58019000  0.26346000  1.0
  H  H14  1  0.84839000  0.91981000  0.73654000  1.0
  H  H15  1  0.65161000  0.08020000  0.23654000  1.0
  H  H16  1  0.34236000  0.32944000  0.73347000  1.0
  H  H17  1  0.15765000  0.67056000  0.23348000  1.0
  H  H18  1  0.65764000  0.82944000  0.76652000  1.0
  H  H19  1  0.84236000  0.17056000  0.26653000  1.0
  H  H20  1  0.12484000  0.37815000  0.60667000  1.0
  H  H21  1  0.37517000  0.62185000  0.10668000  1.0
  H  H22  1  0.87515000  0.87814000  0.89332000  1.0
  H  H23  1  0.62483000  0.12185000  0.39333000  1.0
  H  H24  1  0.17586000  0.52473000  0.62375000  1.0
  H  H25  1  0.32415000  0.47527000  0.12375000  1.0
  H  H26  1  0.82415000  0.02472000  0.87625000  1.0
  H  H27  1  0.67586000  0.97527000  0.37625000  1.0
  H  H28  1  0.47261000  0.26408000  0.61887000  1.0
  H  H29  1  0.02739000  0.73593000  0.11888000  1.0
  H  H30  1  0.52737000  0.76408000  0.88112000  1.0
  H  H31  1  0.97261000  0.23592000  0.38113000  1.0
  H  H32  1  0.59877000  0.31100000  0.52552000  1.0
  H  H33  1  0.90122000  0.68901000  0.02553000  1.0
  H  H34  1  0.40121000  0.81100000  0.97446000  1.0
  H  H35  1  0.09877000  0.18899000  0.47449000  1.0
  H  H36  1  0.35486000  0.27008000  0.51632000  1.0
  H  H37  1  0.14514000  0.72993000  0.01633000  1.0
  H  H38  1  0.64512000  0.77006000  0.98367000  1.0
  H  H39  1  0.85485000  0.22992000  0.48368000  1.0
  H  H40  1  0.50058000  0.48253000  0.45146000  1.0
  H  H41  1  0.99941000  0.51748000  0.95147000  1.0
  H  H42  1  0.49941000  0.98252000  0.04853000  1.0
  H  H43  1  0.00057000  0.01747000  0.54854000  1.0
  H  H44  1  0.33766000  0.57852000  0.50188000  1.0
  H  H45  1  0.16234000  0.42149000  0.00189000  1.0
  H  H46  1  0.66235000  0.07850000  0.99811000  1.0
  H  H47  1  0.83765000  0.92147000  0.49812000  1.0
  H  H48  1  0.25423000  0.44649000  0.45648000  1.0
  H  H49  1  0.24576000  0.55352000  0.95649000  1.0
  H  H50  1  0.74577000  0.94647000  0.04351000  1.0
  H  H51  1  0.75422000  0.05351000  0.54352000  1.0
  C  C52  1  0.86333000  0.58662000  0.48909000  1.0
  C  C53  1  0.63666000  0.41338000  0.98909000  1.0
  C  C54  1  0.13665000  0.08662000  0.01091000  1.0
  C  C55  1  0.36335000  0.91337000  0.51091000  1.0
  C  C56  1  0.82560000  0.28725000  0.70151000  1.0
  C  C57  1  0.67441000  0.71276000  0.20153000  1.0
  C  C58  1  0.17440000  0.78725000  0.79848000  1.0
  C  C59  1  0.32561000  0.21276000  0.29849000  1.0
  C  C60  1  0.05091000  0.15071000  0.73849000  1.0
  C  C61  1  0.44910000  0.84930000  0.23850000  1.0
  C  C62  1  0.94910000  0.65070000  0.76150000  1.0
  C  C63  1  0.55092000  0.34929000  0.26151000  1.0
  C  C64  1  0.28259000  0.41542000  0.72458000  1.0
  C  C65  1  0.21742000  0.58458000  0.22459000  1.0
  C  C66  1  0.71742000  0.91541000  0.77541000  1.0
  C  C67  1  0.78259000  0.08458000  0.27542000  1.0
  C  C68  1  0.23455000  0.43804000  0.63011000  1.0
  C  C69  1  0.26546000  0.56196000  0.13012000  1.0
  C  C70  1  0.76545000  0.93804000  0.86988000  1.0
  C  C71  1  0.73455000  0.06196000  0.36989000  1.0
  C  C72  1  0.96530000  0.73056000  0.39894000  1.0
  C  C73  1  0.53471000  0.26944000  0.89894000  1.0
  C  C74  1  0.03469000  0.23056000  0.10106000  1.0
  C  C75  1  0.46531000  0.76944000  0.60106000  1.0
  C  C76  1  0.46084000  0.31219000  0.55833000  1.0
  C  C77  1  0.03916000  0.68782000  0.05834000  1.0
  C  C78  1  0.53915000  0.81218000  0.94166000  1.0
  C  C79  1  0.96084000  0.18781000  0.44167000  1.0
  C  C80  1  0.37228000  0.48830000  0.49135000  1.0
  C  C81  1  0.12771000  0.51171000  0.99135000  1.0
  C  C82  1  0.62771000  0.98829000  0.00865000  1.0
  C  C83  1  0.87227000  0.01169000  0.50866000  1.0
  N  N84  1  0.79704000  0.54350000  0.55096000  1.0
  N  N85  1  0.70297000  0.45650000  0.05096000  1.0
  N  N86  1  0.20296000  0.04350000  0.94904000  1.0
  N  N87  1  0.29704000  0.95650000  0.44904000  1.0
  N  N88  1  0.94011000  0.62336000  0.41783000  1.0
  N  N89  1  0.55988000  0.37665000  0.91783000  1.0
  N  N90  1  0.05989000  0.12336000  0.08217000  1.0
  N  N91  1  0.44011000  0.87665000  0.58217000  1.0
  N  N92  1  0.75014000  0.37583000  0.69026000  1.0
  N  N93  1  0.74988000  0.62418000  0.19027000  1.0
  N  N94  1  0.24987000  0.87583000  0.80973000  1.0
  N  N95  1  0.25015000  0.12417000  0.30974000  1.0
  N  N96  1  0.88722000  0.18318000  0.70891000  1.0
  N  N97  1  0.61279000  0.81683000  0.20892000  1.0
  N  N98  1  0.11277000  0.68318000  0.79109000  1.0
  N  N99  1  0.38722000  0.31683000  0.29110000  1.0
  N  N100  1  0.42455000  0.50001000  0.75307000  1.0
  N  N101  1  0.07546000  0.49999000  0.25308000  1.0
  N  N102  1  0.57546000  0.00001000  0.74692000  1.0
  N  N103  1  0.92454000  0.00000000  0.24692000  1.0
  N  N104  1  0.40656000  0.43179000  0.57515000  1.0
  N  N105  1  0.09343000  0.56822000  0.07516000  1.0
  N  N106  1  0.59343000  0.93178000  0.92484000  1.0
  N  N107  1  0.90656000  0.06821000  0.42485000  1.0
  N  N108  1  0.99315000  0.82443000  0.37422000  1.0
  N  N109  1  0.50686000  0.17557000  0.87423000  1.0
  N  N110  1  0.00683000  0.32443000  0.12577000  1.0
  N  N111  1  0.49317000  0.67557000  0.62577000  1.0
  N  N112  1  0.19434000  0.10998000  0.76273000  1.0
  N  N113  1  0.30566000  0.89003000  0.26274000  1.0
  N  N114  1  0.80567000  0.60997000  0.73726000  1.0
  N  N115  1  0.69435000  0.39002000  0.23727000  1.0
