# generated using pymatgen
data_Zn3H16(C19O6)2
_symmetry_space_group_name_H-M   'P 1'
_cell_length_a   23.75100000
_cell_length_b   27.89640000
_cell_length_c   27.90013020
_cell_angle_alpha   79.56141141
_cell_angle_beta   64.79814167
_cell_angle_gamma   64.81510000
_symmetry_Int_Tables_number   1
_chemical_formula_structural   Zn3H16(C19O6)2
_chemical_formula_sum   'Zn6 H32 C76 O24'
_cell_volume   15136.12328192
_cell_formula_units_Z   2
loop_
 _symmetry_equiv_pos_site_id
 _symmetry_equiv_pos_as_xyz
  1  'x, y, z'
loop_
 _atom_site_type_symbol
 _atom_site_label
 _atom_site_symmetry_multiplicity
 _atom_site_fract_x
 _atom_site_fract_y
 _atom_site_fract_z
 _atom_site_occupancy
  Zn  Zn0  1  0.53604000  0.46396000  0.46396000  1.0
  Zn  Zn1  1  0.55377000  0.00001000  0.99999000  1.0
  Zn  Zn2  1  0.44623000  0.99999000  0.00001000  1.0
  Zn  Zn3  1  0.99999000  0.53604000  0.46396000  1.0
  Zn  Zn4  1  0.46396000  0.53604000  0.53604000  1.0
  Zn  Zn5  1  0.00000000  0.46396000  0.53604000  1.0
  H  H6  1  0.59085000  0.81132000  0.18864000  1.0
  H  H7  1  0.77947000  0.81139000  0.81130000  1.0
  H  H8  1  0.59078000  0.18869000  0.81135000  1.0
  H  H9  1  0.40216000  0.18860000  0.18871000  1.0
  H  H10  1  0.40919000  0.81135000  0.18868000  1.0
  H  H11  1  0.22053000  0.18871000  0.18860000  1.0
  H  H12  1  0.40919000  0.18864000  0.81132000  1.0
  H  H13  1  0.59784000  0.81130000  0.81139000  1.0
  H  H14  1  0.59047000  0.88129000  0.11867000  1.0
  H  H15  1  0.70910000  0.88137000  0.88127000  1.0
  H  H16  1  0.59036000  0.11872000  0.88132000  1.0
  H  H17  1  0.47174000  0.11863000  0.11873000  1.0
  H  H18  1  0.40960000  0.88131000  0.11872000  1.0
  H  H19  1  0.29089000  0.11873000  0.11864000  1.0
  H  H20  1  0.40957000  0.11867000  0.88129000  1.0
  H  H21  1  0.52826000  0.88127000  0.88137000  1.0
  H  H22  1  0.43960000  0.74881000  0.37197000  1.0
  H  H23  1  0.81158000  0.62804000  0.74882000  1.0
  H  H24  1  0.56029000  0.25119000  0.62803000  1.0
  H  H25  1  0.18850000  0.37196000  0.25118000  1.0
  H  H26  1  0.56043000  0.62803000  0.25119000  1.0
  H  H27  1  0.18836000  0.25118000  0.37196000  1.0
  H  H28  1  0.43969000  0.37196000  0.74881000  1.0
  H  H29  1  0.81157000  0.74882000  0.62804000  1.0
  H  H30  1  0.43978000  0.67871000  0.44169000  1.0
  H  H31  1  0.88148000  0.55832000  0.67872000  1.0
  H  H32  1  0.56010000  0.32129000  0.55831000  1.0
  H  H33  1  0.11858000  0.44168000  0.32128000  1.0
  H  H34  1  0.56023000  0.55831000  0.32129000  1.0
  H  H35  1  0.11846000  0.32128000  0.44168000  1.0
  H  H36  1  0.43987000  0.44169000  0.67872000  1.0
  H  H37  1  0.88148000  0.67872000  0.55832000  1.0
  C  C38  1  0.50000000  0.57255000  0.42746000  1.0
  C  C39  1  0.76721000  0.73279000  0.73279000  1.0
  C  C40  1  0.37796000  0.17322000  0.17328000  1.0
  C  C41  1  0.44881000  0.82674000  0.17327000  1.0
  C  C42  1  0.27554000  0.17328000  0.17322000  1.0
  C  C43  1  0.44877000  0.17325000  0.82673000  1.0
  C  C44  1  0.62204000  0.82673000  0.82677000  1.0
  C  C45  1  0.55125000  0.82673000  0.17325000  1.0
  C  C46  1  0.72446000  0.82677000  0.82673000  1.0
  C  C47  1  0.55118000  0.17327000  0.82674000  1.0
  C  C48  1  0.50002000  0.26722000  0.73278000  1.0
  C  C49  1  0.55108000  0.86563000  0.13435000  1.0
  C  C50  1  0.68540000  0.86568000  0.86563000  1.0
  C  C51  1  0.55102000  0.13437000  0.86564000  1.0
  C  C52  1  0.41670000  0.13432000  0.13438000  1.0
  C  C53  1  0.44897000  0.86564000  0.13437000  1.0
  C  C54  1  0.31460000  0.13438000  0.13432000  1.0
  C  C55  1  0.44895000  0.13435000  0.86562000  1.0
  C  C56  1  0.23279000  0.26721000  0.26721000  1.0
  C  C57  1  0.58329000  0.86563000  0.86568000  1.0
  C  C58  1  0.50003000  0.88541000  0.11459000  1.0
  C  C59  1  0.49998000  0.73278000  0.26722000  1.0
  C  C60  1  0.61458000  0.88543000  0.88542000  1.0
  C  C61  1  0.49998000  0.11459000  0.88540000  1.0
  C  C62  1  0.38542000  0.11458000  0.11458000  1.0
  C  C63  1  0.50003000  0.80668000  0.19332000  1.0
  C  C64  1  0.69330000  0.80670000  0.80670000  1.0
  C  C65  1  0.49997000  0.19331000  0.80668000  1.0
  C  C66  1  0.30670000  0.19330000  0.19330000  1.0
  C  C67  1  0.50002000  0.76695000  0.23305000  1.0
  C  C68  1  0.73303000  0.76697000  0.76697000  1.0
  C  C69  1  0.49998000  0.23304000  0.76695000  1.0
  C  C70  1  0.26697000  0.23303000  0.23303000  1.0
  C  C71  1  0.46594000  0.70705000  0.36106000  1.0
  C  C72  1  0.82701000  0.63894000  0.70706000  1.0
  C  C73  1  0.53401000  0.29295000  0.63893000  1.0
  C  C74  1  0.92745000  0.57255000  0.57255000  1.0
  C  C75  1  0.17303000  0.36106000  0.29294000  1.0
  C  C76  1  0.53408000  0.63893000  0.29295000  1.0
  C  C77  1  0.17297000  0.29294000  0.36106000  1.0
  C  C78  1  0.46597000  0.36106000  0.70705000  1.0
  C  C79  1  0.82699000  0.70706000  0.63894000  1.0
  C  C80  1  0.49999000  0.42746000  0.57255000  1.0
  C  C81  1  0.46604000  0.66805000  0.39987000  1.0
  C  C82  1  0.86592000  0.60013000  0.66806000  1.0
  C  C83  1  0.53390000  0.33194000  0.60013000  1.0
  C  C84  1  0.13413000  0.39987000  0.33194000  1.0
  C  C85  1  0.53399000  0.60012000  0.33194000  1.0
  C  C86  1  0.13406000  0.33194000  0.39987000  1.0
  C  C87  1  0.46606000  0.39987000  0.66806000  1.0
  C  C88  1  0.07255000  0.42745000  0.42745000  1.0
  C  C89  1  0.86590000  0.66806000  0.60013000  1.0
  C  C90  1  0.50000000  0.61427000  0.38573000  1.0
  C  C91  1  0.88572000  0.61428000  0.61428000  1.0
  C  C92  1  0.50000000  0.38573000  0.61427000  1.0
  C  C93  1  0.11428000  0.38572000  0.38572000  1.0
  C  C94  1  0.49999000  0.69306000  0.30694000  1.0
  C  C95  1  0.80693000  0.69307000  0.69307000  1.0
  C  C96  1  0.50002000  0.30694000  0.69306000  1.0
  C  C97  1  0.19307000  0.30693000  0.30693000  1.0
  C  C98  1  0.42717000  0.07283000  0.07283000  1.0
  C  C99  1  0.50001000  0.92716000  0.07284000  1.0
  C  C100  1  0.57282000  0.92718000  0.92718000  1.0
  C  C101  1  0.49999000  0.07284000  0.92716000  1.0
  C  C102  1  0.39038000  0.49999000  0.50001000  1.0
  C  C103  1  0.89041000  0.50000000  0.50000000  1.0
  C  C104  1  0.60962000  0.50001000  0.49999000  1.0
  C  C105  1  0.10959000  0.50000000  0.50000000  1.0
  C  C106  1  0.32988000  0.49998000  0.50002000  1.0
  C  C107  1  0.82990000  0.49999000  0.50001000  1.0
  C  C108  1  0.67012000  0.50002000  0.49998000  1.0
  C  C109  1  0.17009000  0.50001000  0.49999000  1.0
  C  C110  1  0.27832000  0.49999000  0.50001000  1.0
  C  C111  1  0.77835000  0.50000000  0.50000000  1.0
  C  C112  1  0.72168000  0.50000000  0.49999000  1.0
  C  C113  1  0.22165000  0.50000000  0.50000000  1.0
  O  O114  1  0.53188000  0.52414000  0.41212000  1.0
  O  O115  1  0.94402000  0.58788000  0.52414000  1.0
  O  O116  1  0.46814000  0.47586000  0.58788000  1.0
  O  O117  1  0.05601000  0.41212000  0.47585000  1.0
  O  O118  1  0.46812000  0.58788000  0.47586000  1.0
  O  O119  1  0.05602000  0.47585000  0.41212000  1.0
  O  O120  1  0.53185000  0.41212000  0.52414000  1.0
  O  O121  1  0.94396000  0.52415000  0.58788000  1.0
  O  O122  1  0.44629000  0.46792000  0.46792000  1.0
  O  O123  1  0.91423000  0.53209000  0.46792000  1.0
  O  O124  1  0.38214000  0.53207000  0.53209000  1.0
  O  O125  1  0.91425000  0.46792000  0.53207000  1.0
  O  O126  1  0.55370000  0.53209000  0.53207000  1.0
  O  O127  1  0.08576000  0.53207000  0.46792000  1.0
  O  O128  1  0.61786000  0.46792000  0.46792000  1.0
  O  O129  1  0.08576000  0.46792000  0.53209000  1.0
  O  O130  1  0.39565000  0.05641000  0.05643000  1.0
  O  O131  1  0.45205000  0.94358000  0.05647000  1.0
  O  O132  1  0.50848000  0.94352000  0.94365000  1.0
  O  O133  1  0.45208000  0.05640000  0.94356000  1.0
  O  O134  1  0.60435000  0.94365000  0.94352000  1.0
  O  O135  1  0.54796000  0.94356000  0.05640000  1.0
  O  O136  1  0.49151000  0.05643000  0.05641000  1.0
  O  O137  1  0.54789000  0.05647000  0.94358000  1.0
