# generated using pymatgen
data_AlH6C11NO7
_symmetry_space_group_name_H-M   'P 1'
_cell_length_a   6.65409000
_cell_length_b   10.95350000
_cell_length_c   11.10670000
_cell_angle_alpha   80.74780000
_cell_angle_beta   72.96220000
_cell_angle_gamma   75.05580000
_symmetry_Int_Tables_number   1
_chemical_formula_structural   AlH6C11NO7
_chemical_formula_sum   'Al2 H12 C22 N2 O14'
_cell_volume   744.62246573
_cell_formula_units_Z   2
loop_
 _symmetry_equiv_pos_site_id
 _symmetry_equiv_pos_as_xyz
  1  'x, y, z'
loop_
 _atom_site_type_symbol
 _atom_site_label
 _atom_site_symmetry_multiplicity
 _atom_site_fract_x
 _atom_site_fract_y
 _atom_site_fract_z
 _atom_site_occupancy
  Al  Al0  1  0.50714000  0.49361000  0.49268000  1.0
  Al  Al1  1  0.00625000  0.49162000  0.49406000  1.0
  H  H2  1  0.72370000  0.39796000  0.64101000  1.0
  H  H3  1  0.29649000  0.56527000  0.33816000  1.0
  H  H4  1  0.20725000  0.10316000  0.39900000  1.0
  H  H5  1  0.35089000  0.87073000  0.39075000  1.0
  H  H6  1  0.03656000  0.90709000  0.52578000  1.0
  H  H7  1  0.87245000  0.87682000  0.67997000  1.0
  H  H8  1  0.71448000  0.11015000  0.69294000  1.0
  H  H9  1  0.88459000  0.14295000  0.54048000  1.0
  H  H10  1  0.79871000  0.68363000  0.74666000  1.0
  H  H11  1  0.47828000  0.83524000  0.85489000  1.0
  H  H12  1  0.58380000  0.67434000  0.21737000  1.0
  H  H13  1  0.37394000  0.83304000  0.09027000  1.0
  C  C14  1  0.14924000  0.51121000  0.71625000  1.0
  C  C15  1  0.34512000  0.26656000  0.50248000  1.0
  C  C16  1  0.86268000  0.47845000  0.26851000  1.0
  C  C17  1  0.67562000  0.72054000  0.47910000  1.0
  C  C18  1  0.60128000  0.86010000  0.48073000  1.0
  C  C19  1  0.43260000  0.12867000  0.49293000  1.0
  C  C20  1  0.69419000  0.93392000  0.53065000  1.0
  C  C21  1  0.34198000  0.05555000  0.43846000  1.0
  C  C22  1  0.61172000  0.06452000  0.53643000  1.0
  C  C23  1  0.42409000  0.92554000  0.43267000  1.0
  C  C24  1  0.87428000  0.93320000  0.58875000  1.0
  C  C25  1  0.77908000  0.08042000  0.59663000  1.0
  C  C26  1  0.07836000  0.50947000  0.85825000  1.0
  C  C27  1  0.88127000  0.59073000  0.91932000  1.0
  C  C28  1  0.19806000  0.42431000  0.93096000  1.0
  C  C29  1  0.75352000  0.68120000  0.84931000  1.0
  C  C30  1  0.57342000  0.76552000  0.91028000  1.0
  C  C31  1  0.93270000  0.48790000  0.12609000  1.0
  C  C32  1  0.11981000  0.40892000  0.06378000  1.0
  C  C33  1  0.81392000  0.58440000  0.05518000  1.0
  C  C34  1  0.63026000  0.67479000  0.11474000  1.0
  C  C35  1  0.51337000  0.76361000  0.04353000  1.0
  N  N36  1  0.23358000  0.30426000  0.13719000  1.0
  N  N37  1  0.40036000  0.33738000  0.86821000  1.0
  O  O38  1  0.33205000  0.53512000  0.66041000  1.0
  O  O39  1  0.15985000  0.31667000  0.48392000  1.0
  O  O40  1  0.99464000  0.50017000  0.32078000  1.0
  O  O41  1  0.55309000  0.66219000  0.45191000  1.0
  O  O42  1  0.67742000  0.45764000  0.32204000  1.0
  O  O43  1  0.85520000  0.66797000  0.50435000  1.0
  O  O44  1  0.01892000  0.48572000  0.66568000  1.0
  O  O45  1  0.46462000  0.32572000  0.53135000  1.0
  O  O46  1  0.74824000  0.44019000  0.55556000  1.0
  O  O47  1  0.26439000  0.54614000  0.42921000  1.0
  O  O48  1  0.11930000  0.24537000  0.22293000  1.0
  O  O49  1  0.43308000  0.28212000  0.10737000  1.0
  O  O50  1  0.56583000  0.37911000  0.83222000  1.0
  O  O51  1  0.38488000  0.23050000  0.85535000  1.0
