# generated using pymatgen
data_Zr3H26(C22O9)2
_symmetry_space_group_name_H-M   'P 1'
_cell_length_a   19.04725217
_cell_length_b   19.11860000
_cell_length_c   19.11862541
_cell_angle_alpha   60.04633179
_cell_angle_beta   60.12276860
_cell_angle_gamma   60.12267834
_symmetry_Int_Tables_number   1
_chemical_formula_structural   Zr3H26(C22O9)2
_chemical_formula_sum   'Zr6 H52 C88 O36'
_cell_volume   4933.84612215
_cell_formula_units_Z   2
loop_
 _symmetry_equiv_pos_site_id
 _symmetry_equiv_pos_as_xyz
  1  'x, y, z'
loop_
 _atom_site_type_symbol
 _atom_site_label
 _atom_site_symmetry_multiplicity
 _atom_site_fract_x
 _atom_site_fract_y
 _atom_site_fract_z
 _atom_site_occupancy
  Zr  Zr0  1  0.59312000  0.09244000  0.90759000  1.0
  Zr  Zr1  1  0.40748000  0.90756000  0.09245000  1.0
  Zr  Zr2  1  0.59312000  0.90760000  0.09243000  1.0
  Zr  Zr3  1  0.40748000  0.09245000  0.90756000  1.0
  Zr  Zr4  1  0.59255000  0.90770000  0.90770000  1.0
  Zr  Zr5  1  0.40789000  0.09234000  0.09233000  1.0
  H  H6  1  0.71910000  0.92725000  0.92726000  1.0
  H  H7  1  0.42708000  0.92722000  0.92721000  1.0
  H  H8  1  0.42757000  0.92730000  0.21811000  1.0
  H  H9  1  0.42757000  0.21811000  0.92730000  1.0
  H  H10  1  0.17744000  0.88895000  0.32023000  1.0
  H  H11  1  0.05031000  0.88653000  0.45032000  1.0
  H  H12  1  0.82046000  0.11352000  0.67716000  1.0
  H  H13  1  0.95068000  0.11276000  0.55014000  1.0
  H  H14  1  0.81957000  0.88919000  0.67802000  1.0
  H  H15  1  0.94964000  0.88675000  0.55085000  1.0
  H  H16  1  0.17808000  0.11334000  0.31949000  1.0
  H  H17  1  0.05114000  0.11260000  0.44971000  1.0
  H  H18  1  0.38906000  0.67735000  0.11344000  1.0
  H  H19  1  0.38643000  0.55043000  0.11268000  1.0
  H  H20  1  0.61356000  0.32039000  0.88891000  1.0
  H  H21  1  0.61283000  0.45059000  0.88645000  1.0
  H  H22  1  0.38925000  0.31955000  0.11328000  1.0
  H  H23  1  0.38654000  0.44989000  0.11249000  1.0
  H  H24  1  0.61340000  0.67808000  0.88910000  1.0
  H  H25  1  0.61276000  0.55101000  0.88666000  1.0
  H  H26  1  0.38925000  0.11328000  0.31955000  1.0
  H  H27  1  0.38654000  0.11250000  0.44989000  1.0
  H  H28  1  0.61340000  0.88910000  0.67807000  1.0
  H  H29  1  0.61276000  0.88666000  0.55101000  1.0
  H  H30  1  0.38906000  0.11345000  0.67734000  1.0
  H  H31  1  0.38644000  0.11268000  0.55042000  1.0
  H  H32  1  0.61356000  0.88892000  0.32038000  1.0
  H  H33  1  0.61284000  0.88645000  0.45058000  1.0
  H  H34  1  0.81957000  0.67802000  0.88919000  1.0
  H  H35  1  0.94964000  0.55085000  0.88675000  1.0
  H  H36  1  0.17808000  0.31950000  0.11333000  1.0
  H  H37  1  0.05114000  0.44972000  0.11259000  1.0
  H  H38  1  0.17744000  0.32023000  0.88895000  1.0
  H  H39  1  0.05030000  0.45033000  0.88653000  1.0
  H  H40  1  0.82046000  0.67716000  0.11351000  1.0
  H  H41  1  0.95068000  0.55015000  0.11275000  1.0
  H  H42  1  0.17972000  0.89035000  0.11206000  1.0
  H  H43  1  0.17972000  0.11205000  0.89036000  1.0
  H  H44  1  0.81882000  0.11206000  0.89032000  1.0
  H  H45  1  0.81882000  0.89032000  0.11206000  1.0
  H  H46  1  0.61398000  0.67754000  0.32002000  1.0
  H  H47  1  0.61320000  0.55061000  0.45015000  1.0
  H  H48  1  0.38889000  0.31988000  0.67767000  1.0
  H  H49  1  0.38627000  0.45000000  0.55074000  1.0
  H  H50  1  0.61398000  0.32002000  0.67754000  1.0
  H  H51  1  0.61320000  0.45015000  0.55061000  1.0
  H  H52  1  0.38889000  0.67768000  0.31987000  1.0
  H  H53  1  0.38627000  0.55075000  0.44999000  1.0
  H  H54  1  0.88072000  0.81494000  0.18519000  1.0
  H  H55  1  0.12009000  0.81500000  0.18512000  1.0
  H  H56  1  0.88072000  0.18520000  0.81493000  1.0
  H  H57  1  0.12009000  0.18512000  0.81500000  1.0
  C  C58  1  0.73324000  0.00228000  0.76292000  1.0
  C  C59  1  0.50194000  0.76295000  0.00225000  1.0
  C  C60  1  0.26273000  0.00215000  0.23269000  1.0
  C  C61  1  0.50281000  0.23267000  0.00219000  1.0
  C  C62  1  0.73496000  0.00199000  0.00198000  1.0
  C  C63  1  0.50244000  0.23289000  0.76279000  1.0
  C  C64  1  0.26182000  0.00202000  0.00202000  1.0
  C  C65  1  0.50244000  0.76280000  0.23288000  1.0
  C  C66  1  0.73324000  0.76292000  0.00228000  1.0
  C  C67  1  0.50281000  0.00220000  0.23267000  1.0
  C  C68  1  0.26274000  0.23269000  0.00214000  1.0
  C  C69  1  0.50194000  0.00225000  0.76295000  1.0
  C  C70  1  0.18557000  0.00152000  0.31122000  1.0
  C  C71  1  0.81156000  0.00165000  0.68555000  1.0
  C  C72  1  0.14876000  0.93778000  0.34933000  1.0
  C  C73  1  0.07704000  0.93704000  0.42286000  1.0
  C  C74  1  0.84963000  0.06414000  0.64863000  1.0
  C  C75  1  0.92314000  0.06304000  0.57687000  1.0
  C  C76  1  0.84904000  0.93794000  0.64913000  1.0
  C  C77  1  0.92254000  0.93720000  0.57733000  1.0
  C  C78  1  0.14921000  0.06401000  0.34888000  1.0
  C  C79  1  0.07751000  0.06292000  0.42244000  1.0
  C  C80  1  0.03908000  0.99975000  0.46136000  1.0
  C  C81  1  0.96155000  0.99981000  0.53892000  1.0
  C  C82  1  0.50145000  0.68567000  0.00159000  1.0
  C  C83  1  0.50189000  0.31132000  0.00148000  1.0
  C  C84  1  0.43776000  0.64880000  0.06407000  1.0
  C  C85  1  0.43701000  0.57709000  0.06298000  1.0
  C  C86  1  0.56427000  0.34949000  0.93772000  1.0
  C  C87  1  0.56311000  0.42307000  0.93697000  1.0
  C  C88  1  0.43802000  0.34899000  0.06395000  1.0
  C  C89  1  0.43716000  0.42261000  0.06284000  1.0
  C  C90  1  0.56403000  0.64924000  0.93786000  1.0
  C  C91  1  0.56297000  0.57749000  0.93712000  1.0
  C  C92  1  0.49974000  0.53911000  0.99975000  1.0
  C  C93  1  0.49983000  0.46155000  0.99967000  1.0
  C  C94  1  0.50189000  0.00148000  0.31132000  1.0
  C  C95  1  0.50145000  0.00160000  0.68566000  1.0
  C  C96  1  0.43802000  0.06396000  0.34899000  1.0
  C  C97  1  0.43716000  0.06284000  0.42261000  1.0
  C  C98  1  0.56403000  0.93786000  0.64924000  1.0
  C  C99  1  0.56297000  0.93712000  0.57749000  1.0
  C  C100  1  0.43777000  0.06406000  0.64880000  1.0
  C  C101  1  0.43701000  0.06299000  0.57708000  1.0
  C  C102  1  0.56427000  0.93773000  0.34948000  1.0
  C  C103  1  0.56311000  0.93697000  0.42306000  1.0
  C  C104  1  0.49983000  0.99966000  0.46156000  1.0
  C  C105  1  0.49974000  0.99975000  0.53911000  1.0
  C  C106  1  0.81156000  0.68555000  0.00165000  1.0
  C  C107  1  0.18557000  0.31123000  0.00151000  1.0
  C  C108  1  0.84904000  0.64913000  0.93794000  1.0
  C  C109  1  0.92254000  0.57733000  0.93720000  1.0
  C  C110  1  0.14921000  0.34888000  0.06401000  1.0
  C  C111  1  0.07751000  0.42244000  0.06292000  1.0
  C  C112  1  0.14876000  0.34934000  0.93777000  1.0
  C  C113  1  0.07704000  0.42287000  0.93703000  1.0
  C  C114  1  0.84963000  0.64863000  0.06414000  1.0
  C  C115  1  0.92314000  0.57686000  0.06305000  1.0
  C  C116  1  0.96155000  0.53892000  0.99981000  1.0
  C  C117  1  0.03908000  0.46137000  0.99974000  1.0
  C  C118  1  0.14811000  0.93743000  0.06430000  1.0
  C  C119  1  0.07520000  0.93535000  0.06495000  1.0
  C  C120  1  0.03682000  0.87063000  0.12907000  1.0
  C  C121  1  0.14811000  0.06430000  0.93743000  1.0
  C  C122  1  0.07520000  0.06496000  0.93534000  1.0
  C  C123  1  0.03682000  0.12907000  0.87063000  1.0
  C  C124  1  0.85102000  0.06431000  0.93746000  1.0
  C  C125  1  0.92537000  0.06497000  0.93539000  1.0
  C  C126  1  0.96437000  0.12909000  0.87063000  1.0
  C  C127  1  0.85102000  0.93747000  0.06430000  1.0
  C  C128  1  0.92537000  0.93539000  0.06497000  1.0
  C  C129  1  0.96437000  0.87064000  0.12908000  1.0
  C  C130  1  0.18400000  0.00137000  0.00138000  1.0
  C  C131  1  0.03757000  0.99998000  0.99997000  1.0
  C  C132  1  0.81409000  0.00137000  0.00138000  1.0
  C  C133  1  0.96337000  0.00001000  0.00000000  1.0
  C  C134  1  0.50176000  0.68557000  0.31135000  1.0
  C  C135  1  0.50176000  0.31136000  0.68556000  1.0
  C  C136  1  0.56444000  0.64887000  0.34927000  1.0
  C  C137  1  0.56330000  0.57720000  0.42277000  1.0
  C  C138  1  0.43781000  0.34918000  0.64895000  1.0
  C  C139  1  0.43699000  0.42270000  0.57727000  1.0
  C  C140  1  0.56444000  0.34926000  0.64888000  1.0
  C  C141  1  0.56330000  0.42278000  0.57719000  1.0
  C  C142  1  0.43781000  0.64895000  0.34918000  1.0
  C  C143  1  0.43699000  0.57728000  0.42269000  1.0
  C  C144  1  0.49985000  0.53903000  0.46149000  1.0
  C  C145  1  0.49985000  0.46150000  0.53902000  1.0
  O  O146  1  0.70312000  0.06149000  0.79370000  1.0
  O  O147  1  0.44217000  0.79370000  0.06150000  1.0
  O  O148  1  0.29325000  0.94266000  0.20215000  1.0
  O  O149  1  0.56247000  0.20204000  0.94281000  1.0
  O  O150  1  0.70443000  0.94241000  0.06129000  1.0
  O  O151  1  0.44262000  0.20234000  0.79360000  1.0
  O  O152  1  0.29259000  0.06133000  0.94245000  1.0
  O  O153  1  0.56198000  0.79360000  0.20244000  1.0
  O  O154  1  0.70249000  0.79393000  0.94271000  1.0
  O  O155  1  0.44309000  0.06139000  0.20210000  1.0
  O  O156  1  0.29382000  0.20214000  0.06134000  1.0
  O  O157  1  0.56129000  0.94269000  0.79390000  1.0
  O  O158  1  0.56247000  0.94282000  0.20204000  1.0
  O  O159  1  0.29325000  0.20216000  0.94265000  1.0
  O  O160  1  0.44217000  0.06150000  0.79370000  1.0
  O  O161  1  0.70312000  0.79371000  0.06148000  1.0
  O  O162  1  0.70443000  0.06129000  0.94241000  1.0
  O  O163  1  0.44262000  0.79360000  0.20234000  1.0
  O  O164  1  0.29259000  0.94245000  0.06133000  1.0
  O  O165  1  0.56198000  0.20244000  0.79360000  1.0
  O  O166  1  0.44309000  0.20211000  0.06138000  1.0
  O  O167  1  0.70249000  0.94271000  0.79393000  1.0
  O  O168  1  0.56129000  0.79391000  0.94268000  1.0
  O  O169  1  0.29382000  0.06135000  0.20213000  1.0
  O  O170  1  0.44831000  0.15606000  0.94790000  1.0
  O  O171  1  0.44831000  0.94791000  0.15605000  1.0
  O  O172  1  0.44753000  0.94811000  0.94810000  1.0
  O  O173  1  0.65686000  0.94811000  0.94810000  1.0
  O  O174  1  0.53854000  0.88504000  0.03849000  1.0
  O  O175  1  0.53854000  0.03849000  0.88504000  1.0
  O  O176  1  0.38474000  0.03832000  0.03831000  1.0
  O  O177  1  0.53917000  0.03830000  0.03830000  1.0
  O  O178  1  0.93156000  0.80699000  0.19252000  1.0
  O  O179  1  0.06987000  0.80700000  0.19251000  1.0
  O  O180  1  0.93156000  0.19253000  0.80698000  1.0
  O  O181  1  0.06987000  0.19251000  0.80700000  1.0
