# generated using pymatgen
data_AlH12C27(BrO2)3
_symmetry_space_group_name_H-M   'P 1'
_cell_length_a   4.03088000
_cell_length_b   27.79610000
_cell_length_c   27.83290000
_cell_angle_alpha   60.10310000
_cell_angle_beta   88.91480000
_cell_angle_gamma   89.67510000
_symmetry_Int_Tables_number   1
_chemical_formula_structural   AlH12C27(BrO2)3
_chemical_formula_sum   'Al3 H36 C81 Br9 O18'
_cell_volume   2702.96902612
_cell_formula_units_Z   3
loop_
 _symmetry_equiv_pos_site_id
 _symmetry_equiv_pos_as_xyz
  1  'x, y, z'
loop_
 _atom_site_type_symbol
 _atom_site_label
 _atom_site_symmetry_multiplicity
 _atom_site_fract_x
 _atom_site_fract_y
 _atom_site_fract_z
 _atom_site_occupancy
  Al  Al0  1  0.00389000  0.50079000  0.49964000  1.0
  Al  Al1  1  0.94365000  0.16733000  0.16703000  1.0
  Al  Al2  1  0.05293000  0.83396000  0.83271000  1.0
  H  H3  1  0.52165000  0.92330000  0.07818000  1.0
  H  H4  1  0.50548000  0.74504000  0.16549000  1.0
  H  H5  1  0.51763000  0.83267000  0.25624000  1.0
  H  H6  1  0.72117000  0.07367000  0.09166000  1.0
  H  H7  1  0.76241000  0.98579000  0.09013000  1.0
  H  H8  1  0.22319000  0.90215000  0.24624000  1.0
  H  H9  1  0.28837000  0.91395000  0.01621000  1.0
  H  H10  1  0.79299000  0.75693000  0.00434000  1.0
  H  H11  1  0.79769000  0.75670000  0.09318000  1.0
  H  H12  1  0.78616000  0.68574000  0.23539000  1.0
  H  H13  1  0.22944000  0.66693000  0.40382000  1.0
  H  H14  1  0.22573000  0.75798000  0.31706000  1.0
  H  H15  1  0.49607000  0.50065000  0.92194000  1.0
  H  H16  1  0.51777000  0.41053000  0.83363000  1.0
  H  H17  1  0.50241000  0.58877000  0.74383000  1.0
  H  H18  1  0.28610000  0.66359000  0.91014000  1.0
  H  H19  1  0.25076000  0.57465000  0.91073000  1.0
  H  H20  1  0.78390000  0.64833000  0.75396000  1.0
  H  H21  1  0.73443000  0.42859000  0.98345000  1.0
  H  H22  1  0.20874000  0.26233000  0.99464000  1.0
  H  H23  1  0.21484000  0.35076000  0.90573000  1.0
  H  H24  1  0.23381000  0.42234000  0.76371000  1.0
  H  H25  1  0.78717000  0.57134000  0.59531000  1.0
  H  H26  1  0.79889000  0.57472000  0.68261000  1.0
  H  H27  1  0.49994000  0.07806000  0.49961000  1.0
  H  H28  1  0.47253000  0.16635000  0.58970000  1.0
  H  H29  1  0.48712000  0.25634000  0.41165000  1.0
  H  H30  1  0.69862000  0.09085000  0.33550000  1.0
  H  H31  1  0.73300000  0.08961000  0.42458000  1.0
  H  H32  1  0.21444000  0.24593000  0.35306000  1.0
  H  H33  1  0.27326000  0.01498000  0.57230000  1.0
  H  H34  1  0.78882000  0.00682000  0.73659000  1.0
  H  H35  1  0.77518000  0.09601000  0.64848000  1.0
  H  H36  1  0.75340000  0.23628000  0.57759000  1.0
  H  H37  1  0.22183000  0.40484000  0.43011000  1.0
  H  H38  1  0.20348000  0.31782000  0.42605000  1.0
  C  C39  1  0.50215000  0.42550000  0.50239000  1.0
  C  C40  1  0.50829000  0.57306000  0.42448000  1.0
  C  C41  1  0.49994000  0.49950000  0.57410000  1.0
  C  C42  1  0.44520000  0.09200000  0.16959000  1.0
  C  C43  1  0.45308000  0.24073000  0.09275000  1.0
  C  C44  1  0.43666000  0.16939000  0.23968000  1.0
  C  C45  1  0.54496000  0.83453000  0.90642000  1.0
  C  C46  1  0.55583000  0.76021000  0.83223000  1.0
  C  C47  1  0.55560000  0.90704000  0.75859000  1.0
  C  C48  1  0.52628000  0.83420000  0.11552000  1.0
  C  C49  1  0.51901000  0.88390000  0.11699000  1.0
  C  C50  1  0.50691000  0.88417000  0.16721000  1.0
  C  C51  1  0.50945000  0.83315000  0.21689000  1.0
  C  C52  1  0.51322000  0.78270000  0.21694000  1.0
  C  C53  1  0.51820000  0.78397000  0.16591000  1.0
  C  C54  1  0.61049000  0.03588000  0.12533000  1.0
  C  C55  1  0.63038000  0.98637000  0.12438000  1.0
  C  C56  1  0.49294000  0.93710000  0.16779000  1.0
  C  C57  1  0.34040000  0.93909000  0.21253000  1.0
  C  C58  1  0.32982000  0.98843000  0.21396000  1.0
  C  C59  1  0.45889000  0.03775000  0.17010000  1.0
  C  C60  1  0.40586000  0.87957000  0.01428000  1.0
  C  C61  1  0.41668000  0.88032000  0.96390000  1.0
  C  C62  1  0.54507000  0.83559000  0.95984000  1.0
  C  C63  1  0.67997000  0.79108000  0.00736000  1.0
  C  C64  1  0.67912000  0.79083000  0.05749000  1.0
  C  C65  1  0.53647000  0.83468000  0.06211000  1.0
  C  C66  1  0.66089000  0.68237000  0.27194000  1.0
  C  C67  1  0.66050000  0.63131000  0.32080000  1.0
  C  C68  1  0.51035000  0.62520000  0.36962000  1.0
  C  C69  1  0.35502000  0.67211000  0.36651000  1.0
  C  C70  1  0.35608000  0.72310000  0.31796000  1.0
  C  C71  1  0.51094000  0.72917000  0.26954000  1.0
  C  C72  1  0.49513000  0.44936000  0.88401000  1.0
  C  C73  1  0.50029000  0.50031000  0.88296000  1.0
  C  C74  1  0.51113000  0.55088000  0.83297000  1.0
  C  C75  1  0.51154000  0.54986000  0.78308000  1.0
  C  C76  1  0.51034000  0.49966000  0.78266000  1.0
  C  C77  1  0.50521000  0.44977000  0.83347000  1.0
  C  C78  1  0.39765000  0.65979000  0.87619000  1.0
  C  C79  1  0.38092000  0.60959000  0.87662000  1.0
  C  C80  1  0.51922000  0.60414000  0.83283000  1.0
  C  C81  1  0.66736000  0.65105000  0.78813000  1.0
  C  C82  1  0.67419000  0.70156000  0.78718000  1.0
  C  C83  1  0.54665000  0.70655000  0.83158000  1.0
  C  C84  1  0.61237000  0.39287000  0.98525000  1.0
  C  C85  1  0.59429000  0.34350000  0.03570000  1.0
  C  C86  1  0.46016000  0.29535000  0.03953000  1.0
  C  C87  1  0.32678000  0.29892000  0.99172000  1.0
  C  C88  1  0.33382000  0.34868000  0.94156000  1.0
  C  C89  1  0.48212000  0.39638000  0.93723000  1.0
  C  C90  1  0.35902000  0.45533000  0.72719000  1.0
  C  C91  1  0.35508000  0.45355000  0.67810000  1.0
  C  C92  1  0.50357000  0.49619000  0.62922000  1.0
  C  C93  1  0.66226000  0.53934000  0.63260000  1.0
  C  C94  1  0.66580000  0.54130000  0.68144000  1.0
  C  C95  1  0.51171000  0.49913000  0.72985000  1.0
  C  C96  1  0.49868000  0.11605000  0.55082000  1.0
  C  C97  1  0.49328000  0.11707000  0.49995000  1.0
  C  C98  1  0.48020000  0.16706000  0.44948000  1.0
  C  C99  1  0.47866000  0.21701000  0.45054000  1.0
  C  C100  1  0.48019000  0.21745000  0.50064000  1.0
  C  C101  1  0.48578000  0.16659000  0.55045000  1.0
  C  C102  1  0.59074000  0.12459000  0.33984000  1.0
  C  C103  1  0.60667000  0.12382000  0.39012000  1.0
  C  C104  1  0.47217000  0.16731000  0.39622000  1.0
  C  C105  1  0.32829000  0.21203000  0.34983000  1.0
  C  C106  1  0.32308000  0.21340000  0.29921000  1.0
  C  C107  1  0.44700000  0.16935000  0.29358000  1.0
  C  C108  1  0.39453000  0.01392000  0.60743000  1.0
  C  C109  1  0.41862000  0.96341000  0.65643000  1.0
  C  C110  1  0.55090000  0.96023000  0.70405000  1.0
  C  C111  1  0.67539000  0.00899000  0.70029000  1.0
  C  C112  1  0.66330000  0.05931000  0.65076000  1.0
  C  C113  1  0.51727000  0.06284000  0.60361000  1.0
  C  C114  1  0.63249000  0.27280000  0.54498000  1.0
  C  C115  1  0.63950000  0.32171000  0.54719000  1.0
  C  C116  1  0.49693000  0.37061000  0.50504000  1.0
  C  C117  1  0.34151000  0.36746000  0.46182000  1.0
  C  C118  1  0.33439000  0.31876000  0.45949000  1.0
  C  C119  1  0.48185000  0.27027000  0.50129000  1.0
  Br  Br120  1  0.13877000  0.98721000  0.27755000  1.0
  Br  Br121  1  0.25285000  0.94399000  0.90019000  1.0
  Br  Br122  1  0.85448000  0.57152000  0.31541000  1.0
  Br  Br123  1  0.85612000  0.76424000  0.72352000  1.0
  Br  Br124  1  0.75121000  0.34327000  0.09965000  1.0
  Br  Br125  1  0.15818000  0.38914000  0.68323000  1.0
  Br  Br126  1  0.14786000  0.27726000  0.23721000  1.0
  Br  Br127  1  0.27021000  0.89852000  0.65687000  1.0
  Br  Br128  1  0.83245000  0.31616000  0.61157000  1.0
  O  O129  1  0.73366000  0.52694000  0.53954000  1.0
  O  O130  1  0.73703000  0.43553000  0.52603000  1.0
  O  O131  1  0.74602000  0.53928000  0.43460000  1.0
  O  O132  1  0.26133000  0.47607000  0.56438000  1.0
  O  O133  1  0.27076000  0.56655000  0.45830000  1.0
  O  O134  1  0.27189000  0.45965000  0.47518000  1.0
  O  O135  1  0.67174000  0.19413000  0.20500000  1.0
  O  O136  1  0.67512000  0.10209000  0.19386000  1.0
  O  O137  1  0.68751000  0.20680000  0.10030000  1.0
  O  O138  1  0.19738000  0.14369000  0.23304000  1.0
  O  O139  1  0.21058000  0.23176000  0.12587000  1.0
  O  O140  1  0.20809000  0.12461000  0.14351000  1.0
  O  O141  1  0.79510000  0.87402000  0.76759000  1.0
  O  O142  1  0.78340000  0.85901000  0.87250000  1.0
  O  O143  1  0.79068000  0.76722000  0.85816000  1.0
  O  O144  1  0.31811000  0.89960000  0.79256000  1.0
  O  O145  1  0.32331000  0.79430000  0.80784000  1.0
  O  O146  1  0.30913000  0.80848000  0.89943000  1.0
