# generated using pymatgen
data_GdH9C15(NO3)2
_symmetry_space_group_name_H-M   'P 1'
_cell_length_a   6.78835000
_cell_length_b   12.85550000
_cell_length_c   16.72290000
_cell_angle_alpha   90.00000000
_cell_angle_beta   93.67810000
_cell_angle_gamma   90.00000000
_symmetry_Int_Tables_number   1
_chemical_formula_structural   GdH9C15(NO3)2
_chemical_formula_sum   'Gd4 H36 C60 N8 O24'
_cell_volume   1456.36191758
_cell_formula_units_Z   4
loop_
 _symmetry_equiv_pos_site_id
 _symmetry_equiv_pos_as_xyz
  1  'x, y, z'
loop_
 _atom_site_type_symbol
 _atom_site_label
 _atom_site_symmetry_multiplicity
 _atom_site_fract_x
 _atom_site_fract_y
 _atom_site_fract_z
 _atom_site_occupancy
  Gd  Gd0  1  0.61758000  0.62747000  0.04865000  1.0
  Gd  Gd1  1  0.88242000  0.12747000  0.95135000  1.0
  Gd  Gd2  1  0.38242000  0.37253000  0.95135000  1.0
  Gd  Gd3  1  0.11758000  0.87253000  0.04865000  1.0
  H  H4  1  0.11654000  0.78514000  0.29766000  1.0
  H  H5  1  0.38345000  0.28514000  0.70234000  1.0
  H  H6  1  0.88345000  0.21486000  0.70234000  1.0
  H  H7  1  0.61654000  0.71486000  0.29766000  1.0
  H  H8  1  0.04563000  0.75222000  0.44133000  1.0
  H  H9  1  0.45437000  0.25222000  0.55867000  1.0
  H  H10  1  0.95436000  0.24778000  0.55867000  1.0
  H  H11  1  0.54563000  0.74778000  0.44133000  1.0
  H  H12  1  0.75292000  0.46732000  0.37087000  1.0
  H  H13  1  0.74708000  0.96732000  0.62913000  1.0
  H  H14  1  0.24708000  0.53268000  0.62913000  1.0
  H  H15  1  0.25292000  0.03268000  0.37087000  1.0
  H  H16  1  0.82001000  0.50153000  0.22690000  1.0
  H  H17  1  0.67999000  0.00153000  0.77310000  1.0
  H  H18  1  0.17998000  0.49847000  0.77310000  1.0
  H  H19  1  0.32001000  0.99847000  0.22690000  1.0
  H  H20  1  0.94098000  0.76581000  0.66885000  1.0
  H  H21  1  0.55902000  0.26581000  0.33115000  1.0
  H  H22  1  0.05902000  0.23420000  0.33115000  1.0
  H  H23  1  0.44098000  0.73419000  0.66885000  1.0
  H  H24  1  0.85471000  0.72369000  0.80948000  1.0
  H  H25  1  0.64529000  0.22369000  0.19052000  1.0
  H  H26  1  0.14529000  0.27631000  0.19052000  1.0
  H  H27  1  0.35471000  0.77631000  0.80948000  1.0
  H  H28  1  0.56300000  0.44515000  0.72340000  1.0
  H  H29  1  0.93700000  0.94515000  0.27660000  1.0
  H  H30  1  0.43700000  0.55485000  0.27660000  1.0
  H  H31  1  0.06300000  0.05485000  0.72340000  1.0
  H  H32  1  0.64462000  0.48808000  0.58280000  1.0
  H  H33  1  0.85538000  0.98807000  0.41720000  1.0
  H  H34  1  0.35538000  0.51193000  0.41720000  1.0
  H  H35  1  0.14462000  0.01192000  0.58280000  1.0
  H  H36  1  0.94463000  0.36781000  0.05024000  1.0
  H  H37  1  0.55537000  0.86781000  0.94976000  1.0
  H  H38  1  0.05537000  0.63219000  0.94976000  1.0
  H  H39  1  0.44463000  0.13219000  0.05024000  1.0
  C  C40  1  0.99775000  0.67247000  0.16855000  1.0
  C  C41  1  0.50224000  0.17247000  0.83145000  1.0
  C  C42  1  0.00224000  0.32753000  0.83145000  1.0
  C  C43  1  0.49776000  0.82753000  0.16855000  1.0
  C  C44  1  0.97138000  0.64593000  0.25410000  1.0
  C  C45  1  0.52862000  0.14593000  0.74590000  1.0
  C  C46  1  0.02861000  0.35407000  0.74590000  1.0
  C  C47  1  0.47138000  0.85407000  0.25410000  1.0
  C  C48  1  0.03732000  0.71587000  0.31470000  1.0
  C  C49  1  0.46269000  0.21587000  0.68530000  1.0
  C  C50  1  0.96268000  0.28413000  0.68530000  1.0
  C  C51  1  0.53731000  0.78413000  0.31470000  1.0
  C  C52  1  0.99790000  0.69822000  0.39383000  1.0
  C  C53  1  0.50210000  0.19822000  0.60617000  1.0
  C  C54  1  0.00210000  0.30178000  0.60617000  1.0
  C  C55  1  0.49790000  0.80178000  0.39383000  1.0
  C  C56  1  0.89105000  0.60893000  0.41324000  1.0
  C  C57  1  0.60895000  0.10893000  0.58677000  1.0
  C  C58  1  0.10895000  0.39107000  0.58677000  1.0
  C  C59  1  0.39105000  0.89107000  0.41324000  1.0
  C  C60  1  0.83173000  0.53669000  0.35339000  1.0
  C  C61  1  0.66828000  0.03669000  0.64661000  1.0
  C  C62  1  0.16828000  0.46331000  0.64661000  1.0
  C  C63  1  0.33173000  0.96331000  0.35339000  1.0
  C  C64  1  0.86987000  0.55557000  0.27407000  1.0
  C  C65  1  0.63013000  0.05557000  0.72593000  1.0
  C  C66  1  0.13013000  0.44443000  0.72593000  1.0
  C  C67  1  0.36986000  0.94443000  0.27407000  1.0
  C  C68  1  0.79965000  0.62883000  0.61849000  1.0
  C  C69  1  0.70036000  0.12883000  0.38151000  1.0
  C  C70  1  0.20036000  0.37117000  0.38151000  1.0
  C  C71  1  0.29965000  0.87117000  0.61849000  1.0
  C  C72  1  0.85705000  0.69623000  0.68189000  1.0
  C  C73  1  0.64295000  0.19623000  0.31811000  1.0
  C  C74  1  0.14295000  0.30377000  0.31811000  1.0
  C  C75  1  0.35705000  0.80377000  0.68189000  1.0
  C  C76  1  0.80979000  0.67252000  0.75962000  1.0
  C  C77  1  0.69021000  0.17252000  0.24038000  1.0
  C  C78  1  0.19021000  0.32748000  0.24038000  1.0
  C  C79  1  0.30979000  0.82748000  0.75962000  1.0
  C  C80  1  0.70396000  0.58151000  0.77436000  1.0
  C  C81  1  0.79604000  0.08151000  0.22564000  1.0
  C  C82  1  0.29604000  0.41849000  0.22564000  1.0
  C  C83  1  0.20396000  0.91849000  0.77436000  1.0
  C  C84  1  0.64417000  0.51543000  0.71029000  1.0
  C  C85  1  0.85583000  0.01543000  0.28971000  1.0
  C  C86  1  0.35583000  0.48457000  0.28971000  1.0
  C  C87  1  0.14417000  0.98457000  0.71029000  1.0
  C  C88  1  0.68939000  0.53878000  0.63286000  1.0
  C  C89  1  0.81062000  0.03878000  0.36714000  1.0
  C  C90  1  0.31062000  0.46122000  0.36714000  1.0
  C  C91  1  0.18938000  0.96122000  0.63286000  1.0
  C  C92  1  0.65096000  0.55226000  0.85673000  1.0
  C  C93  1  0.84904000  0.05226000  0.14327000  1.0
  C  C94  1  0.34904000  0.44774000  0.14327000  1.0
  C  C95  1  0.15096000  0.94774000  0.85673000  1.0
  C  C96  1  0.79006000  0.36843000  0.02524000  1.0
  C  C97  1  0.70994000  0.86843000  0.97476000  1.0
  C  C98  1  0.20995000  0.63157000  0.97476000  1.0
  C  C99  1  0.29005000  0.13157000  0.02524000  1.0
  N  N100  1  0.83319000  0.58477000  0.49043000  1.0
  N  N101  1  0.66681000  0.08478000  0.50957000  1.0
  N  N102  1  0.16681000  0.41522000  0.50957000  1.0
  N  N103  1  0.33319000  0.91523000  0.49043000  1.0
  N  N104  1  0.86039000  0.65653000  0.54206000  1.0
  N  N105  1  0.63961000  0.15653000  0.45794000  1.0
  N  N106  1  0.13961000  0.34347000  0.45794000  1.0
  N  N107  1  0.36039000  0.84347000  0.54206000  1.0
  O  O108  1  0.91924000  0.61199000  0.11410000  1.0
  O  O109  1  0.58076000  0.11199000  0.88590000  1.0
  O  O110  1  0.08076000  0.38801000  0.88590000  1.0
  O  O111  1  0.41924000  0.88801000  0.11410000  1.0
  O  O112  1  0.08983000  0.75499000  0.15332000  1.0
  O  O113  1  0.41017000  0.25499000  0.84668000  1.0
  O  O114  1  0.91017000  0.24501000  0.84668000  1.0
  O  O115  1  0.58983000  0.74501000  0.15332000  1.0
  O  O116  1  0.56640000  0.46470000  0.86413000  1.0
  O  O117  1  0.93360000  0.96470000  0.13587000  1.0
  O  O118  1  0.43359000  0.53530000  0.13587000  1.0
  O  O119  1  0.06640000  0.03530000  0.86413000  1.0
  O  O120  1  0.69167000  0.61645000  0.91387000  1.0
  O  O121  1  0.80833000  0.11645000  0.08613000  1.0
  O  O122  1  0.30833000  0.38355000  0.08613000  1.0
  O  O123  1  0.19167000  0.88355000  0.91387000  1.0
  O  O124  1  0.68679000  0.44974000  0.03109000  1.0
  O  O125  1  0.81322000  0.94974000  0.96891000  1.0
  O  O126  1  0.31321000  0.55026000  0.96891000  1.0
  O  O127  1  0.18679000  0.05026000  0.03109000  1.0
  O  O128  1  0.71528000  0.28764000  0.99110000  1.0
  O  O129  1  0.78472000  0.78764000  0.00890000  1.0
  O  O130  1  0.28472000  0.71236000  0.00890000  1.0
  O  O131  1  0.21528000  0.21236000  0.99110000  1.0
