# generated using pymatgen
data_ZnH10C15SNO7
_symmetry_space_group_name_H-M   'P 1'
_cell_length_a   11.06840000
_cell_length_b   13.94870000
_cell_length_c   15.26540000
_cell_angle_alpha   90.00050000
_cell_angle_beta   89.92800000
_cell_angle_gamma   89.99860000
_symmetry_Int_Tables_number   1
_chemical_formula_structural   ZnH10C15SNO7
_chemical_formula_sum   'Zn2 H20 C30 S2 N2 O14'
_cell_volume   2356.82005509
_cell_formula_units_Z   2
loop_
 _symmetry_equiv_pos_site_id
 _symmetry_equiv_pos_as_xyz
  1  'x, y, z'
loop_
 _atom_site_type_symbol
 _atom_site_label
 _atom_site_symmetry_multiplicity
 _atom_site_fract_x
 _atom_site_fract_y
 _atom_site_fract_z
 _atom_site_occupancy
  Zn  Zn0  1  0.50000000  0.40076000  0.50000000  1.0
  Zn  Zn1  1  0.50000000  0.59637000  0.50000000  1.0
  H  H2  1  0.11288000  0.63495000  0.49470000  1.0
  H  H3  1  0.51977000  0.35986000  0.22629000  1.0
  H  H4  1  0.58070000  0.65684000  0.78187000  1.0
  H  H5  1  0.41926000  0.65684000  0.21812000  1.0
  H  H6  1  0.56518000  0.65542000  0.94410000  1.0
  H  H7  1  0.43475000  0.65542000  0.05591000  1.0
  H  H8  1  0.62669000  0.75104000  0.59976000  1.0
  H  H9  1  0.37331000  0.75107000  0.40023000  1.0
  H  H10  1  0.36181000  0.06750000  0.60029000  1.0
  H  H11  1  0.63822000  0.06750000  0.39972000  1.0
  H  H12  1  0.73678000  0.07332000  0.57175000  1.0
  H  H13  1  0.88710000  0.63494000  0.50532000  1.0
  H  H14  1  0.26323000  0.07334000  0.42823000  1.0
  H  H15  1  0.36503000  0.24817000  0.59357000  1.0
  H  H16  1  0.63497000  0.24817000  0.40645000  1.0
  H  H17  1  0.09005000  0.42021000  0.53814000  1.0
  H  H18  1  0.90995000  0.42022000  0.46183000  1.0
  H  H19  1  0.45581000  0.35887000  0.93554000  1.0
  H  H20  1  0.54418000  0.35887000  0.06446000  1.0
  H  H21  1  0.48023000  0.35986000  0.77371000  1.0
  C  C22  1  0.53350000  0.50984000  0.66977000  1.0
  C  C23  1  0.42198000  0.10474000  0.55523000  1.0
  C  C24  1  0.57801000  0.10473000  0.44476000  1.0
  C  C25  1  0.42438000  0.20445000  0.55282000  1.0
  C  C26  1  0.57561000  0.20446000  0.44718000  1.0
  C  C27  1  0.50001000  0.05370000  0.50000000  1.0
  C  C28  1  0.73414000  0.49021000  0.47501000  1.0
  C  C29  1  0.26585000  0.49021000  0.52497000  1.0
  C  C30  1  0.06524000  0.56708000  0.50428000  1.0
  C  C31  1  0.93474000  0.56708000  0.49570000  1.0
  C  C32  1  0.13224000  0.48934000  0.52443000  1.0
  C  C33  1  0.46650000  0.50983000  0.33023000  1.0
  C  C34  1  0.86778000  0.48934000  0.47553000  1.0
  C  C35  1  0.48587000  0.42397000  0.90250000  1.0
  C  C36  1  0.51411000  0.42397000  0.09750000  1.0
  C  C37  1  0.49817000  0.42427000  0.81190000  1.0
  C  C38  1  0.50183000  0.42427000  0.18811000  1.0
  C  C39  1  0.53065000  0.50847000  0.76760000  1.0
  C  C40  1  0.46931000  0.50846000  0.23240000  1.0
  C  C41  1  0.55412000  0.59166000  0.81622000  1.0
  C  C42  1  0.44582000  0.59165000  0.18378000  1.0
  C  C43  1  0.54386000  0.59077000  0.90704000  1.0
  C  C44  1  0.50759000  0.50738000  0.95194000  1.0
  C  C45  1  0.45608000  0.59076000  0.09296000  1.0
  C  C46  1  0.49236000  0.50737000  0.04806000  1.0
  C  C47  1  0.57376000  0.89384000  0.55718000  1.0
  C  C48  1  0.42628000  0.89385000  0.44279000  1.0
  C  C49  1  0.57144000  0.79381000  0.55543000  1.0
  C  C50  1  0.42859000  0.79381000  0.44454000  1.0
  C  C51  1  0.50002000  0.94699000  0.49998000  1.0
  S  S52  1  0.66970000  0.94878000  0.63755000  1.0
  S  S53  1  0.33034000  0.94880000  0.36243000  1.0
  N  N54  1  0.50000000  0.74572000  0.49999000  1.0
  N  N55  1  0.49999000  0.25277000  0.49999000  1.0
  O  O56  1  0.52871000  0.42916000  0.63052000  1.0
  O  O57  1  0.73719000  0.87373000  0.67836000  1.0
  O  O58  1  0.76499000  0.00691000  0.57762000  1.0
  O  O59  1  0.40064000  0.01697000  0.31338000  1.0
  O  O60  1  0.26285000  0.87377000  0.32162000  1.0
  O  O61  1  0.23503000  0.00694000  0.42233000  1.0
  O  O62  1  0.47128000  0.42915000  0.36949000  1.0
  O  O63  1  0.53752000  0.59154000  0.63214000  1.0
  O  O64  1  0.46247000  0.59155000  0.36786000  1.0
  O  O65  1  0.68316000  0.40782000  0.47511000  1.0
  O  O66  1  0.31683000  0.40783000  0.52489000  1.0
  O  O67  1  0.67965000  0.57080000  0.47636000  1.0
  O  O68  1  0.32033000  0.57079000  0.52363000  1.0
  O  O69  1  0.59945000  0.01696000  0.68662000  1.0
