# generated using pymatgen
data_Cd2H14C10N2O9
_symmetry_space_group_name_H-M   'P 1'
_cell_length_a   8.58646000
_cell_length_b   8.98498000
_cell_length_c   19.23340000
_cell_angle_alpha   90.00000000
_cell_angle_beta   90.00000000
_cell_angle_gamma   94.76290000
_symmetry_Int_Tables_number   1
_chemical_formula_structural   Cd2H14C10N2O9
_chemical_formula_sum   'Cd8 H56 C40 N8 O36'
_cell_volume   1478.71692258
_cell_formula_units_Z   4
loop_
 _symmetry_equiv_pos_site_id
 _symmetry_equiv_pos_as_xyz
  1  'x, y, z'
loop_
 _atom_site_type_symbol
 _atom_site_label
 _atom_site_symmetry_multiplicity
 _atom_site_fract_x
 _atom_site_fract_y
 _atom_site_fract_z
 _atom_site_occupancy
  Cd  Cd0  1  0.85380000  0.57307000  0.94035000  1.0
  Cd  Cd1  1  0.64621000  0.92693000  0.44035000  1.0
  Cd  Cd2  1  0.14621000  0.42693000  0.05965000  1.0
  Cd  Cd3  1  0.35379000  0.07307000  0.55965000  1.0
  Cd  Cd4  1  0.31625000  0.06884000  0.93780000  1.0
  Cd  Cd5  1  0.18375000  0.43116000  0.43780000  1.0
  Cd  Cd6  1  0.68375000  0.93116000  0.06220000  1.0
  Cd  Cd7  1  0.81625000  0.56885000  0.56220000  1.0
  H  H8  1  0.08701000  0.88793000  0.98730000  1.0
  H  H9  1  0.41299000  0.61207000  0.48730000  1.0
  H  H10  1  0.91299000  0.11207000  0.01269000  1.0
  H  H11  1  0.58701000  0.38793000  0.51270000  1.0
  H  H12  1  0.22126000  0.85096000  0.03825000  1.0
  H  H13  1  0.27874000  0.64905000  0.53825000  1.0
  H  H14  1  0.77874000  0.14904000  0.96175000  1.0
  H  H15  1  0.72126000  0.35096000  0.46175000  1.0
  H  H16  1  0.61545000  0.57494000  0.74468000  1.0
  H  H17  1  0.88455000  0.92505000  0.24468000  1.0
  H  H18  1  0.38455000  0.42507000  0.25532000  1.0
  H  H19  1  0.11545000  0.07494000  0.75532000  1.0
  H  H20  1  0.68505000  0.41470000  0.78211000  1.0
  H  H21  1  0.81496000  0.08530000  0.28210000  1.0
  H  H22  1  0.31495000  0.58530000  0.21789000  1.0
  H  H23  1  0.18505000  0.91470000  0.71789000  1.0
  H  H24  1  0.89077000  0.57596000  0.72025000  1.0
  H  H25  1  0.60924000  0.92404000  0.22025000  1.0
  H  H26  1  0.10923000  0.42404000  0.27974000  1.0
  H  H27  1  0.39077000  0.07595000  0.77975000  1.0
  H  H28  1  0.86256000  0.72468000  0.77733000  1.0
  H  H29  1  0.63744000  0.77532000  0.27732000  1.0
  H  H30  1  0.13744000  0.27532000  0.22267000  1.0
  H  H31  1  0.36256000  0.22468000  0.72267000  1.0
  H  H32  1  0.42369000  0.42801000  0.84111000  1.0
  H  H33  1  0.07631000  0.07199000  0.34111000  1.0
  H  H34  1  0.57631000  0.57199000  0.15889000  1.0
  H  H35  1  0.92369000  0.92801000  0.65889000  1.0
  H  H36  1  0.45804000  0.49473000  0.92764000  1.0
  H  H37  1  0.04195000  0.00527000  0.42765000  1.0
  H  H38  1  0.54195000  0.50528000  0.07235000  1.0
  H  H39  1  0.95805000  0.99472000  0.57235000  1.0
  H  H40  1  0.45975000  0.73072000  0.83954000  1.0
  H  H41  1  0.04025000  0.76928000  0.33954000  1.0
  H  H42  1  0.54025000  0.26928000  0.16046000  1.0
  H  H43  1  0.95975000  0.23071000  0.66046000  1.0
  H  H44  1  0.65802000  0.80115000  0.83279000  1.0
  H  H45  1  0.84198000  0.69885000  0.33279000  1.0
  H  H46  1  0.34198000  0.19885000  0.16721000  1.0
  H  H47  1  0.15802000  0.30115000  0.66721000  1.0
  H  H48  1  0.07748000  0.37456000  0.77490000  1.0
  H  H49  1  0.42252000  0.12544000  0.27491000  1.0
  H  H50  1  0.92252000  0.62544000  0.22510000  1.0
  H  H51  1  0.57748000  0.87456000  0.72510000  1.0
  H  H52  1  0.89276000  0.32528000  0.81341000  1.0
  H  H53  1  0.60725000  0.17472000  0.31341000  1.0
  H  H54  1  0.10724000  0.67472000  0.18659000  1.0
  H  H55  1  0.39276000  0.82528000  0.68659000  1.0
  H  H56  1  0.14698000  0.68247000  0.76836000  1.0
  H  H57  1  0.35302000  0.81753000  0.26836000  1.0
  H  H58  1  0.85302000  0.31753000  0.23164000  1.0
  H  H59  1  0.64698000  0.18247000  0.73164000  1.0
  H  H60  1  0.21123000  0.58893000  0.84273000  1.0
  H  H61  1  0.28877000  0.91107000  0.34273000  1.0
  H  H62  1  0.78877000  0.41107000  0.15727000  1.0
  H  H63  1  0.71123000  0.08893000  0.65727000  1.0
  C  C64  1  0.69037000  0.53680000  0.78665000  1.0
  C  C65  1  0.80963000  0.96319000  0.28665000  1.0
  C  C66  1  0.30963000  0.46320000  0.21335000  1.0
  C  C67  1  0.19037000  0.03680000  0.71335000  1.0
  C  C68  1  0.85681000  0.60204000  0.77373000  1.0
  C  C69  1  0.64319000  0.89796000  0.27373000  1.0
  C  C70  1  0.14319000  0.39796000  0.22627000  1.0
  C  C71  1  0.35681000  0.10204000  0.72626000  1.0
  C  C72  1  0.51510000  0.45607000  0.88048000  1.0
  C  C73  1  0.98490000  0.04393000  0.38048000  1.0
  C  C74  1  0.48490000  0.54394000  0.11952000  1.0
  C  C75  1  0.01510000  0.95606000  0.61952000  1.0
  C  C76  1  0.59103000  0.31307000  0.90016000  1.0
  C  C77  1  0.90897000  0.18693000  0.40016000  1.0
  C  C78  1  0.40897000  0.68694000  0.09984000  1.0
  C  C79  1  0.09103000  0.81306000  0.59984000  1.0
  C  C80  1  0.57735000  0.72175000  0.86160000  1.0
  C  C81  1  0.92265000  0.77825000  0.36160000  1.0
  C  C82  1  0.42265000  0.27825000  0.13840000  1.0
  C  C83  1  0.07735000  0.22175000  0.63840000  1.0
  C  C84  1  0.57993000  0.77987000  0.93597000  1.0
  C  C85  1  0.92008000  0.72013000  0.43597000  1.0
  C  C86  1  0.42008000  0.22013000  0.06403000  1.0
  C  C87  1  0.07992000  0.27987000  0.56403000  1.0
  C  C88  1  0.00267000  0.39576000  0.81989000  1.0
  C  C89  1  0.49734000  0.10424000  0.31990000  1.0
  C  C90  1  0.99734000  0.60424000  0.18010000  1.0
  C  C91  1  0.50267000  0.89576000  0.68011000  1.0
  C  C92  1  0.08203000  0.33950000  0.88583000  1.0
  C  C93  1  0.41797000  0.16050000  0.38583000  1.0
  C  C94  1  0.91796000  0.66050000  0.11417000  1.0
  C  C95  1  0.58203000  0.83950000  0.61417000  1.0
  C  C96  1  0.11543000  0.65022000  0.82228000  1.0
  C  C97  1  0.38457000  0.84978000  0.32228000  1.0
  C  C98  1  0.88457000  0.34978000  0.17772000  1.0
  C  C99  1  0.61543000  0.15022000  0.67772000  1.0
  C  C100  1  0.11602000  0.78995000  0.86785000  1.0
  C  C101  1  0.38398000  0.71005000  0.36785000  1.0
  C  C102  1  0.88398000  0.21005000  0.13215000  1.0
  C  C103  1  0.61602000  0.28995000  0.63215000  1.0
  N  N104  1  0.63197000  0.57255000  0.85624000  1.0
  N  N105  1  0.86803000  0.92745000  0.35625000  1.0
  N  N106  1  0.36803000  0.42745000  0.14376000  1.0
  N  N107  1  0.13197000  0.07255000  0.64375000  1.0
  N  N108  1  0.97024000  0.55273000  0.82490000  1.0
  N  N109  1  0.52976000  0.94727000  0.32490000  1.0
  N  N110  1  0.02976000  0.44727000  0.17510000  1.0
  N  N111  1  0.47024000  0.05273000  0.67510000  1.0
  O  O112  1  0.71709000  0.32773000  0.93553000  1.0
  O  O113  1  0.78291000  0.17227000  0.43553000  1.0
  O  O114  1  0.28290000  0.67227000  0.06447000  1.0
  O  O115  1  0.21709000  0.82773000  0.56447000  1.0
  O  O116  1  0.52569000  0.18904000  0.88020000  1.0
  O  O117  1  0.97431000  0.31097000  0.38020000  1.0
  O  O118  1  0.47431000  0.81097000  0.11980000  1.0
  O  O119  1  0.02569000  0.68903000  0.61980000  1.0
  O  O120  1  0.66750000  0.72151000  0.98106000  1.0
  O  O121  1  0.83250000  0.77849000  0.48106000  1.0
  O  O122  1  0.33250000  0.27849000  0.01894000  1.0
  O  O123  1  0.16750000  0.22151000  0.51894000  1.0
  O  O124  1  0.50328000  0.88761000  0.95134000  1.0
  O  O125  1  0.99673000  0.61239000  0.45134000  1.0
  O  O126  1  0.49672000  0.11239000  0.04866000  1.0
  O  O127  1  0.00327000  0.38762000  0.54866000  1.0
  O  O128  1  0.06682000  0.41367000  0.94215000  1.0
  O  O129  1  0.43318000  0.08633000  0.44215000  1.0
  O  O130  1  0.93318000  0.58633000  0.05785000  1.0
  O  O131  1  0.56682000  0.91367000  0.55785000  1.0
  O  O132  1  0.15419000  0.22497000  0.87747000  1.0
  O  O133  1  0.34580000  0.27504000  0.37747000  1.0
  O  O134  1  0.84581000  0.77504000  0.12253000  1.0
  O  O135  1  0.65420000  0.72496000  0.62253000  1.0
  O  O136  1  0.01330000  0.79411000  0.91534000  1.0
  O  O137  1  0.48670000  0.70589000  0.41534000  1.0
  O  O138  1  0.98670000  0.20590000  0.08465000  1.0
  O  O139  1  0.51330000  0.29411000  0.58466000  1.0
  O  O140  1  0.22669000  0.88877000  0.85598000  1.0
  O  O141  1  0.27332000  0.61123000  0.35598000  1.0
  O  O142  1  0.77332000  0.11123000  0.14402000  1.0
  O  O143  1  0.72668000  0.38876000  0.64402000  1.0
  O  O144  1  0.16693000  0.93619000  0.01955000  1.0
  O  O145  1  0.33308000  0.56381000  0.51956000  1.0
  O  O146  1  0.83307000  0.06381000  0.98044000  1.0
  O  O147  1  0.66692000  0.43619000  0.48045000  1.0
