# generated using pymatgen
data_ZnH13C21N3O4
_symmetry_space_group_name_H-M   'P 1'
_cell_length_a   16.12310000
_cell_length_b   16.63220000
_cell_length_c   17.71730000
_cell_angle_alpha   89.56980000
_cell_angle_beta   89.49810000
_cell_angle_gamma   89.68730000
_symmetry_Int_Tables_number   1
_chemical_formula_structural   ZnH13C21N3O4
_chemical_formula_sum   'Zn2 H26 C42 N6 O8'
_cell_volume   4750.73238299
_cell_formula_units_Z   2
loop_
 _symmetry_equiv_pos_site_id
 _symmetry_equiv_pos_as_xyz
  1  'x, y, z'
loop_
 _atom_site_type_symbol
 _atom_site_label
 _atom_site_symmetry_multiplicity
 _atom_site_fract_x
 _atom_site_fract_y
 _atom_site_fract_z
 _atom_site_occupancy
  Zn  Zn0  1  0.49791000  0.41436000  0.50277000  1.0
  Zn  Zn1  1  0.49390000  0.58858000  0.49741000  1.0
  H  H2  1  0.40888000  0.29053000  0.43141000  1.0
  H  H3  1  0.53423000  0.62870000  0.87725000  1.0
  H  H4  1  0.53123000  0.36540000  0.26451000  1.0
  H  H5  1  0.51020000  0.63204000  0.73775000  1.0
  H  H6  1  0.52839000  0.62321000  0.26262000  1.0
  H  H7  1  0.49693000  0.37469000  0.73508000  1.0
  H  H8  1  0.54116000  0.62397000  0.12149000  1.0
  H  H9  1  0.52158000  0.36981000  0.87463000  1.0
  H  H10  1  0.60302000  0.12881000  0.58277000  1.0
  H  H11  1  0.39434000  0.87523000  0.41675000  1.0
  H  H12  1  0.98699000  0.57261000  0.67441000  1.0
  H  H13  1  0.58418000  0.71096000  0.57035000  1.0
  H  H14  1  0.89629000  0.52758000  0.66139000  1.0
  H  H15  1  0.00497000  0.42577000  0.32515000  1.0
  H  H16  1  0.09620000  0.46979000  0.33841000  1.0
  H  H17  1  0.66123000  0.25699000  0.61717000  1.0
  H  H18  1  0.62746000  0.34792000  0.57876000  1.0
  H  H19  1  0.36446000  0.65684000  0.42524000  1.0
  H  H20  1  0.33184000  0.74715000  0.38511000  1.0
  H  H21  1  0.40141000  0.14051000  0.42322000  1.0
  H  H22  1  0.59524000  0.86101000  0.57694000  1.0
  H  H23  1  0.04746000  0.40530000  0.59718000  1.0
  H  H24  1  0.94486000  0.59293000  0.40231000  1.0
  H  H25  1  0.05498000  0.63265000  0.52118000  1.0
  H  H26  1  0.93709000  0.36565000  0.47857000  1.0
  H  H27  1  0.54153000  0.36468000  0.12329000  1.0
  C  C28  1  0.48807000  0.50510000  0.64511000  1.0
  C  C29  1  0.51901000  0.42710000  0.84439000  1.0
  C  C30  1  0.54136000  0.49433000  0.11307000  1.0
  C  C31  1  0.52905000  0.49901000  0.88519000  1.0
  C  C32  1  0.54270000  0.49493000  0.03325000  1.0
  C  C33  1  0.53887000  0.49684000  0.96441000  1.0
  C  C34  1  0.55919000  0.16290000  0.54849000  1.0
  C  C35  1  0.43721000  0.84055000  0.45153000  1.0
  C  C36  1  0.56087000  0.24787000  0.54875000  1.0
  C  C37  1  0.43328000  0.75569000  0.45261000  1.0
  C  C38  1  0.45100000  0.25191000  0.46329000  1.0
  C  C39  1  0.51809000  0.49521000  0.35553000  1.0
  C  C40  1  0.54319000  0.75020000  0.53794000  1.0
  C  C41  1  0.44659000  0.16926000  0.45918000  1.0
  C  C42  1  0.54957000  0.83278000  0.54113000  1.0
  C  C43  1  0.65864000  0.51145000  0.51478000  1.0
  C  C44  1  0.33378000  0.49354000  0.48470000  1.0
  C  C45  1  0.50236000  0.12302000  0.50335000  1.0
  C  C46  1  0.49496000  0.87967000  0.49634000  1.0
  C  C47  1  0.50066000  0.03792000  0.50102000  1.0
  C  C48  1  0.49805000  0.96476000  0.49805000  1.0
  C  C49  1  0.02383000  0.44665000  0.55398000  1.0
  C  C50  1  0.53325000  0.42147000  0.23235000  1.0
  C  C51  1  0.96838000  0.55160000  0.44560000  1.0
  C  C52  1  0.97228000  0.52686000  0.56893000  1.0
  C  C53  1  0.01994000  0.47132000  0.43070000  1.0
  C  C54  1  0.74815000  0.50962000  0.51401000  1.0
  C  C55  1  0.24421000  0.49141000  0.48564000  1.0
  C  C56  1  0.96405000  0.42477000  0.48856000  1.0
  C  C57  1  0.02810000  0.57352000  0.51109000  1.0
  C  C58  1  0.91101000  0.50325000  0.50273000  1.0
  C  C59  1  0.08123000  0.49511000  0.49675000  1.0
  C  C60  1  0.82357000  0.50714000  0.50826000  1.0
  C  C61  1  0.51261000  0.57513000  0.76856000  1.0
  C  C62  1  0.16874000  0.49184000  0.49141000  1.0
  C  C63  1  0.53928000  0.42117000  0.15408000  1.0
  C  C64  1  0.52617000  0.57320000  0.84585000  1.0
  C  C65  1  0.52845000  0.49434000  0.27152000  1.0
  C  C66  1  0.50141000  0.50356000  0.72859000  1.0
  C  C67  1  0.53184000  0.56721000  0.23120000  1.0
  C  C68  1  0.50513000  0.42966000  0.76718000  1.0
  C  C69  1  0.53877000  0.56751000  0.15307000  1.0
  N  N70  1  0.50611000  0.29104000  0.50659000  1.0
  N  N71  1  0.48710000  0.71188000  0.49510000  1.0
  N  N72  1  0.94149000  0.56149000  0.63630000  1.0
  N  N73  1  0.05048000  0.43644000  0.36337000  1.0
  N  N74  1  0.61568000  0.28864000  0.59147000  1.0
  N  N75  1  0.37707000  0.71535000  0.41106000  1.0
  O  O76  1  0.47326000  0.43817000  0.61356000  1.0
  O  O77  1  0.50198000  0.56310000  0.38526000  1.0
  O  O78  1  0.49382000  0.57304000  0.61160000  1.0
  O  O79  1  0.52547000  0.42846000  0.39081000  1.0
  O  O80  1  0.62202000  0.44466000  0.52875000  1.0
  O  O81  1  0.36634000  0.56334000  0.49035000  1.0
  O  O82  1  0.62349000  0.57821000  0.50063000  1.0
  O  O83  1  0.37238000  0.42703000  0.47942000  1.0
