# generated using pymatgen
data_H8PbC12(BrN)2
_symmetry_space_group_name_H-M   'P 1'
_cell_length_a   8.19618000
_cell_length_b   9.49163000
_cell_length_c   9.49088000
_cell_angle_alpha   67.33810000
_cell_angle_beta   78.65500000
_cell_angle_gamma   78.65690000
_symmetry_Int_Tables_number   1
_chemical_formula_structural   H8PbC12(BrN)2
_chemical_formula_sum   'H16 Pb2 C24 Br4 N4'
_cell_volume   662.03671700
_cell_formula_units_Z   2
loop_
 _symmetry_equiv_pos_site_id
 _symmetry_equiv_pos_as_xyz
  1  'x, y, z'
loop_
 _atom_site_type_symbol
 _atom_site_label
 _atom_site_symmetry_multiplicity
 _atom_site_fract_x
 _atom_site_fract_y
 _atom_site_fract_z
 _atom_site_occupancy
  H  H0  1  0.93304000  0.33063000  0.99631000  1.0
  H  H1  1  0.56690000  0.00374000  0.66945000  1.0
  H  H2  1  0.06689000  0.66950000  0.00368000  1.0
  H  H3  1  0.43309000  0.99622000  0.33065000  1.0
  H  H4  1  0.80931000  0.60686000  0.87221000  1.0
  H  H5  1  0.69067000  0.12779000  0.39316000  1.0
  H  H6  1  0.19068000  0.39325000  0.12774000  1.0
  H  H7  1  0.30940000  0.87214000  0.60685000  1.0
  H  H8  1  0.93241000  0.75828000  0.60436000  1.0
  H  H9  1  0.56763000  0.39563000  0.24170000  1.0
  H  H10  1  0.06755000  0.24174000  0.39559000  1.0
  H  H11  1  0.43251000  0.60425000  0.75830000  1.0
  H  H12  1  0.13290000  0.76291000  0.37022000  1.0
  H  H13  1  0.36712000  0.62976000  0.23706000  1.0
  H  H14  1  0.86708000  0.23705000  0.62972000  1.0
  H  H15  1  0.63292000  0.37021000  0.76296000  1.0
  Pb  Pb16  1  0.24989000  0.05653000  0.94327000  1.0
  Pb  Pb17  1  0.74976000  0.94356000  0.05662000  1.0
  C  C18  1  0.98347000  0.40097000  0.88020000  1.0
  C  C19  1  0.51646000  0.11983000  0.59907000  1.0
  C  C20  1  0.01648000  0.59915000  0.11979000  1.0
  C  C21  1  0.48350000  0.88013000  0.40097000  1.0
  C  C22  1  0.91485000  0.55513000  0.81032000  1.0
  C  C23  1  0.58510000  0.18970000  0.44489000  1.0
  C  C24  1  0.08508000  0.44493000  0.18963000  1.0
  C  C25  1  0.41497000  0.81024000  0.55517000  1.0
  C  C26  1  0.98201000  0.63818000  0.66251000  1.0
  C  C27  1  0.51801000  0.33753000  0.36183000  1.0
  C  C28  1  0.01803000  0.36186000  0.33749000  1.0
  C  C29  1  0.48207000  0.66241000  0.63821000  1.0
  C  C30  1  0.11599000  0.56620000  0.58458000  1.0
  C  C31  1  0.38405000  0.41548000  0.43379000  1.0
  C  C32  1  0.88406000  0.43381000  0.41547000  1.0
  C  C33  1  0.61606000  0.58453000  0.56622000  1.0
  C  C34  1  0.18023000  0.41053000  0.66515000  1.0
  C  C35  1  0.31974000  0.33490000  0.58949000  1.0
  C  C36  1  0.81974000  0.58948000  0.33486000  1.0
  C  C37  1  0.68025000  0.66509000  0.41052000  1.0
  C  C38  1  0.18614000  0.64401000  0.42911000  1.0
  C  C39  1  0.31388000  0.57089000  0.35595000  1.0
  C  C40  1  0.81393000  0.35597000  0.57091000  1.0
  C  C41  1  0.68620000  0.42911000  0.64408000  1.0
  Br  Br42  1  0.46388000  0.22217000  0.03817000  1.0
  Br  Br43  1  0.03645000  0.96165000  0.77780000  1.0
  Br  Br44  1  0.53619000  0.77786000  0.96181000  1.0
  Br  Br45  1  0.96366000  0.03825000  0.22211000  1.0
  N  N46  1  0.11277000  0.33151000  0.81092000  1.0
  N  N47  1  0.38712000  0.18912000  0.66852000  1.0
  N  N48  1  0.88712000  0.66853000  0.18910000  1.0
  N  N49  1  0.61279000  0.81086000  0.33151000  1.0
