# generated using pymatgen
data_NiH15C19(NO2)2
_symmetry_space_group_name_H-M   'P 1'
_cell_length_a   8.99409000
_cell_length_b   9.71137000
_cell_length_c   10.62200000
_cell_angle_alpha   93.76710000
_cell_angle_beta   101.50800000
_cell_angle_gamma   112.06800000
_symmetry_Int_Tables_number   1
_chemical_formula_structural   NiH15C19(NO2)2
_chemical_formula_sum   'Ni2 H30 C38 N4 O8'
_cell_volume   832.35507261
_cell_formula_units_Z   2
loop_
 _symmetry_equiv_pos_site_id
 _symmetry_equiv_pos_as_xyz
  1  'x, y, z'
loop_
 _atom_site_type_symbol
 _atom_site_label
 _atom_site_symmetry_multiplicity
 _atom_site_fract_x
 _atom_site_fract_y
 _atom_site_fract_z
 _atom_site_occupancy
  Ni  Ni0  1  0.92637000  0.34731000  0.47929000  1.0
  Ni  Ni1  1  0.07363000  0.65269000  0.52071000  1.0
  H  H2  1  0.46674000  0.55194000  0.60199000  1.0
  H  H3  1  0.53326000  0.44805000  0.39801000  1.0
  H  H4  1  0.74922000  0.60935000  0.73360000  1.0
  H  H5  1  0.25078000  0.39064000  0.26639000  1.0
  H  H6  1  0.56233000  0.20632000  0.90320000  1.0
  H  H7  1  0.43767000  0.79370000  0.09681000  1.0
  H  H8  1  0.28226000  0.13981000  0.75589000  1.0
  H  H9  1  0.71773000  0.86019000  0.24412000  1.0
  H  H10  1  0.75075000  0.41128000  0.08849000  1.0
  H  H11  1  0.24925000  0.58872000  0.91151000  1.0
  H  H12  1  0.62895000  0.26288000  0.58510000  1.0
  H  H13  1  0.37105000  0.73711000  0.41490000  1.0
  H  H14  1  0.32656000  0.11273000  0.49741000  1.0
  H  H15  1  0.67344000  0.88726000  0.50259000  1.0
  H  H16  1  0.42348000  0.04181000  0.12367000  1.0
  H  H17  1  0.57652000  0.95819000  0.87633000  1.0
  H  H18  1  0.72422000  0.18997000  0.22615000  1.0
  H  H19  1  0.27578000  0.81004000  0.77384000  1.0
  H  H20  1  0.14231000  0.85577000  0.25718000  1.0
  H  H21  1  0.85769000  0.14423000  0.74282000  1.0
  H  H22  1  0.09588000  0.00754000  0.30753000  1.0
  H  H23  1  0.90412000  0.99246000  0.69247000  1.0
  H  H24  1  0.23751000  0.21422000  0.12704000  1.0
  H  H25  1  0.76249000  0.78578000  0.87296000  1.0
  H  H26  1  0.03061000  0.15620000  0.14567000  1.0
  H  H27  1  0.96939000  0.84381000  0.85433000  1.0
  H  H28  1  0.85583000  0.87699000  0.10475000  1.0
  H  H29  1  0.14417000  0.12300000  0.89525000  1.0
  H  H30  1  0.95020000  0.75408000  0.06408000  1.0
  H  H31  1  0.04980000  0.24592000  0.93592000  1.0
  C  C32  1  0.18582000  0.30231000  0.59135000  1.0
  C  C33  1  0.81418000  0.69769000  0.40865000  1.0
  C  C34  1  0.35682000  0.34343000  0.67308000  1.0
  C  C35  1  0.64318000  0.65658000  0.32692000  1.0
  C  C36  1  0.48868000  0.47587000  0.66708000  1.0
  C  C37  1  0.51133000  0.52413000  0.33291000  1.0
  C  C38  1  0.64667000  0.50835000  0.74207000  1.0
  C  C39  1  0.35333000  0.49165000  0.25792000  1.0
  C  C40  1  0.67449000  0.41349000  0.83006000  1.0
  C  C41  1  0.32551000  0.58651000  0.16994000  1.0
  C  C42  1  0.54120000  0.28179000  0.83682000  1.0
  C  C43  1  0.45880000  0.71822000  0.16318000  1.0
  C  C44  1  0.38509000  0.24512000  0.75641000  1.0
  C  C45  1  0.61491000  0.75488000  0.24360000  1.0
  C  C46  1  0.97459000  0.50378000  0.72487000  1.0
  C  C47  1  0.02541000  0.49621000  0.27513000  1.0
  C  C48  1  0.98378000  0.50647000  0.86746000  1.0
  C  C49  1  0.01622000  0.49353000  0.13254000  1.0
  C  C50  1  0.84030000  0.45341000  0.91522000  1.0
  C  C51  1  0.15970000  0.54659000  0.08477000  1.0
  C  C52  1  0.85968000  0.44675000  0.04852000  1.0
  C  C53  1  0.14032000  0.55325000  0.95148000  1.0
  C  C54  1  0.57933000  0.21156000  0.48353000  1.0
  C  C55  1  0.42067000  0.78844000  0.51647000  1.0
  C  C56  1  0.41083000  0.12783000  0.43365000  1.0
  C  C57  1  0.58918000  0.87217000  0.56634000  1.0
  C  C58  1  0.34914000  0.06530000  0.30204000  1.0
  C  C59  1  0.65086000  0.93469000  0.69796000  1.0
  C  C60  1  0.46520000  0.08843000  0.22679000  1.0
  C  C61  1  0.53480000  0.91157000  0.77321000  1.0
  C  C62  1  0.63193000  0.17140000  0.28270000  1.0
  C  C63  1  0.36807000  0.82860000  0.71730000  1.0
  C  C64  1  0.16729000  0.97418000  0.24661000  1.0
  C  C65  1  0.83271000  0.02582000  0.75339000  1.0
  C  C66  1  0.11113000  0.12864000  0.09007000  1.0
  C  C67  1  0.88887000  0.87136000  0.90993000  1.0
  C  C68  1  0.94690000  0.86464000  0.05294000  1.0
  C  C69  1  0.05310000  0.13536000  0.94706000  1.0
  N  N70  1  0.69021000  0.23532000  0.40945000  1.0
  N  N71  1  0.30979000  0.76469000  0.59055000  1.0
  N  N72  1  0.11202000  0.98105000  0.10901000  1.0
  N  N73  1  0.88798000  0.01895000  0.89099000  1.0
  O  O74  1  0.15824000  0.41574000  0.54697000  1.0
  O  O75  1  0.84176000  0.58426000  0.45304000  1.0
  O  O76  1  0.08068000  0.17085000  0.57107000  1.0
  O  O77  1  0.91931000  0.82915000  0.42894000  1.0
  O  O78  1  0.04166000  0.63212000  0.69053000  1.0
  O  O79  1  0.95835000  0.36788000  0.30947000  1.0
  O  O80  1  0.90660000  0.37404000  0.65475000  1.0
  O  O81  1  0.09339000  0.62595000  0.34525000  1.0
