# generated using pymatgen
data_CuH20C22(NO3)4
_symmetry_space_group_name_H-M   'P 1'
_cell_length_a   7.46537000
_cell_length_b   8.71665000
_cell_length_c   11.18050000
_cell_angle_alpha   70.35050000
_cell_angle_beta   78.97770000
_cell_angle_gamma   80.00520000
_symmetry_Int_Tables_number   1
_chemical_formula_structural   CuH20C22(NO3)4
_chemical_formula_sum   'Cu1 H20 C22 N4 O12'
_cell_volume   667.82704063
_cell_formula_units_Z   1
loop_
 _symmetry_equiv_pos_site_id
 _symmetry_equiv_pos_as_xyz
  1  'x, y, z'
loop_
 _atom_site_type_symbol
 _atom_site_label
 _atom_site_symmetry_multiplicity
 _atom_site_fract_x
 _atom_site_fract_y
 _atom_site_fract_z
 _atom_site_occupancy
  Cu  Cu0  1  0.00000000  0.00000000  0.50000000  1.0
  H  H1  1  0.75518000  0.16500000  0.67474000  1.0
  H  H2  1  0.24482000  0.83500000  0.32526000  1.0
  H  H3  1  0.95368000  0.23243000  0.80384000  1.0
  H  H4  1  0.04631000  0.76757000  0.19616000  1.0
  H  H5  1  0.86285000  0.60705000  0.26888000  1.0
  H  H6  1  0.13716000  0.39295000  0.73112000  1.0
  H  H7  1  0.67633000  0.67843000  0.45634000  1.0
  H  H8  1  0.32368000  0.32157000  0.54367000  1.0
  H  H9  1  0.00643000  0.31787000  0.29673000  1.0
  H  H10  1  0.99358000  0.68212000  0.70327000  1.0
  H  H11  1  0.43460000  0.62005000  0.77610000  1.0
  H  H12  1  0.56540000  0.37994000  0.22391000  1.0
  H  H13  1  0.59534000  0.70133000  0.64205000  1.0
  H  H14  1  0.40466000  0.29867000  0.35796000  1.0
  H  H15  1  0.41346000  0.02859000  0.39380000  1.0
  H  H16  1  0.58653000  0.97142000  0.60620000  1.0
  H  H17  1  0.31972000  0.04605000  0.53070000  1.0
  H  H18  1  0.68026000  0.95395000  0.46930000  1.0
  H  H19  1  0.23142000  0.46383000  0.08119000  1.0
  H  H20  1  0.76862000  0.53618000  0.91882000  1.0
  C  C21  1  0.08410000  0.84715000  0.99045000  1.0
  C  C22  1  0.91589000  0.15285000  0.00954000  1.0
  C  C23  1  0.06329000  0.97950000  0.87739000  1.0
  C  C24  1  0.93670000  0.02051000  0.12261000  1.0
  C  C25  1  0.57970000  0.44680000  0.70030000  1.0
  C  C26  1  0.42030000  0.55319000  0.29970000  1.0
  C  C27  1  0.78251000  0.26666000  0.58736000  1.0
  C  C28  1  0.21749000  0.73333000  0.41265000  1.0
  C  C29  1  0.70531000  0.42597000  0.58273000  1.0
  C  C30  1  0.29470000  0.57402000  0.41727000  1.0
  C  C31  1  0.97679000  0.12979000  0.88955000  1.0
  C  C32  1  0.02320000  0.87021000  0.11044000  1.0
  C  C33  1  0.84473000  0.51431000  0.36228000  1.0
  C  C34  1  0.15528000  0.48569000  0.63772000  1.0
  C  C35  1  0.16404000  0.68274000  0.98196000  1.0
  C  C36  1  0.83597000  0.31727000  0.01804000  1.0
  C  C37  1  0.12630000  0.97333000  0.74163000  1.0
  C  C38  1  0.87369000  0.02668000  0.25837000  1.0
  C  C39  1  0.73779000  0.55246000  0.46718000  1.0
  C  C40  1  0.26221000  0.44754000  0.53282000  1.0
  C  C41  1  0.92186000  0.35352000  0.37577000  1.0
  C  C42  1  0.07814000  0.64647000  0.62423000  1.0
  N  N43  1  0.89102000  0.23153000  0.48701000  1.0
  N  N44  1  0.10898000  0.76847000  0.51299000  1.0
  N  N45  1  0.53729000  0.60110000  0.70606000  1.0
  N  N46  1  0.46272000  0.39889000  0.29395000  1.0
  O  O47  1  0.17112000  0.56569000  0.09730000  1.0
  O  O48  1  0.82890000  0.43432000  0.90269000  1.0
  O  O49  1  0.99696000  0.95384000  0.68913000  1.0
  O  O50  1  0.00303000  0.04615000  0.31087000  1.0
  O  O51  1  0.51778000  0.32508000  0.78356000  1.0
  O  O52  1  0.48224000  0.67491000  0.21644000  1.0
  O  O53  1  0.31932000  0.09434000  0.43535000  1.0
  O  O54  1  0.68067000  0.90567000  0.56464000  1.0
  O  O55  1  0.21535000  0.65182000  0.88053000  1.0
  O  O56  1  0.78464000  0.34818000  0.11947000  1.0
  O  O57  1  0.28698000  0.00155000  0.68922000  1.0
  O  O58  1  0.71300000  0.99846000  0.31077000  1.0
