# generated using pymatgen
data_ZnH11C9N3O4
_symmetry_space_group_name_H-M   'P 1'
_cell_length_a   5.08677000
_cell_length_b   11.18884135
_cell_length_c   11.54570000
_cell_angle_alpha   79.96705393
_cell_angle_beta   85.91670000
_cell_angle_gamma   79.38262919
_symmetry_Int_Tables_number   1
_chemical_formula_structural   ZnH11C9N3O4
_chemical_formula_sum   'Zn2 H22 C18 N6 O8'
_cell_volume   635.47767615
_cell_formula_units_Z   2
loop_
 _symmetry_equiv_pos_site_id
 _symmetry_equiv_pos_as_xyz
  1  'x, y, z'
loop_
 _atom_site_type_symbol
 _atom_site_label
 _atom_site_symmetry_multiplicity
 _atom_site_fract_x
 _atom_site_fract_y
 _atom_site_fract_z
 _atom_site_occupancy
  Zn  Zn0  1  0.10976000  0.73747000  0.15421000  1.0
  Zn  Zn1  1  0.89022000  0.26253000  0.84579000  1.0
  H  H2  1  0.42563000  0.70707000  0.97192000  1.0
  H  H3  1  0.57437000  0.29292000  0.02809000  1.0
  H  H4  1  0.58058000  0.64363000  0.09725000  1.0
  H  H5  1  0.41942000  0.35636000  0.90275000  1.0
  H  H6  1  0.78223000  0.84695000  0.98590000  1.0
  H  H7  1  0.21777000  0.15305000  0.01410000  1.0
  H  H8  1  0.64889000  0.86704000  0.11893000  1.0
  H  H9  1  0.35111000  0.13296000  0.88106000  1.0
  H  H10  1  0.65139000  0.58826000  0.53918000  1.0
  H  H11  1  0.34863000  0.41174000  0.46082000  1.0
  H  H12  1  0.83813000  0.72353000  0.65253000  1.0
  H  H13  1  0.16191000  0.27646000  0.34748000  1.0
  H  H14  1  0.15408000  0.86172000  0.54981000  1.0
  H  H15  1  0.84594000  0.13828000  0.45019000  1.0
  H  H16  1  0.19505000  0.53206000  0.98921000  1.0
  H  H17  1  0.80494000  0.46793000  0.01079000  1.0
  H  H18  1  0.36251000  0.47349000  0.12306000  1.0
  H  H19  1  0.63748000  0.52651000  0.87695000  1.0
  H  H20  1  0.92135000  0.01831000  0.12765000  1.0
  H  H21  1  0.07865000  0.98170000  0.87234000  1.0
  H  H22  1  0.70687000  0.06131000  0.00555000  1.0
  H  H23  1  0.29314000  0.93869000  0.99444000  1.0
  C  C24  1  0.32457000  0.87727000  0.31055000  1.0
  C  C25  1  0.67545000  0.12273000  0.68945000  1.0
  C  C26  1  0.13805000  0.79929000  0.38510000  1.0
  C  C27  1  0.86194000  0.20072000  0.61488000  1.0
  C  C28  1  0.86465000  0.65256000  0.37840000  1.0
  C  C29  1  0.13534000  0.34744000  0.62160000  1.0
  C  C30  1  0.78964000  0.64826000  0.49746000  1.0
  C  C31  1  0.21038000  0.35174000  0.50256000  1.0
  C  C32  1  0.89545000  0.72396000  0.55970000  1.0
  C  C33  1  0.10458000  0.27604000  0.44029000  1.0
  C  C34  1  0.07073000  0.80076000  0.50418000  1.0
  C  C35  1  0.92928000  0.19924000  0.49582000  1.0
  C  C36  1  0.75840000  0.58282000  0.29504000  1.0
  C  C37  1  0.24160000  0.41718000  0.70496000  1.0
  C  C38  1  0.37916000  0.52841000  0.03487000  1.0
  C  C39  1  0.62083000  0.47158000  0.96514000  1.0
  C  C40  1  0.88042000  0.99553000  0.04259000  1.0
  C  C41  1  0.11958000  0.00447000  0.95741000  1.0
  N  N42  1  0.03447000  0.72617000  0.32733000  1.0
  N  N43  1  0.96552000  0.27384000  0.67267000  1.0
  N  N44  1  0.40373000  0.65354000  0.05230000  1.0
  N  N45  1  0.59626000  0.34645000  0.94770000  1.0
  N  N46  1  0.82308000  0.86905000  0.06427000  1.0
  N  N47  1  0.17690000  0.13096000  0.93572000  1.0
  O  O48  1  0.35588000  0.86046000  0.20053000  1.0
  O  O49  1  0.64412000  0.13954000  0.79946000  1.0
  O  O50  1  0.85532000  0.60077000  0.18676000  1.0
  O  O51  1  0.14467000  0.39923000  0.81324000  1.0
  O  O52  1  0.43057000  0.94865000  0.35488000  1.0
  O  O53  1  0.56942000  0.05135000  0.64511000  1.0
  O  O54  1  0.58611000  0.51795000  0.33061000  1.0
  O  O55  1  0.41390000  0.48205000  0.66940000  1.0
