# generated using pymatgen
data_Zn2H26C29(N3O5)2
_symmetry_space_group_name_H-M   'P 1'
_cell_length_a   8.14277000
_cell_length_b   15.26460000
_cell_length_c   18.32830000
_cell_angle_alpha   113.42800000
_cell_angle_beta   90.00000000
_cell_angle_gamma   105.46900000
_symmetry_Int_Tables_number   1
_chemical_formula_structural   Zn2H26C29(N3O5)2
_chemical_formula_sum   'Zn4 H52 C58 N12 O20'
_cell_volume   2000.06807234
_cell_formula_units_Z   2
loop_
 _symmetry_equiv_pos_site_id
 _symmetry_equiv_pos_as_xyz
  1  'x, y, z'
loop_
 _atom_site_type_symbol
 _atom_site_label
 _atom_site_symmetry_multiplicity
 _atom_site_fract_x
 _atom_site_fract_y
 _atom_site_fract_z
 _atom_site_occupancy
  Zn  Zn0  1  0.49241000  0.38830000  0.88694000  1.0
  Zn  Zn1  1  0.10487000  0.61166000  0.61306000  1.0
  Zn  Zn2  1  0.50762000  0.61172000  0.11308000  1.0
  Zn  Zn3  1  0.89512000  0.38832000  0.38696000  1.0
  H  H4  1  0.23226000  0.42287000  0.67702000  1.0
  H  H5  1  0.80959000  0.57713000  0.82277000  1.0
  H  H6  1  0.76776000  0.57713000  0.32297000  1.0
  H  H7  1  0.19043000  0.42287000  0.17726000  1.0
  H  H8  1  0.76956000  0.07716000  0.85798000  1.0
  H  H9  1  0.69291000  0.92267000  0.64163000  1.0
  H  H10  1  0.23040000  0.92282000  0.14198000  1.0
  H  H11  1  0.30705000  0.07734000  0.35836000  1.0
  H  H12  1  0.98423000  0.14748000  0.89882000  1.0
  H  H13  1  0.83730000  0.85232000  0.60103000  1.0
  H  H14  1  0.01573000  0.85248000  0.10117000  1.0
  H  H15  1  0.16265000  0.14767000  0.39895000  1.0
  H  H16  1  0.50316000  0.09043000  0.79024000  1.0
  H  H17  1  0.41328000  0.90939000  0.70992000  1.0
  H  H18  1  0.49679000  0.90959000  0.20977000  1.0
  H  H19  1  0.58675000  0.09063000  0.29010000  1.0
  H  H20  1  0.40418000  0.17623000  0.85538000  1.0
  H  H21  1  0.22864000  0.82370000  0.64464000  1.0
  H  H22  1  0.59583000  0.82381000  0.14467000  1.0
  H  H23  1  0.77134000  0.17630000  0.35540000  1.0
  H  H24  1  0.51518000  0.11411000  0.89379000  1.0
  H  H25  1  0.40182000  0.88597000  0.60641000  1.0
  H  H26  1  0.48484000  0.88590000  0.10623000  1.0
  H  H27  1  0.59811000  0.11402000  0.39361000  1.0
  H  H28  1  0.08486000  0.01105000  0.80048000  1.0
  H  H29  1  0.07379000  0.98965000  0.69913000  1.0
  H  H30  1  0.91511000  0.98893000  0.19950000  1.0
  H  H31  1  0.92624000  0.01034000  0.30086000  1.0
  H  H32  1  0.92953000  0.17757000  0.46620000  1.0
  H  H33  1  0.75259000  0.82224000  0.03385000  1.0
  H  H34  1  0.07052000  0.82239000  0.53379000  1.0
  H  H35  1  0.24733000  0.17778000  0.96613000  1.0
  H  H36  1  0.16748000  0.12158000  0.64732000  1.0
  H  H37  1  0.04577000  0.87855000  0.85267000  1.0
  H  H38  1  0.83264000  0.87844000  0.35269000  1.0
  H  H39  1  0.95413000  0.12144000  0.14731000  1.0
  H  H40  1  0.08974000  0.32678000  0.89188000  1.0
  H  H41  1  0.76366000  0.67316000  0.60798000  1.0
  H  H42  1  0.91028000  0.67318000  0.10810000  1.0
  H  H43  1  0.23632000  0.32686000  0.39202000  1.0
  H  H44  1  0.89740000  0.45801000  0.90586000  1.0
  H  H45  1  0.44008000  0.54183000  0.59378000  1.0
  H  H46  1  0.10267000  0.54199000  0.09414000  1.0
  H  H47  1  0.55993000  0.45818000  0.40624000  1.0
  H  H48  1  0.84124000  0.08371000  0.72448000  1.0
  H  H49  1  0.75818000  0.91674000  0.77539000  1.0
  H  H50  1  0.15879000  0.91628000  0.27550000  1.0
  H  H51  1  0.24183000  0.08325000  0.22460000  1.0
  H  H52  1  0.05338000  0.15436000  0.76913000  1.0
  H  H53  1  0.90010000  0.84629000  0.73096000  1.0
  H  H54  1  0.94664000  0.84563000  0.23087000  1.0
  H  H55  1  0.09989000  0.15370000  0.26902000  1.0
  C  C56  1  0.06066000  0.37909000  0.53223000  1.0
  C  C57  1  0.68184000  0.62074000  0.96759000  1.0
  C  C58  1  0.93933000  0.62089000  0.46778000  1.0
  C  C59  1  0.31818000  0.37926000  0.03241000  1.0
  C  C60  1  0.04241000  0.13845000  0.55121000  1.0
  C  C61  1  0.90408000  0.86152000  0.94877000  1.0
  C  C62  1  0.95770000  0.86154000  0.44878000  1.0
  C  C63  1  0.09582000  0.13849000  0.05121000  1.0
  C  C64  1  0.17936000  0.34293000  0.64154000  1.0
  C  C65  1  0.83666000  0.65704000  0.85832000  1.0
  C  C66  1  0.82064000  0.65705000  0.35846000  1.0
  C  C67  1  0.16332000  0.34295000  0.14170000  1.0
  C  C68  1  0.08407000  0.30772000  0.56649000  1.0
  C  C69  1  0.77670000  0.69218000  0.93340000  1.0
  C  C70  1  0.91594000  0.69227000  0.43351000  1.0
  C  C71  1  0.22329000  0.30784000  0.06661000  1.0
  C  C72  1  0.88176000  0.13206000  0.85257000  1.0
  C  C73  1  0.75029000  0.86793000  0.64726000  1.0
  C  C74  1  0.11823000  0.86792000  0.14741000  1.0
  C  C75  1  0.24968000  0.13207000  0.35273000  1.0
  C  C76  1  0.51602000  0.14860000  0.85125000  1.0
  C  C77  1  0.36807000  0.85136000  0.64885000  1.0
  C  C78  1  0.48398000  0.85142000  0.14877000  1.0
  C  C79  1  0.63190000  0.14865000  0.35117000  1.0
  C  C80  1  0.20599000  0.27529000  0.67082000  1.0
  C  C81  1  0.93096000  0.72477000  0.82910000  1.0
  C  C82  1  0.79406000  0.72472000  0.32919000  1.0
  C  C83  1  0.06900000  0.27523000  0.17089000  1.0
  C  C84  1  0.67436000  0.23247000  0.86742000  1.0
  C  C85  1  0.44258000  0.76745000  0.63254000  1.0
  C  C86  1  0.32567000  0.76754000  0.13257000  1.0
  C  C87  1  0.55740000  0.23255000  0.36747000  1.0
  C  C88  1  0.99694000  0.00028000  0.74986000  1.0
  C  C89  1  0.00307000  0.99971000  0.25012000  1.0
  C  C90  1  0.01091000  0.20510000  0.52236000  1.0
  C  C91  1  0.80623000  0.79479000  0.97763000  1.0
  C  C92  1  0.98915000  0.79489000  0.47763000  1.0
  C  C93  1  0.19370000  0.20522000  0.02236000  1.0
  C  C94  1  0.14050000  0.17249000  0.62455000  1.0
  C  C95  1  0.96805000  0.82756000  0.87539000  1.0
  C  C96  1  0.85960000  0.82753000  0.37545000  1.0
  C  C97  1  0.03187000  0.17245000  0.12460000  1.0
  C  C98  1  0.95256000  0.31594000  0.88672000  1.0
  C  C99  1  0.63730000  0.68400000  0.61314000  1.0
  C  C100  1  0.04747000  0.68404000  0.11326000  1.0
  C  C101  1  0.36268000  0.31601000  0.38686000  1.0
  C  C102  1  0.85671000  0.37935000  0.89322000  1.0
  C  C103  1  0.47805000  0.62055000  0.60652000  1.0
  C  C104  1  0.14334000  0.62065000  0.10677000  1.0
  C  C105  1  0.52194000  0.37946000  0.39350000  1.0
  C  C106  1  0.94283000  0.09504000  0.76985000  1.0
  C  C107  1  0.84850000  0.90539000  0.73003000  1.0
  C  C108  1  0.05717000  0.90496000  0.23013000  1.0
  C  C109  1  0.15150000  0.09461000  0.26995000  1.0
  C  C110  1  0.30352000  0.30655000  0.75107000  1.0
  C  C111  1  0.99755000  0.69358000  0.74891000  1.0
  C  C112  1  0.69652000  0.69346000  0.24894000  1.0
  C  C113  1  0.00242000  0.30640000  0.25110000  1.0
  N  N114  1  0.83621000  0.22404000  0.87082000  1.0
  N  N115  1  0.61285000  0.77593000  0.62917000  1.0
  N  N116  1  0.16378000  0.77595000  0.12916000  1.0
  N  N117  1  0.38712000  0.22408000  0.37083000  1.0
  N  N118  1  0.68444000  0.32696000  0.88107000  1.0
  N  N119  1  0.35818000  0.67292000  0.61874000  1.0
  N  N120  1  0.31559000  0.67305000  0.11894000  1.0
  N  N121  1  0.64180000  0.32709000  0.38129000  1.0
  N  N122  1  0.95698000  0.03353000  0.50397000  1.0
  N  N123  1  0.92338000  0.96642000  0.99599000  1.0
  N  N124  1  0.04313000  0.96646000  0.49603000  1.0
  N  N125  1  0.07651000  0.03360000  0.00397000  1.0
  O  O126  1  0.32239000  0.23959000  0.77142000  1.0
  O  O127  1  0.08374000  0.76061000  0.72873000  1.0
  O  O128  1  0.67764000  0.76044000  0.22859000  1.0
  O  O129  1  0.91621000  0.23937000  0.27127000  1.0
  O  O130  1  0.36445000  0.40018000  0.79727000  1.0
  O  O131  1  0.96475000  0.59996000  0.70263000  1.0
  O  O132  1  0.63561000  0.59984000  0.20274000  1.0
  O  O133  1  0.03526000  0.40003000  0.29740000  1.0
  O  O134  1  0.80523000  0.00787000  0.46951000  1.0
  O  O135  1  0.79718000  0.99201000  0.03043000  1.0
  O  O136  1  0.19488000  0.99212000  0.53050000  1.0
  O  O137  1  0.20267000  0.00802000  0.96952000  1.0
  O  O138  1  0.98658000  0.33998000  0.46042000  1.0
  O  O139  1  0.64739000  0.65983000  0.03953000  1.0
  O  O140  1  0.01341000  0.65999000  0.53958000  1.0
  O  O141  1  0.35263000  0.34022000  0.96051000  1.0
  O  O142  1  0.12052000  0.47115000  0.57576000  1.0
  O  O143  1  0.64893000  0.52871000  0.92390000  1.0
  O  O144  1  0.87946000  0.52882000  0.42423000  1.0
  O  O145  1  0.35109000  0.47133000  0.07613000  1.0
