# generated using pymatgen
data_Al4H12C36N3ClO26
_symmetry_space_group_name_H-M   'P 1'
_cell_length_a   6.77842000
_cell_length_b   16.64580000
_cell_length_c   18.40770000
_cell_angle_alpha   106.56500000
_cell_angle_beta   89.77730000
_cell_angle_gamma   89.87440000
_symmetry_Int_Tables_number   1
_chemical_formula_structural   Al4H12C36N3ClO26
_chemical_formula_sum   'Al4 H12 C36 N3 Cl1 O26'
_cell_volume   1990.75373043
_cell_formula_units_Z   1
loop_
 _symmetry_equiv_pos_site_id
 _symmetry_equiv_pos_as_xyz
  1  'x, y, z'
loop_
 _atom_site_type_symbol
 _atom_site_label
 _atom_site_symmetry_multiplicity
 _atom_site_fract_x
 _atom_site_fract_y
 _atom_site_fract_z
 _atom_site_occupancy
  Al  Al0  1  0.12504000  0.49973000  0.49839000  1.0
  Al  Al1  1  0.62400000  0.49842000  0.49801000  1.0
  Al  Al2  1  0.65464000  0.99967000  0.99981000  1.0
  Al  Al3  1  0.15510000  0.99907000  0.00123000  1.0
  H  H4  1  0.99107000  0.79453000  0.63925000  1.0
  H  H5  1  0.66724000  0.86311000  0.73966000  1.0
  H  H6  1  0.22479000  0.80437000  0.76880000  1.0
  H  H7  1  0.58419000  0.21637000  0.34888000  1.0
  H  H8  1  0.73475000  0.22412000  0.20633000  1.0
  H  H9  1  0.52036000  0.37738000  0.22484000  1.0
  H  H10  1  0.19252000  0.28109000  0.14962000  1.0
  H  H11  1  0.04560000  0.27476000  0.29387000  1.0
  H  H12  1  0.37552000  0.60281000  0.55035000  1.0
  H  H13  1  0.87667000  0.39888000  0.50945000  1.0
  H  H14  1  0.40717000  0.89534000  0.00243000  1.0
  H  H15  1  0.90602000  0.10463000  0.99998000  1.0
  C  C16  1  0.37739000  0.38599000  0.38419000  1.0
  C  C17  1  0.37131000  0.41268000  0.58466000  1.0
  C  C18  1  0.86879000  0.61387000  0.61293000  1.0
  C  C19  1  0.87677000  0.58249000  0.41162000  1.0
  C  C20  1  0.87607000  0.63189000  0.35898000  1.0
  C  C21  1  0.88017000  0.67590000  0.31568000  1.0
  C  C22  1  0.88533000  0.72448000  0.26878000  1.0
  C  C23  1  0.89073000  0.76960000  0.22601000  1.0
  C  C24  1  0.89583000  0.81834000  0.17928000  1.0
  C  C25  1  0.89976000  0.86259000  0.13627000  1.0
  C  C26  1  0.77015000  0.81387000  0.74342000  1.0
  C  C27  1  0.94519000  0.77571000  0.68893000  1.0
  C  C28  1  0.87172000  0.68460000  0.68421000  1.0
  C  C29  1  0.70155000  0.72303000  0.74076000  1.0
  C  C30  1  0.83143000  0.72664000  0.81026000  1.0
  C  C31  1  0.00544000  0.68612000  0.75452000  1.0
  C  C32  1  0.07776000  0.77817000  0.75876000  1.0
  C  C33  1  0.90354000  0.81634000  0.81345000  1.0
  C  C34  1  0.50064000  0.23216000  0.30409000  1.0
  C  C35  1  0.31636000  0.18193000  0.26325000  1.0
  C  C36  1  0.40219000  0.18529000  0.18492000  1.0
  C  C37  1  0.58231000  0.23679000  0.22585000  1.0
  C  C38  1  0.46346000  0.32008000  0.23489000  1.0
  C  C39  1  0.28068000  0.26882000  0.19496000  1.0
  C  C40  1  0.19765000  0.26436000  0.27338000  1.0
  C  C41  1  0.37924000  0.31524000  0.31374000  1.0
  C  C42  1  0.37253000  0.36393000  0.63793000  1.0
  C  C43  1  0.37660000  0.32041000  0.68159000  1.0
  C  C44  1  0.38201000  0.27239000  0.72893000  1.0
  C  C45  1  0.38803000  0.22788000  0.77219000  1.0
  C  C46  1  0.39449000  0.17970000  0.81938000  1.0
  C  C47  1  0.40029000  0.13577000  0.86269000  1.0
  C  C48  1  0.40355000  0.08528000  0.91444000  1.0
  C  C49  1  0.40388000  0.11403000  0.11450000  1.0
  C  C50  1  0.90261000  0.91319000  0.08478000  1.0
  C  C51  1  0.90728000  0.88688000  0.88498000  1.0
  N  N52  1  0.49277000  0.70621000  0.74146000  1.0
  N  N53  1  0.78132000  0.69450000  0.87440000  1.0
  N  N54  1  0.24620000  0.10609000  0.28086000  1.0
  Cl  Cl55  1  0.11744000  0.59565000  0.76211000  1.0
  O  O56  1  0.54008000  0.42809000  0.56097000  1.0
  O  O57  1  0.21041000  0.41169000  0.41343000  1.0
  O  O58  1  0.04557000  0.56096000  0.42986000  1.0
  O  O59  1  0.20223000  0.43406000  0.56631000  1.0
  O  O60  1  0.03732000  0.59180000  0.58329000  1.0
  O  O61  1  0.54563000  0.41443000  0.40966000  1.0
  O  O62  1  0.37456000  0.55011000  0.51019000  1.0
  O  O63  1  0.70194000  0.58395000  0.58853000  1.0
  O  O64  1  0.70938000  0.56622000  0.43562000  1.0
  O  O65  1  0.87546000  0.44939000  0.49311000  1.0
  O  O66  1  0.23494000  0.08744000  0.08823000  1.0
  O  O67  1  0.57292000  0.06602000  0.93415000  1.0
  O  O68  1  0.73808000  0.91416000  0.91059000  1.0
  O  O69  1  0.57176000  0.08862000  0.08598000  1.0
  O  O70  1  0.73532000  0.93336000  0.06386000  1.0
  O  O71  1  0.23595000  0.06564000  0.93567000  1.0
  O  O72  1  0.40548000  0.94958000  0.99256000  1.0
  O  O73  1  0.07185000  0.93255000  0.06470000  1.0
  O  O74  1  0.07528000  0.91152000  0.91236000  1.0
  O  O75  1  0.90497000  0.04922000  0.00719000  1.0
  O  O76  1  0.42113000  0.71740000  0.80574000  1.0
  O  O77  1  0.40051000  0.68984000  0.68096000  1.0
  O  O78  1  0.71491000  0.62247000  0.85747000  1.0
  O  O79  1  0.81927000  0.73952000  0.93885000  1.0
  O  O80  1  0.11460000  0.11564000  0.32970000  1.0
  O  O81  1  0.32845000  0.03916000  0.24758000  1.0
