# generated using pymatgen
data_Zn2H23C42N11O6
_symmetry_space_group_name_H-M   'P 1'
_cell_length_a   19.07040000
_cell_length_b   19.99310000
_cell_length_c   20.49577337
_cell_angle_alpha   105.86095950
_cell_angle_beta   104.73085209
_cell_angle_gamma   113.19900000
_symmetry_Int_Tables_number   1
_chemical_formula_structural   Zn2H23C42N11O6
_chemical_formula_sum   'Zn4 H46 C84 N22 O12'
_cell_volume   6303.77292452
_cell_formula_units_Z   2
loop_
 _symmetry_equiv_pos_site_id
 _symmetry_equiv_pos_as_xyz
  1  'x, y, z'
loop_
 _atom_site_type_symbol
 _atom_site_label
 _atom_site_symmetry_multiplicity
 _atom_site_fract_x
 _atom_site_fract_y
 _atom_site_fract_z
 _atom_site_occupancy
  Zn  Zn0  1  0.36404000  0.37963000  0.47580000  1.0
  Zn  Zn1  1  0.60518000  0.63650000  0.51489000  1.0
  Zn  Zn2  1  0.38785000  0.54000000  0.39050000  1.0
  Zn  Zn3  1  0.58348000  0.50375000  0.58557000  1.0
  H  H4  1  0.81925000  0.71712000  0.55748000  1.0
  H  H5  1  0.63676000  0.50316000  0.39169000  1.0
  H  H6  1  0.37736000  0.22139000  0.46348000  1.0
  H  H7  1  0.74065000  0.48659000  0.56794000  1.0
  H  H8  1  0.32028000  0.30863000  0.21076000  1.0
  H  H9  1  0.31546000  0.31492000  0.59994000  1.0
  H  H10  1  0.63531000  0.81291000  0.58033000  1.0
  H  H11  1  0.24794000  0.56185000  0.42535000  1.0
  H  H12  1  0.74935000  0.62794000  0.74063000  1.0
  H  H13  1  0.70408000  0.79051000  0.65740000  1.0
  H  H14  1  0.34506000  0.49869000  0.59927000  1.0
  H  H15  1  0.57291000  0.50431000  0.73389000  1.0
  H  H16  1  0.37098000  0.69589000  0.44509000  1.0
  H  H17  1  0.36645000  0.80434000  0.51112000  1.0
  H  H18  1  0.63611000  0.93526000  0.62317000  1.0
  H  H19  1  0.71284000  0.20935000  0.69167000  1.0
  H  H20  1  0.63895000  0.27064000  0.63364000  1.0
  H  H21  1  0.36949000  0.14088000  0.52279000  1.0
  H  H22  1  0.28875000  0.00338000  0.51312000  1.0
  H  H23  1  0.28739000  0.87814000  0.50887000  1.0
  H  H24  1  0.27216000  0.67962000  0.53519000  1.0
  H  H25  1  0.20870000  0.49832000  0.61914000  1.0
  H  H26  1  0.10829000  0.48132000  0.67874000  1.0
  H  H27  1  0.98632000  0.49396000  0.68591000  1.0
  H  H28  1  0.88415000  0.53739000  0.64372000  1.0
  H  H29  1  0.94547000  0.71693000  0.55728000  1.0
  H  H30  1  0.56059000  0.36583000  0.75973000  1.0
  H  H31  1  0.50969000  0.51960000  0.18575000  1.0
  H  H32  1  0.56593000  0.35129000  0.24793000  1.0
  H  H33  1  0.58046000  0.32114000  0.00289000  1.0
  H  H34  1  0.34951000  0.32917000  0.86495000  1.0
  H  H35  1  0.51635000  0.46586000  0.06598000  1.0
  H  H36  1  0.43203000  0.35023000  0.96848000  1.0
  H  H37  1  0.57274000  0.29726000  0.12701000  1.0
  H  H38  1  0.33042000  0.21097000  0.14987000  1.0
  H  H39  1  0.88341000  0.70439000  0.77721000  1.0
  H  H40  1  0.14358000  0.02049000  0.92506000  1.0
  H  H41  1  0.11695000  0.94415000  0.10950000  1.0
  H  H42  1  0.03076000  0.79633000  0.86071000  1.0
  H  H43  1  0.17447000  0.06012000  0.22866000  1.0
  H  H44  1  0.08945000  0.89024000  0.98330000  1.0
  H  H45  1  0.27068000  0.09674000  0.03063000  1.0
  H  H46  1  0.71177000  0.08420000  0.68753000  1.0
  H  H47  1  0.08493000  0.77990000  0.55314000  1.0
  H  H48  1  0.20612000  0.76635000  0.54496000  1.0
  H  H49  1  0.63776000  0.38112000  0.61142000  1.0
  C  C50  1  0.27659000  0.24123000  0.33118000  1.0
  C  C51  1  0.78672000  0.65813000  0.55643000  1.0
  C  C52  1  0.45913000  0.48557000  0.29826000  1.0
  C  C53  1  0.57339000  0.35166000  0.57137000  1.0
  C  C54  1  0.57720000  0.50002000  0.36796000  1.0
  C  C55  1  0.44056000  0.27132000  0.49545000  1.0
  C  C56  1  0.74647000  0.54103000  0.56284000  1.0
  C  C57  1  0.31164000  0.29577000  0.25717000  1.0
  C  C58  1  0.27747000  0.21997000  0.25921000  1.0
  C  C59  1  0.81828000  0.60990000  0.57493000  1.0
  C  C60  1  0.52428000  0.46972000  0.29290000  1.0
  C  C61  1  0.50687000  0.27486000  0.54875000  1.0
  C  C62  1  0.37830000  0.36580000  0.62348000  1.0
  C  C63  1  0.57028000  0.77188000  0.54224000  1.0
  C  C64  1  0.27863000  0.54156000  0.46130000  1.0
  C  C65  1  0.72552000  0.65765000  0.71171000  1.0
  C  C66  1  0.70224000  0.74072000  0.66981000  1.0
  C  C67  1  0.32764000  0.50893000  0.54977000  1.0
  C  C68  1  0.51040000  0.46164000  0.69068000  1.0
  C  C69  1  0.43563000  0.71244000  0.47367000  1.0
  C  C70  1  0.44482000  0.39811000  0.69243000  1.0
  C  C71  1  0.50276000  0.78615000  0.52982000  1.0
  C  C72  1  0.28424000  0.54899000  0.53252000  1.0
  C  C73  1  0.76536000  0.73766000  0.72034000  1.0
  C  C74  1  0.42555000  0.86090000  0.54222000  1.0
  C  C75  1  0.50170000  0.86076000  0.56111000  1.0
  C  C76  1  0.57645000  0.93408000  0.60523000  1.0
  C  C77  1  0.57732000  0.00733000  0.62256000  1.0
  C  C78  1  0.50031000  0.00678000  0.59458000  1.0
  C  C79  1  0.42316000  0.93250000  0.55787000  1.0
  C  C80  1  0.65355000  0.08322000  0.66175000  1.0
  C  C81  1  0.65414000  0.15235000  0.66400000  1.0
  C  C82  1  0.57865000  0.15145000  0.62726000  1.0
  C  C83  1  0.50096000  0.07853000  0.59690000  1.0
  C  C84  1  0.42455000  0.07662000  0.56254000  1.0
  C  C85  1  0.34725000  0.00336000  0.53507000  1.0
  C  C86  1  0.34662000  0.93421000  0.53282000  1.0
  C  C87  1  0.57892000  0.21683000  0.61441000  1.0
  C  C88  1  0.50480000  0.21202000  0.57266000  1.0
  C  C89  1  0.42796000  0.14373000  0.55153000  1.0
  C  C90  1  0.23571000  0.64751000  0.56090000  1.0
  C  C91  1  0.24318000  0.58341000  0.57092000  1.0
  C  C92  1  0.20156000  0.54676000  0.60942000  1.0
  C  C93  1  0.14402000  0.56547000  0.62886000  1.0
  C  C94  1  0.12859000  0.62338000  0.60959000  1.0
  C  C95  1  0.17894000  0.66830000  0.57934000  1.0
  C  C96  1  0.09358000  0.52248000  0.66057000  1.0
  C  C97  1  0.02624000  0.52956000  0.66453000  1.0
  C  C98  1  0.00377000  0.58051000  0.63748000  1.0
  C  C99  1  0.05894000  0.63109000  0.61413000  1.0
  C  C100  1  0.03942000  0.68427000  0.58916000  1.0
  C  C101  1  0.09721000  0.73593000  0.56796000  1.0
  C  C102  1  0.16411000  0.72831000  0.56335000  1.0
  C  C103  1  0.92743000  0.57836000  0.62834000  1.0
  C  C104  1  0.90382000  0.62411000  0.59628000  1.0
  C  C105  1  0.96219000  0.67973000  0.58080000  1.0
  C  C106  1  0.44839000  0.37174000  0.75207000  1.0
  C  C107  1  0.51459000  0.35994000  0.78340000  1.0
  C  C108  1  0.52314000  0.33974000  0.84368000  1.0
  C  C109  1  0.46727000  0.33241000  0.87914000  1.0
  C  C110  1  0.39654000  0.33646000  0.84225000  1.0
  C  C111  1  0.38794000  0.35553000  0.78183000  1.0
  C  C112  1  0.52476000  0.43895000  0.10484000  1.0
  C  C113  1  0.52170000  0.46965000  0.17251000  1.0
  C  C114  1  0.55515000  0.37666000  0.20808000  1.0
  C  C115  1  0.55871000  0.34600000  0.13977000  1.0
  C  C116  1  0.54038000  0.37443000  0.08562000  1.0
  C  C117  1  0.47832000  0.33792000  0.95371000  1.0
  C  C118  1  0.53630000  0.34094000  0.01074000  1.0
  C  C119  1  0.53453000  0.43770000  0.22469000  1.0
  C  C120  1  0.25177000  0.14614000  0.19672000  1.0
  C  C121  1  0.28147000  0.15306000  0.14069000  1.0
  C  C122  1  0.24841000  0.08833000  0.07339000  1.0
  C  C123  1  0.18457000  0.01247000  0.05909000  1.0
  C  C124  1  0.16370000  0.00321000  0.11843000  1.0
  C  C125  1  0.19544000  0.06850000  0.18548000  1.0
  C  C126  1  0.99234000  0.82009000  0.83880000  1.0
  C  C127  1  0.90854000  0.76843000  0.79295000  1.0
  C  C128  1  0.89320000  0.87727000  0.78028000  1.0
  C  C129  1  0.97912000  0.92896000  0.82221000  1.0
  C  C130  1  0.03013000  0.90331000  0.85855000  1.0
  C  C131  1  0.12880000  0.94859000  0.98513000  1.0
  C  C132  1  0.10915000  0.96097000  0.92268000  1.0
  C  C133  1  0.85407000  0.79550000  0.76538000  1.0
  N  N134  1  0.31027000  0.32218000  0.36614000  1.0
  N  N135  1  0.70339000  0.62037000  0.53577000  1.0
  N  N136  1  0.47365000  0.52068000  0.36981000  1.0
  N  N137  1  0.54705000  0.39035000  0.53508000  1.0
  N  N138  1  0.54524000  0.53094000  0.41308000  1.0
  N  N139  1  0.46395000  0.34089000  0.48819000  1.0
  N  N140  1  0.67782000  0.54787000  0.53953000  1.0
  N  N141  1  0.33133000  0.35551000  0.32093000  1.0
  N  N142  1  0.40392000  0.40649000  0.58407000  1.0
  N  N143  1  0.54502000  0.69557000  0.49723000  1.0
  N  N144  1  0.31580000  0.50045000  0.43789000  1.0
  N  N145  1  0.64714000  0.61731000  0.65938000  1.0
  N  N146  1  0.63206000  0.66801000  0.63196000  1.0
  N  N147  1  0.34755000  0.48084000  0.49343000  1.0
  N  N148  1  0.48507000  0.46655000  0.62529000  1.0
  N  N149  1  0.46083000  0.65888000  0.45460000  1.0
  N  N150  1  0.24962000  0.19797000  0.37244000  1.0
  N  N151  1  0.38303000  0.46989000  0.24628000  1.0
  N  N152  1  0.31445000  0.36465000  0.75312000  1.0
  N  N153  1  0.59442000  0.32719000  0.86875000  1.0
  N  N154  1  0.84133000  0.90871000  0.74832000  1.0
  N  N155  1  0.01522000  0.01354000  0.83406000  1.0
  O  O156  1  0.25946000  0.23810000  0.43726000  1.0
  O  O157  1  0.21888000  0.12391000  0.34610000  1.0
  O  O158  1  0.34051000  0.49720000  0.27233000  1.0
  O  O159  1  0.35888000  0.43127000  0.17920000  1.0
  O  O160  1  0.32762000  0.42942000  0.75051000  1.0
  O  O161  1  0.24501000  0.30690000  0.73491000  1.0
  O  O162  1  0.58629000  0.27832000  0.89676000  1.0
  O  O163  1  0.65744000  0.36455000  0.85888000  1.0
  O  O164  1  0.84752000  0.92132000  0.69349000  1.0
  O  O165  1  0.79282000  0.91573000  0.77584000  1.0
  O  O166  1  0.97583000  0.04806000  0.84825000  1.0
  O  O167  1  0.08312000  0.04439000  0.82920000  1.0
