# generated using pymatgen
data_InH4(C3O2)4
_symmetry_space_group_name_H-M   'P 1'
_cell_length_a   17.88350051
_cell_length_b   17.88360000
_cell_length_c   17.88350000
_cell_angle_alpha   109.47200000
_cell_angle_beta   109.47032151
_cell_angle_gamma   109.47077460
_symmetry_Int_Tables_number   1
_chemical_formula_structural   InH4(C3O2)4
_chemical_formula_sum   'In6 H24 C72 O48'
_cell_volume   4402.92349828
_cell_formula_units_Z   6
loop_
 _symmetry_equiv_pos_site_id
 _symmetry_equiv_pos_as_xyz
  1  'x, y, z'
loop_
 _atom_site_type_symbol
 _atom_site_label
 _atom_site_symmetry_multiplicity
 _atom_site_fract_x
 _atom_site_fract_y
 _atom_site_fract_z
 _atom_site_occupancy
  In  In0  1  0.87500000  0.62501000  0.75000000  1.0
  In  In1  1  0.62500000  0.87500000  0.25000000  1.0
  In  In2  1  0.37500000  0.25001000  0.12500000  1.0
  In  In3  1  0.12500000  0.75000000  0.37499000  1.0
  In  In4  1  0.75000000  0.12499000  0.87499000  1.0
  In  In5  1  0.25000000  0.37499000  0.62500000  1.0
  H  H6  1  0.01676000  0.68171000  0.56141000  1.0
  H  H7  1  0.12029000  0.95533000  0.93858000  1.0
  H  H8  1  0.48325000  0.54468000  0.16497000  1.0
  H  H9  1  0.37971000  0.81829000  0.33504000  1.0
  H  H10  1  0.31830000  0.33505000  0.87971000  1.0
  H  H11  1  0.04467000  0.16496000  0.98323000  1.0
  H  H12  1  0.45534000  0.93858000  0.62030000  1.0
  H  H13  1  0.18173000  0.56142000  0.51677000  1.0
  H  H14  1  0.66496000  0.98323000  0.54466000  1.0
  H  H15  1  0.83504000  0.87971000  0.81829000  1.0
  H  H16  1  0.06141000  0.51677000  0.68172000  1.0
  H  H17  1  0.43856000  0.62030000  0.95533000  1.0
  H  H18  1  0.68171000  0.01675000  0.06141000  1.0
  H  H19  1  0.95533000  0.12029000  0.43858000  1.0
  H  H20  1  0.54466000  0.48324000  0.66496000  1.0
  H  H21  1  0.81827000  0.37969000  0.83503000  1.0
  H  H22  1  0.33505000  0.31828000  0.37971000  1.0
  H  H23  1  0.16496000  0.04467000  0.48325000  1.0
  H  H24  1  0.93857000  0.45534000  0.12030000  1.0
  H  H25  1  0.56142000  0.18172000  0.01676000  1.0
  H  H26  1  0.98325000  0.66495000  0.04465000  1.0
  H  H27  1  0.87971000  0.83504000  0.31827000  1.0
  H  H28  1  0.51676000  0.06142000  0.18172000  1.0
  H  H29  1  0.62030000  0.43859000  0.45534000  1.0
  C  C30  1  0.04716000  0.64000000  0.57233000  1.0
  C  C31  1  0.06768000  0.97482000  0.92767000  1.0
  C  C32  1  0.45284000  0.52518000  0.09285000  1.0
  C  C33  1  0.43233000  0.86000000  0.40715000  1.0
  C  C34  1  0.36000000  0.40715000  0.93233000  1.0
  C  C35  1  0.02519000  0.09286000  0.95284000  1.0
  C  C36  1  0.47481000  0.92766000  0.56767000  1.0
  C  C37  1  0.14002000  0.57234000  0.54717000  1.0
  C  C38  1  0.59285000  0.95284000  0.52518000  1.0
  C  C39  1  0.90715000  0.93234000  0.86000000  1.0
  C  C40  1  0.07234000  0.54716000  0.64001000  1.0
  C  C41  1  0.42765000  0.56767000  0.97481000  1.0
  C  C42  1  0.64000000  0.04715000  0.07234000  1.0
  C  C43  1  0.97481000  0.06767000  0.42766000  1.0
  C  C44  1  0.52518000  0.45284000  0.59285000  1.0
  C  C45  1  0.85998000  0.43231000  0.90714000  1.0
  C  C46  1  0.40715000  0.35999000  0.43233000  1.0
  C  C47  1  0.09286000  0.02519000  0.45285000  1.0
  C  C48  1  0.92766000  0.47483000  0.06767000  1.0
  C  C49  1  0.57233000  0.14001000  0.04716000  1.0
  C  C50  1  0.95284000  0.59284000  0.02517000  1.0
  C  C51  1  0.93233000  0.90715000  0.35999000  1.0
  C  C52  1  0.54716000  0.07234000  0.14002000  1.0
  C  C53  1  0.56767000  0.42766000  0.47481000  1.0
  C  C54  1  0.97727000  0.61632000  0.66812000  1.0
  C  C55  1  0.94818000  0.80915000  0.83188000  1.0
  C  C56  1  0.52273000  0.69085000  0.13903000  1.0
  C  C57  1  0.55181000  0.88370000  0.36097000  1.0
  C  C58  1  0.38370000  0.36097000  0.05181000  1.0
  C  C59  1  0.19085000  0.13903000  0.02273000  1.0
  C  C60  1  0.30915000  0.83187000  0.44818000  1.0
  C  C61  1  0.11632000  0.66810000  0.47727000  1.0
  C  C62  1  0.63903000  0.02273000  0.69085000  1.0
  C  C63  1  0.86098000  0.05183000  0.88371000  1.0
  C  C64  1  0.16812000  0.47728000  0.61632000  1.0
  C  C65  1  0.33188000  0.44819000  0.80915000  1.0
  C  C66  1  0.61630000  0.97727000  0.16811000  1.0
  C  C67  1  0.80915000  0.94818000  0.33188000  1.0
  C  C68  1  0.69085000  0.52273000  0.63904000  1.0
  C  C69  1  0.88368000  0.55180000  0.86095000  1.0
  C  C70  1  0.36097000  0.38370000  0.55182000  1.0
  C  C71  1  0.13903000  0.19086000  0.52273000  1.0
  C  C72  1  0.83188000  0.30915000  0.94819000  1.0
  C  C73  1  0.66811000  0.11631000  0.97727000  1.0
  C  C74  1  0.02273000  0.63903000  0.19084000  1.0
  C  C75  1  0.05183000  0.86098000  0.38371000  1.0
  C  C76  1  0.47727000  0.16811000  0.11631000  1.0
  C  C77  1  0.44819000  0.33189000  0.30915000  1.0
  C  C78  1  0.03347000  0.60085000  0.62591000  1.0
  C  C79  1  0.97492000  0.90755000  0.87408000  1.0
  C  C80  1  0.46653000  0.59246000  0.06738000  1.0
  C  C81  1  0.52508000  0.89916000  0.43263000  1.0
  C  C82  1  0.39917000  0.43264000  0.02509000  1.0
  C  C83  1  0.09245000  0.06737000  0.96652000  1.0
  C  C84  1  0.40755000  0.87408000  0.47492000  1.0
  C  C85  1  0.10085000  0.62592000  0.53347000  1.0
  C  C86  1  0.56737000  0.96652000  0.59245000  1.0
  C  C87  1  0.93263000  0.02509000  0.89916000  1.0
  C  C88  1  0.12592000  0.53347000  0.60084000  1.0
  C  C89  1  0.37408000  0.47493000  0.90755000  1.0
  C  C90  1  0.60084000  0.03347000  0.12592000  1.0
  C  C91  1  0.90754000  0.97491000  0.37407000  1.0
  C  C92  1  0.59245000  0.46652000  0.56737000  1.0
  C  C93  1  0.89915000  0.52506000  0.93261000  1.0
  C  C94  1  0.43262000  0.39914000  0.52507000  1.0
  C  C95  1  0.06737000  0.09245000  0.46653000  1.0
  C  C96  1  0.87407000  0.40754000  0.97492000  1.0
  C  C97  1  0.62592000  0.10085000  0.03348000  1.0
  C  C98  1  0.96653000  0.56737000  0.09245000  1.0
  C  C99  1  0.02507000  0.93262000  0.39915000  1.0
  C  C100  1  0.53347000  0.12592000  0.10084000  1.0
  C  C101  1  0.47492000  0.37407000  0.40754000  1.0
  O  O102  1  0.96992000  0.58406000  0.72169000  1.0
  O  O103  1  0.86236000  0.74824000  0.77831000  1.0
  O  O104  1  0.53008000  0.75177000  0.11412000  1.0
  O  O105  1  0.63764000  0.91596000  0.38587000  1.0
  O  O106  1  0.41597000  0.38590000  0.13766000  1.0
  O  O107  1  0.25177000  0.11413000  0.03008000  1.0
  O  O108  1  0.24823000  0.77831000  0.36236000  1.0
  O  O109  1  0.08407000  0.72168000  0.46991000  1.0
  O  O110  1  0.61413000  0.03008000  0.75177000  1.0
  O  O111  1  0.88589000  0.13766000  0.91596000  1.0
  O  O112  1  0.22168000  0.46992000  0.58406000  1.0
  O  O113  1  0.27831000  0.36237000  0.74823000  1.0
  O  O114  1  0.58404000  0.96991000  0.22168000  1.0
  O  O115  1  0.74823000  0.86234000  0.27830000  1.0
  O  O116  1  0.75176000  0.53007000  0.61413000  1.0
  O  O117  1  0.91593000  0.63761000  0.88585000  1.0
  O  O118  1  0.38587000  0.41594000  0.63764000  1.0
  O  O119  1  0.11412000  0.25177000  0.53008000  1.0
  O  O120  1  0.77831000  0.24823000  0.86237000  1.0
  O  O121  1  0.72169000  0.08406000  0.96992000  1.0
  O  O122  1  0.03008000  0.61412000  0.25176000  1.0
  O  O123  1  0.13765000  0.88588000  0.41595000  1.0
  O  O124  1  0.46992000  0.22169000  0.08406000  1.0
  O  O125  1  0.36236000  0.27832000  0.24823000  1.0
  O  O126  1  0.93611000  0.65923000  0.65151000  1.0
  O  O127  1  0.00769000  0.78459000  0.84848000  1.0
  O  O128  1  0.56389000  0.71542000  0.22311000  1.0
  O  O129  1  0.49230000  0.84078000  0.27688000  1.0
  O  O130  1  0.34079000  0.27691000  0.99231000  1.0
  O  O131  1  0.21542000  0.22311000  0.06389000  1.0
  O  O132  1  0.28459000  0.84847000  0.50770000  1.0
  O  O133  1  0.15923000  0.65150000  0.43610000  1.0
  O  O134  1  0.72311000  0.06390000  0.71541000  1.0
  O  O135  1  0.77690000  0.99232000  0.84078000  1.0
  O  O136  1  0.15151000  0.43612000  0.65923000  1.0
  O  O137  1  0.34849000  0.50771000  0.78460000  1.0
  O  O138  1  0.65922000  0.93611000  0.15151000  1.0
  O  O139  1  0.78459000  0.00769000  0.34847000  1.0
  O  O140  1  0.71540000  0.56388000  0.72311000  1.0
  O  O141  1  0.84076000  0.49227000  0.77687000  1.0
  O  O142  1  0.27690000  0.34078000  0.49231000  1.0
  O  O143  1  0.22310000  0.21540000  0.56388000  1.0
  O  O144  1  0.84848000  0.28460000  0.00772000  1.0
  O  O145  1  0.65152000  0.15923000  0.93612000  1.0
  O  O146  1  0.06388000  0.72310000  0.21540000  1.0
  O  O147  1  0.99232000  0.77690000  0.34080000  1.0
  O  O148  1  0.43610000  0.15151000  0.15922000  1.0
  O  O149  1  0.50769000  0.34847000  0.28458000  1.0
