# generated using pymatgen
data_CoH12C14(N2O)2
_symmetry_space_group_name_H-M   'P 1'
_cell_length_a   4.69497000
_cell_length_b   8.45762000
_cell_length_c   18.53340000
_cell_angle_alpha   97.15450000
_cell_angle_beta   90.10740000
_cell_angle_gamma   106.05400000
_symmetry_Int_Tables_number   1
_chemical_formula_structural   CoH12C14(N2O)2
_chemical_formula_sum   'Co2 H24 C28 N8 O4'
_cell_volume   701.21344973
_cell_formula_units_Z   2
loop_
 _symmetry_equiv_pos_site_id
 _symmetry_equiv_pos_as_xyz
  1  'x, y, z'
loop_
 _atom_site_type_symbol
 _atom_site_label
 _atom_site_symmetry_multiplicity
 _atom_site_fract_x
 _atom_site_fract_y
 _atom_site_fract_z
 _atom_site_occupancy
  Co  Co0  1  0.95664000  0.00033000  0.74991000  1.0
  Co  Co1  1  0.04338000  0.99967000  0.25009000  1.0
  H  H2  1  0.50611000  0.67207000  0.74230000  1.0
  H  H3  1  0.83094000  0.32830000  0.75767000  1.0
  H  H4  1  0.49390000  0.32794000  0.25770000  1.0
  H  H5  1  0.16905000  0.67169000  0.24233000  1.0
  H  H6  1  0.09197000  0.50120000  0.65604000  1.0
  H  H7  1  0.58758000  0.49846000  0.84407000  1.0
  H  H8  1  0.90802000  0.49880000  0.34397000  1.0
  H  H9  1  0.41240000  0.50153000  0.15592000  1.0
  H  H10  1  0.37762000  0.86457000  0.50844000  1.0
  H  H11  1  0.51669000  0.13493000  0.99145000  1.0
  H  H12  1  0.62234000  0.13543000  0.49157000  1.0
  H  H13  1  0.48337000  0.86507000  0.00856000  1.0
  H  H14  1  0.77163000  0.02580000  0.60239000  1.0
  H  H15  1  0.74915000  0.97437000  0.89737000  1.0
  H  H16  1  0.22835000  0.97421000  0.39761000  1.0
  H  H17  1  0.25090000  0.02563000  0.10263000  1.0
  H  H18  1  0.90855000  0.65300000  0.48321000  1.0
  H  H19  1  0.25839000  0.34638000  0.01707000  1.0
  H  H20  1  0.09143000  0.34699000  0.51679000  1.0
  H  H21  1  0.74164000  0.65362000  0.98293000  1.0
  H  H22  1  0.75119000  0.52345000  0.55006000  1.0
  H  H23  1  0.22636000  0.47486000  0.95002000  1.0
  H  H24  1  0.24879000  0.47655000  0.44995000  1.0
  H  H25  1  0.77366000  0.52513000  0.04998000  1.0
  C  C26  1  0.46597000  0.71114000  0.69026000  1.0
  C  C27  1  0.75344000  0.28912000  0.80973000  1.0
  C  C28  1  0.53402000  0.28886000  0.30974000  1.0
  C  C29  1  0.24656000  0.71087000  0.19026000  1.0
  C  C30  1  0.23850000  0.61679000  0.64192000  1.0
  C  C31  1  0.62045000  0.38319000  0.85814000  1.0
  C  C32  1  0.76148000  0.38322000  0.35808000  1.0
  C  C33  1  0.37955000  0.61680000  0.14186000  1.0
  C  C34  1  0.19620000  0.67178000  0.57549000  1.0
  C  C35  1  0.52541000  0.32802000  0.92461000  1.0
  C  C36  1  0.80379000  0.32821000  0.42451000  1.0
  C  C37  1  0.47461000  0.67197000  0.07539000  1.0
  C  C38  1  0.39525000  0.81979000  0.56043000  1.0
  C  C39  1  0.57799000  0.18004000  0.93951000  1.0
  C  C40  1  0.60474000  0.18021000  0.43957000  1.0
  C  C41  1  0.42205000  0.81995000  0.06049000  1.0
  C  C42  1  0.61589000  0.90858000  0.61150000  1.0
  C  C43  1  0.70937000  0.09147000  0.88833000  1.0
  C  C44  1  0.38408000  0.09142000  0.38849000  1.0
  C  C45  1  0.29068000  0.90853000  0.11168000  1.0
  C  C46  1  0.95490000  0.57320000  0.52151000  1.0
  C  C47  1  0.38242000  0.42624000  0.97861000  1.0
  C  C48  1  0.04508000  0.42679000  0.47849000  1.0
  C  C49  1  0.61761000  0.57375000  0.02139000  1.0
  C  C50  1  0.16870000  0.77520000  0.84264000  1.0
  C  C51  1  0.39241000  0.22422000  0.65699000  1.0
  C  C52  1  0.83130000  0.22481000  0.15736000  1.0
  C  C53  1  0.60755000  0.77580000  0.34300000  1.0
  N  N54  1  0.64972000  0.85684000  0.67620000  1.0
  N  N55  1  0.79325000  0.14355000  0.82365000  1.0
  N  N56  1  0.35028000  0.14316000  0.32379000  1.0
  N  N57  1  0.20678000  0.85645000  0.17635000  1.0
  N  N58  1  0.05419000  0.84911000  0.80596000  1.0
  N  N59  1  0.20372000  0.15128000  0.69370000  1.0
  N  N60  1  0.94584000  0.15088000  0.19404000  1.0
  N  N61  1  0.79627000  0.84871000  0.30630000  1.0
  O  O62  1  0.28295000  0.69867000  0.87917000  1.0
  O  O63  1  0.58309000  0.29960000  0.62030000  1.0
  O  O64  1  0.71705000  0.30132000  0.12083000  1.0
  O  O65  1  0.41680000  0.70044000  0.37969000  1.0
