# generated using pymatgen
data_Cd3H46C54(N5O6)2
_symmetry_space_group_name_H-M   'P 1'
_cell_length_a   8.21178000
_cell_length_b   10.92700000
_cell_length_c   15.31190000
_cell_angle_alpha   71.34200000
_cell_angle_beta   74.48090000
_cell_angle_gamma   70.45010000
_symmetry_Int_Tables_number   1
_chemical_formula_structural   Cd3H46C54(N5O6)2
_chemical_formula_sum   'Cd3 H46 C54 N10 O12'
_cell_volume   1206.70200564
_cell_formula_units_Z   1
loop_
 _symmetry_equiv_pos_site_id
 _symmetry_equiv_pos_as_xyz
  1  'x, y, z'
loop_
 _atom_site_type_symbol
 _atom_site_label
 _atom_site_symmetry_multiplicity
 _atom_site_fract_x
 _atom_site_fract_y
 _atom_site_fract_z
 _atom_site_occupancy
  Cd  Cd0  1  0.09043000  0.92753000  0.77765000  1.0
  Cd  Cd1  1  0.90957000  0.07247000  0.22235000  1.0
  Cd  Cd2  1  0.00000000  0.00000000  0.00000000  1.0
  H  H3  1  0.04047000  0.73669000  0.36218000  1.0
  H  H4  1  0.95953000  0.26331000  0.63782000  1.0
  H  H5  1  0.39011000  0.94575000  0.59146000  1.0
  H  H6  1  0.60990000  0.05425000  0.40854000  1.0
  H  H7  1  0.46555000  0.90333000  0.42918000  1.0
  H  H8  1  0.53445000  0.09667000  0.57081000  1.0
  H  H9  1  0.25944000  0.82052000  0.38393000  1.0
  H  H10  1  0.74056000  0.17948000  0.61607000  1.0
  H  H11  1  0.54260000  0.69303000  0.71547000  1.0
  H  H12  1  0.45741000  0.30697000  0.28453000  1.0
  H  H13  1  0.49412000  0.75571000  0.86577000  1.0
  H  H14  1  0.50588000  0.24430000  0.13423000  1.0
  H  H15  1  0.71465000  0.85285000  0.88843000  1.0
  H  H16  1  0.28535000  0.14716000  0.11157000  1.0
  H  H17  1  0.05079000  0.57072000  0.30040000  1.0
  H  H18  1  0.94921000  0.42927000  0.69960000  1.0
  H  H19  1  0.52957000  0.59851000  0.46328000  1.0
  H  H20  1  0.47043000  0.40149000  0.53672000  1.0
  H  H21  1  0.48224000  0.47156000  0.36483000  1.0
  H  H22  1  0.51775000  0.52845000  0.63517000  1.0
  H  H23  1  0.72686000  0.40992000  0.23216000  1.0
  H  H24  1  0.27313000  0.59008000  0.76784000  1.0
  H  H25  1  0.61113000  0.33348000  0.77663000  1.0
  H  H26  1  0.38888000  0.66652000  0.22337000  1.0
  H  H27  1  0.71872000  0.32965000  0.86344000  1.0
  H  H28  1  0.28128000  0.67034000  0.13656000  1.0
  H  H29  1  0.55111000  0.19410000  0.98681000  1.0
  H  H30  1  0.44889000  0.80589000  0.01319000  1.0
  H  H31  1  0.40312000  0.33079000  0.92392000  1.0
  H  H32  1  0.59688000  0.66920000  0.07608000  1.0
  H  H33  1  0.51397000  0.03591000  0.92114000  1.0
  H  H34  1  0.48603000  0.96409000  0.07886000  1.0
  H  H35  1  0.30232000  0.13440000  0.95646000  1.0
  H  H36  1  0.69768000  0.86560000  0.04354000  1.0
  H  H37  1  0.50436000  0.17424000  0.75306000  1.0
  H  H38  1  0.49564000  0.82576000  0.24694000  1.0
  H  H39  1  0.29351000  0.27090000  0.79131000  1.0
  H  H40  1  0.70649000  0.72910000  0.20869000  1.0
  H  H41  1  0.16427000  0.53457000  0.09265000  1.0
  H  H42  1  0.83573000  0.46543000  0.90735000  1.0
  H  H43  1  0.34064000  0.50455000  0.99727000  1.0
  H  H44  1  0.65936000  0.49545000  0.00273000  1.0
  H  H45  1  0.13799000  0.47960000  0.91258000  1.0
  H  H46  1  0.86201000  0.52040000  0.08742000  1.0
  H  H47  1  0.13833000  0.36552000  0.02442000  1.0
  H  H48  1  0.86167000  0.63448000  0.97558000  1.0
  C  C49  1  0.30614000  0.90877000  0.56759000  1.0
  C  C50  1  0.69387000  0.09122000  0.43241000  1.0
  C  C51  1  0.34688000  0.88570000  0.47810000  1.0
  C  C52  1  0.65312000  0.11430000  0.52190000  1.0
  C  C53  1  0.23414000  0.83811000  0.45316000  1.0
  C  C54  1  0.76586000  0.16190000  0.54684000  1.0
  C  C55  1  0.08393000  0.81205000  0.51816000  1.0
  C  C56  1  0.91607000  0.18796000  0.48184000  1.0
  C  C57  1  0.96464000  0.75504000  0.50310000  1.0
  C  C58  1  0.03536000  0.24497000  0.49690000  1.0
  C  C59  1  0.81964000  0.72561000  0.57010000  1.0
  C  C60  1  0.18036000  0.27439000  0.42990000  1.0
  C  C61  1  0.77953000  0.75785000  0.65834000  1.0
  C  C62  1  0.22047000  0.24215000  0.34166000  1.0
  C  C63  1  0.63400000  0.73545000  0.72837000  1.0
  C  C64  1  0.36600000  0.26455000  0.27163000  1.0
  C  C65  1  0.60820000  0.76921000  0.81165000  1.0
  C  C66  1  0.39180000  0.23079000  0.18835000  1.0
  C  C67  1  0.72963000  0.82421000  0.82416000  1.0
  C  C68  1  0.27038000  0.17580000  0.17583000  1.0
  C  C69  1  0.89599000  0.81495000  0.67660000  1.0
  C  C70  1  0.10401000  0.18505000  0.32340000  1.0
  C  C71  1  0.05037000  0.83967000  0.60716000  1.0
  C  C72  1  0.94963000  0.16033000  0.39284000  1.0
  C  C73  1  0.82847000  0.65584000  0.45185000  1.0
  C  C74  1  0.17153000  0.34416000  0.54815000  1.0
  C  C75  1  0.92160000  0.55280000  0.31570000  1.0
  C  C76  1  0.07840000  0.44720000  0.68430000  1.0
  C  C77  1  0.79381000  0.59293000  0.39068000  1.0
  C  C78  1  0.20619000  0.40707000  0.60932000  1.0
  C  C79  1  0.63165000  0.56579000  0.40698000  1.0
  C  C80  1  0.36835000  0.43421000  0.59303000  1.0
  C  C81  1  0.60531000  0.49817000  0.35111000  1.0
  C  C82  1  0.39469000  0.50183000  0.64889000  1.0
  C  C83  1  0.74113000  0.46262000  0.27845000  1.0
  C  C84  1  0.25887000  0.53738000  0.72156000  1.0
  C  C85  1  0.80183000  0.15034000  0.82088000  1.0
  C  C86  1  0.19818000  0.84965000  0.17913000  1.0
  C  C87  1  0.65696000  0.27099000  0.84214000  1.0
  C  C88  1  0.34304000  0.72900000  0.15786000  1.0
  C  C89  1  0.50492000  0.23635000  0.91937000  1.0
  C  C90  1  0.49509000  0.76364000  0.08063000  1.0
  C  C91  1  0.42466000  0.13725000  0.90536000  1.0
  C  C92  1  0.57534000  0.86275000  0.09464000  1.0
  C  C93  1  0.38598000  0.17043000  0.80710000  1.0
  C  C94  1  0.61402000  0.82957000  0.19290000  1.0
  C  C95  1  0.30364000  0.07618000  0.79122000  1.0
  C  C96  1  0.69637000  0.92381000  0.20879000  1.0
  C  C97  1  0.15114000  0.69557000  0.96638000  1.0
  C  C98  1  0.84886000  0.30443000  0.03362000  1.0
  C  C99  1  0.19786000  0.54679000  0.01651000  1.0
  C  C100  1  0.80214000  0.45321000  0.98349000  1.0
  C  C101  1  0.09950000  0.47265000  0.98811000  1.0
  C  C102  1  0.90050000  0.52735000  0.01190000  1.0
  N  N103  1  0.16278000  0.88721000  0.62926000  1.0
  N  N104  1  0.83723000  0.11279000  0.37074000  1.0
  N  N105  1  0.86835000  0.84614000  0.75887000  1.0
  N  N106  1  0.13165000  0.15386000  0.24112000  1.0
  N  N107  1  0.96808000  0.70964000  0.42882000  1.0
  N  N108  1  0.03192000  0.29036000  0.57118000  1.0
  N  N109  1  0.73647000  0.66304000  0.53767000  1.0
  N  N110  1  0.26353000  0.33696000  0.46233000  1.0
  N  N111  1  0.89648000  0.49036000  0.26025000  1.0
  N  N112  1  0.10351000  0.50963000  0.73975000  1.0
  O  O113  1  0.88891000  0.15717000  0.73777000  1.0
  O  O114  1  0.11109000  0.84283000  0.26223000  1.0
  O  O115  1  0.83439000  0.04195000  0.88591000  1.0
  O  O116  1  0.16562000  0.95804000  0.11409000  1.0
  O  O117  1  0.21320000  0.01037000  0.86200000  1.0
  O  O118  1  0.78682000  0.98961000  0.13801000  1.0
  O  O119  1  0.32085000  0.06453000  0.70955000  1.0
  O  O120  1  0.67914000  0.93546000  0.29045000  1.0
  O  O121  1  0.19582000  0.72508000  0.87729000  1.0
  O  O122  1  0.80416000  0.27492000  0.12272000  1.0
  O  O123  1  0.06748000  0.77747000  0.01712000  1.0
  O  O124  1  0.93251000  0.22253000  0.98288000  1.0
