# generated using pymatgen
data_CdH14C18(NCl)2
_symmetry_space_group_name_H-M   'P 1'
_cell_length_a   7.42868000
_cell_length_b   14.96990000
_cell_length_c   15.07370000
_cell_angle_alpha   90.00000000
_cell_angle_beta   90.00000000
_cell_angle_gamma   90.00000000
_symmetry_Int_Tables_number   1
_chemical_formula_structural   CdH14C18(NCl)2
_chemical_formula_sum   'Cd4 H56 C72 N8 Cl8'
_cell_volume   1676.29487716
_cell_formula_units_Z   4
loop_
 _symmetry_equiv_pos_site_id
 _symmetry_equiv_pos_as_xyz
  1  'x, y, z'
loop_
 _atom_site_type_symbol
 _atom_site_label
 _atom_site_symmetry_multiplicity
 _atom_site_fract_x
 _atom_site_fract_y
 _atom_site_fract_z
 _atom_site_occupancy
  Cd  Cd0  1  0.21841000  0.50000000  0.00000000  1.0
  Cd  Cd1  1  0.28159000  0.00000000  0.50000000  1.0
  Cd  Cd2  1  0.71816000  0.50000000  0.00000000  1.0
  Cd  Cd3  1  0.78184000  0.00000000  0.50000000  1.0
  H  H4  1  0.19449000  0.50334000  0.20131000  1.0
  H  H5  1  0.19450000  0.49666000  0.79869000  1.0
  H  H6  1  0.30550000  0.00334000  0.29869000  1.0
  H  H7  1  0.30550000  0.99666000  0.70131000  1.0
  H  H8  1  0.69449000  0.70190000  0.00205000  1.0
  H  H9  1  0.69448000  0.29810000  0.99794000  1.0
  H  H10  1  0.80551000  0.79810000  0.50206000  1.0
  H  H11  1  0.80551000  0.20190000  0.49794000  1.0
  H  H12  1  0.13296000  0.41981000  0.34071000  1.0
  H  H13  1  0.13296000  0.58019000  0.65929000  1.0
  H  H14  1  0.36704000  0.91981000  0.15929000  1.0
  H  H15  1  0.36704000  0.08019000  0.84071000  1.0
  H  H16  1  0.63197000  0.84211000  0.91909000  1.0
  H  H17  1  0.63197000  0.15790000  0.08091000  1.0
  H  H18  1  0.86803000  0.65789000  0.41909000  1.0
  H  H19  1  0.86803000  0.34211000  0.58091000  1.0
  H  H20  1  0.10670000  0.25143000  0.33447000  1.0
  H  H21  1  0.10670000  0.74856000  0.66553000  1.0
  H  H22  1  0.39329000  0.75143000  0.16553000  1.0
  H  H23  1  0.39329000  0.24856000  0.83447000  1.0
  H  H24  1  0.60594000  0.83573000  0.75190000  1.0
  H  H25  1  0.60594000  0.16427000  0.24809000  1.0
  H  H26  1  0.89407000  0.66427000  0.25191000  1.0
  H  H27  1  0.89406000  0.33573000  0.74809000  1.0
  H  H28  1  0.11464000  0.11392000  0.24333000  1.0
  H  H29  1  0.11463000  0.88608000  0.75667000  1.0
  H  H30  1  0.38536000  0.61392000  0.25667000  1.0
  H  H31  1  0.38537000  0.38608000  0.74333000  1.0
  H  H32  1  0.61485000  0.74427000  0.61551000  1.0
  H  H33  1  0.61487000  0.25573000  0.38448000  1.0
  H  H34  1  0.88514000  0.75573000  0.11552000  1.0
  H  H35  1  0.88514000  0.24427000  0.88449000  1.0
  H  H36  1  0.15453000  0.04110000  0.09607000  1.0
  H  H37  1  0.15452000  0.95890000  0.90393000  1.0
  H  H38  1  0.34547000  0.54110000  0.40393000  1.0
  H  H39  1  0.34548000  0.45890000  0.59607000  1.0
  H  H40  1  0.65503000  0.59609000  0.54296000  1.0
  H  H41  1  0.65503000  0.40391000  0.45703000  1.0
  H  H42  1  0.84497000  0.90391000  0.04297000  1.0
  H  H43  1  0.84496000  0.09609000  0.95703000  1.0
  H  H44  1  0.21654000  0.13450000  0.96191000  1.0
  H  H45  1  0.21654000  0.86550000  0.03808000  1.0
  H  H46  1  0.28346000  0.63450000  0.53809000  1.0
  H  H47  1  0.28346000  0.36550000  0.46192000  1.0
  H  H48  1  0.71676000  0.46088000  0.63559000  1.0
  H  H49  1  0.71676000  0.53912000  0.36441000  1.0
  H  H50  1  0.78324000  0.03912000  0.13559000  1.0
  H  H51  1  0.78323000  0.96088000  0.86441000  1.0
  H  H52  1  0.24054000  0.29898000  0.97460000  1.0
  H  H53  1  0.24053000  0.70102000  0.02540000  1.0
  H  H54  1  0.25947000  0.79898000  0.52540000  1.0
  H  H55  1  0.25947000  0.20102000  0.47460000  1.0
  H  H56  1  0.74061000  0.47340000  0.79895000  1.0
  H  H57  1  0.74062000  0.52660000  0.20105000  1.0
  H  H58  1  0.75938000  0.02660000  0.29896000  1.0
  H  H59  1  0.75938000  0.97340000  0.70105000  1.0
  C  C60  1  0.18502000  0.43067000  0.20029000  1.0
  C  C61  1  0.18502000  0.56933000  0.79971000  1.0
  C  C62  1  0.31498000  0.93067000  0.29970000  1.0
  C  C63  1  0.31498000  0.06933000  0.70030000  1.0
  C  C64  1  0.68486000  0.70079000  0.92987000  1.0
  C  C65  1  0.68486000  0.29921000  0.07013000  1.0
  C  C66  1  0.81514000  0.79921000  0.42987000  1.0
  C  C67  1  0.81514000  0.20079000  0.57013000  1.0
  C  C68  1  0.15085000  0.38289000  0.27908000  1.0
  C  C69  1  0.15085000  0.61710000  0.72092000  1.0
  C  C70  1  0.34914000  0.88289000  0.22092000  1.0
  C  C71  1  0.34915000  0.11710000  0.77908000  1.0
  C  C72  1  0.65025000  0.78008000  0.88245000  1.0
  C  C73  1  0.65025000  0.21992000  0.11755000  1.0
  C  C74  1  0.84975000  0.71992000  0.38245000  1.0
  C  C75  1  0.84975000  0.28008000  0.61755000  1.0
  C  C76  1  0.13567000  0.29134000  0.27557000  1.0
  C  C77  1  0.13567000  0.70866000  0.72444000  1.0
  C  C78  1  0.36433000  0.79134000  0.22443000  1.0
  C  C79  1  0.36433000  0.20866000  0.77556000  1.0
  C  C80  1  0.63516000  0.77648000  0.79152000  1.0
  C  C81  1  0.63517000  0.22352000  0.20847000  1.0
  C  C82  1  0.86484000  0.72352000  0.29153000  1.0
  C  C83  1  0.86484000  0.27648000  0.70848000  1.0
  C  C84  1  0.15696000  0.24749000  0.19290000  1.0
  C  C85  1  0.15695000  0.75251000  0.80710000  1.0
  C  C86  1  0.34304000  0.74749000  0.30710000  1.0
  C  C87  1  0.34305000  0.25251000  0.69290000  1.0
  C  C88  1  0.65694000  0.69328000  0.74805000  1.0
  C  C89  1  0.65695000  0.30672000  0.25195000  1.0
  C  C90  1  0.84306000  0.80672000  0.24805000  1.0
  C  C91  1  0.84306000  0.19328000  0.75195000  1.0
  C  C92  1  0.14420000  0.15330000  0.18414000  1.0
  C  C93  1  0.14419000  0.84670000  0.81586000  1.0
  C  C94  1  0.35580000  0.65330000  0.31586000  1.0
  C  C95  1  0.35581000  0.34670000  0.68415000  1.0
  C  C96  1  0.64434000  0.68457000  0.65450000  1.0
  C  C97  1  0.64436000  0.31542000  0.34550000  1.0
  C  C98  1  0.85566000  0.81543000  0.15450000  1.0
  C  C99  1  0.85565000  0.18458000  0.84550000  1.0
  C  C100  1  0.16615000  0.11348000  0.10234000  1.0
  C  C101  1  0.16615000  0.88652000  0.89765000  1.0
  C  C102  1  0.33384000  0.61348000  0.39765000  1.0
  C  C103  1  0.33385000  0.38652000  0.60235000  1.0
  C  C104  1  0.66652000  0.60228000  0.61487000  1.0
  C  C105  1  0.66652000  0.39772000  0.38513000  1.0
  C  C106  1  0.83349000  0.89772000  0.11487000  1.0
  C  C107  1  0.83348000  0.10228000  0.88513000  1.0
  C  C108  1  0.20120000  0.16632000  0.02653000  1.0
  C  C109  1  0.20120000  0.83368000  0.97347000  1.0
  C  C110  1  0.29880000  0.66632000  0.47347000  1.0
  C  C111  1  0.29880000  0.33368000  0.52653000  1.0
  C  C112  1  0.70148000  0.52588000  0.66728000  1.0
  C  C113  1  0.70149000  0.47412000  0.33272000  1.0
  C  C114  1  0.79852000  0.97412000  0.16728000  1.0
  C  C115  1  0.79851000  0.02588000  0.83272000  1.0
  C  C116  1  0.21347000  0.25810000  0.03271000  1.0
  C  C117  1  0.21346000  0.74190000  0.96729000  1.0
  C  C118  1  0.28653000  0.75810000  0.46729000  1.0
  C  C119  1  0.28654000  0.24191000  0.53271000  1.0
  C  C120  1  0.71368000  0.53200000  0.75845000  1.0
  C  C121  1  0.71369000  0.46800000  0.24155000  1.0
  C  C122  1  0.78632000  0.96800000  0.25845000  1.0
  C  C123  1  0.78631000  0.03200000  0.74155000  1.0
  C  C124  1  0.19159000  0.30095000  0.11577000  1.0
  C  C125  1  0.19159000  0.69905000  0.88423000  1.0
  C  C126  1  0.30840000  0.80095000  0.38422000  1.0
  C  C127  1  0.30841000  0.19905000  0.61578000  1.0
  C  C128  1  0.69168000  0.61560000  0.80109000  1.0
  C  C129  1  0.69169000  0.38440000  0.19891000  1.0
  C  C130  1  0.80832000  0.88440000  0.30110000  1.0
  C  C131  1  0.80832000  0.11560000  0.69891000  1.0
  N  N132  1  0.20359000  0.39230000  0.12153000  1.0
  N  N133  1  0.20359000  0.60770000  0.87847000  1.0
  N  N134  1  0.29641000  0.89230000  0.37847000  1.0
  N  N135  1  0.29641000  0.10770000  0.62153000  1.0
  N  N136  1  0.70364000  0.62144000  0.89183000  1.0
  N  N137  1  0.70364000  0.37856000  0.10816000  1.0
  N  N138  1  0.79636000  0.87856000  0.39184000  1.0
  N  N139  1  0.79636000  0.12144000  0.60816000  1.0
  Cl  Cl140  1  0.46606000  0.41403000  0.90962000  1.0
  Cl  Cl141  1  0.46606000  0.58597000  0.09038000  1.0
  Cl  Cl142  1  0.03394000  0.91403000  0.59038000  1.0
  Cl  Cl143  1  0.03394000  0.08597000  0.40962000  1.0
  Cl  Cl144  1  0.96583000  0.40893000  0.91502000  1.0
  Cl  Cl145  1  0.96583000  0.59107000  0.08498000  1.0
  Cl  Cl146  1  0.53416000  0.09107000  0.41502000  1.0
  Cl  Cl147  1  0.53416000  0.90893000  0.58498000  1.0
