# generated using pymatgen
data_ZnH14C32N(Cl3O2)2
_symmetry_space_group_name_H-M   'P 1'
_cell_length_a   14.18410000
_cell_length_b   15.09690000
_cell_length_c   15.88570000
_cell_angle_alpha   96.56940000
_cell_angle_beta   91.01570000
_cell_angle_gamma   91.08440000
_symmetry_Int_Tables_number   1
_chemical_formula_structural   ZnH14C32N(Cl3O2)2
_chemical_formula_sum   'Zn2 H28 C64 N2 Cl12 O8'
_cell_volume   3378.08090584
_cell_formula_units_Z   2
loop_
 _symmetry_equiv_pos_site_id
 _symmetry_equiv_pos_as_xyz
  1  'x, y, z'
loop_
 _atom_site_type_symbol
 _atom_site_label
 _atom_site_symmetry_multiplicity
 _atom_site_fract_x
 _atom_site_fract_y
 _atom_site_fract_z
 _atom_site_occupancy
  Zn  Zn0  1  0.60380000  0.51260000  0.50766000  1.0
  Zn  Zn1  1  0.39613000  0.51549000  0.49165000  1.0
  H  H2  1  0.46520000  0.76570000  0.38067000  1.0
  H  H3  1  0.37449000  0.37760000  0.92670000  1.0
  H  H4  1  0.44959000  0.21102000  0.35408000  1.0
  H  H5  1  0.51368000  0.26132000  0.62136000  1.0
  H  H6  1  0.50332000  0.13525000  0.71013000  1.0
  H  H7  1  0.48311000  0.70888000  0.68148000  1.0
  H  H8  1  0.57642000  0.66066000  0.80042000  1.0
  H  H9  1  0.72858000  0.73708000  0.84635000  1.0
  H  H10  1  0.79061000  0.85945000  0.76774000  1.0
  H  H11  1  0.69761000  0.90653000  0.64716000  1.0
  H  H12  1  0.36705000  0.61476000  0.20543000  1.0
  H  H13  1  0.43479000  0.05431000  0.28426000  1.0
  H  H14  1  0.20926000  0.61785000  0.26746000  1.0
  H  H15  1  0.07109000  0.54569000  0.18430000  1.0
  H  H16  1  0.09552000  0.46956000  0.03904000  1.0
  H  H17  1  0.25295000  0.46410000  0.97795000  1.0
  H  H18  1  0.65756000  0.59332000  0.19049000  1.0
  H  H19  1  0.80406000  0.57456000  0.27166000  1.0
  H  H20  1  0.92026000  0.46051000  0.21694000  1.0
  H  H21  1  0.88586000  0.36589000  0.08018000  1.0
  H  H22  1  0.73867000  0.38276000  0.00084000  1.0
  H  H23  1  0.07632000  0.35872000  0.31870000  1.0
  H  H24  1  0.90273000  0.34559000  0.32920000  1.0
  H  H25  1  0.58744000  0.57800000  0.05133000  1.0
  H  H26  1  0.45376000  0.60464000  0.08200000  1.0
  H  H27  1  0.35599000  0.52965000  0.92641000  1.0
  H  H28  1  0.62477000  0.41101000  0.93307000  1.0
  H  H29  1  0.48220000  0.32433000  0.90227000  1.0
  C  C30  1  0.51751000  0.68402000  0.51310000  1.0
  C  C31  1  0.49674000  0.12230000  0.57236000  1.0
  C  C32  1  0.48262000  0.06041000  0.49826000  1.0
  C  C33  1  0.50199000  0.51091000  0.33815000  1.0
  C  C34  1  0.46455000  0.09300000  0.41871000  1.0
  C  C35  1  0.50455000  0.08875000  0.65240000  1.0
  C  C36  1  0.50880000  0.99930000  0.65802000  1.0
  C  C37  1  0.51098000  0.93465000  0.58329000  1.0
  C  C38  1  0.48850000  0.96724000  0.50382000  1.0
  C  C39  1  0.47426000  0.90509000  0.42926000  1.0
  C  C40  1  0.45356000  0.94061000  0.35073000  1.0
  C  C41  1  0.45071000  0.38123000  0.93981000  1.0
  C  C42  1  0.44925000  0.03011000  0.34516000  1.0
  C  C43  1  0.53160000  0.84315000  0.58452000  1.0
  C  C44  1  0.51058000  0.78350000  0.51159000  1.0
  C  C45  1  0.49090000  0.34368000  0.48338000  1.0
  C  C46  1  0.48048000  0.81364000  0.43607000  1.0
  C  C47  1  0.79789000  0.43224000  0.45476000  1.0
  C  C48  1  0.19352000  0.45674000  0.43368000  1.0
  C  C49  1  0.80681000  0.53371000  0.57665000  1.0
  C  C50  1  0.19925000  0.54873000  0.56192000  1.0
  C  C51  1  0.90439000  0.52039000  0.58862000  1.0
  C  C52  1  0.46948000  0.37603000  0.03521000  1.0
  C  C53  1  0.10474000  0.52854000  0.58072000  1.0
  C  C54  1  0.95070000  0.47460000  0.51825000  1.0
  C  C55  1  0.05090000  0.47952000  0.51372000  1.0
  C  C56  1  0.89727000  0.42843000  0.44984000  1.0
  C  C57  1  0.09536000  0.44101000  0.43921000  1.0
  C  C58  1  0.96068000  0.54898000  0.66383000  1.0
  C  C59  1  0.05806000  0.55244000  0.66009000  1.0
  C  C60  1  0.04045000  0.39050000  0.37376000  1.0
  C  C61  1  0.94468000  0.38337000  0.37946000  1.0
  C  C62  1  0.48265000  0.49538000  0.65812000  1.0
  C  C63  1  0.48534000  0.47051000  0.82153000  1.0
  C  C64  1  0.59437000  0.50506000  0.04345000  1.0
  C  C65  1  0.42222000  0.54143000  0.05254000  1.0
  C  C66  1  0.42598000  0.54334000  0.95561000  1.0
  C  C67  1  0.59468000  0.47717000  0.94791000  1.0
  C  C68  1  0.48091000  0.47829000  0.74629000  1.0
  C  C69  1  0.49631000  0.47095000  0.07909000  1.0
  C  C70  1  0.49130000  0.47043000  0.91284000  1.0
  C  C71  1  0.58350000  0.81182000  0.65695000  1.0
  C  C72  1  0.55050000  0.74189000  0.70012000  1.0
  C  C73  1  0.60265000  0.71532000  0.76773000  1.0
  C  C74  1  0.50041000  0.47603000  0.17025000  1.0
  C  C75  1  0.68848000  0.75797000  0.79306000  1.0
  C  C76  1  0.72308000  0.82650000  0.74920000  1.0
  C  C77  1  0.67110000  0.85294000  0.68152000  1.0
  C  C78  1  0.32302000  0.53886000  0.08719000  1.0
  C  C79  1  0.30791000  0.58216000  0.16869000  1.0
  C  C80  1  0.21846000  0.58388000  0.20387000  1.0
  C  C81  1  0.14150000  0.54330000  0.15768000  1.0
  C  C82  1  0.15516000  0.50091000  0.07612000  1.0
  C  C83  1  0.24495000  0.49868000  0.04147000  1.0
  C  C84  1  0.68523000  0.48807000  0.09066000  1.0
  C  C85  1  0.50269000  0.49123000  0.24688000  1.0
  C  C86  1  0.70677000  0.54223000  0.16663000  1.0
  C  C87  1  0.78995000  0.53206000  0.21236000  1.0
  C  C88  1  0.85473000  0.46831000  0.18179000  1.0
  C  C89  1  0.83538000  0.41528000  0.10531000  1.0
  C  C90  1  0.75147000  0.42511000  0.06035000  1.0
  C  C91  1  0.46366000  0.18561000  0.41458000  1.0
  C  C92  1  0.48380000  0.24511000  0.48686000  1.0
  C  C93  1  0.49949000  0.21392000  0.56521000  1.0
  N  N94  1  0.75493000  0.48827000  0.51298000  1.0
  N  N95  1  0.24294000  0.51028000  0.49248000  1.0
  Cl  Cl96  1  0.67153000  0.54947000  0.89750000  1.0
  Cl  Cl97  1  0.12275000  0.57315000  0.75266000  1.0
  Cl  Cl98  1  0.56316000  0.29972000  0.04980000  1.0
  Cl  Cl99  1  0.36777000  0.33056000  0.08212000  1.0
  Cl  Cl100  1  0.45519000  0.65378000  0.93156000  1.0
  Cl  Cl101  1  0.50014000  0.96662000  0.75896000  1.0
  Cl  Cl102  1  0.43462000  0.86705000  0.25938000  1.0
  Cl  Cl103  1  0.73043000  0.36645000  0.38220000  1.0
  Cl  Cl104  1  0.25080000  0.41166000  0.34618000  1.0
  Cl  Cl105  1  0.75053000  0.61480000  0.63762000  1.0
  Cl  Cl106  1  0.26094000  0.63258000  0.62057000  1.0
  Cl  Cl107  1  0.90815000  0.56598000  0.76046000  1.0
  O  O108  1  0.59704000  0.64775000  0.50246000  1.0
  O  O109  1  0.43912000  0.64504000  0.52411000  1.0
  O  O110  1  0.57813000  0.49797000  0.37771000  1.0
  O  O111  1  0.42446000  0.53912000  0.36911000  1.0
  O  O112  1  0.56810000  0.38078000  0.51175000  1.0
  O  O113  1  0.42026000  0.38217000  0.45459000  1.0
  O  O114  1  0.56137000  0.52297000  0.63334000  1.0
  O  O115  1  0.40600000  0.48249000  0.61505000  1.0
