# generated using pymatgen
data_NaH10C10SNO4
_symmetry_space_group_name_H-M   'P 1'
_cell_length_a   6.51927000
_cell_length_b   10.35980000
_cell_length_c   16.66320000
_cell_angle_alpha   97.44590000
_cell_angle_beta   89.99980000
_cell_angle_gamma   89.99990000
_symmetry_Int_Tables_number   1
_chemical_formula_structural   NaH10C10SNO4
_chemical_formula_sum   'Na4 H40 C40 S4 N4 O16'
_cell_volume   1115.91496656
_cell_formula_units_Z   4
loop_
 _symmetry_equiv_pos_site_id
 _symmetry_equiv_pos_as_xyz
  1  'x, y, z'
loop_
 _atom_site_type_symbol
 _atom_site_label
 _atom_site_symmetry_multiplicity
 _atom_site_fract_x
 _atom_site_fract_y
 _atom_site_fract_z
 _atom_site_occupancy
  Na  Na0  1  0.29211000  0.89986000  0.52532000  1.0
  Na  Na1  1  0.79211000  0.60014000  0.47468000  1.0
  Na  Na2  1  0.70789000  0.10014000  0.47468000  1.0
  Na  Na3  1  0.20789000  0.39986000  0.52532000  1.0
  H  H4  1  0.77475000  0.83858000  0.61500000  1.0
  H  H5  1  0.27475000  0.66142000  0.38500000  1.0
  H  H6  1  0.22525000  0.16142000  0.38499000  1.0
  H  H7  1  0.72525000  0.33859000  0.61500000  1.0
  H  H8  1  0.94266000  0.91096000  0.68569000  1.0
  H  H9  1  0.44267000  0.58904000  0.31431000  1.0
  H  H10  1  0.05733000  0.08904000  0.31430000  1.0
  H  H11  1  0.55733000  0.41097000  0.68570000  1.0
  H  H12  1  0.93430000  0.88859000  0.81998000  1.0
  H  H13  1  0.43431000  0.61141000  0.18002000  1.0
  H  H14  1  0.06570000  0.11141000  0.18002000  1.0
  H  H15  1  0.56570000  0.38860000  0.81998000  1.0
  H  H16  1  0.78894000  0.78254000  0.93190000  1.0
  H  H17  1  0.28893000  0.71746000  0.06809000  1.0
  H  H18  1  0.21108000  0.21747000  0.06809000  1.0
  H  H19  1  0.71107000  0.28254000  0.93191000  1.0
  H  H20  1  0.53549000  0.64644000  0.98386000  1.0
  H  H21  1  0.03547000  0.85355000  0.01614000  1.0
  H  H22  1  0.46454000  0.35356000  0.01615000  1.0
  H  H23  1  0.96452000  0.14644000  0.98385000  1.0
  H  H24  1  0.22624000  0.50320000  0.96464000  1.0
  H  H25  1  0.72623000  0.99680000  0.03536000  1.0
  H  H26  1  0.77378000  0.49681000  0.03536000  1.0
  H  H27  1  0.27376000  0.00319000  0.96464000  1.0
  H  H28  1  0.07168000  0.45546000  0.82669000  1.0
  H  H29  1  0.57167000  0.04454000  0.17331000  1.0
  H  H30  1  0.92834000  0.54454000  0.17331000  1.0
  H  H31  1  0.42832000  0.95546000  0.82669000  1.0
  H  H32  1  0.21679000  0.54668000  0.71194000  1.0
  H  H33  1  0.71678000  0.95331000  0.28806000  1.0
  H  H34  1  0.78322000  0.45331000  0.28806000  1.0
  H  H35  1  0.28322000  0.04669000  0.71194000  1.0
  H  H36  1  0.36861000  0.98280000  0.36421000  1.0
  H  H37  1  0.86861000  0.51719000  0.63579000  1.0
  H  H38  1  0.63139000  0.01720000  0.63579000  1.0
  H  H39  1  0.13139000  0.48280000  0.36421000  1.0
  H  H40  1  0.53177000  0.87416000  0.38355000  1.0
  H  H41  1  0.03177000  0.62585000  0.61645000  1.0
  H  H42  1  0.46823000  0.12585000  0.61645000  1.0
  H  H43  1  0.96823000  0.37415000  0.38355000  1.0
  C  C44  1  0.55057000  0.71682000  0.71539000  1.0
  C  C45  1  0.05057000  0.78318000  0.28461000  1.0
  C  C46  1  0.44943000  0.28318000  0.28461000  1.0
  C  C47  1  0.94943000  0.21682000  0.71539000  1.0
  C  C48  1  0.71660000  0.80323000  0.73025000  1.0
  C  C49  1  0.21660000  0.69677000  0.26975000  1.0
  C  C50  1  0.28340000  0.19678000  0.26974000  1.0
  C  C51  1  0.78340000  0.30323000  0.73026000  1.0
  C  C52  1  0.80212000  0.82407000  0.80989000  1.0
  C  C53  1  0.30211000  0.67593000  0.19010000  1.0
  C  C54  1  0.19789000  0.17593000  0.19010000  1.0
  C  C55  1  0.69789000  0.32407000  0.80990000  1.0
  C  C56  1  0.72146000  0.76549000  0.87163000  1.0
  C  C57  1  0.22146000  0.73450000  0.12837000  1.0
  C  C58  1  0.27855000  0.23451000  0.12837000  1.0
  C  C59  1  0.77854000  0.26550000  0.87163000  1.0
  C  C60  1  0.54806000  0.68221000  0.85947000  1.0
  C  C61  1  0.04805000  0.81778000  0.14053000  1.0
  C  C62  1  0.45195000  0.31779000  0.14053000  1.0
  C  C63  1  0.95194000  0.18221000  0.85947000  1.0
  C  C64  1  0.46234000  0.62552000  0.92467000  1.0
  C  C65  1  0.96234000  0.87448000  0.07533000  1.0
  C  C66  1  0.53767000  0.37449000  0.07534000  1.0
  C  C67  1  0.03766000  0.12552000  0.92466000  1.0
  C  C68  1  0.29204000  0.54580000  0.91393000  1.0
  C  C69  1  0.79203000  0.95419000  0.08607000  1.0
  C  C70  1  0.70798000  0.45420000  0.08607000  1.0
  C  C71  1  0.20796000  0.04580000  0.91392000  1.0
  C  C72  1  0.20487000  0.51925000  0.83611000  1.0
  C  C73  1  0.70486000  0.98074000  0.16389000  1.0
  C  C74  1  0.79515000  0.48074000  0.16389000  1.0
  C  C75  1  0.29513000  0.01925000  0.83611000  1.0
  C  C76  1  0.28688000  0.57197000  0.77101000  1.0
  C  C77  1  0.78687000  0.92802000  0.22899000  1.0
  C  C78  1  0.71313000  0.42802000  0.22900000  1.0
  C  C79  1  0.21312000  0.07198000  0.77100000  1.0
  C  C80  1  0.46017000  0.65629000  0.77995000  1.0
  C  C81  1  0.96017000  0.84371000  0.22005000  1.0
  C  C82  1  0.53984000  0.34371000  0.22005000  1.0
  C  C83  1  0.03983000  0.15629000  0.77995000  1.0
  S  S84  1  0.43737000  0.68370000  0.61776000  1.0
  S  S85  1  0.93737000  0.81630000  0.38224000  1.0
  S  S86  1  0.56262000  0.31631000  0.38225000  1.0
  S  S87  1  0.06262000  0.18370000  0.61775000  1.0
  N  N88  1  0.79930000  0.87475000  0.67405000  1.0
  N  N89  1  0.29929000  0.62526000  0.32595000  1.0
  N  N90  1  0.20071000  0.12526000  0.32595000  1.0
  N  N91  1  0.70071000  0.37475000  0.67405000  1.0
  O  O92  1  0.23098000  0.74383000  0.62464000  1.0
  O  O93  1  0.73098000  0.75618000  0.37536000  1.0
  O  O94  1  0.76901000  0.25618000  0.37536000  1.0
  O  O95  1  0.26901000  0.24383000  0.62464000  1.0
  O  O96  1  0.44957000  0.94992000  0.40716000  1.0
  O  O97  1  0.94957000  0.55008000  0.59284000  1.0
  O  O98  1  0.55043000  0.05008000  0.59284000  1.0
  O  O99  1  0.05043000  0.44992000  0.40715000  1.0
  O  O100  1  0.43119000  0.54179000  0.59727000  1.0
  O  O101  1  0.93119000  0.95821000  0.40273000  1.0
  O  O102  1  0.56880000  0.45821000  0.40273000  1.0
  O  O103  1  0.06881000  0.04179000  0.59727000  1.0
  O  O104  1  0.56284000  0.74476000  0.55883000  1.0
  O  O105  1  0.06284000  0.75524000  0.44117000  1.0
  O  O106  1  0.43715000  0.25524000  0.44117000  1.0
  O  O107  1  0.93716000  0.24476000  0.55883000  1.0
