# generated using pymatgen
data_AgH3C7S(NO)2
_symmetry_space_group_name_H-M   'P 1'
_cell_length_a   5.10424000
_cell_length_b   10.45240000
_cell_length_c   14.69770000
_cell_angle_alpha   90.00070000
_cell_angle_beta   90.00220000
_cell_angle_gamma   79.91400000
_symmetry_Int_Tables_number   1
_chemical_formula_structural   AgH3C7S(NO)2
_chemical_formula_sum   'Ag4 H12 C28 S4 N8 O8'
_cell_volume   772.02701675
_cell_formula_units_Z   4
loop_
 _symmetry_equiv_pos_site_id
 _symmetry_equiv_pos_as_xyz
  1  'x, y, z'
loop_
 _atom_site_type_symbol
 _atom_site_label
 _atom_site_symmetry_multiplicity
 _atom_site_fract_x
 _atom_site_fract_y
 _atom_site_fract_z
 _atom_site_occupancy
  Ag  Ag0  1  0.23060000  0.43732000  0.55957000  1.0
  Ag  Ag1  1  0.76933000  0.06267000  0.05957000  1.0
  Ag  Ag2  1  0.76934000  0.56271000  0.44043000  1.0
  Ag  Ag3  1  0.23074000  0.93730000  0.94043000  1.0
  H  H4  1  0.19386000  0.95603000  0.72986000  1.0
  H  H5  1  0.80611000  0.54396000  0.22988000  1.0
  H  H6  1  0.80610000  0.04396000  0.27014000  1.0
  H  H7  1  0.19390000  0.45603000  0.77012000  1.0
  H  H8  1  0.56353000  0.15972000  0.52113000  1.0
  H  H9  1  0.43636000  0.34029000  0.02113000  1.0
  H  H10  1  0.43631000  0.84034000  0.47890000  1.0
  H  H11  1  0.56375000  0.65966000  0.97888000  1.0
  H  H12  1  0.25351000  0.01023000  0.56566000  1.0
  H  H13  1  0.74641000  0.48979000  0.06567000  1.0
  H  H14  1  0.74641000  0.98982000  0.43435000  1.0
  H  H15  1  0.25368000  0.51016000  0.93433000  1.0
  C  C16  1  0.86612000  0.28586000  0.63724000  1.0
  C  C17  1  0.13389000  0.21413000  0.13724000  1.0
  C  C18  1  0.13385000  0.71416000  0.36275000  1.0
  C  C19  1  0.86616000  0.78586000  0.86275000  1.0
  C  C20  1  0.32605000  0.02204000  0.70866000  1.0
  C  C21  1  0.67389000  0.47797000  0.20867000  1.0
  C  C22  1  0.67390000  0.97797000  0.29134000  1.0
  C  C23  1  0.32616000  0.52200000  0.79133000  1.0
  C  C24  1  0.67724000  0.19511000  0.65723000  1.0
  C  C25  1  0.32275000  0.30489000  0.15724000  1.0
  C  C26  1  0.32272000  0.80492000  0.34277000  1.0
  C  C27  1  0.67728000  0.69510000  0.84276000  1.0
  C  C28  1  0.63860000  0.16577000  0.74878000  1.0
  C  C29  1  0.36136000  0.33423000  0.24879000  1.0
  C  C30  1  0.36137000  0.83423000  0.25121000  1.0
  C  C31  1  0.63861000  0.66577000  0.75121000  1.0
  C  C32  1  0.46669000  0.08027000  0.77457000  1.0
  C  C33  1  0.53325000  0.41975000  0.27458000  1.0
  C  C34  1  0.53329000  0.91972000  0.22543000  1.0
  C  C35  1  0.46674000  0.58025000  0.72541000  1.0
  C  C36  1  0.53710000  0.13700000  0.59251000  1.0
  C  C37  1  0.46286000  0.36301000  0.09251000  1.0
  C  C38  1  0.46283000  0.86303000  0.40751000  1.0
  C  C39  1  0.53725000  0.63695000  0.90750000  1.0
  C  C40  1  0.36331000  0.05209000  0.61817000  1.0
  C  C41  1  0.63661000  0.44794000  0.11818000  1.0
  C  C42  1  0.63661000  0.94793000  0.38185000  1.0
  C  C43  1  0.36352000  0.55201000  0.88183000  1.0
  S  S44  1  0.77850000  0.21949000  0.84328000  1.0
  S  S45  1  0.22153000  0.28050000  0.34330000  1.0
  S  S46  1  0.22153000  0.78049000  0.15670000  1.0
  S  S47  1  0.77841000  0.71952000  0.65670000  1.0
  N  N48  1  0.45830000  0.06447000  0.86770000  1.0
  N  N49  1  0.54171000  0.43554000  0.36772000  1.0
  N  N50  1  0.54173000  0.93552000  0.13230000  1.0
  N  N51  1  0.45823000  0.56449000  0.63228000  1.0
  N  N52  1  0.60986000  0.13044000  0.91200000  1.0
  N  N53  1  0.39020000  0.36954000  0.41201000  1.0
  N  N54  1  0.39022000  0.86954000  0.08799000  1.0
  N  N55  1  0.60972000  0.63050000  0.58798000  1.0
  O  O56  1  0.96611000  0.33222000  0.70612000  1.0
  O  O57  1  0.03391000  0.16775000  0.20611000  1.0
  O  O58  1  0.03389000  0.66779000  0.29387000  1.0
  O  O59  1  0.96613000  0.83224000  0.79387000  1.0
  O  O60  1  0.91433000  0.30950000  0.55404000  1.0
  O  O61  1  0.08568000  0.19050000  0.05405000  1.0
  O  O62  1  0.08564000  0.69053000  0.44594000  1.0
  O  O63  1  0.91439000  0.80947000  0.94594000  1.0
