# generated using pymatgen
data_Cd2H6C6IN9
_symmetry_space_group_name_H-M   'P 1'
_cell_length_a   7.83164000
_cell_length_b   10.47890000
_cell_length_c   18.83300000
_cell_angle_alpha   90.00000000
_cell_angle_beta   89.99990000
_cell_angle_gamma   90.00000000
_symmetry_Int_Tables_number   1
_chemical_formula_structural   Cd2H6C6IN9
_chemical_formula_sum   'Cd8 H24 C24 I4 N36'
_cell_volume   1545.56729113
_cell_formula_units_Z   4
loop_
 _symmetry_equiv_pos_site_id
 _symmetry_equiv_pos_as_xyz
  1  'x, y, z'
loop_
 _atom_site_type_symbol
 _atom_site_label
 _atom_site_symmetry_multiplicity
 _atom_site_fract_x
 _atom_site_fract_y
 _atom_site_fract_z
 _atom_site_occupancy
  Cd  Cd0  1  0.40911000  0.25000000  0.57561000  1.0
  Cd  Cd1  1  0.09089000  0.75000000  0.07561000  1.0
  Cd  Cd2  1  0.59089000  0.75000000  0.42439000  1.0
  Cd  Cd3  1  0.90911000  0.25000000  0.92439000  1.0
  Cd  Cd4  1  0.02089000  0.75000000  0.73173000  1.0
  Cd  Cd5  1  0.47911000  0.25000000  0.23173000  1.0
  Cd  Cd6  1  0.97911000  0.25000000  0.26827000  1.0
  Cd  Cd7  1  0.52089000  0.75000000  0.76827000  1.0
  H  H8  1  0.06104000  0.03234000  0.61629000  1.0
  H  H9  1  0.43896000  0.96766000  0.11629000  1.0
  H  H10  1  0.93896000  0.53234000  0.38371000  1.0
  H  H11  1  0.56104000  0.46766000  0.88371000  1.0
  H  H12  1  0.93896000  0.96766000  0.38371000  1.0
  H  H13  1  0.56104000  0.03234000  0.88371000  1.0
  H  H14  1  0.06104000  0.46766000  0.61629000  1.0
  H  H15  1  0.43896000  0.53234000  0.11629000  1.0
  H  H16  1  0.56857000  0.04484000  0.68913000  1.0
  H  H17  1  0.93143000  0.95516000  0.18913000  1.0
  H  H18  1  0.43143000  0.54484000  0.31087000  1.0
  H  H19  1  0.06857000  0.45516000  0.81087000  1.0
  H  H20  1  0.43143000  0.95516000  0.31087000  1.0
  H  H21  1  0.06857000  0.04484000  0.81087000  1.0
  H  H22  1  0.56857000  0.45516000  0.68913000  1.0
  H  H23  1  0.93143000  0.54484000  0.18913000  1.0
  H  H24  1  0.03654000  0.25000000  0.46405000  1.0
  H  H25  1  0.46346000  0.75000000  0.96405000  1.0
  H  H26  1  0.96346000  0.75000000  0.53595000  1.0
  H  H27  1  0.53654000  0.25000000  0.03595000  1.0
  H  H28  1  0.55949000  0.25000000  0.41258000  1.0
  H  H29  1  0.94051000  0.75000000  0.91258000  1.0
  H  H30  1  0.44051000  0.75000000  0.58742000  1.0
  H  H31  1  0.05949000  0.25000000  0.08742000  1.0
  C  C32  1  0.17986000  0.00975000  0.64332000  1.0
  C  C33  1  0.32013000  0.99025000  0.14332000  1.0
  C  C34  1  0.82013000  0.50975000  0.35668000  1.0
  C  C35  1  0.67986000  0.49025000  0.85668000  1.0
  C  C36  1  0.82013000  0.99025000  0.35668000  1.0
  C  C37  1  0.67986000  0.00975000  0.85668000  1.0
  C  C38  1  0.17986000  0.49026000  0.64332000  1.0
  C  C39  1  0.32013000  0.50975000  0.14332000  1.0
  C  C40  1  0.43645000  0.01676000  0.68127000  1.0
  C  C41  1  0.06355000  0.98324000  0.18127000  1.0
  C  C42  1  0.56355000  0.51676000  0.31873000  1.0
  C  C43  1  0.93645000  0.48324000  0.81873000  1.0
  C  C44  1  0.56355000  0.98324000  0.31873000  1.0
  C  C45  1  0.93645000  0.01676000  0.81873000  1.0
  C  C46  1  0.43645000  0.48324000  0.68127000  1.0
  C  C47  1  0.06355000  0.51676000  0.18127000  1.0
  C  C48  1  0.15616000  0.25000000  0.43464000  1.0
  C  C49  1  0.34384000  0.75000000  0.93464000  1.0
  C  C50  1  0.84384000  0.75000000  0.56536000  1.0
  C  C51  1  0.65616000  0.25000000  0.06536000  1.0
  C  C52  1  0.42119000  0.25000000  0.40809000  1.0
  C  C53  1  0.07881000  0.75000000  0.90809000  1.0
  C  C54  1  0.57881000  0.75000000  0.59191000  1.0
  C  C55  1  0.92119000  0.25000000  0.09191000  1.0
  I  I56  1  0.76407000  0.25000000  0.57710000  1.0
  I  I57  1  0.73593000  0.75000000  0.07710000  1.0
  I  I58  1  0.23593000  0.75000000  0.42290000  1.0
  I  I59  1  0.26407000  0.25000000  0.92290000  1.0
  N  N60  1  0.32593000  0.07886000  0.63788000  1.0
  N  N61  1  0.17407000  0.92114000  0.13788000  1.0
  N  N62  1  0.67407000  0.57886000  0.36212000  1.0
  N  N63  1  0.82593000  0.42114000  0.86212000  1.0
  N  N64  1  0.67407000  0.92114000  0.36212000  1.0
  N  N65  1  0.82593000  0.07886000  0.86212000  1.0
  N  N66  1  0.32593000  0.42114000  0.63788000  1.0
  N  N67  1  0.17407000  0.57886000  0.13788000  1.0
  N  N68  1  0.19954000  0.91105000  0.68719000  1.0
  N  N69  1  0.30046000  0.08895000  0.18719000  1.0
  N  N70  1  0.80046000  0.41105000  0.31281000  1.0
  N  N71  1  0.69954000  0.58895000  0.81281000  1.0
  N  N72  1  0.80046000  0.08895000  0.31281000  1.0
  N  N73  1  0.69954000  0.91105000  0.81281000  1.0
  N  N74  1  0.19954000  0.58895000  0.68719000  1.0
  N  N75  1  0.30046000  0.41105000  0.18719000  1.0
  N  N76  1  0.36430000  0.91596000  0.71171000  1.0
  N  N77  1  0.13570000  0.08404000  0.21171000  1.0
  N  N78  1  0.63570000  0.41596000  0.28829000  1.0
  N  N79  1  0.86430000  0.58404000  0.78829000  1.0
  N  N80  1  0.63570000  0.08404000  0.28829000  1.0
  N  N81  1  0.86430000  0.91596000  0.78829000  1.0
  N  N82  1  0.36430000  0.58404000  0.71171000  1.0
  N  N83  1  0.13570000  0.41596000  0.21171000  1.0
  N  N84  1  0.16634000  0.25000000  0.36409000  1.0
  N  N85  1  0.33366000  0.75000000  0.86409000  1.0
  N  N86  1  0.83365000  0.75000000  0.63591000  1.0
  N  N87  1  0.66634000  0.25000000  0.13591000  1.0
  N  N88  1  0.33644000  0.25000000  0.34698000  1.0
  N  N89  1  0.16356000  0.75000000  0.84698000  1.0
  N  N90  1  0.66356000  0.75000000  0.65302000  1.0
  N  N91  1  0.83643000  0.25000000  0.15302000  1.0
  N  N92  1  0.31386000  0.25000000  0.46468000  1.0
  N  N93  1  0.18614000  0.75000000  0.96469000  1.0
  N  N94  1  0.68614000  0.75000000  0.53531000  1.0
  N  N95  1  0.81386000  0.25000000  0.03531000  1.0
