# generated using pymatgen
data_CdP2H14(CO)8
_symmetry_space_group_name_H-M   'P 1'
_cell_length_a   6.75382000
_cell_length_b   9.33541000
_cell_length_c   10.50783072
_cell_angle_alpha   90.53973997
_cell_angle_beta   108.73178640
_cell_angle_gamma   90.01220000
_symmetry_Int_Tables_number   1
_chemical_formula_structural   CdP2H14(CO)8
_chemical_formula_sum   'Cd2 P4 H28 C16 O16'
_cell_volume   627.39190628
_cell_formula_units_Z   2
loop_
 _symmetry_equiv_pos_site_id
 _symmetry_equiv_pos_as_xyz
  1  'x, y, z'
loop_
 _atom_site_type_symbol
 _atom_site_label
 _atom_site_symmetry_multiplicity
 _atom_site_fract_x
 _atom_site_fract_y
 _atom_site_fract_z
 _atom_site_occupancy
  Cd  Cd0  1  0.72938000  0.75001000  0.99996000  1.0
  Cd  Cd1  1  0.27062000  0.24999000  0.00004000  1.0
  P  P2  1  0.46731000  0.46505000  0.79635000  1.0
  P  P3  1  0.67113000  0.03499000  0.20362000  1.0
  P  P4  1  0.53269000  0.53496000  0.20364000  1.0
  P  P5  1  0.32886000  0.96502000  0.79638000  1.0
  H  H6  1  0.30318000  0.66576000  0.80581000  1.0
  H  H7  1  0.49763000  0.83421000  0.19419000  1.0
  H  H8  1  0.69682000  0.33424000  0.19419000  1.0
  H  H9  1  0.50237000  0.16579000  0.80581000  1.0
  H  H10  1  0.00802000  0.92279000  0.88793000  1.0
  H  H11  1  0.12018000  0.57730000  0.11204000  1.0
  H  H12  1  0.99197000  0.07721000  0.11207000  1.0
  H  H13  1  0.87983000  0.42270000  0.88796000  1.0
  H  H14  1  0.76561000  0.94923000  0.83036000  1.0
  H  H15  1  0.93526000  0.55086000  0.16958000  1.0
  H  H16  1  0.23438000  0.05077000  0.16963000  1.0
  H  H17  1  0.06474000  0.44915000  0.83041000  1.0
  H  H18  1  0.77390000  0.59169000  0.70094000  1.0
  H  H19  1  0.07306000  0.90842000  0.29902000  1.0
  H  H20  1  0.22609000  0.40831000  0.29905000  1.0
  H  H21  1  0.92693000  0.09158000  0.70098000  1.0
  H  H22  1  0.81809000  0.77377000  0.47126000  1.0
  H  H23  1  0.34666000  0.72632000  0.52867000  1.0
  H  H24  1  0.18191000  0.22623000  0.52874000  1.0
  H  H25  1  0.65334000  0.27368000  0.47133000  1.0
  H  H26  1  0.91361000  0.63210000  0.39530000  1.0
  H  H27  1  0.51815000  0.86805000  0.60453000  1.0
  H  H28  1  0.08640000  0.36790000  0.60470000  1.0
  H  H29  1  0.48185000  0.13195000  0.39547000  1.0
  H  H30  1  0.99305000  0.64859000  0.57351000  1.0
  H  H31  1  0.41933000  0.85150000  0.42635000  1.0
  H  H32  1  0.00695000  0.35141000  0.42649000  1.0
  H  H33  1  0.58066000  0.14850000  0.57365000  1.0
  C  C34  1  0.48240000  0.47673000  0.62795000  1.0
  C  C35  1  0.85451000  0.02328000  0.37204000  1.0
  C  C36  1  0.51761000  0.52327000  0.37205000  1.0
  C  C37  1  0.14549000  0.97672000  0.62796000  1.0
  C  C38  1  0.65521000  0.54855000  0.61231000  1.0
  C  C39  1  0.04294000  0.95156000  0.38767000  1.0
  C  C40  1  0.34480000  0.45145000  0.38769000  1.0
  C  C41  1  0.95705000  0.04843000  0.61233000  1.0
  C  C42  1  0.67757000  0.57346000  0.48662000  1.0
  C  C43  1  0.19092000  0.92660000  0.51335000  1.0
  C  C44  1  0.32243000  0.42654000  0.51338000  1.0
  C  C45  1  0.80908000  0.07340000  0.48665000  1.0
  C  C46  1  0.86105000  0.65999000  0.48072000  1.0
  C  C47  1  0.38019000  0.84012000  0.51917000  1.0
  C  C48  1  0.13896000  0.34002000  0.51928000  1.0
  C  C49  1  0.61979000  0.15988000  0.48082000  1.0
  O  O50  1  0.26752000  0.55812000  0.79558000  1.0
  O  O51  1  0.47215000  0.94184000  0.20438000  1.0
  O  O52  1  0.73248000  0.44188000  0.20442000  1.0
  O  O53  1  0.52785000  0.05816000  0.79562000  1.0
  O  O54  1  0.87056000  0.87226000  0.85913000  1.0
  O  O55  1  0.01144000  0.62780000  0.14077000  1.0
  O  O56  1  0.12944000  0.12774000  0.14087000  1.0
  O  O57  1  0.98856000  0.37220000  0.85923000  1.0
  O  O58  1  0.41940000  0.31256000  0.83007000  1.0
  O  O59  1  0.58960000  0.18744000  0.16990000  1.0
  O  O60  1  0.58059000  0.68744000  0.16992000  1.0
  O  O61  1  0.41040000  0.81256000  0.83010000  1.0
  O  O62  1  0.66703000  0.52967000  0.89340000  1.0
  O  O63  1  0.77389000  0.97036000  0.10660000  1.0
  O  O64  1  0.33298000  0.47033000  0.10660000  1.0
  O  O65  1  0.22611000  0.02964000  0.89340000  1.0
