# generated using pymatgen
data_CuH7CN9
_symmetry_space_group_name_H-M   'P 1'
_cell_length_a   5.66402000
_cell_length_b   6.74041086
_cell_length_c   10.11670000
_cell_angle_alpha   88.89987284
_cell_angle_beta   73.75410000
_cell_angle_gamma   65.17207273
_symmetry_Int_Tables_number   1
_chemical_formula_structural   CuH7CN9
_chemical_formula_sum   'Cu2 H14 C2 N18'
_cell_volume   334.39104796
_cell_formula_units_Z   2
loop_
 _symmetry_equiv_pos_site_id
 _symmetry_equiv_pos_as_xyz
  1  'x, y, z'
loop_
 _atom_site_type_symbol
 _atom_site_label
 _atom_site_symmetry_multiplicity
 _atom_site_fract_x
 _atom_site_fract_y
 _atom_site_fract_z
 _atom_site_occupancy
  Cu  Cu0  1  0.49998000  0.50002000  0.00001000  1.0
  Cu  Cu1  1  0.49998000  0.99994000  0.49999000  1.0
  H  H2  1  0.69968000  0.74629000  0.08295000  1.0
  H  H3  1  0.02867000  0.75379000  0.41715000  1.0
  H  H4  1  0.30031000  0.25373000  0.91706000  1.0
  H  H5  1  0.97131000  0.24616000  0.58284000  1.0
  H  H6  1  0.83135000  0.49765000  0.12617000  1.0
  H  H7  1  0.95502000  0.00244000  0.37391000  1.0
  H  H8  1  0.16865000  0.50236000  0.87381000  1.0
  H  H9  1  0.04493000  0.99753000  0.62611000  1.0
  H  H10  1  0.52757000  0.67056000  0.22094000  1.0
  H  H11  1  0.91890000  0.82948000  0.27912000  1.0
  H  H12  1  0.47246000  0.32945000  0.77907000  1.0
  H  H13  1  0.08112000  0.17050000  0.72087000  1.0
  H  H14  1  0.71075000  0.25023000  0.24992000  1.0
  H  H15  1  0.28918000  0.74983000  0.75013000  1.0
  C  C16  1  0.51990000  0.25021000  0.24996000  1.0
  C  C17  1  0.48007000  0.74981000  0.75007000  1.0
  N  N18  1  0.38138000  0.34451000  0.16088000  1.0
  N  N19  1  0.38679000  0.15580000  0.33907000  1.0
  N  N20  1  0.61861000  0.65549000  0.83913000  1.0
  N  N21  1  0.61319000  0.84418000  0.66092000  1.0
  N  N22  1  0.15687000  0.30623000  0.19638000  1.0
  N  N23  1  0.15949000  0.19392000  0.30363000  1.0
  N  N24  1  0.84317000  0.69372000  0.80360000  1.0
  N  N25  1  0.84054000  0.80601000  0.69634000  1.0
  N  N26  1  0.65037000  0.62121000  0.11983000  1.0
  N  N27  1  0.89122000  0.87886000  0.38025000  1.0
  N  N28  1  0.34963000  0.37881000  0.88018000  1.0
  N  N29  1  0.10875000  0.12111000  0.61975000  1.0
  N  N30  1  0.99999000  0.00001000  0.00001000  1.0
  N  N31  1  0.50006000  0.50005000  0.49999000  1.0
  N  N32  1  0.02377000  0.84701000  0.06417000  1.0
  N  N33  1  0.43483000  0.65306000  0.43586000  1.0
  N  N34  1  0.97622000  0.15299000  0.93584000  1.0
  N  N35  1  0.56529000  0.34702000  0.56412000  1.0
