# generated using pymatgen
data_AlH11C16NO5
_symmetry_space_group_name_H-M   'P 1'
_cell_length_a   6.63552000
_cell_length_b   17.01250000
_cell_length_c   17.70673931
_cell_angle_alpha   90.35822404
_cell_angle_beta   100.15133107
_cell_angle_gamma   98.06140000
_symmetry_Int_Tables_number   1
_chemical_formula_structural   AlH11C16NO5
_chemical_formula_sum   'Al2 H22 C32 N2 O10'
_cell_volume   1947.13962270
_cell_formula_units_Z   2
loop_
 _symmetry_equiv_pos_site_id
 _symmetry_equiv_pos_as_xyz
  1  'x, y, z'
loop_
 _atom_site_type_symbol
 _atom_site_label
 _atom_site_symmetry_multiplicity
 _atom_site_fract_x
 _atom_site_fract_y
 _atom_site_fract_z
 _atom_site_occupancy
  Al  Al0  1  0.99988000  0.49997000  0.50000000  1.0
  Al  Al1  1  0.49985000  0.49996000  0.49995000  1.0
  H  H2  1  0.81135000  0.58234000  0.56602000  1.0
  H  H3  1  0.18832000  0.41721000  0.43447000  1.0
  H  H4  1  0.36200000  0.25987000  0.53216000  1.0
  H  H5  1  0.30805000  0.11059000  0.53218000  1.0
  H  H6  1  0.90967000  0.10903000  0.47390000  1.0
  H  H7  1  0.96383000  0.25874000  0.47434000  1.0
  H  H8  1  0.09021000  0.89089000  0.52616000  1.0
  H  H9  1  0.69189000  0.88934000  0.46793000  1.0
  H  H10  1  0.63784000  0.74005000  0.46787000  1.0
  H  H11  1  0.03596000  0.74118000  0.52564000  1.0
  H  H12  1  0.07468000  0.53022000  0.73223000  1.0
  H  H13  1  0.14675000  0.53849000  0.87570000  1.0
  H  H14  1  0.69678000  0.43090000  0.87396000  1.0
  H  H15  1  0.30378000  0.56941000  0.12599000  1.0
  H  H16  1  0.92542000  0.46989000  0.26777000  1.0
  H  H17  1  0.85381000  0.46183000  0.12431000  1.0
  H  H18  1  0.75628000  0.45296000  0.68889000  1.0
  H  H19  1  0.58172000  0.36464000  0.67950000  1.0
  H  H20  1  0.77756000  0.38268000  0.76309000  1.0
  H  H21  1  0.22230000  0.61730000  0.23681000  1.0
  H  H22  1  0.41796000  0.63540000  0.32045000  1.0
  H  H23  1  0.24367000  0.54699000  0.31099000  1.0
  C  C24  1  0.30412000  0.48610000  0.63786000  1.0
  C  C25  1  0.30742000  0.64381000  0.50007000  1.0
  C  C26  1  0.69574000  0.51388000  0.36211000  1.0
  C  C27  1  0.69234000  0.35610000  0.49989000  1.0
  C  C28  1  0.66453000  0.26767000  0.50191000  1.0
  C  C29  1  0.47990000  0.22603000  0.51888000  1.0
  C  C30  1  0.44951000  0.14375000  0.51882000  1.0
  C  C31  1  0.60481000  0.10172000  0.50135000  1.0
  C  C32  1  0.79137000  0.14315000  0.48636000  1.0
  C  C33  1  0.82079000  0.22569000  0.48648000  1.0
  C  C34  1  0.20851000  0.85677000  0.51371000  1.0
  C  C35  1  0.39509000  0.89820000  0.49873000  1.0
  C  C36  1  0.55037000  0.85617000  0.48124000  1.0
  C  C37  1  0.51995000  0.77389000  0.48116000  1.0
  C  C38  1  0.33530000  0.73225000  0.49809000  1.0
  C  C39  1  0.17903000  0.77423000  0.51353000  1.0
  C  C40  1  0.34801000  0.47949000  0.72290000  1.0
  C  C41  1  0.21150000  0.50923000  0.76431000  1.0
  C  C42  1  0.25098000  0.51383000  0.84385000  1.0
  C  C43  1  0.43083000  0.48736000  0.88415000  1.0
  C  C44  1  0.56171000  0.45370000  0.84229000  1.0
  C  C45  1  0.52470000  0.44921000  0.76211000  1.0
  C  C46  1  0.47958000  0.49554000  0.96509000  1.0
  C  C47  1  0.52130000  0.50500000  0.03485000  1.0
  C  C48  1  0.56982000  0.51302000  0.11581000  1.0
  C  C49  1  0.43877000  0.54659000  0.15766000  1.0
  C  C50  1  0.47544000  0.55092000  0.23784000  1.0
  C  C51  1  0.65203000  0.52059000  0.27707000  1.0
  C  C52  1  0.78866000  0.49089000  0.23568000  1.0
  C  C53  1  0.74951000  0.48646000  0.15614000  1.0
  C  C54  1  0.66821000  0.41049000  0.72153000  1.0
  C  C55  1  0.33170000  0.58952000  0.27840000  1.0
  N  N56  1  0.58911000  0.01807000  0.49819000  1.0
  N  N57  1  0.41081000  0.98184000  0.50191000  1.0
  O  O58  1  0.11516000  0.48074000  0.60509000  1.0
  O  O59  1  0.46160000  0.60985000  0.49155000  1.0
  O  O60  1  0.54018000  0.49938000  0.39572000  1.0
  O  O61  1  0.86682000  0.39141000  0.48881000  1.0
  O  O62  1  0.88467000  0.51922000  0.39493000  1.0
  O  O63  1  0.53806000  0.39006000  0.50832000  1.0
  O  O64  1  0.45961000  0.50056000  0.60421000  1.0
  O  O65  1  0.13299000  0.60851000  0.51120000  1.0
  O  O66  1  0.77877000  0.53322000  0.53570000  1.0
  O  O67  1  0.22090000  0.46667000  0.46426000  1.0
