# generated using pymatgen
data_KTbH6C4O11
_symmetry_space_group_name_H-M   'P 1'
_cell_length_a   7.38036000
_cell_length_b   11.86520000
_cell_length_c   12.73070000
_cell_angle_alpha   99.12300000
_cell_angle_beta   89.98100000
_cell_angle_gamma   108.12600000
_symmetry_Int_Tables_number   1
_chemical_formula_structural   KTbH6C4O11
_chemical_formula_sum   'K4 Tb4 H24 C16 O44'
_cell_volume   1044.66763135
_cell_formula_units_Z   4
loop_
 _symmetry_equiv_pos_site_id
 _symmetry_equiv_pos_as_xyz
  1  'x, y, z'
loop_
 _atom_site_type_symbol
 _atom_site_label
 _atom_site_symmetry_multiplicity
 _atom_site_fract_x
 _atom_site_fract_y
 _atom_site_fract_z
 _atom_site_occupancy
  K  K0  1  0.40674000  0.83492000  0.63344000  1.0
  K  K1  1  0.57193000  0.16545000  0.86651000  1.0
  K  K2  1  0.59326000  0.16508000  0.36655000  1.0
  K  K3  1  0.42806000  0.83455000  0.13350000  1.0
  Tb  Tb4  1  0.86427000  0.72525000  0.48405000  1.0
  Tb  Tb5  1  0.13909000  0.27474000  0.01595000  1.0
  Tb  Tb6  1  0.13574000  0.27475000  0.51594000  1.0
  Tb  Tb7  1  0.86091000  0.72526000  0.98405000  1.0
  H  H8  1  0.45872000  0.10294000  0.60559000  1.0
  H  H9  1  0.35559000  0.89720000  0.89436000  1.0
  H  H10  1  0.54128000  0.89706000  0.39441000  1.0
  H  H11  1  0.64442000  0.10281000  0.10564000  1.0
  H  H12  1  0.67924000  0.12447000  0.63843000  1.0
  H  H13  1  0.55460000  0.87571000  0.86151000  1.0
  H  H14  1  0.32076000  0.87553000  0.36158000  1.0
  H  H15  1  0.44540000  0.12430000  0.13849000  1.0
  H  H16  1  0.18902000  0.62663000  0.78231000  1.0
  H  H17  1  0.56251000  0.37348000  0.71775000  1.0
  H  H18  1  0.81098000  0.37337000  0.21768000  1.0
  H  H19  1  0.43749000  0.62651000  0.28225000  1.0
  H  H20  1  0.29356000  0.55300000  0.70668000  1.0
  H  H21  1  0.74056000  0.44701000  0.79346000  1.0
  H  H22  1  0.70644000  0.44700000  0.29331000  1.0
  H  H23  1  0.25944000  0.55300000  0.20654000  1.0
  H  H24  1  0.17793000  0.63835000  0.36935000  1.0
  H  H25  1  0.53962000  0.36161000  0.13047000  1.0
  H  H26  1  0.82207000  0.36165000  0.63065000  1.0
  H  H27  1  0.46038000  0.63839000  0.86953000  1.0
  H  H28  1  0.14312000  0.58748000  0.47822000  1.0
  H  H29  1  0.55581000  0.41260000  0.02165000  1.0
  H  H30  1  0.85688000  0.41252000  0.52178000  1.0
  H  H31  1  0.44419000  0.58740000  0.97835000  1.0
  C  C32  1  0.93123000  0.69373000  0.72864000  1.0
  C  C33  1  0.23761000  0.30641000  0.77133000  1.0
  C  C34  1  0.06876000  0.30626000  0.27136000  1.0
  C  C35  1  0.76239000  0.69359000  0.22867000  1.0
  C  C36  1  0.80780000  0.77827000  0.74184000  1.0
  C  C37  1  0.02969000  0.22179000  0.75817000  1.0
  C  C38  1  0.19220000  0.22172000  0.25815000  1.0
  C  C39  1  0.97030000  0.77821000  0.24184000  1.0
  C  C40  1  0.09724000  0.00294000  0.52648000  1.0
  C  C41  1  0.09422000  0.99708000  0.97344000  1.0
  C  C42  1  0.90276000  0.99705000  0.47353000  1.0
  C  C43  1  0.90577000  0.00292000  0.02656000  1.0
  C  C44  1  0.43949000  0.54271000  0.50939000  1.0
  C  C45  1  0.89682000  0.45726000  0.99060000  1.0
  C  C46  1  0.56053000  0.45729000  0.49061000  1.0
  C  C47  1  0.10318000  0.54274000  0.00939000  1.0
  O  O48  1  0.96391000  0.65215000  0.81065000  1.0
  O  O49  1  0.31181000  0.34813000  0.68935000  1.0
  O  O50  1  0.03609000  0.34785000  0.18935000  1.0
  O  O51  1  0.68819000  0.65187000  0.31065000  1.0
  O  O52  1  0.54615000  0.07907000  0.64914000  1.0
  O  O53  1  0.46699000  0.92116000  0.85085000  1.0
  O  O54  1  0.45385000  0.92093000  0.35086000  1.0
  O  O55  1  0.53301000  0.07884000  0.14915000  1.0
  O  O56  1  0.99293000  0.67235000  0.63779000  1.0
  O  O57  1  0.32067000  0.32776000  0.86216000  1.0
  O  O58  1  0.00707000  0.32765000  0.36221000  1.0
  O  O59  1  0.67932000  0.67224000  0.13784000  1.0
  O  O60  1  0.31762000  0.62338000  0.76252000  1.0
  O  O61  1  0.69426000  0.37665000  0.73760000  1.0
  O  O62  1  0.68239000  0.37662000  0.23748000  1.0
  O  O63  1  0.30574000  0.62335000  0.26240000  1.0
  O  O64  1  0.76012000  0.80727000  0.83542000  1.0
  O  O65  1  0.95306000  0.19278000  0.66459000  1.0
  O  O66  1  0.23989000  0.19273000  0.16458000  1.0
  O  O67  1  0.04693000  0.80722000  0.33540000  1.0
  O  O68  1  0.11248000  0.64473000  0.43797000  1.0
  O  O69  1  0.46783000  0.35534000  0.06189000  1.0
  O  O70  1  0.88752000  0.35527000  0.56203000  1.0
  O  O71  1  0.53217000  0.64467000  0.93811000  1.0
  O  O72  1  0.76543000  0.81039000  0.65786000  1.0
  O  O73  1  0.95509000  0.18981000  0.84218000  1.0
  O  O74  1  0.23457000  0.18961000  0.34215000  1.0
  O  O75  1  0.04491000  0.81019000  0.15781000  1.0
  O  O76  1  0.22625000  0.10482000  0.54306000  1.0
  O  O77  1  0.12142000  0.89522000  0.95690000  1.0
  O  O78  1  0.77376000  0.89518000  0.45694000  1.0
  O  O79  1  0.87857000  0.10478000  0.04310000  1.0
  O  O80  1  0.11319000  0.90657000  0.54920000  1.0
  O  O81  1  0.20638000  0.09341000  0.95053000  1.0
  O  O82  1  0.88681000  0.09343000  0.45081000  1.0
  O  O83  1  0.79360000  0.90659000  0.04947000  1.0
  O  O84  1  0.52216000  0.65254000  0.50768000  1.0
  O  O85  1  0.86973000  0.34745000  0.99228000  1.0
  O  O86  1  0.47785000  0.34745000  0.49232000  1.0
  O  O87  1  0.13028000  0.65255000  0.00772000  1.0
  O  O88  1  0.26408000  0.49466000  0.52546000  1.0
  O  O89  1  0.76946000  0.50528000  0.97452000  1.0
  O  O90  1  0.73592000  0.50534000  0.47454000  1.0
  O  O91  1  0.23054000  0.49472000  0.02548000  1.0
