# generated using pymatgen
data_Mn3H40C75N4(O2F3)6
_symmetry_space_group_name_H-M   'P 1'
_cell_length_a   13.32920000
_cell_length_b   19.74410000
_cell_length_c   22.27980000
_cell_angle_alpha   78.99350000
_cell_angle_beta   72.60860000
_cell_angle_gamma   70.27800000
_symmetry_Int_Tables_number   1
_chemical_formula_structural   Mn3H40C75N4(O2F3)6
_chemical_formula_sum   'Mn6 H80 C150 N8 O24 F36'
_cell_volume   5240.64224855
_cell_formula_units_Z   2
loop_
 _symmetry_equiv_pos_site_id
 _symmetry_equiv_pos_as_xyz
  1  'x, y, z'
loop_
 _atom_site_type_symbol
 _atom_site_label
 _atom_site_symmetry_multiplicity
 _atom_site_fract_x
 _atom_site_fract_y
 _atom_site_fract_z
 _atom_site_occupancy
  Mn  Mn0  1  0.27943000  0.45366000  0.47713000  1.0
  Mn  Mn1  1  0.71022000  0.04631000  0.02284000  1.0
  Mn  Mn2  1  0.72058000  0.54633000  0.52287000  1.0
  Mn  Mn3  1  0.28979000  0.95368000  0.97715000  1.0
  Mn  Mn4  1  0.50001000  0.50001000  0.50000000  1.0
  Mn  Mn5  1  0.99998000  0.00002000  0.00001000  1.0
  H  H6  1  0.12040000  0.67348000  0.39634000  1.0
  H  H7  1  0.05160000  0.80355000  0.36031000  1.0
  H  H8  1  0.27381000  0.84845000  0.44327000  1.0
  H  H9  1  0.34905000  0.71797000  0.47216000  1.0
  H  H10  1  0.08774000  0.56263000  0.41877000  1.0
  H  H11  1  0.90019000  0.43928000  0.38467000  1.0
  H  H12  1  0.95417000  0.30516000  0.41955000  1.0
  H  H13  1  0.95291000  0.02247000  0.20315000  1.0
  H  H14  1  0.94536000  0.01011000  0.31649000  1.0
  H  H15  1  0.26064000  0.84501000  0.28364000  1.0
  H  H16  1  0.26969000  0.86227000  0.16908000  1.0
  H  H17  1  0.53253000  0.39170000  0.27546000  1.0
  H  H18  1  0.71490000  0.32244000  0.21308000  1.0
  H  H19  1  0.84273000  0.28014000  0.37750000  1.0
  H  H20  1  0.66228000  0.35250000  0.43753000  1.0
  H  H21  1  0.93281000  0.55785000  0.37778000  1.0
  H  H22  1  0.41002000  0.29035000  0.53079000  1.0
  H  H23  1  0.24135000  0.14422000  0.51467000  1.0
  H  H24  1  0.39265000  0.16451000  0.54761000  1.0
  H  H25  1  0.07783000  0.19768000  0.46609000  1.0
  H  H26  1  0.69026000  0.82652000  0.10363000  1.0
  H  H27  1  0.71546000  0.69647000  0.13975000  1.0
  H  H28  1  0.06545000  0.65151000  0.05671000  1.0
  H  H29  1  0.03911000  0.78197000  0.02773000  1.0
  H  H30  1  0.56920000  0.93739000  0.08113000  1.0
  H  H31  1  0.22427000  0.06071000  0.11524000  1.0
  H  H32  1  0.17902000  0.19487000  0.08050000  1.0
  H  H33  1  0.67842000  0.47751000  0.29680000  1.0
  H  H34  1  0.77193000  0.48982000  0.18346000  1.0
  H  H35  1  0.88939000  0.65485000  0.21644000  1.0
  H  H36  1  0.80104000  0.63766000  0.33095000  1.0
  H  H37  1  0.69985000  0.10824000  0.22446000  1.0
  H  H38  1  0.75053000  0.17757000  0.28688000  1.0
  H  H39  1  0.00031000  0.21995000  0.12246000  1.0
  H  H40  1  0.95225000  0.14757000  0.06241000  1.0
  H  H41  1  0.36855000  0.94214000  0.12205000  1.0
  H  H42  1  0.73118000  0.20975000  0.96940000  1.0
  H  H43  1  0.40030000  0.35580000  0.98534000  1.0
  H  H44  1  0.60479000  0.33560000  0.95263000  1.0
  H  H45  1  0.24176000  0.30232000  0.03385000  1.0
  H  H46  1  0.87960000  0.32652000  0.60366000  1.0
  H  H47  1  0.94840000  0.19645000  0.63969000  1.0
  H  H48  1  0.72619000  0.15155000  0.55673000  1.0
  H  H49  1  0.65094000  0.28203000  0.52784000  1.0
  H  H50  1  0.91227000  0.43737000  0.58123000  1.0
  H  H51  1  0.09981000  0.56072000  0.61534000  1.0
  H  H52  1  0.04583000  0.69484000  0.58045000  1.0
  H  H53  1  0.04710000  0.97752000  0.79684000  1.0
  H  H54  1  0.05464000  0.98989000  0.68351000  1.0
  H  H55  1  0.73935000  0.15499000  0.71637000  1.0
  H  H56  1  0.73031000  0.13773000  0.83092000  1.0
  H  H57  1  0.46747000  0.60830000  0.72455000  1.0
  H  H58  1  0.28510000  0.67755000  0.78692000  1.0
  H  H59  1  0.15727000  0.71986000  0.62250000  1.0
  H  H60  1  0.33772000  0.64750000  0.56248000  1.0
  H  H61  1  0.06719000  0.44215000  0.62222000  1.0
  H  H62  1  0.58998000  0.70965000  0.46922000  1.0
  H  H63  1  0.75865000  0.85578000  0.48534000  1.0
  H  H64  1  0.60735000  0.83549000  0.45240000  1.0
  H  H65  1  0.92217000  0.80232000  0.53391000  1.0
  H  H66  1  0.30974000  0.17348000  0.89637000  1.0
  H  H67  1  0.28454000  0.30354000  0.86024000  1.0
  H  H68  1  0.93455000  0.34849000  0.94329000  1.0
  H  H69  1  0.96090000  0.21803000  0.97227000  1.0
  H  H70  1  0.43080000  0.06261000  0.91887000  1.0
  H  H71  1  0.77573000  0.93929000  0.88476000  1.0
  H  H72  1  0.82098000  0.80513000  0.91950000  1.0
  H  H73  1  0.32157000  0.52249000  0.70320000  1.0
  H  H74  1  0.22807000  0.51018000  0.81654000  1.0
  H  H75  1  0.11061000  0.34516000  0.78356000  1.0
  H  H76  1  0.19896000  0.36235000  0.66905000  1.0
  H  H77  1  0.30015000  0.89176000  0.77554000  1.0
  H  H78  1  0.24948000  0.82243000  0.71312000  1.0
  H  H79  1  0.99969000  0.78005000  0.87754000  1.0
  H  H80  1  0.04776000  0.85243000  0.93759000  1.0
  H  H81  1  0.63145000  0.05786000  0.87795000  1.0
  H  H82  1  0.26882000  0.79025000  0.03060000  1.0
  H  H83  1  0.59970000  0.64420000  0.01467000  1.0
  H  H84  1  0.39521000  0.66440000  0.04737000  1.0
  H  H85  1  0.75824000  0.69768000  0.96615000  1.0
  C  C86  1  0.28369000  0.60861000  0.45752000  1.0
  C  C87  1  0.23863000  0.68745000  0.43700000  1.0
  C  C88  1  0.15414000  0.71234000  0.40579000  1.0
  C  C89  1  0.11506000  0.78546000  0.38626000  1.0
  C  C90  1  0.15678000  0.83604000  0.39934000  1.0
  C  C91  1  0.23995000  0.81118000  0.43160000  1.0
  C  C92  1  0.28175000  0.73755000  0.44897000  1.0
  C  C93  1  0.07125000  0.51185000  0.41982000  1.0
  C  C94  1  0.96717000  0.44295000  0.40119000  1.0
  C  C95  1  0.02151000  0.31005000  0.43489000  1.0
  C  C96  1  0.12121000  0.38841000  0.44836000  1.0
  C  C97  1  0.19445000  0.32581000  0.47463000  1.0
  C  C98  1  0.02046000  0.98403000  0.22109000  1.0
  C  C99  1  0.01625000  0.97617000  0.28527000  1.0
  C  C100  1  0.10254000  0.92608000  0.30855000  1.0
  C  C101  1  0.19340000  0.88465000  0.26616000  1.0
  C  C102  1  0.19865000  0.89402000  0.20202000  1.0
  C  C103  1  0.11224000  0.94391000  0.17876000  1.0
  C  C104  1  0.12043000  0.95560000  0.10906000  1.0
  C  C105  1  0.10659000  0.91631000  0.37808000  1.0
  C  C106  1  0.99010000  0.94125000  0.42434000  1.0
  C  C107  1  0.17573000  0.96462000  0.38210000  1.0
  C  C108  1  0.47425000  0.41242000  0.39875000  1.0
  C  C109  1  0.58575000  0.37501000  0.36071000  1.0
  C  C110  1  0.60174000  0.36742000  0.29698000  1.0
  C  C111  1  0.70395000  0.32851000  0.26239000  1.0
  C  C112  1  0.79196000  0.29493000  0.29079000  1.0
  C  C113  1  0.77632000  0.30456000  0.35400000  1.0
  C  C114  1  0.67439000  0.34453000  0.38851000  1.0
  C  C115  1  0.96205000  0.30533000  0.20995000  1.0
  C  C116  1  0.98560000  0.50872000  0.39708000  1.0
  C  C117  1  0.03544000  0.38020000  0.42770000  1.0
  C  C118  1  0.34515000  0.27917000  0.51737000  1.0
  C  C119  1  0.25163000  0.19788000  0.50825000  1.0
  C  C120  1  0.33505000  0.20901000  0.52644000  1.0
  C  C121  1  0.08980000  0.25069000  0.46065000  1.0
  C  C122  1  0.17813000  0.25696000  0.48119000  1.0
  C  C123  1  0.84986000  0.89137000  0.04250000  1.0
  C  C124  1  0.86305000  0.81255000  0.06299000  1.0
  C  C125  1  0.77227000  0.78767000  0.09421000  1.0
  C  C126  1  0.78673000  0.71456000  0.11379000  1.0
  C  C127  1  0.89209000  0.66397000  0.10070000  1.0
  C  C128  1  0.98266000  0.68880000  0.06839000  1.0
  C  C129  1  0.96821000  0.76243000  0.05100000  1.0
  C  C130  1  0.50300000  0.98814000  0.08007000  1.0
  C  C131  1  0.31143000  0.05706000  0.09872000  1.0
  C  C132  1  0.26656000  0.18997000  0.06510000  1.0
  C  C133  1  0.45807000  0.11160000  0.05157000  1.0
  C  C134  1  0.49497000  0.17421000  0.02533000  1.0
  C  C135  1  0.72546000  0.51596000  0.27890000  1.0
  C  C136  1  0.77760000  0.52379000  0.21473000  1.0
  C  C137  1  0.83706000  0.57389000  0.19144000  1.0
  C  C138  1  0.84423000  0.61527000  0.23386000  1.0
  C  C139  1  0.79466000  0.60591000  0.29799000  1.0
  C  C140  1  0.73477000  0.55607000  0.32123000  1.0
  C  C141  1  0.68486000  0.54446000  0.39092000  1.0
  C  C142  1  0.90080000  0.58370000  0.12193000  1.0
  C  C143  1  0.85543000  0.55890000  0.07557000  1.0
  C  C144  1  0.02222000  0.53534000  0.11784000  1.0
  C  C145  1  0.78549000  0.08755000  0.10119000  1.0
  C  C146  1  0.82155000  0.12496000  0.13923000  1.0
  C  C147  1  0.76624000  0.13254000  0.20295000  1.0
  C  C148  1  0.79494000  0.17146000  0.23756000  1.0
  C  C149  1  0.87772000  0.20507000  0.20917000  1.0
  C  C150  1  0.93488000  0.19549000  0.14596000  1.0
  C  C151  1  0.90742000  0.15551000  0.11145000  1.0
  C  C152  1  0.97733000  0.19471000  0.29007000  1.0
  C  C153  1  0.39151000  0.99127000  0.10280000  1.0
  C  C154  1  0.34345000  0.11981000  0.07226000  1.0
  C  C155  1  0.64175000  0.22089000  0.98273000  1.0
  C  C156  1  0.45784000  0.30215000  0.99175000  1.0
  C  C157  1  0.57058000  0.29104000  0.97367000  1.0
  C  C158  1  0.30127000  0.24931000  0.03929000  1.0
  C  C159  1  0.41638000  0.24306000  0.01876000  1.0
  C  C160  1  0.71631000  0.39139000  0.54248000  1.0
  C  C161  1  0.76137000  0.31255000  0.56300000  1.0
  C  C162  1  0.84586000  0.28766000  0.59421000  1.0
  C  C163  1  0.88494000  0.21454000  0.61374000  1.0
  C  C164  1  0.84322000  0.16396000  0.60066000  1.0
  C  C165  1  0.76005000  0.18882000  0.56840000  1.0
  C  C166  1  0.71824000  0.26245000  0.55104000  1.0
  C  C167  1  0.92875000  0.48815000  0.58018000  1.0
  C  C168  1  0.03283000  0.55705000  0.59881000  1.0
  C  C169  1  0.97848000  0.68995000  0.56511000  1.0
  C  C170  1  0.87879000  0.61159000  0.55164000  1.0
  C  C171  1  0.80555000  0.67419000  0.52537000  1.0
  C  C172  1  0.97954000  0.01597000  0.77891000  1.0
  C  C173  1  0.98375000  0.02383000  0.71473000  1.0
  C  C174  1  0.89745000  0.07392000  0.69145000  1.0
  C  C175  1  0.80660000  0.11535000  0.73384000  1.0
  C  C176  1  0.80135000  0.10598000  0.79798000  1.0
  C  C177  1  0.88777000  0.05609000  0.82124000  1.0
  C  C178  1  0.87957000  0.04440000  0.89094000  1.0
  C  C179  1  0.89341000  0.08368000  0.62192000  1.0
  C  C180  1  0.00990000  0.05875000  0.57566000  1.0
  C  C181  1  0.82427000  0.03538000  0.61790000  1.0
  C  C182  1  0.52576000  0.58758000  0.60125000  1.0
  C  C183  1  0.41426000  0.62498000  0.63929000  1.0
  C  C184  1  0.39826000  0.63258000  0.70302000  1.0
  C  C185  1  0.29605000  0.67149000  0.73762000  1.0
  C  C186  1  0.20804000  0.70507000  0.70921000  1.0
  C  C187  1  0.22369000  0.69544000  0.64600000  1.0
  C  C188  1  0.32562000  0.65547000  0.61149000  1.0
  C  C189  1  0.03795000  0.69466000  0.79005000  1.0
  C  C190  1  0.01440000  0.49128000  0.60292000  1.0
  C  C191  1  0.96456000  0.61980000  0.57230000  1.0
  C  C192  1  0.65485000  0.72083000  0.48263000  1.0
  C  C193  1  0.74837000  0.80212000  0.49176000  1.0
  C  C194  1  0.66494000  0.79099000  0.47356000  1.0
  C  C195  1  0.91020000  0.74931000  0.53935000  1.0
  C  C196  1  0.82186000  0.74304000  0.51882000  1.0
  C  C197  1  0.15014000  0.10863000  0.95750000  1.0
  C  C198  1  0.13695000  0.18746000  0.93701000  1.0
  C  C199  1  0.22774000  0.21233000  0.90579000  1.0
  C  C200  1  0.21327000  0.28544000  0.88621000  1.0
  C  C201  1  0.10791000  0.33603000  0.89930000  1.0
  C  C202  1  0.01734000  0.31120000  0.93161000  1.0
  C  C203  1  0.03179000  0.23757000  0.94900000  1.0
  C  C204  1  0.49700000  0.01186000  0.91993000  1.0
  C  C205  1  0.68858000  0.94295000  0.90129000  1.0
  C  C206  1  0.73344000  0.81003000  0.93490000  1.0
  C  C207  1  0.54193000  0.88840000  0.94843000  1.0
  C  C208  1  0.50503000  0.82579000  0.97467000  1.0
  C  C209  1  0.27454000  0.48404000  0.72110000  1.0
  C  C210  1  0.22239000  0.47621000  0.78528000  1.0
  C  C211  1  0.16293000  0.42612000  0.80856000  1.0
  C  C212  1  0.15577000  0.38473000  0.76614000  1.0
  C  C213  1  0.20535000  0.39409000  0.70201000  1.0
  C  C214  1  0.26523000  0.44393000  0.67876000  1.0
  C  C215  1  0.31514000  0.45554000  0.60907000  1.0
  C  C216  1  0.09920000  0.41630000  0.87807000  1.0
  C  C217  1  0.14456000  0.44110000  0.92443000  1.0
  C  C218  1  0.97778000  0.46466000  0.88216000  1.0
  C  C219  1  0.21450000  0.91245000  0.89881000  1.0
  C  C220  1  0.17845000  0.87504000  0.86076000  1.0
  C  C221  1  0.23376000  0.86746000  0.79705000  1.0
  C  C222  1  0.20506000  0.82854000  0.76244000  1.0
  C  C223  1  0.12228000  0.79492000  0.79084000  1.0
  C  C224  1  0.06512000  0.80451000  0.85404000  1.0
  C  C225  1  0.09259000  0.84448000  0.88855000  1.0
  C  C226  1  0.02267000  0.80528000  0.70993000  1.0
  C  C227  1  0.60850000  0.00873000  0.89720000  1.0
  C  C228  1  0.65655000  0.88019000  0.92775000  1.0
  C  C229  1  0.35825000  0.77911000  0.01727000  1.0
  C  C230  1  0.54215000  0.69785000  0.00825000  1.0
  C  C231  1  0.42942000  0.70896000  0.02633000  1.0
  C  C232  1  0.69873000  0.75069000  0.96071000  1.0
  C  C233  1  0.58362000  0.75694000  0.98124000  1.0
  C  C234  1  0.90124000  0.25000000  0.25000000  1.0
  C  C235  1  0.09876000  0.74999000  0.75000000  1.0
  N  N236  1  0.13739000  0.45353000  0.44481000  1.0
  N  N237  1  0.27700000  0.33577000  0.49221000  1.0
  N  N238  1  0.53581000  0.04647000  0.05511000  1.0
  N  N239  1  0.60504000  0.16427000  0.00781000  1.0
  N  N240  1  0.86261000  0.54647000  0.55519000  1.0
  N  N241  1  0.72300000  0.66423000  0.50779000  1.0
  N  N242  1  0.46420000  0.95353000  0.94489000  1.0
  N  N243  1  0.39496000  0.83573000  0.99219000  1.0
  O  O244  1  0.37418000  0.58953000  0.47270000  1.0
  O  O245  1  0.22708000  0.56715000  0.45894000  1.0
  O  O246  1  0.46242000  0.42113000  0.45718000  1.0
  O  O247  1  0.39159000  0.43140000  0.37599000  1.0
  O  O248  1  0.03223000  0.98279000  0.09131000  1.0
  O  O249  1  0.21832000  0.93773000  0.07320000  1.0
  O  O250  1  0.93645000  0.91044000  0.02742000  1.0
  O  O251  1  0.75323000  0.93283000  0.04103000  1.0
  O  O252  1  0.84074000  0.07888000  0.04276000  1.0
  O  O253  1  0.69912000  0.06852000  0.12396000  1.0
  O  O254  1  0.60602000  0.51736000  0.40862000  1.0
  O  O255  1  0.72895000  0.56237000  0.42682000  1.0
  O  O256  1  0.62582000  0.41047000  0.52731000  1.0
  O  O257  1  0.77292000  0.43285000  0.54105000  1.0
  O  O258  1  0.53759000  0.57887000  0.54282000  1.0
  O  O259  1  0.60841000  0.56859000  0.62401000  1.0
  O  O260  1  0.96777000  0.01721000  0.90869000  1.0
  O  O261  1  0.78168000  0.06227000  0.92680000  1.0
  O  O262  1  0.06355000  0.08956000  0.97257000  1.0
  O  O263  1  0.24677000  0.06717000  0.95897000  1.0
  O  O264  1  0.15925000  0.92113000  0.95724000  1.0
  O  O265  1  0.30089000  0.93147000  0.87604000  1.0
  O  O266  1  0.39399000  0.48265000  0.59137000  1.0
  O  O267  1  0.27106000  0.43763000  0.57318000  1.0
  F  F268  1  0.28284000  0.93874000  0.34924000  1.0
  F  F269  1  0.17652000  0.96822000  0.44255000  1.0
  F  F270  1  0.13746000  0.03364000  0.35692000  1.0
  F  F271  1  0.94303000  0.01411000  0.42062000  1.0
  F  F272  1  0.99408000  0.91865000  0.48551000  1.0
  F  F273  1  0.91837000  0.91228000  0.41293000  1.0
  F  F274  1  0.96431000  0.35230000  0.24649000  1.0
  F  F275  1  0.90982000  0.34538000  0.16496000  1.0
  F  F276  1  0.06896000  0.27366000  0.17931000  1.0
  F  F277  1  0.07075000  0.56122000  0.15064000  1.0
  F  F278  1  0.08688000  0.53175000  0.05735000  1.0
  F  F279  1  0.02780000  0.46635000  0.14304000  1.0
  F  F280  1  0.87760000  0.48602000  0.07916000  1.0
  F  F281  1  0.89782000  0.58165000  0.01445000  1.0
  F  F282  1  0.74334000  0.58781000  0.08703000  1.0
  F  F283  1  0.06310000  0.14776000  0.25350000  1.0
  F  F284  1  0.92030000  0.15459000  0.33503000  1.0
  F  F285  1  0.02193000  0.22638000  0.32071000  1.0
  F  F286  1  0.71715000  0.06126000  0.65076000  1.0
  F  F287  1  0.82347000  0.03178000  0.55745000  1.0
  F  F288  1  0.86254000  0.96636000  0.64308000  1.0
  F  F289  1  0.05696000  0.98589000  0.57938000  1.0
  F  F290  1  0.00592000  0.08135000  0.51449000  1.0
  F  F291  1  0.08163000  0.08772000  0.58707000  1.0
  F  F292  1  0.03569000  0.64770000  0.75351000  1.0
  F  F293  1  0.09018000  0.65462000  0.83504000  1.0
  F  F294  1  0.93104000  0.72634000  0.82069000  1.0
  F  F295  1  0.92925000  0.43878000  0.84935000  1.0
  F  F296  1  0.91311000  0.46824000  0.94265000  1.0
  F  F297  1  0.97220000  0.53365000  0.85696000  1.0
  F  F298  1  0.12239000  0.51398000  0.92083000  1.0
  F  F299  1  0.10217000  0.41835000  0.98555000  1.0
  F  F300  1  0.25666000  0.41219000  0.91297000  1.0
  F  F301  1  0.93689000  0.85224000  0.74651000  1.0
  F  F302  1  0.07970000  0.84541000  0.66497000  1.0
  F  F303  1  0.97807000  0.77362000  0.67929000  1.0
