# generated using pymatgen
data_ZnH28C30N(ClO2)2
_symmetry_space_group_name_H-M   'P 1'
_cell_length_a   16.58410000
_cell_length_b   17.58110000
_cell_length_c   17.77370000
_cell_angle_alpha   90.71450000
_cell_angle_beta   91.97630000
_cell_angle_gamma   95.27040000
_symmetry_Int_Tables_number   1
_chemical_formula_structural   ZnH28C30N(ClO2)2
_chemical_formula_sum   'Zn2 H56 C60 N2 Cl4 O8'
_cell_volume   5156.60426597
_cell_formula_units_Z   2
loop_
 _symmetry_equiv_pos_site_id
 _symmetry_equiv_pos_as_xyz
  1  'x, y, z'
loop_
 _atom_site_type_symbol
 _atom_site_label
 _atom_site_symmetry_multiplicity
 _atom_site_fract_x
 _atom_site_fract_y
 _atom_site_fract_z
 _atom_site_occupancy
  Zn  Zn0  1  0.40763000  0.49621000  0.49886000  1.0
  Zn  Zn1  1  0.58785000  0.50380000  0.50191000  1.0
  H  H2  1  0.99702000  0.48223000  0.58279000  1.0
  H  H3  1  0.99902000  0.51929000  0.41477000  1.0
  H  H4  1  0.44219000  0.00610000  0.42772000  1.0
  H  H5  1  0.54766000  0.99465000  0.57098000  1.0
  H  H6  1  0.38714000  0.47699000  0.88681000  1.0
  H  H7  1  0.64469000  0.46268000  0.87287000  1.0
  H  H8  1  0.38494000  0.50831000  0.10528000  1.0
  H  H9  1  0.64395000  0.55209000  0.14104000  1.0
  H  H10  1  0.71330000  0.58050000  0.66252000  1.0
  H  H11  1  0.65987000  0.61190000  0.58278000  1.0
  H  H12  1  0.75689000  0.65734000  0.60928000  1.0
  H  H13  1  0.89154000  0.65301000  0.61378000  1.0
  H  H14  1  0.95320000  0.57866000  0.63453000  1.0
  H  H15  1  0.86133000  0.58499000  0.68192000  1.0
  H  H16  1  0.71334000  0.43416000  0.34443000  1.0
  H  H17  1  0.63751000  0.40817000  0.40887000  1.0
  H  H18  1  0.71897000  0.35070000  0.39793000  1.0
  H  H19  1  0.83754000  0.33745000  0.41516000  1.0
  H  H20  1  0.93496000  0.38623000  0.43174000  1.0
  H  H21  1  0.87172000  0.41168000  0.35508000  1.0
  H  H22  1  0.11590000  0.58296000  0.64314000  1.0
  H  H23  1  0.06405000  0.61868000  0.56409000  1.0
  H  H24  1  0.16327000  0.65843000  0.59153000  1.0
  H  H25  1  0.29987000  0.64621000  0.59020000  1.0
  H  H26  1  0.35200000  0.56533000  0.61085000  1.0
  H  H27  1  0.26100000  0.57931000  0.65636000  1.0
  H  H28  1  0.12961000  0.42556000  0.31299000  1.0
  H  H29  1  0.04121000  0.41839000  0.36700000  1.0
  H  H30  1  0.11263000  0.35001000  0.37642000  1.0
  H  H31  1  0.24750000  0.34122000  0.39943000  1.0
  H  H32  1  0.33988000  0.40016000  0.40221000  1.0
  H  H33  1  0.26442000  0.41227000  0.33116000  1.0
  H  H34  1  0.30062000  0.26479000  0.47571000  1.0
  H  H35  1  0.34753000  0.31581000  0.55421000  1.0
  H  H36  1  0.30072000  0.22141000  0.56486000  1.0
  H  H37  1  0.30469000  0.09112000  0.55156000  1.0
  H  H38  1  0.33406000  0.04263000  0.47097000  1.0
  H  H39  1  0.28627000  0.12855000  0.46145000  1.0
  H  H40  1  0.68269000  0.22934000  0.57311000  1.0
  H  H41  1  0.63977000  0.31785000  0.58450000  1.0
  H  H42  1  0.67972000  0.29424000  0.49797000  1.0
  H  H43  1  0.68362000  0.15324000  0.47186000  1.0
  H  H44  1  0.62815000  0.06186000  0.46516000  1.0
  H  H45  1  0.66536000  0.09938000  0.55363000  1.0
  H  H46  1  0.33417000  0.89195000  0.43100000  1.0
  H  H47  1  0.36031000  0.93163000  0.52149000  1.0
  H  H48  1  0.30934000  0.83841000  0.51163000  1.0
  H  H49  1  0.31756000  0.71005000  0.49541000  1.0
  H  H50  1  0.37033000  0.66559000  0.42489000  1.0
  H  H51  1  0.32933000  0.75405000  0.40732000  1.0
  H  H52  1  0.70873000  0.87744000  0.54664000  1.0
  H  H53  1  0.65632000  0.96086000  0.54391000  1.0
  H  H54  1  0.69035000  0.92233000  0.46013000  1.0
  H  H55  1  0.70606000  0.79192000  0.44842000  1.0
  H  H56  1  0.66358000  0.69513000  0.45085000  1.0
  H  H57  1  0.70095000  0.74332000  0.53465000  1.0
  C  C58  1  0.49608000  0.35400000  0.50728000  1.0
  C  C59  1  0.48821000  0.51627000  0.35500000  1.0
  C  C60  1  0.50947000  0.64629000  0.49378000  1.0
  C  C61  1  0.49556000  0.48335000  0.64583000  1.0
  C  C62  1  0.75219000  0.45574000  0.45931000  1.0
  C  C63  1  0.83632000  0.44982000  0.46474000  1.0
  C  C64  1  0.88332000  0.49512000  0.51903000  1.0
  C  C65  1  0.84432000  0.54312000  0.56719000  1.0
  C  C66  1  0.76048000  0.54744000  0.55715000  1.0
  C  C67  1  0.97214000  0.49397000  0.52676000  1.0
  C  C68  1  0.02380000  0.50766000  0.47085000  1.0
  C  C69  1  0.15164000  0.45876000  0.42995000  1.0
  C  C70  1  0.11250000  0.50578000  0.47893000  1.0
  C  C71  1  0.15920000  0.54898000  0.53486000  1.0
  C  C72  1  0.24288000  0.54131000  0.54161000  1.0
  C  C73  1  0.23544000  0.45398000  0.44009000  1.0
  C  C74  1  0.49189000  0.26867000  0.51663000  1.0
  C  C75  1  0.56389000  0.23073000  0.52175000  1.0
  C  C76  1  0.55989000  0.15137000  0.50690000  1.0
  C  C77  1  0.48386000  0.10881000  0.49513000  1.0
  C  C78  1  0.41189000  0.14547000  0.50087000  1.0
  C  C79  1  0.41556000  0.22490000  0.51300000  1.0
  C  C80  1  0.47774000  0.02585000  0.47846000  1.0
  C  C81  1  0.51232000  0.97377000  0.52049000  1.0
  C  C82  1  0.58452000  0.85778000  0.50360000  1.0
  C  C83  1  0.51012000  0.89101000  0.50441000  1.0
  C  C84  1  0.43683000  0.84509000  0.48834000  1.0
  C  C85  1  0.43808000  0.76585000  0.47639000  1.0
  C  C86  1  0.51197000  0.73163000  0.48431000  1.0
  C  C87  1  0.58622000  0.77879000  0.49054000  1.0
  C  C88  1  0.50044000  0.46740000  0.72945000  1.0
  C  C89  1  0.43269000  0.46755000  0.77586000  1.0
  C  C90  1  0.44089000  0.47369000  0.85395000  1.0
  C  C91  1  0.51787000  0.47717000  0.89011000  1.0
  C  C92  1  0.58504000  0.46617000  0.84633000  1.0
  C  C93  1  0.57549000  0.46045000  0.76834000  1.0
  C  C94  1  0.52467000  0.49185000  0.96861000  1.0
  C  C95  1  0.52403000  0.50837000  0.03551000  1.0
  C  C96  1  0.51617000  0.52301000  0.11322000  1.0
  C  C97  1  0.43832000  0.51821000  0.14266000  1.0
  C  C98  1  0.42885000  0.52473000  0.21990000  1.0
  C  C99  1  0.49565000  0.53292000  0.27194000  1.0
  C  C100  1  0.57243000  0.54776000  0.23962000  1.0
  C  C101  1  0.58332000  0.54217000  0.16259000  1.0
  C  C102  1  0.72005000  0.60216000  0.60509000  1.0
  C  C103  1  0.89025000  0.59197000  0.62741000  1.0
  C  C104  1  0.70229000  0.40961000  0.40025000  1.0
  C  C105  1  0.87239000  0.39365000  0.41422000  1.0
  C  C106  1  0.12349000  0.60508000  0.58581000  1.0
  C  C107  1  0.29194000  0.58498000  0.60283000  1.0
  C  C108  1  0.10604000  0.41117000  0.36867000  1.0
  C  C109  1  0.27488000  0.39979000  0.39085000  1.0
  C  C110  1  0.33734000  0.25920000  0.52774000  1.0
  C  C111  1  0.33036000  0.09957000  0.49554000  1.0
  C  C112  1  0.64573000  0.27033000  0.54560000  1.0
  C  C113  1  0.63807000  0.11452000  0.49901000  1.0
  C  C114  1  0.35620000  0.87854000  0.48813000  1.0
  C  C115  1  0.36012000  0.72088000  0.44980000  1.0
  C  C116  1  0.66365000  0.90701000  0.51452000  1.0
  C  C117  1  0.66837000  0.75009000  0.48049000  1.0
  N  N118  1  0.71562000  0.50392000  0.50455000  1.0
  N  N119  1  0.27989000  0.49492000  0.49483000  1.0
  Cl  Cl120  1  0.33349000  0.46060000  0.74079000  1.0
  Cl  Cl121  1  0.66095000  0.44017000  0.72104000  1.0
  Cl  Cl122  1  0.32933000  0.52192000  0.24707000  1.0
  Cl  Cl123  1  0.65841000  0.57761000  0.29419000  1.0
  O  O124  1  0.43456000  0.38302000  0.47866000  1.0
  O  O125  1  0.56315000  0.39317000  0.52443000  1.0
  O  O126  1  0.54710000  0.48571000  0.38539000  1.0
  O  O127  1  0.42361000  0.53014000  0.38692000  1.0
  O  O128  1  0.57227000  0.61264000  0.47813000  1.0
  O  O129  1  0.44605000  0.61205000  0.52060000  1.0
  O  O130  1  0.42880000  0.46403000  0.61024000  1.0
  O  O131  1  0.55781000  0.51835000  0.61879000  1.0
