# generated using pymatgen
data_Cd2H22C28(N2O3)3
_symmetry_space_group_name_H-M   'P 1'
_cell_length_a   10.31970000
_cell_length_b   10.92810000
_cell_length_c   13.94060000
_cell_angle_alpha   68.34280000
_cell_angle_beta   79.92330000
_cell_angle_gamma   83.32690000
_symmetry_Int_Tables_number   1
_chemical_formula_structural   Cd2H22C28(N2O3)3
_chemical_formula_sum   'Cd4 H44 C56 N12 O18'
_cell_volume   1436.33567016
_cell_formula_units_Z   2
loop_
 _symmetry_equiv_pos_site_id
 _symmetry_equiv_pos_as_xyz
  1  'x, y, z'
loop_
 _atom_site_type_symbol
 _atom_site_label
 _atom_site_symmetry_multiplicity
 _atom_site_fract_x
 _atom_site_fract_y
 _atom_site_fract_z
 _atom_site_occupancy
  Cd  Cd0  1  0.45575000  0.55627000  0.36114000  1.0
  Cd  Cd1  1  0.54425000  0.44373000  0.63886000  1.0
  Cd  Cd2  1  0.55880000  0.49251000  0.13047000  1.0
  Cd  Cd3  1  0.44120000  0.50749000  0.86953000  1.0
  H  H4  1  0.38834000  0.05358000  0.09907000  1.0
  H  H5  1  0.61166000  0.94642000  0.90093000  1.0
  H  H6  1  0.39128000  0.16340000  0.22918000  1.0
  H  H7  1  0.60872000  0.83660000  0.77082000  1.0
  H  H8  1  0.45405000  0.02565000  0.40548000  1.0
  H  H9  1  0.54595000  0.97435000  0.59453000  1.0
  H  H10  1  0.15578000  0.58964000  0.27740000  1.0
  H  H11  1  0.84422000  0.41036000  0.72260000  1.0
  H  H12  1  0.92833000  0.68875000  0.37067000  1.0
  H  H13  1  0.07167000  0.31124000  0.62933000  1.0
  H  H14  1  0.22967000  0.59731000  0.56294000  1.0
  H  H15  1  0.77032000  0.40270000  0.43706000  1.0
  H  H16  1  0.99222000  0.66314000  0.63697000  1.0
  H  H17  1  0.00778000  0.33686000  0.36303000  1.0
  H  H18  1  0.86773000  0.69927000  0.55768000  1.0
  H  H19  1  0.13226000  0.30073000  0.44232000  1.0
  H  H20  1  0.83365000  0.88186000  0.64739000  1.0
  H  H21  1  0.16635000  0.11814000  0.35262000  1.0
  H  H22  1  0.14545000  0.88009000  0.39801000  1.0
  H  H23  1  0.85454000  0.11991000  0.60199000  1.0
  H  H24  1  0.00440000  0.68182000  0.15376000  1.0
  H  H25  1  0.99561000  0.31818000  0.84623000  1.0
  H  H26  1  0.11196000  0.71754000  0.96968000  1.0
  H  H27  1  0.88804000  0.28246000  0.03031000  1.0
  H  H28  1  0.97973000  0.68404000  0.84629000  1.0
  H  H29  1  0.02027000  0.31596000  0.15371000  1.0
  H  H30  1  0.73545000  0.27778000  0.31329000  1.0
  H  H31  1  0.26455000  0.72222000  0.68671000  1.0
  H  H32  1  0.82092000  0.02185000  0.32276000  1.0
  H  H33  1  0.17908000  0.97815000  0.67724000  1.0
  H  H34  1  0.62718000  0.21305000  0.05739000  1.0
  H  H35  1  0.37282000  0.78695000  0.94261000  1.0
  H  H36  1  0.67536000  0.96436000  0.11357000  1.0
  H  H37  1  0.32464000  0.03564000  0.88644000  1.0
  H  H38  1  0.76620000  0.88197000  0.21931000  1.0
  H  H39  1  0.23380000  0.11803000  0.78069000  1.0
  H  H40  1  0.01485000  0.92909000  0.18924000  1.0
  H  H41  1  0.98514000  0.07091000  0.81076000  1.0
  H  H42  1  0.78076000  0.04283000  0.93996000  1.0
  H  H43  1  0.21924000  0.95717000  0.06004000  1.0
  H  H44  1  0.33361000  0.38544000  0.26714000  1.0
  H  H45  1  0.66639000  0.61456000  0.73286000  1.0
  H  H46  1  0.43233000  0.30728000  0.35591000  1.0
  H  H47  1  0.56767000  0.69272000  0.64410000  1.0
  C  C48  1  0.43421000  0.78765000  0.13392000  1.0
  C  C49  1  0.56579000  0.21235000  0.86608000  1.0
  C  C50  1  0.43113000  0.86032000  0.20891000  1.0
  C  C51  1  0.56887000  0.13968000  0.79109000  1.0
  C  C52  1  0.40582000  0.99694000  0.17864000  1.0
  C  C53  1  0.59417000  0.00306000  0.82136000  1.0
  C  C54  1  0.41106000  0.05723000  0.25031000  1.0
  C  C55  1  0.58894000  0.94277000  0.74969000  1.0
  C  C56  1  0.44530000  0.98148000  0.34858000  1.0
  C  C57  1  0.55470000  0.01852000  0.65142000  1.0
  C  C58  1  0.46866000  0.84552000  0.37276000  1.0
  C  C59  1  0.53134000  0.15448000  0.62724000  1.0
  C  C60  1  0.50442000  0.75460000  0.47761000  1.0
  C  C61  1  0.49558000  0.24540000  0.52240000  1.0
  C  C62  1  0.13731000  0.60834000  0.34996000  1.0
  C  C63  1  0.86269000  0.39166000  0.65005000  1.0
  C  C64  1  0.02522000  0.65929000  0.39464000  1.0
  C  C65  1  0.97478000  0.34070000  0.60536000  1.0
  C  C66  1  0.18052000  0.61006000  0.49682000  1.0
  C  C67  1  0.81948000  0.38994000  0.50318000  1.0
  C  C68  1  0.97055000  0.71719000  0.55710000  1.0
  C  C69  1  0.02945000  0.28281000  0.44290000  1.0
  C  C70  1  0.98745000  0.86360000  0.52608000  1.0
  C  C71  1  0.01255000  0.13640000  0.47392000  1.0
  C  C72  1  0.90682000  0.93345000  0.58249000  1.0
  C  C73  1  0.09318000  0.06655000  0.41751000  1.0
  C  C74  1  0.08092000  0.93186000  0.44322000  1.0
  C  C75  1  0.91908000  0.06814000  0.55678000  1.0
  C  C76  1  0.75445000  0.60048000  0.24000000  1.0
  C  C77  1  0.24555000  0.39952000  0.75999000  1.0
  C  C78  1  0.82480000  0.62246000  0.13003000  1.0
  C  C79  1  0.17521000  0.37755000  0.86997000  1.0
  C  C80  1  0.95312000  0.66520000  0.09824000  1.0
  C  C81  1  0.04688000  0.33480000  0.90176000  1.0
  C  C82  1  0.01141000  0.68624000  0.99589000  1.0
  C  C83  1  0.98859000  0.31377000  0.00410000  1.0
  C  C84  1  0.93922000  0.66728000  0.92730000  1.0
  C  C85  1  0.06079000  0.33273000  0.07270000  1.0
  C  C86  1  0.81178000  0.62371000  0.96471000  1.0
  C  C87  1  0.18822000  0.37630000  0.03528000  1.0
  C  C88  1  0.72899000  0.59815000  0.89505000  1.0
  C  C89  1  0.27101000  0.40185000  0.10495000  1.0
  C  C90  1  0.72824000  0.22721000  0.26081000  1.0
  C  C91  1  0.27176000  0.77279000  0.73919000  1.0
  C  C92  1  0.77018000  0.10088000  0.26643000  1.0
  C  C93  1  0.22982000  0.89912000  0.73357000  1.0
  C  C94  1  0.66958000  0.20064000  0.12710000  1.0
  C  C95  1  0.33042000  0.79936000  0.87290000  1.0
  C  C96  1  0.75958000  0.97076000  0.14945000  1.0
  C  C97  1  0.24041000  0.02924000  0.85055000  1.0
  C  C98  1  0.88437000  0.98393000  0.07252000  1.0
  C  C99  1  0.11562000  0.01607000  0.92747000  1.0
  C  C100  1  0.00803000  0.96086000  0.10615000  1.0
  C  C101  1  0.99197000  0.03914000  0.89384000  1.0
  C  C102  1  0.87730000  0.02325000  0.96588000  1.0
  C  C103  1  0.12269000  0.97674000  0.03411000  1.0
  N  N104  1  0.45919000  0.78773000  0.30467000  1.0
  N  N105  1  0.54081000  0.21227000  0.69534000  1.0
  N  N106  1  0.75753000  0.60090000  0.06417000  1.0
  N  N107  1  0.24247000  0.39910000  0.93583000  1.0
  N  N108  1  0.23303000  0.57800000  0.41448000  1.0
  N  N109  1  0.76697000  0.42200000  0.58552000  1.0
  N  N110  1  0.05421000  0.65905000  0.48788000  1.0
  N  N111  1  0.94579000  0.34096000  0.51212000  1.0
  N  N112  1  0.66609000  0.28803000  0.17366000  1.0
  N  N113  1  0.33391000  0.71197000  0.82634000  1.0
  N  N114  1  0.73196000  0.08583000  0.18149000  1.0
  N  N115  1  0.26804000  0.91417000  0.81851000  1.0
  O  O116  1  0.49526000  0.63122000  0.49842000  1.0
  O  O117  1  0.50474000  0.36877000  0.50158000  1.0
  O  O118  1  0.53852000  0.80577000  0.53621000  1.0
  O  O119  1  0.46148000  0.19422000  0.46379000  1.0
  O  O120  1  0.43408000  0.66101000  0.17521000  1.0
  O  O121  1  0.56592000  0.33899000  0.82479000  1.0
  O  O122  1  0.43766000  0.85502000  0.03925000  1.0
  O  O123  1  0.56234000  0.14498000  0.96075000  1.0
  O  O124  1  0.66374000  0.51669000  0.27327000  1.0
  O  O125  1  0.33626000  0.48331000  0.72672000  1.0
  O  O126  1  0.78861000  0.66398000  0.28879000  1.0
  O  O127  1  0.21139000  0.33602000  0.71121000  1.0
  O  O128  1  0.61547000  0.55356000  0.93837000  1.0
  O  O129  1  0.38453000  0.44644000  0.06163000  1.0
  O  O130  1  0.77739000  0.62335000  0.80060000  1.0
  O  O131  1  0.22261000  0.37665000  0.19940000  1.0
  O  O132  1  0.41544000  0.39094000  0.29509000  1.0
  O  O133  1  0.58456000  0.60906000  0.70491000  1.0
