# generated using pymatgen
data_Zr3H2C24S6(Br3O8)2
_symmetry_space_group_name_H-M   'P 1'
_cell_length_a   16.50070000
_cell_length_b   16.50280000
_cell_length_c   23.27910000
_cell_angle_alpha   90.00830000
_cell_angle_beta   89.99070000
_cell_angle_gamma   89.99890000
_symmetry_Int_Tables_number   1
_chemical_formula_structural   Zr3H2C24S6(Br3O8)2
_chemical_formula_sum   'Zr12 H8 C96 S24 Br24 O64'
_cell_volume   6339.07923746
_cell_formula_units_Z   4
loop_
 _symmetry_equiv_pos_site_id
 _symmetry_equiv_pos_as_xyz
  1  'x, y, z'
loop_
 _atom_site_type_symbol
 _atom_site_label
 _atom_site_symmetry_multiplicity
 _atom_site_fract_x
 _atom_site_fract_y
 _atom_site_fract_z
 _atom_site_occupancy
  Zr  Zr0  1  0.60746000  0.60759000  0.50270000  1.0
  Zr  Zr1  1  0.39249000  0.39251000  0.49729000  1.0
  Zr  Zr2  1  0.50285000  0.50274000  0.39276000  1.0
  Zr  Zr3  1  0.49721000  0.49724000  0.60723000  1.0
  Zr  Zr4  1  0.39268000  0.60732000  0.50000000  1.0
  Zr  Zr5  1  0.60732000  0.39272000  0.50000000  1.0
  Zr  Zr6  1  0.10952000  0.89454000  0.99996000  1.0
  Zr  Zr7  1  0.89047000  0.10539000  0.99998000  1.0
  Zr  Zr8  1  0.89468000  0.89052000  0.99771000  1.0
  Zr  Zr9  1  0.10529000  0.10948000  0.00236000  1.0
  Zr  Zr10  1  0.00238000  0.00235000  0.89279000  1.0
  Zr  Zr11  1  0.99764000  0.99760000  0.10721000  1.0
  H  H12  1  0.50224000  0.67066000  0.41735000  1.0
  H  H13  1  0.32936000  0.49799000  0.58261000  1.0
  H  H14  1  0.50221000  0.33294000  0.41367000  1.0
  H  H15  1  0.66711000  0.49790000  0.58631000  1.0
  H  H16  1  0.00459000  0.83264000  0.91404000  1.0
  H  H17  1  0.99882000  0.17041000  0.91720000  1.0
  H  H18  1  0.82968000  0.99530000  0.08298000  1.0
  H  H19  1  0.16725000  0.00095000  0.08620000  1.0
  C  C20  1  0.49748000  0.77235000  0.50528000  1.0
  C  C21  1  0.22766000  0.50244000  0.49480000  1.0
  C  C22  1  0.50253000  0.22773000  0.50105000  1.0
  C  C23  1  0.77227000  0.49755000  0.49887000  1.0
  C  C24  1  0.64380000  0.63710000  0.36816000  1.0
  C  C25  1  0.63006000  0.63654000  0.63892000  1.0
  C  C26  1  0.36218000  0.35700000  0.63186000  1.0
  C  C27  1  0.36376000  0.36967000  0.36106000  1.0
  C  C28  1  0.36508000  0.63486000  0.36271000  1.0
  C  C29  1  0.64093000  0.37090000  0.36277000  1.0
  C  C30  1  0.62916000  0.35930000  0.63722000  1.0
  C  C31  1  0.36486000  0.63467000  0.63737000  1.0
  C  C32  1  0.14236000  0.87185000  0.86310000  1.0
  C  C33  1  0.86283000  0.13329000  0.86301000  1.0
  C  C34  1  0.86367000  0.13403000  0.13695000  1.0
  C  C35  1  0.13115000  0.86051000  0.13680000  1.0
  C  C36  1  0.00598000  0.72763000  0.00125000  1.0
  C  C37  1  0.27228000  0.00492000  0.99910000  1.0
  C  C38  1  0.99402000  0.27233000  0.00487000  1.0
  C  C39  1  0.72776000  0.99520000  0.99463000  1.0
  C  C40  1  0.86537000  0.86785000  0.86115000  1.0
  C  C41  1  0.86602000  0.85528000  0.13295000  1.0
  C  C42  1  0.12879000  0.13791000  0.13888000  1.0
  C  C43  1  0.13962000  0.13928000  0.86708000  1.0
  C  C44  1  0.56883000  0.08506000  0.50291000  1.0
  C  C45  1  0.43134000  0.91504000  0.50402000  1.0
  C  C46  1  0.50372000  0.13873000  0.50246000  1.0
  C  C47  1  0.49641000  0.86137000  0.50495000  1.0
  C  C48  1  0.45765000  0.99655000  0.50326000  1.0
  C  C49  1  0.54256000  0.00353000  0.50347000  1.0
  C  C50  1  0.08499000  0.56861000  0.49601000  1.0
  C  C51  1  0.91491000  0.43121000  0.49709000  1.0
  C  C52  1  0.13864000  0.50352000  0.49513000  1.0
  C  C53  1  0.86126000  0.49633000  0.49750000  1.0
  C  C54  1  0.99647000  0.45744000  0.49655000  1.0
  C  C55  1  0.00346000  0.54234000  0.49672000  1.0
  C  C56  1  0.68812000  0.34033000  0.25868000  1.0
  C  C57  1  0.81775000  0.16618000  0.24089000  1.0
  C  C58  1  0.68531000  0.32725000  0.31768000  1.0
  C  C59  1  0.82094000  0.17949000  0.18192000  1.0
  C  C60  1  0.76972000  0.22499000  0.26897000  1.0
  C  C61  1  0.73666000  0.28187000  0.23065000  1.0
  C  C62  1  0.31775000  0.66581000  0.74126000  1.0
  C  C63  1  0.18833000  0.84015000  0.75896000  1.0
  C  C64  1  0.32127000  0.67933000  0.68232000  1.0
  C  C65  1  0.18589000  0.82741000  0.81802000  1.0
  C  C66  1  0.23657000  0.78145000  0.73094000  1.0
  C  C67  1  0.26961000  0.72459000  0.76929000  1.0
  C  C68  1  0.33398000  0.68176000  0.25883000  1.0
  C  C69  1  0.16020000  0.81193000  0.24083000  1.0
  C  C70  1  0.32009000  0.67803000  0.31772000  1.0
  C  C71  1  0.17400000  0.81537000  0.18189000  1.0
  C  C72  1  0.21825000  0.76297000  0.26895000  1.0
  C  C73  1  0.27546000  0.73013000  0.23074000  1.0
  C  C74  1  0.65957000  0.31239000  0.74136000  1.0
  C  C75  1  0.83334000  0.18216000  0.75929000  1.0
  C  C76  1  0.67307000  0.31540000  0.68240000  1.0
  C  C77  1  0.81897000  0.17777000  0.81811000  1.0
  C  C78  1  0.77519000  0.23104000  0.73125000  1.0
  C  C79  1  0.71794000  0.26382000  0.76946000  1.0
  C  C80  1  0.26025000  0.25083000  0.67201000  1.0
  C  C81  1  0.23930000  0.24691000  0.82629000  1.0
  C  C82  1  0.31715000  0.31273000  0.67626000  1.0
  C  C83  1  0.18365000  0.18389000  0.82230000  1.0
  C  C84  1  0.26743000  0.27107000  0.77158000  1.0
  C  C85  1  0.23196000  0.22653000  0.72669000  1.0
  C  C86  1  0.74638000  0.74260000  0.32800000  1.0
  C  C87  1  0.76658000  0.74732000  0.17363000  1.0
  C  C88  1  0.68969000  0.68049000  0.32375000  1.0
  C  C89  1  0.82280000  0.80983000  0.17769000  1.0
  C  C90  1  0.73861000  0.72296000  0.22836000  1.0
  C  C91  1  0.77438000  0.76718000  0.27331000  1.0
  C  C92  1  0.32415000  0.32990000  0.25685000  1.0
  C  C93  1  0.16971000  0.17634000  0.24308000  1.0
  C  C94  1  0.31922000  0.32534000  0.31642000  1.0
  C  C95  1  0.17369000  0.18186000  0.18352000  1.0
  C  C96  1  0.22435000  0.23043000  0.26987000  1.0
  C  C97  1  0.26955000  0.27578000  0.23005000  1.0
  C  C98  1  0.66978000  0.67624000  0.74311000  1.0
  C  C99  1  0.82422000  0.82978000  0.75690000  1.0
  C  C100  1  0.67400000  0.68147000  0.68354000  1.0
  C  C101  1  0.81983000  0.82459000  0.81648000  1.0
  C  C102  1  0.76937000  0.77594000  0.73008000  1.0
  C  C103  1  0.72432000  0.73042000  0.76989000  1.0
  C  C104  1  0.92977000  0.41617000  0.00384000  1.0
  C  C105  1  0.07034000  0.58381000  0.00285000  1.0
  C  C106  1  0.99384000  0.36137000  0.00470000  1.0
  C  C107  1  0.00622000  0.63859000  0.00241000  1.0
  C  C108  1  0.04259000  0.50274000  0.00346000  1.0
  C  C109  1  0.95756000  0.49722000  0.00326000  1.0
  C  C110  1  0.58425000  0.93090000  0.98844000  1.0
  C  C111  1  0.41594000  0.06880000  0.00485000  1.0
  C  C112  1  0.63870000  0.99473000  0.99443000  1.0
  C  C113  1  0.36137000  0.00517000  0.99837000  1.0
  C  C114  1  0.49710000  0.04183000  0.00103000  1.0
  C  C115  1  0.50302000  0.95780000  0.99209000  1.0
  S  S116  1  0.41020000  0.08926000  0.50245000  1.0
  S  S117  1  0.58998000  0.91079000  0.50476000  1.0
  S  S118  1  0.08920000  0.40999000  0.49533000  1.0
  S  S119  1  0.91077000  0.58983000  0.49744000  1.0
  S  S120  1  0.74245000  0.24345000  0.33901000  1.0
  S  S121  1  0.76419000  0.26355000  0.16063000  1.0
  S  S122  1  0.26436000  0.76324000  0.66096000  1.0
  S  S123  1  0.24275000  0.74343000  0.83936000  1.0
  S  S124  1  0.23596000  0.73480000  0.33894000  1.0
  S  S125  1  0.25779000  0.75809000  0.16075000  1.0
  S  S126  1  0.75720000  0.25865000  0.66122000  1.0
  S  S127  1  0.73510000  0.23490000  0.83934000  1.0
  S  S128  1  0.33567000  0.34163000  0.74719000  1.0
  S  S129  1  0.16476000  0.15507000  0.75135000  1.0
  S  S130  1  0.67067000  0.65211000  0.25278000  1.0
  S  S131  1  0.84179000  0.83846000  0.24867000  1.0
  S  S132  1  0.24810000  0.25416000  0.33975000  1.0
  S  S133  1  0.24503000  0.25281000  0.16018000  1.0
  S  S134  1  0.74504000  0.75274000  0.66021000  1.0
  S  S135  1  0.74865000  0.75348000  0.83976000  1.0
  S  S136  1  0.08830000  0.40915000  0.00457000  1.0
  S  S137  1  0.91181000  0.59077000  0.00256000  1.0
  S  S138  1  0.59040000  0.08785000  0.00442000  1.0
  S  S139  1  0.40960000  0.91199000  0.98842000  1.0
  Br  Br140  1  0.67961000  0.11110000  0.50246000  1.0
  Br  Br141  1  0.32050000  0.88923000  0.50346000  1.0
  Br  Br142  1  0.11086000  0.67942000  0.49660000  1.0
  Br  Br143  1  0.88885000  0.32045000  0.49757000  1.0
  Br  Br144  1  0.63815000  0.42422000  0.21728000  1.0
  Br  Br145  1  0.86493000  0.08033000  0.28195000  1.0
  Br  Br146  1  0.36501000  0.58001000  0.78230000  1.0
  Br  Br147  1  0.13844000  0.92412000  0.71761000  1.0
  Br  Br148  1  0.42029000  0.63490000  0.21799000  1.0
  Br  Br149  1  0.07575000  0.86163000  0.28187000  1.0
  Br  Br150  1  0.57483000  0.36166000  0.78238000  1.0
  Br  Br151  1  0.91967000  0.13530000  0.71848000  1.0
  Br  Br152  1  0.22204000  0.20157000  0.60453000  1.0
  Br  Br153  1  0.27518000  0.29891000  0.89334000  1.0
  Br  Br154  1  0.78406000  0.79229000  0.39549000  1.0
  Br  Br155  1  0.72900000  0.69683000  0.10645000  1.0
  Br  Br156  1  0.39309000  0.39667000  0.21366000  1.0
  Br  Br157  1  0.10299000  0.10733000  0.28626000  1.0
  Br  Br158  1  0.60313000  0.60721000  0.78632000  1.0
  Br  Br159  1  0.89298000  0.89680000  0.71374000  1.0
  Br  Br160  1  0.81859000  0.39194000  0.00294000  1.0
  Br  Br161  1  0.18149000  0.60822000  0.00218000  1.0
  Br  Br162  1  0.60916000  0.82132000  0.97599000  1.0
  Br  Br163  1  0.39149000  0.17802000  0.01935000  1.0
  O  O164  1  0.56739000  0.73854000  0.50617000  1.0
  O  O165  1  0.26149000  0.43255000  0.49394000  1.0
  O  O166  1  0.43263000  0.26145000  0.49927000  1.0
  O  O167  1  0.73852000  0.56744000  0.50056000  1.0
  O  O168  1  0.59184000  0.58568000  0.34958000  1.0
  O  O169  1  0.57794000  0.58405000  0.65449000  1.0
  O  O170  1  0.41337000  0.40915000  0.65050000  1.0
  O  O171  1  0.41604000  0.42200000  0.34549000  1.0
  O  O172  1  0.34561000  0.65112000  0.41471000  1.0
  O  O173  1  0.65656000  0.35050000  0.41469000  1.0
  O  O174  1  0.64964000  0.34358000  0.58533000  1.0
  O  O175  1  0.34876000  0.65420000  0.58536000  1.0
  O  O176  1  0.58934000  0.42387000  0.34669000  1.0
  O  O177  1  0.57579000  0.41056000  0.65320000  1.0
  O  O178  1  0.41477000  0.58020000  0.65358000  1.0
  O  O179  1  0.41986000  0.58524000  0.34651000  1.0
  O  O180  1  0.65795000  0.65399000  0.42073000  1.0
  O  O181  1  0.34614000  0.35038000  0.41310000  1.0
  O  O182  1  0.34653000  0.34173000  0.57927000  1.0
  O  O183  1  0.64952000  0.65403000  0.58689000  1.0
  O  O184  1  0.73587000  0.42927000  0.49901000  1.0
  O  O185  1  0.42921000  0.73600000  0.50379000  1.0
  O  O186  1  0.26399000  0.57072000  0.49626000  1.0
  O  O187  1  0.57081000  0.26414000  0.50098000  1.0
  O  O188  1  0.61952000  0.49868000  0.56189000  1.0
  O  O189  1  0.50140000  0.38051000  0.43811000  1.0
  O  O190  1  0.37762000  0.49845000  0.55885000  1.0
  O  O191  1  0.50160000  0.62240000  0.44109000  1.0
  O  O192  1  0.41218000  0.50097000  0.45448000  1.0
  O  O193  1  0.49904000  0.58789000  0.54551000  1.0
  O  O194  1  0.49880000  0.40985000  0.54332000  1.0
  O  O195  1  0.59021000  0.50123000  0.45668000  1.0
  O  O196  1  0.15898000  0.85233000  0.91510000  1.0
  O  O197  1  0.84247000  0.14852000  0.91507000  1.0
  O  O198  1  0.84628000  0.15233000  0.08489000  1.0
  O  O199  1  0.15263000  0.84599000  0.08487000  1.0
  O  O200  1  0.93583000  0.76109000  0.99961000  1.0
  O  O201  1  0.23580000  0.07294000  0.00078000  1.0
  O  O202  1  0.06416000  0.23879000  0.00559000  1.0
  O  O203  1  0.76447000  0.92728000  0.99367000  1.0
  O  O204  1  0.91738000  0.92049000  0.84551000  1.0
  O  O205  1  0.91586000  0.90900000  0.15125000  1.0
  O  O206  1  0.07724000  0.08484000  0.15453000  1.0
  O  O207  1  0.08873000  0.08653000  0.84881000  1.0
  O  O208  1  0.85018000  0.83955000  0.08049000  1.0
  O  O209  1  0.14676000  0.15668000  0.08687000  1.0
  O  O210  1  0.15428000  0.15624000  0.91952000  1.0
  O  O211  1  0.84892000  0.84753000  0.91311000  1.0
  O  O212  1  0.07403000  0.76433000  0.00128000  1.0
  O  O213  1  0.76121000  0.06541000  0.99696000  1.0
  O  O214  1  0.92597000  0.23569000  0.00349000  1.0
  O  O215  1  0.23860000  0.93476000  0.99828000  1.0
  O  O216  1  0.07773000  0.91157000  0.15285000  1.0
  O  O217  1  0.09054000  0.92453000  0.84708000  1.0
  O  O218  1  0.91748000  0.08365000  0.84679000  1.0
  O  O219  1  0.91413000  0.08017000  0.15321000  1.0
  O  O220  1  0.11976000  0.00080000  0.06168000  1.0
  O  O221  1  0.87784000  0.99661000  0.05912000  1.0
  O  O222  1  0.99897000  0.12212000  0.94092000  1.0
  O  O223  1  0.00347000  0.88028000  0.93840000  1.0
  O  O224  1  0.91192000  0.99933000  0.95467000  1.0
  O  O225  1  0.08998000  0.00251000  0.95658000  1.0
  O  O226  1  0.99738000  0.08799000  0.04531000  1.0
  O  O227  1  0.00082000  0.90997000  0.04346000  1.0
