# generated using pymatgen
data_Cd3H20C10Cl6O5
_symmetry_space_group_name_H-M   'P 1'
_cell_length_a   7.16903000
_cell_length_b   10.35210000
_cell_length_c   14.06840000
_cell_angle_alpha   90.00020000
_cell_angle_beta   90.00020000
_cell_angle_gamma   76.30700000
_symmetry_Int_Tables_number   1
_chemical_formula_structural   Cd3H20C10Cl6O5
_chemical_formula_sum   'Cd6 H40 C20 Cl12 O10'
_cell_volume   1014.40471218
_cell_formula_units_Z   2
loop_
 _symmetry_equiv_pos_site_id
 _symmetry_equiv_pos_as_xyz
  1  'x, y, z'
loop_
 _atom_site_type_symbol
 _atom_site_label
 _atom_site_symmetry_multiplicity
 _atom_site_fract_x
 _atom_site_fract_y
 _atom_site_fract_z
 _atom_site_occupancy
  Cd  Cd0  1  0.03283000  0.66200000  0.25003000  1.0
  Cd  Cd1  1  0.96717000  0.33800000  0.75003000  1.0
  Cd  Cd2  1  0.48824000  0.80441000  0.22514000  1.0
  Cd  Cd3  1  0.51176000  0.19559000  0.72514000  1.0
  Cd  Cd4  1  0.25876000  0.23567000  0.23344000  1.0
  Cd  Cd5  1  0.74123000  0.76433000  0.73344000  1.0
  H  H6  1  0.26995000  0.41130000  0.96881000  1.0
  H  H7  1  0.73005000  0.58870000  0.46881000  1.0
  H  H8  1  0.13765000  0.50299000  0.06509000  1.0
  H  H9  1  0.86235000  0.49701000  0.56509000  1.0
  H  H10  1  0.48686000  0.50068000  0.07560000  1.0
  H  H11  1  0.51314000  0.49931000  0.57560000  1.0
  H  H12  1  0.54626000  0.32218000  0.07587000  1.0
  H  H13  1  0.45374000  0.67782000  0.57587000  1.0
  H  H14  1  0.69555000  0.33161000  0.22518000  1.0
  H  H15  1  0.30445000  0.66838000  0.72518000  1.0
  H  H16  1  0.60731000  0.49972000  0.26144000  1.0
  H  H17  1  0.39270000  0.50028000  0.76144000  1.0
  H  H18  1  0.40406000  0.42218000  0.38683000  1.0
  H  H19  1  0.59594000  0.57782000  0.88683000  1.0
  H  H20  1  0.65760000  0.35438000  0.40070000  1.0
  H  H21  1  0.34240000  0.64562000  0.90069000  1.0
  H  H22  1  0.56405000  0.05160000  0.42365000  1.0
  H  H23  1  0.43595000  0.94840000  0.92365000  1.0
  H  H24  1  0.51782000  0.20006000  0.49350000  1.0
  H  H25  1  0.48218000  0.79994000  0.99350000  1.0
  H  H26  1  0.16953000  0.24521000  0.45515000  1.0
  H  H27  1  0.83047000  0.75479000  0.95514000  1.0
  H  H28  1  0.25294000  0.08153000  0.50298000  1.0
  H  H29  1  0.74706000  0.91847000  0.00298000  1.0
  H  H30  1  0.98355000  0.00420000  0.39749000  1.0
  H  H31  1  0.01645000  0.99580000  0.89749000  1.0
  H  H32  1  0.91772000  0.18119000  0.38164000  1.0
  H  H33  1  0.08228000  0.81882000  0.88164000  1.0
  H  H34  1  0.80061000  0.05599000  0.24951000  1.0
  H  H35  1  0.19939000  0.94401000  0.74951000  1.0
  H  H36  1  0.04364000  0.97454000  0.22163000  1.0
  H  H37  1  0.95636000  0.02546000  0.72163000  1.0
  H  H38  1  0.06397000  0.07838000  0.07032000  1.0
  H  H39  1  0.93602000  0.92162000  0.57032000  1.0
  H  H40  1  0.81215000  0.15691000  0.07436000  1.0
  H  H41  1  0.18784000  0.84309000  0.57436000  1.0
  H  H42  1  0.89442000  0.38208000  0.07948000  1.0
  H  H43  1  0.10558000  0.61792000  0.57948000  1.0
  H  H44  1  0.97907000  0.28927000  0.97393000  1.0
  H  H45  1  0.02092000  0.71073000  0.47393000  1.0
  C  C46  1  0.24869000  0.41339000  0.04638000  1.0
  C  C47  1  0.75131000  0.58661000  0.54638000  1.0
  C  C48  1  0.43670000  0.41206000  0.09583000  1.0
  C  C49  1  0.56330000  0.58794000  0.59583000  1.0
  C  C50  1  0.57242000  0.40240000  0.25679000  1.0
  C  C51  1  0.42759000  0.59760000  0.75679000  1.0
  C  C52  1  0.53205000  0.35618000  0.35516000  1.0
  C  C53  1  0.46795000  0.64382000  0.85516000  1.0
  C  C54  1  0.47226000  0.15242000  0.43082000  1.0
  C  C55  1  0.52774000  0.84758000  0.93082000  1.0
  C  C56  1  0.26394000  0.14633000  0.44224000  1.0
  C  C57  1  0.73606000  0.85368000  0.94224000  1.0
  C  C58  1  0.00537000  0.08702000  0.35331000  1.0
  C  C59  1  0.99463000  0.91299000  0.85331000  1.0
  C  C60  1  0.95010000  0.06516000  0.25183000  1.0
  C  C61  1  0.04990000  0.93484000  0.75183000  1.0
  C  C62  1  0.95657000  0.16701000  0.09448000  1.0
  C  C63  1  0.04343000  0.83299000  0.59448000  1.0
  C  C64  1  0.99442000  0.29239000  0.05143000  1.0
  C  C65  1  0.00558000  0.70761000  0.55143000  1.0
  Cl  Cl66  1  0.02692000  0.43968000  0.32588000  1.0
  Cl  Cl67  1  0.97308000  0.56032000  0.82588000  1.0
  Cl  Cl68  1  0.20134000  0.75831000  0.11579000  1.0
  Cl  Cl69  1  0.79866000  0.24168000  0.61579000  1.0
  Cl  Cl70  1  0.76422000  0.81926000  0.34465000  1.0
  Cl  Cl71  1  0.23579000  0.18074000  0.84465000  1.0
  Cl  Cl72  1  0.75095000  0.64352000  0.12895000  1.0
  Cl  Cl73  1  0.24905000  0.35648000  0.62895000  1.0
  Cl  Cl74  1  0.30936000  0.71803000  0.35794000  1.0
  Cl  Cl75  1  0.69064000  0.28197000  0.85794000  1.0
  Cl  Cl76  1  0.47601000  0.02792000  0.14826000  1.0
  Cl  Cl77  1  0.52399000  0.97208000  0.64826000  1.0
  O  O78  1  0.18858000  0.29610000  0.07531000  1.0
  O  O79  1  0.81142000  0.70390000  0.57531000  1.0
  O  O80  1  0.40396000  0.41239000  0.19741000  1.0
  O  O81  1  0.59604000  0.58761000  0.69741000  1.0
  O  O82  1  0.50455000  0.22264000  0.34518000  1.0
  O  O83  1  0.49545000  0.77736000  0.84518000  1.0
  O  O84  1  0.20536000  0.09132000  0.35555000  1.0
  O  O85  1  0.79464000  0.90869000  0.85555000  1.0
  O  O86  1  0.96860000  0.17930000  0.19642000  1.0
  O  O87  1  0.03140000  0.82071000  0.69642000  1.0
