# generated using pymatgen
data_NaH9(C5O3)2
_symmetry_space_group_name_H-M   'P 1'
_cell_length_a   7.27972000
_cell_length_b   9.87417000
_cell_length_c   15.84949259
_cell_angle_alpha   95.36110927
_cell_angle_beta   103.25951328
_cell_angle_gamma   111.62990000
_symmetry_Int_Tables_number   1
_chemical_formula_structural   NaH9(C5O3)2
_chemical_formula_sum   'Na4 H36 C40 O24'
_cell_volume   1010.68481535
_cell_formula_units_Z   4
loop_
 _symmetry_equiv_pos_site_id
 _symmetry_equiv_pos_as_xyz
  1  'x, y, z'
loop_
 _atom_site_type_symbol
 _atom_site_label
 _atom_site_symmetry_multiplicity
 _atom_site_fract_x
 _atom_site_fract_y
 _atom_site_fract_z
 _atom_site_occupancy
  Na  Na0  1  0.62100000  0.67892000  0.07549000  1.0
  Na  Na1  1  0.36622000  0.82101000  0.42421000  1.0
  Na  Na2  1  0.37901000  0.32108000  0.92452000  1.0
  Na  Na3  1  0.63379000  0.17899000  0.57580000  1.0
  H  H4  1  0.14159000  0.22016000  0.17617000  1.0
  H  H5  1  0.24567000  0.27961000  0.32367000  1.0
  H  H6  1  0.85841000  0.77985000  0.82382000  1.0
  H  H7  1  0.75433000  0.72039000  0.67633000  1.0
  H  H8  1  0.14367000  0.40841000  0.08279000  1.0
  H  H9  1  0.15278000  0.09146000  0.41710000  1.0
  H  H10  1  0.85633000  0.59159000  0.91721000  1.0
  H  H11  1  0.84722000  0.90854000  0.58290000  1.0
  H  H12  1  0.87851000  0.33452000  0.93513000  1.0
  H  H13  1  0.10923000  0.16547000  0.56479000  1.0
  H  H14  1  0.12149000  0.66547000  0.06486000  1.0
  H  H15  1  0.89077000  0.83453000  0.43521000  1.0
  H  H16  1  0.62407000  0.07673000  0.88200000  1.0
  H  H17  1  0.16550000  0.42331000  0.61782000  1.0
  H  H18  1  0.37593000  0.92327000  0.11800000  1.0
  H  H19  1  0.83450000  0.57669000  0.38218000  1.0
  H  H20  1  0.45711000  0.16979000  0.16424000  1.0
  H  H21  1  0.62346000  0.33021000  0.33612000  1.0
  H  H22  1  0.54289000  0.83021000  0.83576000  1.0
  H  H23  1  0.37654000  0.66979000  0.66388000  1.0
  H  H24  1  0.65141000  0.15377000  0.11891000  1.0
  H  H25  1  0.87921000  0.34659000  0.38147000  1.0
  H  H26  1  0.34859000  0.84623000  0.88109000  1.0
  H  H27  1  0.12079000  0.65341000  0.61853000  1.0
  H  H28  1  0.17300000  0.02139000  0.21402000  1.0
  H  H29  1  0.43807000  0.47862000  0.28567000  1.0
  H  H30  1  0.82700000  0.97861000  0.78597000  1.0
  H  H31  1  0.56193000  0.52138000  0.71433000  1.0
  H  H32  1  0.97672000  0.03884000  0.25948000  1.0
  H  H33  1  0.17888000  0.46112000  0.24030000  1.0
  H  H34  1  0.02328000  0.96117000  0.74052000  1.0
  H  H35  1  0.82111000  0.53888000  0.75970000  1.0
  H  H36  1  0.83013000  0.55251000  0.21017000  1.0
  H  H37  1  0.56805000  0.94785000  0.28995000  1.0
  H  H38  1  0.16987000  0.44749000  0.78983000  1.0
  H  H39  1  0.43195000  0.05215000  0.71005000  1.0
  C  C40  1  0.74119000  0.99933000  0.99714000  1.0
  C  C41  1  0.24484000  0.50055000  0.50263000  1.0
  C  C42  1  0.25881000  0.00067000  0.00286000  1.0
  C  C43  1  0.75517000  0.49945000  0.49738000  1.0
  C  C44  1  0.88699000  0.04085000  0.08167000  1.0
  C  C45  1  0.26481000  0.45898000  0.41811000  1.0
  C  C46  1  0.11301000  0.95915000  0.91833000  1.0
  C  C47  1  0.73519000  0.54102000  0.58189000  1.0
  C  C48  1  0.02973000  0.18771000  0.11136000  1.0
  C  C49  1  0.23105000  0.31212000  0.38848000  1.0
  C  C50  1  0.97028000  0.81229000  0.88864000  1.0
  C  C51  1  0.76895000  0.68788000  0.61152000  1.0
  C  C52  1  0.02956000  0.29413000  0.05858000  1.0
  C  C53  1  0.17719000  0.20575000  0.44130000  1.0
  C  C54  1  0.97045000  0.70587000  0.94142000  1.0
  C  C55  1  0.82281000  0.79425000  0.55870000  1.0
  C  C56  1  0.88405000  0.25340000  0.97651000  1.0
  C  C57  1  0.15446000  0.24654000  0.52337000  1.0
  C  C58  1  0.11596000  0.74660000  0.02349000  1.0
  C  C59  1  0.84554000  0.75346000  0.47663000  1.0
  C  C60  1  0.73923000  0.10601000  0.94578000  1.0
  C  C61  1  0.18764000  0.39394000  0.55405000  1.0
  C  C62  1  0.26077000  0.89399000  0.05422000  1.0
  C  C63  1  0.81236000  0.60606000  0.44595000  1.0
  C  C64  1  0.53393000  0.20054000  0.11241000  1.0
  C  C65  1  0.72146000  0.29960000  0.38796000  1.0
  C  C66  1  0.46607000  0.79945000  0.88759000  1.0
  C  C67  1  0.27853000  0.70041000  0.61204000  1.0
  C  C68  1  0.63895000  0.36836000  0.12573000  1.0
  C  C69  1  0.64564000  0.13183000  0.37464000  1.0
  C  C70  1  0.36105000  0.63164000  0.87427000  1.0
  C  C71  1  0.35435000  0.86817000  0.62536000  1.0
  C  C72  1  0.01183000  0.96503000  0.21524000  1.0
  C  C73  1  0.33200000  0.53494000  0.28455000  1.0
  C  C74  1  0.98817000  0.03497000  0.78476000  1.0
  C  C75  1  0.66800000  0.46506000  0.71545000  1.0
  C  C76  1  0.99605000  0.82508000  0.25302000  1.0
  C  C77  1  0.41824000  0.67497000  0.24680000  1.0
  C  C78  1  0.00395000  0.17492000  0.74698000  1.0
  C  C79  1  0.58177000  0.32503000  0.75320000  1.0
  O  O80  1  0.60996000  0.85176000  0.97335000  1.0
  O  O81  1  0.28458000  0.64810000  0.52631000  1.0
  O  O82  1  0.39004000  0.14824000  0.02665000  1.0
  O  O83  1  0.71542000  0.35189000  0.47369000  1.0
  O  O84  1  0.39515000  0.56528000  0.93443000  1.0
  O  O85  1  0.39453000  0.93468000  0.56524000  1.0
  O  O86  1  0.60484000  0.43472000  0.06557000  1.0
  O  O87  1  0.60547000  0.06532000  0.43476000  1.0
  O  O88  1  0.76410000  0.43274000  0.20570000  1.0
  O  O89  1  0.62640000  0.06759000  0.29460000  1.0
  O  O90  1  0.23590000  0.56726000  0.79430000  1.0
  O  O91  1  0.37360000  0.93241000  0.70540000  1.0
  O  O92  1  0.87397000  0.92875000  0.12811000  1.0
  O  O93  1  0.31750000  0.57110000  0.37168000  1.0
  O  O94  1  0.12603000  0.07125000  0.87189000  1.0
  O  O95  1  0.68250000  0.42891000  0.62832000  1.0
  O  O96  1  0.88718000  0.70045000  0.19975000  1.0
  O  O97  1  0.48701000  0.79956000  0.30007000  1.0
  O  O98  1  0.11282000  0.29955000  0.80025000  1.0
  O  O99  1  0.51299000  0.20043000  0.69993000  1.0
  O  O100  1  0.09490000  0.84705000  0.33229000  1.0
  O  O101  1  0.41579000  0.65304000  0.16750000  1.0
  O  O102  1  0.90510000  0.15295000  0.66771000  1.0
  O  O103  1  0.58421000  0.34696000  0.83250000  1.0
