# generated using pymatgen
data_CuH14Pd(C5N4)2
_symmetry_space_group_name_H-M   'P 1'
_cell_length_a   8.89865000
_cell_length_b   8.97867000
_cell_length_c   10.92850000
_cell_angle_alpha   73.99370000
_cell_angle_beta   72.57520000
_cell_angle_gamma   62.62540000
_symmetry_Int_Tables_number   1
_chemical_formula_structural   CuH14Pd(C5N4)2
_chemical_formula_sum   'Cu2 H28 Pd2 C20 N16'
_cell_volume   729.91956288
_cell_formula_units_Z   2
loop_
 _symmetry_equiv_pos_site_id
 _symmetry_equiv_pos_as_xyz
  1  'x, y, z'
loop_
 _atom_site_type_symbol
 _atom_site_label
 _atom_site_symmetry_multiplicity
 _atom_site_fract_x
 _atom_site_fract_y
 _atom_site_fract_z
 _atom_site_occupancy
  Cu  Cu0  1  0.85294000  0.13629000  0.76015000  1.0
  Cu  Cu1  1  0.14706000  0.86371000  0.23985000  1.0
  H  H2  1  0.70071000  0.46502000  0.73311000  1.0
  H  H3  1  0.29930000  0.53498000  0.26689000  1.0
  H  H4  1  0.60745000  0.38693000  0.87488000  1.0
  H  H5  1  0.39256000  0.61307000  0.12512000  1.0
  H  H6  1  0.89394000  0.35584000  0.55605000  1.0
  H  H7  1  0.10606000  0.64416000  0.44395000  1.0
  H  H8  1  0.07741000  0.24644000  0.60648000  1.0
  H  H9  1  0.92259000  0.75356000  0.39352000  1.0
  H  H10  1  0.01811000  0.15672000  0.52817000  1.0
  H  H11  1  0.98190000  0.84328000  0.47182000  1.0
  H  H12  1  0.62072000  0.11919000  0.97113000  1.0
  H  H13  1  0.37928000  0.88081000  0.02887000  1.0
  H  H14  1  0.70637000  0.94332000  0.90768000  1.0
  H  H15  1  0.29364000  0.05668000  0.09232000  1.0
  H  H16  1  0.81857000  0.97165000  0.98746000  1.0
  H  H17  1  0.18143000  0.02835000  0.01254000  1.0
  H  H18  1  0.21802000  0.98169000  0.80339000  1.0
  H  H19  1  0.78198000  0.01831000  0.19661000  1.0
  H  H20  1  0.47532000  0.70700000  0.79654000  1.0
  H  H21  1  0.52469000  0.29299000  0.20345000  1.0
  H  H22  1  0.18025000  0.51560000  0.68178000  1.0
  H  H23  1  0.81975000  0.48440000  0.31823000  1.0
  H  H24  1  0.93133000  0.79701000  0.70249000  1.0
  H  H25  1  0.06867000  0.20299000  0.29751000  1.0
  H  H26  1  0.45598000  0.31493000  0.76354000  1.0
  H  H27  1  0.54402000  0.68507000  0.23646000  1.0
  H  H28  1  0.55145000  0.40760000  0.61703000  1.0
  H  H29  1  0.44855000  0.59240000  0.38297000  1.0
  Pd  Pd30  1  0.99999000  0.50001000  0.00001000  1.0
  Pd  Pd31  1  0.50000000  0.00000000  0.50000000  1.0
  C  C32  1  0.24199000  0.36416000  0.02480000  1.0
  C  C33  1  0.75800000  0.63586000  0.97521000  1.0
  C  C34  1  0.99996000  0.32265000  0.92536000  1.0
  C  C35  1  0.00003000  0.67735000  0.07464000  1.0
  C  C36  1  0.64972000  0.03775000  0.57890000  1.0
  C  C37  1  0.35028000  0.96225000  0.42110000  1.0
  C  C38  1  0.35125000  0.24729000  0.48412000  1.0
  C  C39  1  0.64875000  0.75271000  0.51589000  1.0
  C  C40  1  0.21562000  0.87399000  0.77764000  1.0
  C  C41  1  0.78438000  0.12601000  0.22236000  1.0
  C  C42  1  0.35964000  0.71923000  0.77212000  1.0
  C  C43  1  0.64036000  0.28076000  0.22788000  1.0
  C  C44  1  0.35185000  0.58610000  0.73555000  1.0
  C  C45  1  0.64815000  0.41390000  0.26445000  1.0
  C  C46  1  0.19466000  0.61490000  0.71002000  1.0
  C  C47  1  0.80534000  0.38510000  0.28999000  1.0
  C  C48  1  0.05576000  0.77174000  0.72006000  1.0
  C  C49  1  0.94423000  0.22826000  0.27994000  1.0
  C  C50  1  0.50208000  0.41606000  0.72107000  1.0
  C  C51  1  0.49792000  0.58393000  0.27893000  1.0
  N  N52  1  0.38565000  0.28752000  0.03878000  1.0
  N  N53  1  0.61434000  0.71249000  0.96121000  1.0
  N  N54  1  0.99506000  0.21762000  0.88408000  1.0
  N  N55  1  0.00494000  0.78241000  0.11593000  1.0
  N  N56  1  0.73957000  0.06232000  0.62319000  1.0
  N  N57  1  0.26043000  0.93767000  0.37681000  1.0
  N  N58  1  0.26308000  0.39366000  0.47444000  1.0
  N  N59  1  0.73692000  0.60634000  0.52556000  1.0
  N  N60  1  0.06576000  0.90103000  0.75190000  1.0
  N  N61  1  0.93424000  0.09897000  0.24810000  1.0
  N  N62  1  0.64836000  0.37826000  0.77798000  1.0
  N  N63  1  0.35164000  0.62173000  0.22202000  1.0
  N  N64  1  0.97311000  0.23600000  0.59469000  1.0
  N  N65  1  0.02690000  0.76400000  0.40531000  1.0
  N  N66  1  0.73445000  0.03342000  0.92486000  1.0
  N  N67  1  0.26555000  0.96658000  0.07513000  1.0
