# generated using pymatgen
data_CuH18C20(N2O)4
_symmetry_space_group_name_H-M   'P 1'
_cell_length_a   7.42317000
_cell_length_b   11.87820000
_cell_length_c   12.78730000
_cell_angle_alpha   89.99730000
_cell_angle_beta   89.99980000
_cell_angle_gamma   85.70300000
_symmetry_Int_Tables_number   1
_chemical_formula_structural   CuH18C20(N2O)4
_chemical_formula_sum   'Cu2 H36 C40 N16 O8'
_cell_volume   1124.33672912
_cell_formula_units_Z   2
loop_
 _symmetry_equiv_pos_site_id
 _symmetry_equiv_pos_as_xyz
  1  'x, y, z'
loop_
 _atom_site_type_symbol
 _atom_site_label
 _atom_site_symmetry_multiplicity
 _atom_site_fract_x
 _atom_site_fract_y
 _atom_site_fract_z
 _atom_site_occupancy
  Cu  Cu0  1  0.00001000  0.50001000  0.49999000  1.0
  Cu  Cu1  1  0.49999000  0.50000000  0.00000000  1.0
  H  H2  1  0.35829000  0.97659000  0.49285000  1.0
  H  H3  1  0.14171000  0.02341000  0.99285000  1.0
  H  H4  1  0.64170000  0.02341000  0.50716000  1.0
  H  H5  1  0.85828000  0.97659000  0.00714000  1.0
  H  H6  1  0.25291000  0.85369000  0.47181000  1.0
  H  H7  1  0.24708000  0.14632000  0.97182000  1.0
  H  H8  1  0.74710000  0.14630000  0.52819000  1.0
  H  H9  1  0.75291000  0.85368000  0.02818000  1.0
  H  H10  1  0.96373000  0.75124000  0.53265000  1.0
  H  H11  1  0.53626000  0.24877000  0.03265000  1.0
  H  H12  1  0.03624000  0.24876000  0.46735000  1.0
  H  H13  1  0.46373000  0.75123000  0.96735000  1.0
  H  H14  1  0.08475000  0.01787000  0.60415000  1.0
  H  H15  1  0.41528000  0.98211000  0.10414000  1.0
  H  H16  1  0.91520000  0.98212000  0.39585000  1.0
  H  H17  1  0.58477000  0.01789000  0.89584000  1.0
  H  H18  1  0.79483000  0.95407000  0.65546000  1.0
  H  H19  1  0.70518000  0.04593000  0.15546000  1.0
  H  H20  1  0.20518000  0.04592000  0.34453000  1.0
  H  H21  1  0.29480000  0.95407000  0.84452000  1.0
  H  H22  1  0.95442000  0.95673000  0.75897000  1.0
  H  H23  1  0.54560000  0.04324000  0.25897000  1.0
  H  H24  1  0.04554000  0.04325000  0.24106000  1.0
  H  H25  1  0.45445000  0.95677000  0.74105000  1.0
  H  H26  1  0.93031000  0.46941000  0.72020000  1.0
  H  H27  1  0.56969000  0.53058000  0.22021000  1.0
  H  H28  1  0.06969000  0.53058000  0.27977000  1.0
  H  H29  1  0.43033000  0.46944000  0.77977000  1.0
  H  H30  1  0.87881000  0.80013000  0.86277000  1.0
  H  H31  1  0.62120000  0.19984000  0.36278000  1.0
  H  H32  1  0.12121000  0.19985000  0.13723000  1.0
  H  H33  1  0.37878000  0.80019000  0.63723000  1.0
  H  H34  1  0.87800000  0.58901000  0.88067000  1.0
  H  H35  1  0.62201000  0.41094000  0.38068000  1.0
  H  H36  1  0.12204000  0.41095000  0.11932000  1.0
  H  H37  1  0.37801000  0.58908000  0.61931000  1.0
  C  C38  1  0.68637000  0.65106000  0.41814000  1.0
  C  C39  1  0.81361000  0.34895000  0.91815000  1.0
  C  C40  1  0.31365000  0.34895000  0.58185000  1.0
  C  C41  1  0.18637000  0.65106000  0.08186000  1.0
  C  C42  1  0.52715000  0.83941000  0.44407000  1.0
  C  C43  1  0.97283000  0.16059000  0.94409000  1.0
  C  C44  1  0.47285000  0.16059000  0.55592000  1.0
  C  C45  1  0.02716000  0.83941000  0.05591000  1.0
  C  C46  1  0.36454000  0.66404000  0.42418000  1.0
  C  C47  1  0.13542000  0.33597000  0.92418000  1.0
  C  C48  1  0.63546000  0.33597000  0.57582000  1.0
  C  C49  1  0.86456000  0.66403000  0.07582000  1.0
  C  C50  1  0.94651000  0.71904000  0.61138000  1.0
  C  C51  1  0.55349000  0.28095000  0.11139000  1.0
  C  C52  1  0.05347000  0.28095000  0.38862000  1.0
  C  C53  1  0.44653000  0.71905000  0.88862000  1.0
  C  C54  1  0.52602000  0.71766000  0.42510000  1.0
  C  C55  1  0.97395000  0.28235000  0.92511000  1.0
  C  C56  1  0.47398000  0.28235000  0.57489000  1.0
  C  C57  1  0.02604000  0.71765000  0.07489000  1.0
  C  C58  1  0.92797000  0.91767000  0.68275000  1.0
  C  C59  1  0.57204000  0.08231000  0.18275000  1.0
  C  C60  1  0.07202000  0.08231000  0.31727000  1.0
  C  C61  1  0.42797000  0.91769000  0.81726000  1.0
  C  C62  1  0.92618000  0.56110000  0.71696000  1.0
  C  C63  1  0.57383000  0.43888000  0.21697000  1.0
  C  C64  1  0.07383000  0.43889000  0.28303000  1.0
  C  C65  1  0.42619000  0.56113000  0.78302000  1.0
  C  C66  1  0.92369000  0.79218000  0.69667000  1.0
  C  C67  1  0.57631000  0.20780000  0.19667000  1.0
  C  C68  1  0.07630000  0.20781000  0.30334000  1.0
  C  C69  1  0.42371000  0.79220000  0.80334000  1.0
  C  C70  1  0.89871000  0.74494000  0.79508000  1.0
  C  C71  1  0.60131000  0.25503000  0.29508000  1.0
  C  C72  1  0.10130000  0.25504000  0.20492000  1.0
  C  C73  1  0.39870000  0.74499000  0.70492000  1.0
  C  C74  1  0.89880000  0.62827000  0.80527000  1.0
  C  C75  1  0.60120000  0.37170000  0.30527000  1.0
  C  C76  1  0.10122000  0.37171000  0.19472000  1.0
  C  C77  1  0.39882000  0.62831000  0.69472000  1.0
  N  N78  1  0.22550000  0.62283000  0.42617000  1.0
  N  N79  1  0.27445000  0.37719000  0.92616000  1.0
  N  N80  1  0.77450000  0.37717000  0.57384000  1.0
  N  N81  1  0.72552000  0.62282000  0.07384000  1.0
  N  N82  1  0.94932000  0.60637000  0.62192000  1.0
  N  N83  1  0.55069000  0.39363000  0.12193000  1.0
  N  N84  1  0.05068000  0.39363000  0.37807000  1.0
  N  N85  1  0.44932000  0.60638000  0.87807000  1.0
  N  N86  1  0.82047000  0.59186000  0.41125000  1.0
  N  N87  1  0.67953000  0.40816000  0.91124000  1.0
  N  N88  1  0.17955000  0.40816000  0.58876000  1.0
  N  N89  1  0.32047000  0.59184000  0.08876000  1.0
  N  N90  1  0.36456000  0.89647000  0.46010000  1.0
  N  N91  1  0.13543000  0.10354000  0.96011000  1.0
  N  N92  1  0.63544000  0.10353000  0.53991000  1.0
  N  N93  1  0.86456000  0.89647000  0.03989000  1.0
  O  O94  1  0.67263000  0.88776000  0.44633000  1.0
  O  O95  1  0.82736000  0.11224000  0.94635000  1.0
  O  O96  1  0.32737000  0.11225000  0.55365000  1.0
  O  O97  1  0.17263000  0.88775000  0.05363000  1.0
  O  O98  1  0.06569000  0.93756000  0.60794000  1.0
  O  O99  1  0.43431000  0.06242000  0.10795000  1.0
  O  O100  1  0.93435000  0.06242000  0.39210000  1.0
  O  O101  1  0.56564000  0.93759000  0.89210000  1.0
