# generated using pymatgen
data_AlH9(C5O2)3
_symmetry_space_group_name_H-M   'P 1'
_cell_length_a   13.00080000
_cell_length_b   13.00120000
_cell_length_c   27.74407125
_cell_angle_alpha   103.55023000
_cell_angle_beta   103.55061051
_cell_angle_gamma   89.99530000
_symmetry_Int_Tables_number   1
_chemical_formula_structural   AlH9(C5O2)3
_chemical_formula_sum   'Al8 H72 C120 O48'
_cell_volume   4424.57123014
_cell_formula_units_Z   8
loop_
 _symmetry_equiv_pos_site_id
 _symmetry_equiv_pos_as_xyz
  1  'x, y, z'
loop_
 _atom_site_type_symbol
 _atom_site_label
 _atom_site_symmetry_multiplicity
 _atom_site_fract_x
 _atom_site_fract_y
 _atom_site_fract_z
 _atom_site_occupancy
  Al  Al0  1  1.00000000  0.50000000  1.00000000  1.0
  Al  Al1  1  0.00000000  0.00000000  0.00000000  1.0
  Al  Al2  1  0.00000000  0.00000000  0.50000000  1.0
  Al  Al3  1  0.50000000  0.00000000  0.50000000  1.0
  Al  Al4  1  0.00656000  0.75657000  0.01312000  1.0
  Al  Al5  1  0.75656000  0.00656000  0.51310000  1.0
  Al  Al6  1  0.99343000  0.24344000  0.98688000  1.0
  Al  Al7  1  0.24344000  0.99344000  0.48690000  1.0
  H  H8  1  0.13302000  0.62519000  0.99864000  1.0
  H  H9  1  0.86555000  0.87340000  0.99862000  1.0
  H  H10  1  0.87344000  0.13303000  0.49862000  1.0
  H  H11  1  0.62525000  0.86560000  0.49864000  1.0
  H  H12  1  0.86697000  0.37480000  0.00135000  1.0
  H  H13  1  0.13445000  0.12660000  0.00138000  1.0
  H  H14  1  0.12656000  0.86697000  0.50138000  1.0
  H  H15  1  0.37475000  0.13440000  0.50136000  1.0
  H  H16  1  0.81142000  0.76495000  0.88184000  1.0
  H  H17  1  0.07049000  0.61685000  0.88182000  1.0
  H  H18  1  0.61685000  0.81143000  0.38183000  1.0
  H  H19  1  0.76498000  0.07039000  0.38182000  1.0
  H  H20  1  0.18858000  0.23505000  0.11816000  1.0
  H  H21  1  0.92951000  0.38315000  0.11818000  1.0
  H  H22  1  0.38315000  0.18857000  0.61817000  1.0
  H  H23  1  0.23502000  0.92961000  0.61818000  1.0
  H  H24  1  0.73153000  0.75236000  0.78895000  1.0
  H  H25  1  0.05744000  0.53662000  0.78889000  1.0
  H  H26  1  0.53657000  0.73160000  0.28892000  1.0
  H  H27  1  0.75230000  0.05735000  0.28890000  1.0
  H  H28  1  0.26847000  0.24764000  0.21105000  1.0
  H  H29  1  0.94256000  0.46337000  0.21111000  1.0
  H  H30  1  0.46343000  0.26840000  0.71108000  1.0
  H  H31  1  0.24770000  0.94265000  0.71110000  1.0
  H  H32  1  0.73240000  0.41197000  0.75917000  1.0
  H  H33  1  0.02679000  0.84724000  0.75916000  1.0
  H  H34  1  0.84716000  0.73247000  0.25914000  1.0
  H  H35  1  0.41192000  0.02672000  0.25916000  1.0
  H  H36  1  0.26760000  0.58803000  0.24083000  1.0
  H  H37  1  0.97321000  0.15276000  0.24084000  1.0
  H  H38  1  0.15284000  0.26753000  0.74086000  1.0
  H  H39  1  0.58807000  0.97328000  0.74084000  1.0
  H  H40  1  0.81335000  0.42550000  0.85148000  1.0
  H  H41  1  0.03819000  0.92595000  0.85144000  1.0
  H  H42  1  0.92596000  0.81333000  0.35143000  1.0
  H  H43  1  0.42551000  0.03809000  0.35146000  1.0
  H  H44  1  0.18665000  0.57450000  0.14852000  1.0
  H  H45  1  0.96181000  0.07405000  0.14856000  1.0
  H  H46  1  0.07404000  0.18667000  0.64857000  1.0
  H  H47  1  0.57449000  0.96191000  0.64854000  1.0
  H  H48  1  0.50599000  0.47624000  0.64682000  1.0
  H  H49  1  0.14082000  0.67058000  0.64684000  1.0
  H  H50  1  0.67052000  0.50607000  0.14683000  1.0
  H  H51  1  0.47622000  0.14080000  0.14685000  1.0
  H  H52  1  0.49401000  0.52376000  0.35318000  1.0
  H  H53  1  0.85918000  0.32942000  0.35316000  1.0
  H  H54  1  0.32948000  0.49392000  0.85317000  1.0
  H  H55  1  0.52377000  0.85920000  0.85315000  1.0
  H  H56  1  0.49114000  0.30136000  0.58358000  1.0
  H  H57  1  0.09246000  0.78224000  0.58359000  1.0
  H  H58  1  0.78221000  0.49117000  0.08359000  1.0
  H  H59  1  0.30141000  0.09254000  0.08363000  1.0
  H  H60  1  0.50886000  0.69864000  0.41642000  1.0
  H  H61  1  0.90754000  0.21777000  0.41641000  1.0
  H  H62  1  0.21780000  0.50884000  0.91642000  1.0
  H  H63  1  0.69859000  0.90746000  0.91637000  1.0
  H  H64  1  0.82828000  0.27889000  0.62869000  1.0
  H  H65  1  0.80041000  0.84986000  0.62870000  1.0
  H  H66  1  0.84978000  0.82828000  0.12868000  1.0
  H  H67  1  0.27881000  0.80045000  0.12869000  1.0
  H  H68  1  0.17172000  0.72111000  0.37131000  1.0
  H  H69  1  0.19959000  0.15013000  0.37130000  1.0
  H  H70  1  0.15022000  0.17172000  0.87132000  1.0
  H  H71  1  0.72119000  0.19955000  0.87131000  1.0
  H  H72  1  0.84360000  0.44986000  0.69409000  1.0
  H  H73  1  0.85052000  0.74425000  0.69412000  1.0
  H  H74  1  0.74415000  0.84365000  0.19408000  1.0
  H  H75  1  0.44984000  0.85048000  0.19411000  1.0
  H  H76  1  0.15639000  0.55014000  0.30591000  1.0
  H  H77  1  0.14948000  0.25574000  0.30588000  1.0
  H  H78  1  0.25585000  0.15635000  0.80592000  1.0
  H  H79  1  0.55015000  0.14952000  0.80589000  1.0
  C  C80  1  0.87322000  0.60282000  0.92611000  1.0
  C  C81  1  0.05292000  0.82330000  0.92612000  1.0
  C  C82  1  0.82329000  0.87318000  0.42611000  1.0
  C  C83  1  0.60281000  0.05288000  0.42610000  1.0
  C  C84  1  0.12677000  0.39718000  0.07388000  1.0
  C  C85  1  0.94708000  0.17670000  0.07388000  1.0
  C  C86  1  0.17671000  0.12682000  0.57389000  1.0
  C  C87  1  0.39719000  0.94712000  0.57390000  1.0
  C  C88  1  0.81699000  0.59571000  0.87183000  1.0
  C  C89  1  0.05488000  0.77610000  0.87183000  1.0
  C  C90  1  0.77611000  0.81692000  0.37183000  1.0
  C  C91  1  0.59573000  0.05487000  0.37183000  1.0
  C  C92  1  0.18301000  0.40429000  0.12817000  1.0
  C  C93  1  0.94512000  0.22390000  0.12817000  1.0
  C  C94  1  0.22389000  0.18308000  0.62817000  1.0
  C  C95  1  0.40427000  0.94513000  0.62817000  1.0
  C  C96  1  0.79314000  0.68820000  0.85456000  1.0
  C  C97  1  0.06147000  0.66633000  0.85454000  1.0
  C  C98  1  0.66635000  0.79306000  0.35457000  1.0
  C  C99  1  0.68822000  0.06147000  0.35455000  1.0
  C  C100  1  0.20686000  0.31180000  0.14544000  1.0
  C  C101  1  0.93853000  0.33367000  0.14546000  1.0
  C  C102  1  0.33365000  0.20694000  0.64543000  1.0
  C  C103  1  0.31178000  0.93853000  0.64545000  1.0
  C  C104  1  0.74990000  0.68139000  0.80310000  1.0
  C  C105  1  0.05324000  0.62172000  0.80308000  1.0
  C  C106  1  0.62170000  0.74983000  0.30310000  1.0
  C  C107  1  0.68136000  0.05324000  0.30308000  1.0
  C  C108  1  0.25010000  0.31861000  0.19690000  1.0
  C  C109  1  0.94676000  0.37828000  0.19692000  1.0
  C  C110  1  0.37830000  0.25017000  0.69690000  1.0
  C  C111  1  0.31864000  0.94677000  0.69692000  1.0
  C  C112  1  0.72937000  0.58195000  0.76805000  1.0
  C  C113  1  0.03871000  0.68612000  0.76804000  1.0
  C  C114  1  0.68609000  0.72931000  0.26805000  1.0
  C  C115  1  0.58191000  0.03875000  0.26805000  1.0
  C  C116  1  0.27063000  0.41806000  0.23195000  1.0
  C  C117  1  0.96129000  0.31388000  0.23196000  1.0
  C  C118  1  0.31391000  0.27069000  0.73195000  1.0
  C  C119  1  0.41809000  0.96125000  0.73195000  1.0
  C  C120  1  0.75080000  0.48946000  0.78576000  1.0
  C  C121  1  0.03497000  0.79630000  0.78575000  1.0
  C  C122  1  0.79627000  0.75078000  0.28575000  1.0
  C  C123  1  0.48944000  0.03498000  0.28575000  1.0
  C  C124  1  0.24920000  0.51054000  0.21424000  1.0
  C  C125  1  0.96503000  0.20370000  0.21425000  1.0
  C  C126  1  0.20373000  0.24922000  0.71425000  1.0
  C  C127  1  0.51056000  0.96502000  0.71425000  1.0
  C  C128  1  0.79472000  0.49637000  0.83727000  1.0
  C  C129  1  0.04261000  0.84089000  0.83726000  1.0
  C  C130  1  0.84088000  0.79466000  0.33725000  1.0
  C  C131  1  0.49636000  0.04256000  0.33726000  1.0
  C  C132  1  0.20528000  0.50363000  0.16273000  1.0
  C  C133  1  0.95739000  0.15911000  0.16274000  1.0
  C  C134  1  0.15912000  0.20533000  0.66275000  1.0
  C  C135  1  0.50363000  0.95744000  0.66274000  1.0
  C  C136  1  0.68068000  0.57732000  0.71319000  1.0
  C  C137  1  0.03253000  0.63591000  0.71318000  1.0
  C  C138  1  0.63589000  0.68069000  0.21319000  1.0
  C  C139  1  0.57730000  0.03252000  0.21318000  1.0
  C  C140  1  0.31932000  0.42269000  0.28681000  1.0
  C  C141  1  0.96747000  0.36409000  0.28682000  1.0
  C  C142  1  0.36411000  0.31931000  0.78681000  1.0
  C  C143  1  0.42270000  0.96748000  0.78682000  1.0
  C  C144  1  0.67507000  0.47335000  0.67493000  1.0
  C  C145  1  0.99986000  0.70163000  0.67494000  1.0
  C  C146  1  0.70161000  0.67510000  0.17495000  1.0
  C  C147  1  0.47334000  0.99981000  0.17493000  1.0
  C  C148  1  0.32493000  0.52665000  0.32507000  1.0
  C  C149  1  0.00014000  0.29837000  0.32506000  1.0
  C  C150  1  0.29839000  0.32490000  0.82505000  1.0
  C  C151  1  0.52666000  0.00019000  0.82507000  1.0
  C  C152  1  0.57619000  0.43220000  0.64299000  1.0
  C  C153  1  0.06680000  0.71080000  0.64299000  1.0
  C  C154  1  0.71078000  0.57623000  0.14300000  1.0
  C  C155  1  0.43221000  0.06675000  0.14298000  1.0
  C  C156  1  0.42381000  0.56780000  0.35701000  1.0
  C  C157  1  0.93321000  0.28921000  0.35701000  1.0
  C  C158  1  0.28922000  0.42377000  0.85700000  1.0
  C  C159  1  0.56779000  0.93325000  0.85702000  1.0
  C  C160  1  0.56791000  0.33511000  0.60772000  1.0
  C  C161  1  0.03980000  0.77262000  0.60772000  1.0
  C  C162  1  0.77260000  0.56795000  0.10773000  1.0
  C  C163  1  0.33511000  0.03980000  0.10772000  1.0
  C  C164  1  0.43209000  0.66489000  0.39228000  1.0
  C  C165  1  0.96020000  0.22738000  0.39228000  1.0
  C  C166  1  0.22741000  0.43205000  0.89227000  1.0
  C  C167  1  0.66489000  0.96020000  0.89228000  1.0
  C  C168  1  0.65871000  0.27925000  0.60284000  1.0
  C  C169  1  0.94412000  0.82359000  0.60284000  1.0
  C  C170  1  0.82358000  0.65874000  0.10284000  1.0
  C  C171  1  0.27925000  0.94411000  0.10282000  1.0
  C  C172  1  0.34129000  0.72075000  0.39716000  1.0
  C  C173  1  0.05588000  0.17641000  0.39716000  1.0
  C  C174  1  0.17643000  0.34126000  0.89716000  1.0
  C  C175  1  0.72075000  0.05589000  0.89718000  1.0
  C  C176  1  0.75813000  0.32213000  0.63355000  1.0
  C  C177  1  0.87542000  0.81143000  0.63355000  1.0
  C  C178  1  0.81140000  0.75814000  0.13355000  1.0
  C  C179  1  0.32214000  0.87541000  0.13353000  1.0
  C  C180  1  0.24187000  0.67787000  0.36645000  1.0
  C  C181  1  0.12458000  0.18856000  0.36645000  1.0
  C  C182  1  0.18860000  0.24186000  0.86645000  1.0
  C  C183  1  0.67786000  0.12459000  0.86647000  1.0
  C  C184  1  0.76613000  0.41780000  0.66994000  1.0
  C  C185  1  0.90382000  0.75219000  0.66996000  1.0
  C  C186  1  0.75215000  0.76616000  0.16995000  1.0
  C  C187  1  0.41779000  0.90378000  0.16995000  1.0
  C  C188  1  0.23388000  0.58221000  0.33006000  1.0
  C  C189  1  0.09618000  0.24780000  0.33004000  1.0
  C  C190  1  0.24785000  0.23384000  0.83005000  1.0
  C  C191  1  0.58221000  0.09622000  0.83005000  1.0
  C  C192  1  0.64983000  0.17439000  0.56563000  1.0
  C  C193  1  0.91581000  0.89127000  0.56564000  1.0
  C  C194  1  0.89122000  0.64982000  0.06564000  1.0
  C  C195  1  0.17435000  0.91581000  0.06564000  1.0
  C  C196  1  0.35017000  0.82561000  0.43437000  1.0
  C  C197  1  0.08419000  0.10873000  0.43436000  1.0
  C  C198  1  0.10878000  0.35018000  0.93436000  1.0
  C  C199  1  0.82565000  0.08419000  0.93436000  1.0
  O  O200  1  0.07101000  0.63014000  0.01266000  1.0
  O  O201  1  0.94158000  0.88250000  0.01264000  1.0
  O  O202  1  0.88252000  0.07104000  0.51265000  1.0
  O  O203  1  0.63014000  0.94163000  0.51264000  1.0
  O  O204  1  0.92899000  0.36986000  0.98734000  1.0
  O  O205  1  0.05842000  0.11750000  0.98736000  1.0
  O  O206  1  0.11748000  0.92896000  0.48735000  1.0
  O  O207  1  0.36986000  0.05837000  0.48736000  1.0
  O  O208  1  0.91060000  0.51825000  0.93674000  1.0
  O  O209  1  0.02618000  0.91846000  0.93674000  1.0
  O  O210  1  0.91846000  0.91056000  0.43674000  1.0
  O  O211  1  0.51827000  0.02606000  0.43672000  1.0
  O  O212  1  0.08940000  0.48175000  0.06326000  1.0
  O  O213  1  0.97382000  0.08154000  0.06326000  1.0
  O  O214  1  0.08154000  0.08944000  0.56326000  1.0
  O  O215  1  0.48173000  0.97394000  0.56328000  1.0
  O  O216  1  0.88346000  0.69305000  0.95787000  1.0
  O  O217  1  0.07449000  0.76484000  0.95790000  1.0
  O  O218  1  0.76481000  0.88342000  0.45789000  1.0
  O  O219  1  0.69304000  0.07445000  0.45788000  1.0
  O  O220  1  0.11654000  0.30695000  0.04213000  1.0
  O  O221  1  0.92551000  0.23516000  0.04210000  1.0
  O  O222  1  0.23519000  0.11659000  0.54211000  1.0
  O  O223  1  0.30696000  0.92555000  0.54212000  1.0
  O  O224  1  0.73474000  0.12668000  0.56343000  1.0
  O  O225  1  0.82869000  0.93678000  0.56344000  1.0
  O  O226  1  0.93670000  0.73473000  0.06341000  1.0
  O  O227  1  0.12664000  0.82870000  0.06347000  1.0
  O  O228  1  0.26526000  0.87332000  0.43657000  1.0
  O  O229  1  0.17131000  0.06322000  0.43656000  1.0
  O  O230  1  0.06330000  0.26527000  0.93659000  1.0
  O  O231  1  0.87336000  0.17130000  0.93653000  1.0
  O  O232  1  0.55767000  0.13914000  0.53826000  1.0
  O  O233  1  0.98061000  0.89920000  0.53828000  1.0
  O  O234  1  0.89916000  0.55765000  0.03830000  1.0
  O  O235  1  0.13907000  0.98055000  0.03828000  1.0
  O  O236  1  0.44233000  0.86086000  0.46174000  1.0
  O  O237  1  0.01939000  0.10080000  0.46172000  1.0
  O  O238  1  0.10084000  0.44235000  0.96170000  1.0
  O  O239  1  0.86093000  0.01945000  0.96172000  1.0
  O  O240  1  0.64336000  0.65583000  0.69919000  1.0
  O  O241  1  0.05584000  0.54341000  0.69918000  1.0
  O  O242  1  0.54334000  0.64343000  0.19917000  1.0
  O  O243  1  0.65580000  0.05576000  0.19918000  1.0
  O  O244  1  0.35664000  0.34417000  0.30081000  1.0
  O  O245  1  0.94416000  0.45660000  0.30082000  1.0
  O  O246  1  0.45666000  0.35657000  0.80083000  1.0
  O  O247  1  0.34420000  0.94424000  0.80082000  1.0
