# generated using pymatgen
data_CuH16C10(NO2)2
_symmetry_space_group_name_H-M   'P 1'
_cell_length_a   7.15877000
_cell_length_b   8.51081000
_cell_length_c   21.85080000
_cell_angle_alpha   78.77450000
_cell_angle_beta   80.73050000
_cell_angle_gamma   65.15200000
_symmetry_Int_Tables_number   1
_chemical_formula_structural   CuH16C10(NO2)2
_chemical_formula_sum   'Cu4 H64 C40 N8 O16'
_cell_volume   1180.23668837
_cell_formula_units_Z   4
loop_
 _symmetry_equiv_pos_site_id
 _symmetry_equiv_pos_as_xyz
  1  'x, y, z'
loop_
 _atom_site_type_symbol
 _atom_site_label
 _atom_site_symmetry_multiplicity
 _atom_site_fract_x
 _atom_site_fract_y
 _atom_site_fract_z
 _atom_site_occupancy
  Cu  Cu0  1  0.88174000  0.90267000  0.91072000  1.0
  Cu  Cu1  1  0.69526000  0.59717000  0.58909000  1.0
  Cu  Cu2  1  0.11827000  0.09734000  0.08929000  1.0
  Cu  Cu3  1  0.30476000  0.40282000  0.41090000  1.0
  H  H4  1  0.54854000  0.87809000  0.96223000  1.0
  H  H5  1  0.38837000  0.62205000  0.53752000  1.0
  H  H6  1  0.45147000  0.12192000  0.03777000  1.0
  H  H7  1  0.61164000  0.37796000  0.46248000  1.0
  H  H8  1  0.65699000  0.83593000  0.02336000  1.0
  H  H9  1  0.51580000  0.66400000  0.47659000  1.0
  H  H10  1  0.34302000  0.16407000  0.97664000  1.0
  H  H11  1  0.48421000  0.33600000  0.52341000  1.0
  H  H12  1  0.09741000  0.11301000  0.84448000  1.0
  H  H13  1  0.05465000  0.38816000  0.65494000  1.0
  H  H14  1  0.90261000  0.88699000  0.15552000  1.0
  H  H15  1  0.94537000  0.61181000  0.34506000  1.0
  H  H16  1  0.90075000  0.25092000  0.74954000  1.0
  H  H17  1  0.09927000  0.74907000  0.25046000  1.0
  H  H18  1  0.59480000  0.25012000  0.75012000  1.0
  H  H19  1  0.40521000  0.74988000  0.24988000  1.0
  H  H20  1  0.74401000  0.45116000  0.99633000  1.0
  H  H21  1  0.19185000  0.04893000  0.50362000  1.0
  H  H22  1  0.25599000  0.54884000  0.00367000  1.0
  H  H23  1  0.80813000  0.95108000  0.49637000  1.0
  H  H24  1  0.57672000  0.34205000  0.02347000  1.0
  H  H25  1  0.94272000  0.15775000  0.47616000  1.0
  H  H26  1  0.42330000  0.65793000  0.97654000  1.0
  H  H27  1  0.05726000  0.84228000  0.52383000  1.0
  H  H28  1  0.61708000  0.35009000  0.13383000  1.0
  H  H29  1  0.10130000  0.14966000  0.36595000  1.0
  H  H30  1  0.38291000  0.64990000  0.86617000  1.0
  H  H31  1  0.89869000  0.85035000  0.63404000  1.0
  H  H32  1  0.53202000  0.56094000  0.08970000  1.0
  H  H33  1  0.18313000  0.93892000  0.41014000  1.0
  H  H34  1  0.46796000  0.43905000  0.91030000  1.0
  H  H35  1  0.81684000  0.06110000  0.58985000  1.0
  H  H36  1  0.91426000  0.51841000  0.06886000  1.0
  H  H37  1  0.50166000  0.98186000  0.43146000  1.0
  H  H38  1  0.08572000  0.48160000  0.93114000  1.0
  H  H39  1  0.49833000  0.01814000  0.56854000  1.0
  H  H40  1  0.78919000  0.56216000  0.14426000  1.0
  H  H41  1  0.49563000  0.93762000  0.35604000  1.0
  H  H42  1  0.21079000  0.43784000  0.85574000  1.0
  H  H43  1  0.50435000  0.06239000  0.64396000  1.0
  H  H44  1  0.88543000  0.35118000  0.23378000  1.0
  H  H45  1  0.46995000  0.14821000  0.26644000  1.0
  H  H46  1  0.11456000  0.64881000  0.76623000  1.0
  H  H47  1  0.53004000  0.85179000  0.73355000  1.0
  H  H48  1  0.81626000  0.20538000  0.20246000  1.0
  H  H49  1  0.22388000  0.29415000  0.29746000  1.0
  H  H50  1  0.18374000  0.79461000  0.79754000  1.0
  H  H51  1  0.77612000  0.70586000  0.70254000  1.0
  H  H52  1  0.07054000  0.13226000  0.22481000  1.0
  H  H53  1  0.42714000  0.36727000  0.27532000  1.0
  H  H54  1  0.92946000  0.86774000  0.77519000  1.0
  H  H55  1  0.57287000  0.63273000  0.72468000  1.0
  H  H56  1  0.30826000  0.24471000  0.16799000  1.0
  H  H57  1  0.72062000  0.25511000  0.33236000  1.0
  H  H58  1  0.69173000  0.75530000  0.83201000  1.0
  H  H59  1  0.27939000  0.74488000  0.66764000  1.0
  H  H60  1  0.24501000  0.39241000  0.09699000  1.0
  H  H61  1  0.73472000  0.10743000  0.40337000  1.0
  H  H62  1  0.75498000  0.60759000  0.90302000  1.0
  H  H63  1  0.26529000  0.89255000  0.59662000  1.0
  H  H64  1  0.13071000  0.46760000  0.17084000  1.0
  H  H65  1  0.76852000  0.03223000  0.32951000  1.0
  H  H66  1  0.86927000  0.53241000  0.82916000  1.0
  H  H67  1  0.23147000  0.96776000  0.67049000  1.0
  C  C68  1  0.48225000  0.07950000  0.85861000  1.0
  C  C69  1  0.42050000  0.42058000  0.64120000  1.0
  C  C70  1  0.51776000  0.92051000  0.14139000  1.0
  C  C71  1  0.57951000  0.57941000  0.35880000  1.0
  C  C72  1  0.36054000  0.16910000  0.80247000  1.0
  C  C73  1  0.33196000  0.33167000  0.69731000  1.0
  C  C74  1  0.63947000  0.83090000  0.19753000  1.0
  C  C75  1  0.66806000  0.66832000  0.30269000  1.0
  C  C76  1  0.16293000  0.17211000  0.80258000  1.0
  C  C77  1  0.13734000  0.32910000  0.69695000  1.0
  C  C78  1  0.83709000  0.82788000  0.19742000  1.0
  C  C79  1  0.86268000  0.67088000  0.30305000  1.0
  C  C80  1  0.05308000  0.25075000  0.74970000  1.0
  C  C81  1  0.94694000  0.74923000  0.25031000  1.0
  C  C82  1  0.44286000  0.25032000  0.74997000  1.0
  C  C83  1  0.55715000  0.74967000  0.25003000  1.0
  C  C84  1  0.91009000  0.08667000  0.99603000  1.0
  C  C85  1  0.99286000  0.41333000  0.50388000  1.0
  C  C86  1  0.08992000  0.91333000  0.00397000  1.0
  C  C87  1  0.00715000  0.58667000  0.49611000  1.0
  C  C88  1  0.71207000  0.35740000  0.03454000  1.0
  C  C89  1  0.10430000  0.14259000  0.46531000  1.0
  C  C90  1  0.28793000  0.64259000  0.96547000  1.0
  C  C91  1  0.89568000  0.85742000  0.53468000  1.0
  C  C92  1  0.66488000  0.43389000  0.09534000  1.0
  C  C93  1  0.19442000  0.06601000  0.40457000  1.0
  C  C94  1  0.33511000  0.56611000  0.90466000  1.0
  C  C95  1  0.80556000  0.93401000  0.59543000  1.0
  C  C96  1  0.84414000  0.46488000  0.11165000  1.0
  C  C97  1  0.42077000  0.03510000  0.38855000  1.0
  C  C98  1  0.15584000  0.53511000  0.88835000  1.0
  C  C99  1  0.57921000  0.96490000  0.61144000  1.0
  C  C100  1  0.94158000  0.24560000  0.20434000  1.0
  C  C101  1  0.39117000  0.25398000  0.29578000  1.0
  C  C102  1  0.05841000  0.75439000  0.79567000  1.0
  C  C103  1  0.60883000  0.74602000  0.70422000  1.0
  C  C104  1  0.18505000  0.35605000  0.14440000  1.0
  C  C105  1  0.68529000  0.14382000  0.35593000  1.0
  C  C106  1  0.81493000  0.64396000  0.85561000  1.0
  C  C107  1  0.31471000  0.85617000  0.64406000  1.0
  N  N108  1  0.88729000  0.18913000  0.03692000  1.0
  N  N109  1  0.11336000  0.31095000  0.46304000  1.0
  N  N110  1  0.11272000  0.81087000  0.96308000  1.0
  N  N111  1  0.88664000  0.68905000  0.53695000  1.0
  N  N112  1  0.01271000  0.30675000  0.14059000  1.0
  N  N113  1  0.45995000  0.19318000  0.35962000  1.0
  N  N114  1  0.98727000  0.69325000  0.85942000  1.0
  N  N115  1  0.54005000  0.80681000  0.64037000  1.0
  O  O116  1  0.67743000  0.04089000  0.84856000  1.0
  O  O117  1  0.56731000  0.45899000  0.65131000  1.0
  O  O118  1  0.32259000  0.95911000  0.15145000  1.0
  O  O119  1  0.43270000  0.54101000  0.34869000  1.0
  O  O120  1  0.38739000  0.04548000  0.90999000  1.0
  O  O121  1  0.34293000  0.45416000  0.58970000  1.0
  O  O122  1  0.61263000  0.95453000  0.09001000  1.0
  O  O123  1  0.65707000  0.54585000  0.41030000  1.0
  O  O124  1  0.79535000  0.12000000  0.95172000  1.0
  O  O125  1  0.86739000  0.37997000  0.54801000  1.0
  O  O126  1  0.20467000  0.87999000  0.04828000  1.0
  O  O127  1  0.13261000  0.62004000  0.45199000  1.0
  O  O128  1  0.67075000  0.79083000  0.98384000  1.0
  O  O129  1  0.44520000  0.70906000  0.51610000  1.0
  O  O130  1  0.32925000  0.20917000  0.01616000  1.0
  O  O131  1  0.55480000  0.29095000  0.48390000  1.0
