# generated using pymatgen
data_ZnH10C24S3N4O19
_symmetry_space_group_name_H-M   'P 1'
_cell_length_a   11.82310000
_cell_length_b   13.03070000
_cell_length_c   23.55640000
_cell_angle_alpha   88.47220000
_cell_angle_beta   85.46570000
_cell_angle_gamma   86.37620000
_symmetry_Int_Tables_number   1
_chemical_formula_structural   ZnH10C24S3N4O19
_chemical_formula_sum   'Zn2 H20 C48 S6 N8 O38'
_cell_volume   3609.72751382
_cell_formula_units_Z   2
loop_
 _symmetry_equiv_pos_site_id
 _symmetry_equiv_pos_as_xyz
  1  'x, y, z'
loop_
 _atom_site_type_symbol
 _atom_site_label
 _atom_site_symmetry_multiplicity
 _atom_site_fract_x
 _atom_site_fract_y
 _atom_site_fract_z
 _atom_site_occupancy
  Zn  Zn0  1  0.61649000  0.50487000  0.49353000  1.0
  Zn  Zn1  1  0.37070000  0.49328000  0.50648000  1.0
  H  H2  1  0.51918000  0.76737000  0.94568000  1.0
  H  H3  1  0.60380000  0.24896000  0.04943000  1.0
  H  H4  1  0.69271000  0.41468000  0.21899000  1.0
  H  H5  1  0.67113000  0.61491000  0.76557000  1.0
  H  H6  1  0.35368000  0.18148000  0.50124000  1.0
  H  H7  1  0.62774000  0.81730000  0.49973000  1.0
  H  H8  1  0.25396000  0.01727000  0.49786000  1.0
  H  H9  1  0.72664000  0.98029000  0.50407000  1.0
  H  H10  1  0.80670000  0.39057000  0.54090000  1.0
  H  H11  1  0.17687000  0.61175000  0.46212000  1.0
  H  H12  1  0.77410000  0.64693000  0.43336000  1.0
  H  H13  1  0.21185000  0.34890000  0.56474000  1.0
  H  H14  1  0.00304000  0.32361000  0.57032000  1.0
  H  H15  1  0.98389000  0.67432000  0.42924000  1.0
  H  H16  1  0.56457000  0.93836000  0.00250000  1.0
  H  H17  1  0.73926000  0.11769000  0.99008000  1.0
  H  H18  1  0.36703000  0.66172000  0.41224000  1.0
  H  H19  1  0.42559000  0.32650000  0.59574000  1.0
  H  H20  1  0.27874000  0.70498000  0.21530000  1.0
  H  H21  1  0.35323000  0.27335000  0.79820000  1.0
  C  C22  1  0.46193000  0.69642000  0.49519000  1.0
  C  C23  1  0.52320000  0.30149000  0.50662000  1.0
  C  C24  1  0.49488000  0.49245000  0.39148000  1.0
  C  C25  1  0.50110000  0.50751000  0.60797000  1.0
  C  C26  1  0.58417000  0.42169000  0.87325000  1.0
  C  C27  1  0.55333000  0.59490000  0.12142000  1.0
  C  C28  1  0.53829000  0.61258000  0.87664000  1.0
  C  C29  1  0.56475000  0.40167000  0.11876000  1.0
  C  C30  1  0.54788000  0.60536000  0.93891000  1.0
  C  C31  1  0.57693000  0.41100000  0.05590000  1.0
  C  C32  1  0.56658000  0.50914000  0.96707000  1.0
  C  C33  1  0.56525000  0.50786000  0.02765000  1.0
  C  C34  1  0.58638000  0.41664000  0.93604000  1.0
  C  C35  1  0.55219000  0.60097000  0.05851000  1.0
  C  C36  1  0.53435000  0.69554000  0.96923000  1.0
  C  C37  1  0.59634000  0.32125000  0.02546000  1.0
  C  C38  1  0.53855000  0.69511000  0.02879000  1.0
  C  C39  1  0.60475000  0.32299000  0.96559000  1.0
  C  C40  1  0.61321000  0.44671000  0.23964000  1.0
  C  C41  1  0.60340000  0.57201000  0.75093000  1.0
  C  C42  1  0.59342000  0.44124000  0.29816000  1.0
  C  C43  1  0.58418000  0.57232000  0.69378000  1.0
  C  C44  1  0.49746000  0.48981000  0.32723000  1.0
  C  C45  1  0.50507000  0.51124000  0.67198000  1.0
  C  C46  1  0.41506000  0.53887000  0.29442000  1.0
  C  C47  1  0.43822000  0.45298000  0.71112000  1.0
  C  C48  1  0.42472000  0.53081000  0.23444000  1.0
  C  C49  1  0.44406000  0.46388000  0.77038000  1.0
  C  C50  1  0.52808000  0.49124000  0.20772000  1.0
  C  C51  1  0.53249000  0.51816000  0.78936000  1.0
  C  C52  1  0.53212000  0.18694000  0.50714000  1.0
  C  C53  1  0.44889000  0.81063000  0.49795000  1.0
  C  C54  1  0.33630000  0.97458000  0.49791000  1.0
  C  C55  1  0.64461000  0.02324000  0.50328000  1.0
  C  C56  1  0.34337000  0.86890000  0.49779000  1.0
  C  C57  1  0.63756000  0.12824000  0.50754000  1.0
  C  C58  1  0.54713000  0.86255000  0.49909000  1.0
  C  C59  1  0.43412000  0.13617000  0.50279000  1.0
  C  C60  1  0.54411000  0.97059000  0.50033000  1.0
  C  C61  1  0.43668000  0.02786000  0.49990000  1.0
  C  C62  1  0.03881000  0.38753000  0.54576000  1.0
  C  C63  1  0.94731000  0.61134000  0.45430000  1.0
  C  C64  1  0.15344000  0.40056000  0.54264000  1.0
  C  C65  1  0.83292000  0.59711000  0.45650000  1.0
  C  C66  1  0.13601000  0.54904000  0.48524000  1.0
  C  C67  1  0.84911000  0.45185000  0.51678000  1.0
  C  C68  1  0.01743000  0.54145000  0.48489000  1.0
  C  C69  1  0.96794000  0.45863000  0.51642000  1.0
  S  S70  1  0.52344000  0.81916000  0.06376000  1.0
  S  S71  1  0.64003000  0.20134000  0.92999000  1.0
  S  S72  1  0.30696000  0.62823000  0.32886000  1.0
  S  S73  1  0.35806000  0.35100000  0.68451000  1.0
  S  S74  1  0.29954000  0.55004000  0.19379000  1.0
  S  S75  1  0.32704000  0.42742000  0.82068000  1.0
  N  N76  1  0.55378000  0.51850000  0.84829000  1.0
  N  N77  1  0.54952000  0.49532000  0.14718000  1.0
  N  N78  1  0.78542000  0.51872000  0.48787000  1.0
  N  N79  1  0.20080000  0.48073000  0.51267000  1.0
  N  N80  1  0.67888000  0.38081000  0.32988000  1.0
  N  N81  1  0.65187000  0.64094000  0.65552000  1.0
  N  N82  1  0.74320000  0.17657000  0.51810000  1.0
  N  N83  1  0.23504000  0.81702000  0.50090000  1.0
  O  O84  1  0.55681000  0.65476000  0.50592000  1.0
  O  O85  1  0.42793000  0.34368000  0.52832000  1.0
  O  O86  1  0.37676000  0.64816000  0.48072000  1.0
  O  O87  1  0.60534000  0.34895000  0.48469000  1.0
  O  O88  1  0.58336000  0.52557000  0.41000000  1.0
  O  O89  1  0.40581000  0.52847000  0.58792000  1.0
  O  O90  1  0.40829000  0.46174000  0.42055000  1.0
  O  O91  1  0.59527000  0.48365000  0.58058000  1.0
  O  O92  1  0.60500000  0.34673000  0.84312000  1.0
  O  O93  1  0.55633000  0.66989000  0.15120000  1.0
  O  O94  1  0.51721000  0.69351000  0.85074000  1.0
  O  O95  1  0.56704000  0.31903000  0.14496000  1.0
  O  O96  1  0.41964000  0.82399000  0.09926000  1.0
  O  O97  1  0.63182000  0.84271000  0.08226000  1.0
  O  O98  1  0.50012000  0.89462000  0.00963000  1.0
  O  O99  1  0.54155000  0.16696000  0.90662000  1.0
  O  O100  1  0.75045000  0.20553000  0.90011000  1.0
  O  O101  1  0.65762000  0.12368000  0.98493000  1.0
  O  O102  1  0.64208000  0.31391000  0.36343000  1.0
  O  O103  1  0.77959000  0.39921000  0.31906000  1.0
  O  O104  1  0.59859000  0.69838000  0.62297000  1.0
  O  O105  1  0.75544000  0.63796000  0.66020000  1.0
  O  O106  1  0.28064000  0.70781000  0.28724000  1.0
  O  O107  1  0.21757000  0.57637000  0.36012000  1.0
  O  O108  1  0.38150000  0.68203000  0.37053000  1.0
  O  O109  1  0.35585000  0.26952000  0.72739000  1.0
  O  O110  1  0.25503000  0.39029000  0.66135000  1.0
  O  O111  1  0.44574000  0.30724000  0.63615000  1.0
  O  O112  1  0.32244000  0.49887000  0.14059000  1.0
  O  O113  1  0.20727000  0.52149000  0.23321000  1.0
  O  O114  1  0.29064000  0.66823000  0.17827000  1.0
  O  O115  1  0.33389000  0.48011000  0.87288000  1.0
  O  O116  1  0.22828000  0.44321000  0.78898000  1.0
  O  O117  1  0.35377000  0.31032000  0.83506000  1.0
  O  O118  1  0.73894000  0.23265000  0.56005000  1.0
  O  O119  1  0.82897000  0.15442000  0.48628000  1.0
  O  O120  1  0.18244000  0.81982000  0.45739000  1.0
  O  O121  1  0.20425000  0.77732000  0.54723000  1.0
