# generated using pymatgen
data_PrH16C21N3O14
_symmetry_space_group_name_H-M   'P 1'
_cell_length_a   9.63714000
_cell_length_b   15.21760000
_cell_length_c   23.53980000
_cell_angle_alpha   89.99990000
_cell_angle_beta   89.99960000
_cell_angle_gamma   79.71400000
_symmetry_Int_Tables_number   1
_chemical_formula_structural   PrH16C21N3O14
_chemical_formula_sum   'Pr4 H64 C84 N12 O56'
_cell_volume   3396.72766846
_cell_formula_units_Z   4
loop_
 _symmetry_equiv_pos_site_id
 _symmetry_equiv_pos_as_xyz
  1  'x, y, z'
loop_
 _atom_site_type_symbol
 _atom_site_label
 _atom_site_symmetry_multiplicity
 _atom_site_fract_x
 _atom_site_fract_y
 _atom_site_fract_z
 _atom_site_occupancy
  Pr  Pr0  1  0.48594000  0.59782000  0.73710000  1.0
  Pr  Pr1  1  0.01407000  0.40217000  0.23710000  1.0
  Pr  Pr2  1  0.51407000  0.40218000  0.26290000  1.0
  Pr  Pr3  1  0.98593000  0.59782000  0.76290000  1.0
  H  H4  1  0.58041000  0.34794000  0.73328000  1.0
  H  H5  1  0.91960000  0.65206000  0.23328000  1.0
  H  H6  1  0.41958000  0.65206000  0.26672000  1.0
  H  H7  1  0.08042000  0.34794000  0.76672000  1.0
  H  H8  1  0.55401000  0.19067000  0.75664000  1.0
  H  H9  1  0.94601000  0.80933000  0.25663000  1.0
  H  H10  1  0.44599000  0.80933000  0.24336000  1.0
  H  H11  1  0.05401000  0.19068000  0.74337000  1.0
  H  H12  1  0.89250000  0.17413000  0.87796000  1.0
  H  H13  1  0.60750000  0.82587000  0.37796000  1.0
  H  H14  1  0.10749000  0.82587000  0.12204000  1.0
  H  H15  1  0.39250000  0.17413000  0.62204000  1.0
  H  H16  1  0.92151000  0.32935000  0.85312000  1.0
  H  H17  1  0.57850000  0.67065000  0.35312000  1.0
  H  H18  1  0.07848000  0.67066000  0.14688000  1.0
  H  H19  1  0.42151000  0.32935000  0.64687000  1.0
  H  H20  1  0.41849000  0.83111000  0.76947000  1.0
  H  H21  1  0.08152000  0.16888000  0.26947000  1.0
  H  H22  1  0.58151000  0.16889000  0.23053000  1.0
  H  H23  1  0.91847000  0.83112000  0.73054000  1.0
  H  H24  1  0.44542000  0.98826000  0.79195000  1.0
  H  H25  1  0.05458000  0.01174000  0.29195000  1.0
  H  H26  1  0.55458000  0.01174000  0.20805000  1.0
  H  H27  1  0.94541000  0.98826000  0.70806000  1.0
  H  H28  1  0.03217000  0.03576000  0.86814000  1.0
  H  H29  1  0.46783000  0.96424000  0.36814000  1.0
  H  H30  1  0.96782000  0.96425000  0.13185000  1.0
  H  H31  1  0.53218000  0.03576000  0.63186000  1.0
  H  H32  1  0.00341000  0.88047000  0.84373000  1.0
  H  H33  1  0.49659000  0.11952000  0.34373000  1.0
  H  H34  1  0.99659000  0.11953000  0.15627000  1.0
  H  H35  1  0.50341000  0.88048000  0.65627000  1.0
  H  H36  1  0.76700000  0.83482000  0.86970000  1.0
  H  H37  1  0.73300000  0.16517000  0.36970000  1.0
  H  H38  1  0.23301000  0.16518000  0.13030000  1.0
  H  H39  1  0.26699000  0.83482000  0.63030000  1.0
  H  H40  1  0.62302000  0.96599000  0.91823000  1.0
  H  H41  1  0.87700000  0.03401000  0.41824000  1.0
  H  H42  1  0.37700000  0.03402000  0.08176000  1.0
  H  H43  1  0.12300000  0.96598000  0.58177000  1.0
  H  H44  1  0.29596000  0.81278000  0.95006000  1.0
  H  H45  1  0.20405000  0.18723000  0.45005000  1.0
  H  H46  1  0.70405000  0.18724000  0.04994000  1.0
  H  H47  1  0.79595000  0.81277000  0.54994000  1.0
  H  H48  1  0.43560000  0.68366000  0.89644000  1.0
  H  H49  1  0.06439000  0.31634000  0.39642000  1.0
  H  H50  1  0.56439000  0.31634000  0.10357000  1.0
  H  H51  1  0.93561000  0.68365000  0.60357000  1.0
  H  H52  1  0.53115000  0.49919000  0.62845000  1.0
  H  H53  1  0.96886000  0.50081000  0.12845000  1.0
  H  H54  1  0.46884000  0.50080000  0.37156000  1.0
  H  H55  1  0.03115000  0.49919000  0.87155000  1.0
  H  H56  1  0.47870000  0.60039000  0.61775000  1.0
  H  H57  1  0.02130000  0.39961000  0.11775000  1.0
  H  H58  1  0.52130000  0.39960000  0.38226000  1.0
  H  H59  1  0.97870000  0.60039000  0.88225000  1.0
  H  H60  1  0.32864000  0.49882000  0.81664000  1.0
  H  H61  1  0.17136000  0.50118000  0.31664000  1.0
  H  H62  1  0.67136000  0.50118000  0.18336000  1.0
  H  H63  1  0.82864000  0.49882000  0.68336000  1.0
  H  H64  1  0.43148000  0.53843000  0.85808000  1.0
  H  H65  1  0.06852000  0.46158000  0.35808000  1.0
  H  H66  1  0.56852000  0.46158000  0.14193000  1.0
  H  H67  1  0.93149000  0.53842000  0.64192000  1.0
  C  C68  1  0.77663000  0.43832000  0.77409000  1.0
  C  C69  1  0.72337000  0.56167000  0.27409000  1.0
  C  C70  1  0.22335000  0.56168000  0.22591000  1.0
  C  C71  1  0.27664000  0.43833000  0.72591000  1.0
  C  C72  1  0.75280000  0.34766000  0.79156000  1.0
  C  C73  1  0.74721000  0.65234000  0.29156000  1.0
  C  C74  1  0.24719000  0.65234000  0.20844000  1.0
  C  C75  1  0.25280000  0.34766000  0.70843000  1.0
  C  C76  1  0.64814000  0.30925000  0.76472000  1.0
  C  C77  1  0.85187000  0.69076000  0.26472000  1.0
  C  C78  1  0.35185000  0.69076000  0.23528000  1.0
  C  C79  1  0.14814000  0.30925000  0.73527000  1.0
  C  C80  1  0.63320000  0.22224000  0.77739000  1.0
  C  C81  1  0.86680000  0.77776000  0.27738000  1.0
  C  C82  1  0.36679000  0.77776000  0.22262000  1.0
  C  C83  1  0.13321000  0.22224000  0.72262000  1.0
  C  C84  1  0.72338000  0.17517000  0.81770000  1.0
  C  C85  1  0.77663000  0.82483000  0.31770000  1.0
  C  C86  1  0.27661000  0.82483000  0.18230000  1.0
  C  C87  1  0.22338000  0.17517000  0.68230000  1.0
  C  C88  1  0.82480000  0.21282000  0.84660000  1.0
  C  C89  1  0.67521000  0.78718000  0.34660000  1.0
  C  C90  1  0.17519000  0.78719000  0.15340000  1.0
  C  C91  1  0.32479000  0.21282000  0.65339000  1.0
  C  C92  1  0.83989000  0.29937000  0.83279000  1.0
  C  C93  1  0.66011000  0.70064000  0.33279000  1.0
  C  C94  1  0.16010000  0.70064000  0.16721000  1.0
  C  C95  1  0.33989000  0.29937000  0.66721000  1.0
  C  C96  1  0.19271000  0.75202000  0.79333000  1.0
  C  C97  1  0.30729000  0.24797000  0.29333000  1.0
  C  C98  1  0.80729000  0.24798000  0.20667000  1.0
  C  C99  1  0.69270000  0.75202000  0.70667000  1.0
  C  C100  1  0.20938000  0.84632000  0.80548000  1.0
  C  C101  1  0.29062000  0.15367000  0.30548000  1.0
  C  C102  1  0.79062000  0.15368000  0.19452000  1.0
  C  C103  1  0.70938000  0.84633000  0.69452000  1.0
  C  C104  1  0.33425000  0.87629000  0.79090000  1.0
  C  C105  1  0.16575000  0.12370000  0.29089000  1.0
  C  C106  1  0.66574000  0.12371000  0.20910000  1.0
  C  C107  1  0.83425000  0.87630000  0.70911000  1.0
  C  C108  1  0.34976000  0.96351000  0.80300000  1.0
  C  C109  1  0.15024000  0.03648000  0.30300000  1.0
  C  C110  1  0.65023000  0.03649000  0.19700000  1.0
  C  C111  1  0.84976000  0.96351000  0.69701000  1.0
  C  C112  1  0.23966000  0.01952000  0.83054000  1.0
  C  C113  1  0.26034000  0.98048000  0.33054000  1.0
  C  C114  1  0.76033000  0.98049000  0.16946000  1.0
  C  C115  1  0.73966000  0.01951000  0.66946000  1.0
  C  C116  1  0.11539000  0.99097000  0.84618000  1.0
  C  C117  1  0.38461000  0.00902000  0.34618000  1.0
  C  C118  1  0.88460000  0.00903000  0.15382000  1.0
  C  C119  1  0.61539000  0.99097000  0.65382000  1.0
  C  C120  1  0.10007000  0.90424000  0.83273000  1.0
  C  C121  1  0.39994000  0.09576000  0.33273000  1.0
  C  C122  1  0.89993000  0.09576000  0.16727000  1.0
  C  C123  1  0.60006000  0.90424000  0.66727000  1.0
  C  C124  1  0.68961000  0.67648000  0.84546000  1.0
  C  C125  1  0.81038000  0.32350000  0.34546000  1.0
  C  C126  1  0.31039000  0.32351000  0.15454000  1.0
  C  C127  1  0.18962000  0.67648000  0.65454000  1.0
  C  C128  1  0.61023000  0.75121000  0.88043000  1.0
  C  C129  1  0.88977000  0.24878000  0.38043000  1.0
  C  C130  1  0.38978000  0.24879000  0.11957000  1.0
  C  C131  1  0.11023000  0.75121000  0.61957000  1.0
  C  C132  1  0.66392000  0.83030000  0.88726000  1.0
  C  C133  1  0.83607000  0.16969000  0.38726000  1.0
  C  C134  1  0.33608000  0.16970000  0.11274000  1.0
  C  C135  1  0.16392000  0.83030000  0.61274000  1.0
  C  C136  1  0.58400000  0.90351000  0.91433000  1.0
  C  C137  1  0.91601000  0.09649000  0.41434000  1.0
  C  C138  1  0.41601000  0.09649000  0.08566000  1.0
  C  C139  1  0.08399000  0.90351000  0.58567000  1.0
  C  C140  1  0.45254000  0.89501000  0.93612000  1.0
  C  C141  1  0.04747000  0.10500000  0.43612000  1.0
  C  C142  1  0.54747000  0.10500000  0.06388000  1.0
  C  C143  1  0.95253000  0.89500000  0.56388000  1.0
  C  C144  1  0.39900000  0.81595000  0.93214000  1.0
  C  C145  1  0.10100000  0.18406000  0.43214000  1.0
  C  C146  1  0.60100000  0.18407000  0.06786000  1.0
  C  C147  1  0.89900000  0.81593000  0.56786000  1.0
  C  C148  1  0.47776000  0.74463000  0.90304000  1.0
  C  C149  1  0.02224000  0.25538000  0.40303000  1.0
  C  C150  1  0.52225000  0.25539000  0.09697000  1.0
  C  C151  1  0.97775000  0.74462000  0.59697000  1.0
  N  N152  1  0.71586000  0.08115000  0.82878000  1.0
  N  N153  1  0.78415000  0.91886000  0.32877000  1.0
  N  N154  1  0.28414000  0.91885000  0.17122000  1.0
  N  N155  1  0.21586000  0.08115000  0.67122000  1.0
  N  N156  1  0.25304000  0.11296000  0.84189000  1.0
  N  N157  1  0.24695000  0.88703000  0.34189000  1.0
  N  N158  1  0.74695000  0.88704000  0.15811000  1.0
  N  N159  1  0.75305000  0.11297000  0.65811000  1.0
  N  N160  1  0.36419000  0.97314000  0.96240000  1.0
  N  N161  1  0.13582000  0.02687000  0.46240000  1.0
  N  N162  1  0.63581000  0.02687000  0.03759000  1.0
  N  N163  1  0.86419000  0.97313000  0.53760000  1.0
  O  O164  1  0.69659000  0.47956000  0.73512000  1.0
  O  O165  1  0.80342000  0.52044000  0.23512000  1.0
  O  O166  1  0.30341000  0.52045000  0.26488000  1.0
  O  O167  1  0.19659000  0.47956000  0.76488000  1.0
  O  O168  1  0.87832000  0.46885000  0.79625000  1.0
  O  O169  1  0.62169000  0.53115000  0.29625000  1.0
  O  O170  1  0.12168000  0.53115000  0.20375000  1.0
  O  O171  1  0.37831000  0.46885000  0.70375000  1.0
  O  O172  1  0.65004000  0.04232000  0.79447000  1.0
  O  O173  1  0.84996000  0.95769000  0.29447000  1.0
  O  O174  1  0.34995000  0.95769000  0.20553000  1.0
  O  O175  1  0.15005000  0.04232000  0.70553000  1.0
  O  O176  1  0.77862000  0.04505000  0.87121000  1.0
  O  O177  1  0.72139000  0.95495000  0.37121000  1.0
  O  O178  1  0.22138000  0.95496000  0.12879000  1.0
  O  O179  1  0.27861000  0.04505000  0.62879000  1.0
  O  O180  1  0.30335000  0.69413000  0.78439000  1.0
  O  O181  1  0.19664000  0.30587000  0.28439000  1.0
  O  O182  1  0.69664000  0.30587000  0.21561000  1.0
  O  O183  1  0.80336000  0.69412000  0.71561000  1.0
  O  O184  1  0.06902000  0.73376000  0.79313000  1.0
  O  O185  1  0.43098000  0.26624000  0.29313000  1.0
  O  O186  1  0.93098000  0.26624000  0.20687000  1.0
  O  O187  1  0.56901000  0.73376000  0.70687000  1.0
  O  O188  1  0.36054000  0.13879000  0.82468000  1.0
  O  O189  1  0.13946000  0.86121000  0.32469000  1.0
  O  O190  1  0.63945000  0.86121000  0.17532000  1.0
  O  O191  1  0.86055000  0.13879000  0.67532000  1.0
  O  O192  1  0.15454000  0.16141000  0.86696000  1.0
  O  O193  1  0.34545000  0.83858000  0.36696000  1.0
  O  O194  1  0.84544000  0.83859000  0.13304000  1.0
  O  O195  1  0.65457000  0.16141000  0.63304000  1.0
  O  O196  1  0.61807000  0.62527000  0.82054000  1.0
  O  O197  1  0.88193000  0.37471000  0.32054000  1.0
  O  O198  1  0.38193000  0.37473000  0.17946000  1.0
  O  O199  1  0.11807000  0.62527000  0.67946000  1.0
  O  O200  1  0.82295000  0.66942000  0.84122000  1.0
  O  O201  1  0.67704000  0.33057000  0.34122000  1.0
  O  O202  1  0.17706000  0.33057000  0.15878000  1.0
  O  O203  1  0.32294000  0.66943000  0.65878000  1.0
  O  O204  1  0.39713000  0.04740000  0.95379000  1.0
  O  O205  1  0.10288000  0.95261000  0.45380000  1.0
  O  O206  1  0.60287000  0.95262000  0.04621000  1.0
  O  O207  1  0.89714000  0.04739000  0.54621000  1.0
  O  O208  1  0.26103000  0.96101000  0.99087000  1.0
  O  O209  1  0.23898000  0.03900000  0.49087000  1.0
  O  O210  1  0.73899000  0.03900000  0.00913000  1.0
  O  O211  1  0.76102000  0.96100000  0.50913000  1.0
  O  O212  1  0.56049000  0.55723000  0.63141000  1.0
  O  O213  1  0.93952000  0.44277000  0.13141000  1.0
  O  O214  1  0.43951000  0.44277000  0.36859000  1.0
  O  O215  1  0.06049000  0.55723000  0.86859000  1.0
  O  O216  1  0.42781000  0.50555000  0.82289000  1.0
  O  O217  1  0.07218000  0.49445000  0.32289000  1.0
  O  O218  1  0.57219000  0.49445000  0.17711000  1.0
  O  O219  1  0.92782000  0.50555000  0.67711000  1.0
