# generated using pymatgen
data_ZnH8C6S(NO2)2
_symmetry_space_group_name_H-M   'P 1'
_cell_length_a   4.83941000
_cell_length_b   4.83936000
_cell_length_c   16.48300000
_cell_angle_alpha   89.99890000
_cell_angle_beta   89.99880000
_cell_angle_gamma   84.18330000
_symmetry_Int_Tables_number   1
_chemical_formula_structural   ZnH8C6S(NO2)2
_chemical_formula_sum   'Zn2 H16 C12 S2 N4 O8'
_cell_volume   384.03847790
_cell_formula_units_Z   2
loop_
 _symmetry_equiv_pos_site_id
 _symmetry_equiv_pos_as_xyz
  1  'x, y, z'
loop_
 _atom_site_type_symbol
 _atom_site_label
 _atom_site_symmetry_multiplicity
 _atom_site_fract_x
 _atom_site_fract_y
 _atom_site_fract_z
 _atom_site_occupancy
  Zn  Zn0  1  0.05322000  0.05321000  0.74999000  1.0
  Zn  Zn1  1  0.94680000  0.94679000  0.25000000  1.0
  H  H2  1  0.42640000  0.16979000  0.85126000  1.0
  H  H3  1  0.57359000  0.83022000  0.35127000  1.0
  H  H4  1  0.16980000  0.42639000  0.64873000  1.0
  H  H5  1  0.83021000  0.57359000  0.14874000  1.0
  H  H6  1  0.57359000  0.83021000  0.14875000  1.0
  H  H7  1  0.42640000  0.16981000  0.64873000  1.0
  H  H8  1  0.83021000  0.57360000  0.35127000  1.0
  H  H9  1  0.16979000  0.42639000  0.85126000  1.0
  H  H10  1  0.43030000  0.76904000  0.93755000  1.0
  H  H11  1  0.56968000  0.23097000  0.43756000  1.0
  H  H12  1  0.76904000  0.43032000  0.56244000  1.0
  H  H13  1  0.23097000  0.56967000  0.06245000  1.0
  H  H14  1  0.56967000  0.23094000  0.06244000  1.0
  H  H15  1  0.43032000  0.76904000  0.56244000  1.0
  H  H16  1  0.23097000  0.56969000  0.43755000  1.0
  H  H17  1  0.76901000  0.43028000  0.93755000  1.0
  C  C18  1  0.24084000  0.86819000  0.96506000  1.0
  C  C19  1  0.75914000  0.13181000  0.46506000  1.0
  C  C20  1  0.86821000  0.24086000  0.53494000  1.0
  C  C21  1  0.13180000  0.75918000  0.03493000  1.0
  C  C22  1  0.75913000  0.13180000  0.03494000  1.0
  C  C23  1  0.24085000  0.86820000  0.53494000  1.0
  C  C24  1  0.13181000  0.75916000  0.46506000  1.0
  C  C25  1  0.86819000  0.24082000  0.96505000  1.0
  C  C26  1  0.10959000  0.10959000  0.93004000  1.0
  C  C27  1  0.89041000  0.89041000  0.43005000  1.0
  C  C28  1  0.10960000  0.10959000  0.56996000  1.0
  C  C29  1  0.89039000  0.89041000  0.06996000  1.0
  S  S30  1  0.64615000  0.64613000  0.74999000  1.0
  S  S31  1  0.35387000  0.35387000  0.25001000  1.0
  N  N32  1  0.21539000  0.21540000  0.85644000  1.0
  N  N33  1  0.78458000  0.78460000  0.35644000  1.0
  N  N34  1  0.21542000  0.21542000  0.64356000  1.0
  N  N35  1  0.78458000  0.78461000  0.14358000  1.0
  O  O36  1  0.76814000  0.76812000  0.82307000  1.0
  O  O37  1  0.23187000  0.23186000  0.32309000  1.0
  O  O38  1  0.76817000  0.76813000  0.67691000  1.0
  O  O39  1  0.23187000  0.23187000  0.17694000  1.0
  O  O40  1  0.70006000  0.33566000  0.74999000  1.0
  O  O41  1  0.29995000  0.66433000  0.25001000  1.0
  O  O42  1  0.33569000  0.70006000  0.74999000  1.0
  O  O43  1  0.66433000  0.29995000  0.25001000  1.0
