# generated using pymatgen
data_ZnH4C12SNO6F
_symmetry_space_group_name_H-M   'P 1'
_cell_length_a   7.39747000
_cell_length_b   12.53600000
_cell_length_c   35.02610000
_cell_angle_alpha   89.60440000
_cell_angle_beta   89.76340000
_cell_angle_gamma   89.85640000
_symmetry_Int_Tables_number   1
_chemical_formula_structural   ZnH4C12SNO6F
_chemical_formula_sum   'Zn4 H16 C48 S4 N4 O24 F4'
_cell_volume   3248.01922495
_cell_formula_units_Z   4
loop_
 _symmetry_equiv_pos_site_id
 _symmetry_equiv_pos_as_xyz
  1  'x, y, z'
loop_
 _atom_site_type_symbol
 _atom_site_label
 _atom_site_symmetry_multiplicity
 _atom_site_fract_x
 _atom_site_fract_y
 _atom_site_fract_z
 _atom_site_occupancy
  Zn  Zn0  1  0.71862000  0.99736000  0.49975000  1.0
  Zn  Zn1  1  0.34754000  0.00106000  0.50005000  1.0
  Zn  Zn2  1  0.19060000  0.99690000  0.00021000  1.0
  Zn  Zn3  1  0.56163000  0.99942000  0.99993000  1.0
  H  H4  1  0.72815000  0.98169000  0.87687000  1.0
  H  H5  1  0.70808000  0.97737000  0.80627000  1.0
  H  H6  1  0.12917000  0.01745000  0.81462000  1.0
  H  H7  1  0.78047000  0.01927000  0.68514000  1.0
  H  H8  1  0.20222000  0.97751000  0.69388000  1.0
  H  H9  1  0.18139000  0.98190000  0.62328000  1.0
  H  H10  1  0.24853000  0.99846000  0.75461000  1.0
  H  H11  1  0.66171000  0.99978000  0.74532000  1.0
  H  H12  1  0.72805000  0.01633000  0.12285000  1.0
  H  H13  1  0.70694000  0.01943000  0.19345000  1.0
  H  H14  1  0.12921000  0.97589000  0.18576000  1.0
  H  H15  1  0.77967000  0.97586000  0.31436000  1.0
  H  H16  1  0.20184000  0.02095000  0.30640000  1.0
  H  H17  1  0.18082000  0.01869000  0.37703000  1.0
  H  H18  1  0.24784000  0.99598000  0.24574000  1.0
  H  H19  1  0.66106000  0.99579000  0.25427000  1.0
  C  C20  1  0.59867000  0.79815000  0.49964000  1.0
  C  C21  1  0.45615000  0.00075000  0.57169000  1.0
  C  C22  1  0.61137000  0.19876000  0.49970000  1.0
  C  C23  1  0.45522000  0.99933000  0.42826000  1.0
  C  C24  1  0.31053000  0.79729000  0.00055000  1.0
  C  C25  1  0.45296000  0.00022000  0.92827000  1.0
  C  C26  1  0.29790000  0.19795000  0.99993000  1.0
  C  C27  1  0.45379000  0.99716000  0.07173000  1.0
  C  C28  1  0.44330000  0.00200000  0.88577000  1.0
  C  C29  1  0.59789000  0.99053000  0.86269000  1.0
  C  C30  1  0.58532000  0.98836000  0.82314000  1.0
  C  C31  1  0.41664000  0.99825000  0.80469000  1.0
  C  C32  1  0.26201000  0.00961000  0.82773000  1.0
  C  C33  1  0.27664000  0.01143000  0.86711000  1.0
  C  C34  1  0.39000000  0.99747000  0.76355000  1.0
  C  C35  1  0.52022000  0.99801000  0.73641000  1.0
  C  C36  1  0.64762000  0.01100000  0.67212000  1.0
  C  C37  1  0.49336000  0.99906000  0.69526000  1.0
  C  C38  1  0.32468000  0.98880000  0.67693000  1.0
  C  C39  1  0.31173000  0.99101000  0.63736000  1.0
  C  C40  1  0.46600000  0.00275000  0.61418000  1.0
  C  C41  1  0.63261000  0.01267000  0.63274000  1.0
  C  C42  1  0.44371000  0.99471000  0.11423000  1.0
  C  C43  1  0.59777000  0.00654000  0.13714000  1.0
  C  C44  1  0.58471000  0.00793000  0.17672000  1.0
  C  C45  1  0.41610000  0.99676000  0.19536000  1.0
  C  C46  1  0.26199000  0.98476000  0.17250000  1.0
  C  C47  1  0.27713000  0.98392000  0.13310000  1.0
  C  C48  1  0.38929000  0.99736000  0.23655000  1.0
  C  C49  1  0.51958000  0.99743000  0.26345000  1.0
  C  C50  1  0.64688000  0.98532000  0.32756000  1.0
  C  C51  1  0.49272000  0.99746000  0.30463000  1.0
  C  C52  1  0.32414000  0.00938000  0.32321000  1.0
  C  C53  1  0.31108000  0.00840000  0.36279000  1.0
  C  C54  1  0.46523000  0.99660000  0.38577000  1.0
  C  C55  1  0.63184000  0.98513000  0.36697000  1.0
  C  C56  1  0.75799000  0.38593000  0.49945000  1.0
  C  C57  1  0.45913000  0.61075000  0.49942000  1.0
  C  C58  1  0.61377000  0.31548000  0.49958000  1.0
  C  C59  1  0.60335000  0.68145000  0.49938000  1.0
  C  C60  1  0.51389000  0.50290000  0.49941000  1.0
  C  C61  1  0.70342000  0.49396000  0.49933000  1.0
  C  C62  1  0.15118000  0.38551000  0.00033000  1.0
  C  C63  1  0.45004000  0.60947000  0.00055000  1.0
  C  C64  1  0.29544000  0.31466000  0.00009000  1.0
  C  C65  1  0.30585000  0.68060000  0.00071000  1.0
  C  C66  1  0.39526000  0.50178000  0.00046000  1.0
  C  C67  1  0.20572000  0.49339000  0.00051000  1.0
  S  S68  1  0.40586000  0.38143000  0.49960000  1.0
  S  S69  1  0.81115000  0.61555000  0.49921000  1.0
  S  S70  1  0.50335000  0.38004000  0.00010000  1.0
  S  S71  1  0.09802000  0.61531000  0.00078000  1.0
  N  N72  1  0.10290000  0.02409000  0.88768000  1.0
  N  N73  1  0.80595000  0.02575000  0.61203000  1.0
  N  N74  1  0.10378000  0.97148000  0.11269000  1.0
  N  N75  1  0.80529000  0.97251000  0.38741000  1.0
  O  O76  1  0.75472000  0.84507000  0.49962000  1.0
  O  O77  1  0.44577000  0.84428000  0.49990000  1.0
  O  O78  1  0.30070000  0.00194000  0.55546000  1.0
  O  O79  1  0.60661000  0.99718000  0.55423000  1.0
  O  O80  1  0.45547000  0.15556000  0.49990000  1.0
  O  O81  1  0.76419000  0.14888000  0.49958000  1.0
  O  O82  1  0.60569000  0.99961000  0.44549000  1.0
  O  O83  1  0.29974000  0.00155000  0.44474000  1.0
  O  O84  1  0.15453000  0.84468000  0.00060000  1.0
  O  O85  1  0.46344000  0.84296000  0.00034000  1.0
  O  O86  1  0.60839000  0.00091000  0.94451000  1.0
  O  O87  1  0.30242000  0.99740000  0.94572000  1.0
  O  O88  1  0.45376000  0.15424000  0.99967000  1.0
  O  O89  1  0.14508000  0.14854000  0.00011000  1.0
  O  O90  1  0.30338000  0.99774000  0.05447000  1.0
  O  O91  1  0.60930000  0.99894000  0.05524000  1.0
  O  O92  1  0.05631000  0.11540000  0.89626000  1.0
  O  O93  1  0.01147000  0.94218000  0.89187000  1.0
  O  O94  1  0.85076000  0.11713000  0.60285000  1.0
  O  O95  1  0.89880000  0.94411000  0.60828000  1.0
  O  O96  1  0.05720000  0.88018000  0.10434000  1.0
  O  O97  1  0.01258000  0.05364000  0.10841000  1.0
  O  O98  1  0.85248000  0.88121000  0.39623000  1.0
  O  O99  1  0.89592000  0.05463000  0.39129000  1.0
  F  F100  1  0.93277000  0.35652000  0.49942000  1.0
  F  F101  1  0.28400000  0.63947000  0.49953000  1.0
  F  F102  1  0.97639000  0.35661000  0.00035000  1.0
  F  F103  1  0.62517000  0.63771000  0.00050000  1.0
