# generated using pymatgen
data_NdAgH8C14(NO4)2
_symmetry_space_group_name_H-M   'P 1'
_cell_length_a   9.16183000
_cell_length_b   9.77557000
_cell_length_c   22.40150000
_cell_angle_alpha   90.00000000
_cell_angle_beta   90.00000000
_cell_angle_gamma   116.76200000
_symmetry_Int_Tables_number   1
_chemical_formula_structural   NdAgH8C14(NO4)2
_chemical_formula_sum   'Nd4 Ag4 H32 C56 N8 O32'
_cell_volume   1791.41735830
_cell_formula_units_Z   4
loop_
 _symmetry_equiv_pos_site_id
 _symmetry_equiv_pos_as_xyz
  1  'x, y, z'
loop_
 _atom_site_type_symbol
 _atom_site_label
 _atom_site_symmetry_multiplicity
 _atom_site_fract_x
 _atom_site_fract_y
 _atom_site_fract_z
 _atom_site_occupancy
  Nd  Nd0  1  0.61601000  0.85510000  0.99055000  1.0
  Nd  Nd1  1  0.88400000  0.14491000  0.49055000  1.0
  Nd  Nd2  1  0.38400000  0.14491000  0.00945000  1.0
  Nd  Nd3  1  0.11601000  0.85510000  0.50945000  1.0
  Ag  Ag4  1  0.02478000  0.18593000  0.14901000  1.0
  Ag  Ag5  1  0.47522000  0.81407000  0.64901000  1.0
  Ag  Ag6  1  0.97522000  0.81407000  0.85099000  1.0
  Ag  Ag7  1  0.52478000  0.18593000  0.35099000  1.0
  H  H8  1  0.19946000  0.46765000  0.06782000  1.0
  H  H9  1  0.30054000  0.53236000  0.56782000  1.0
  H  H10  1  0.80054000  0.53235000  0.93218000  1.0
  H  H11  1  0.69946000  0.46765000  0.43218000  1.0
  H  H12  1  0.76595000  0.29928000  0.16410000  1.0
  H  H13  1  0.73406000  0.70072000  0.66410000  1.0
  H  H14  1  0.23406000  0.70073000  0.83590000  1.0
  H  H15  1  0.26595000  0.29928000  0.33590000  1.0
  H  H16  1  0.71276000  0.51780000  0.13258000  1.0
  H  H17  1  0.78724000  0.48219000  0.63258000  1.0
  H  H18  1  0.28724000  0.48219000  0.86742000  1.0
  H  H19  1  0.21276000  0.51781000  0.36742000  1.0
  H  H20  1  0.92424000  0.72746000  0.07065000  1.0
  H  H21  1  0.57576000  0.27254000  0.57066000  1.0
  H  H22  1  0.07576000  0.27254000  0.92934000  1.0
  H  H23  1  0.42424000  0.72746000  0.42935000  1.0
  H  H24  1  0.98607000  0.15317000  0.28073000  1.0
  H  H25  1  0.51393000  0.84683000  0.78073000  1.0
  H  H26  1  0.01393000  0.84683000  0.71927000  1.0
  H  H27  1  0.48607000  0.15317000  0.21927000  1.0
  H  H28  1  0.12076000  0.91152000  0.15814000  1.0
  H  H29  1  0.37924000  0.08847000  0.65814000  1.0
  H  H30  1  0.87924000  0.08847000  0.84185000  1.0
  H  H31  1  0.62076000  0.91152000  0.34186000  1.0
  H  H32  1  0.14980000  0.74925000  0.23928000  1.0
  H  H33  1  0.35020000  0.25074000  0.73928000  1.0
  H  H34  1  0.85020000  0.25075000  0.76072000  1.0
  H  H35  1  0.64980000  0.74925000  0.26072000  1.0
  H  H36  1  0.10141000  0.80036000  0.34661000  1.0
  H  H37  1  0.39859000  0.19965000  0.84661000  1.0
  H  H38  1  0.89859000  0.19965000  0.65339000  1.0
  H  H39  1  0.60141000  0.80036000  0.15339000  1.0
  C  C40  1  0.07882000  0.61385000  0.06494000  1.0
  C  C41  1  0.42118000  0.38615000  0.56494000  1.0
  C  C42  1  0.92118000  0.38615000  0.93506000  1.0
  C  C43  1  0.57882000  0.61385000  0.43506000  1.0
  C  C44  1  0.09502000  0.48409000  0.08234000  1.0
  C  C45  1  0.40498000  0.51591000  0.58234000  1.0
  C  C46  1  0.90498000  0.51591000  0.91766000  1.0
  C  C47  1  0.59502000  0.48409000  0.41766000  1.0
  C  C48  1  0.85240000  0.39019000  0.13583000  1.0
  C  C49  1  0.64759000  0.60981000  0.63583000  1.0
  C  C50  1  0.14759000  0.60981000  0.86417000  1.0
  C  C51  1  0.35241000  0.39019000  0.36417000  1.0
  C  C52  1  0.82489000  0.51354000  0.11918000  1.0
  C  C53  1  0.67511000  0.48645000  0.61919000  1.0
  C  C54  1  0.17511000  0.48645000  0.88081000  1.0
  C  C55  1  0.32489000  0.51354000  0.38082000  1.0
  C  C56  1  0.94084000  0.62820000  0.08394000  1.0
  C  C57  1  0.55915000  0.37180000  0.58394000  1.0
  C  C58  1  0.05915000  0.37180000  0.91606000  1.0
  C  C59  1  0.44084000  0.62820000  0.41606000  1.0
  C  C60  1  0.21126000  0.73907000  0.02891000  1.0
  C  C61  1  0.28875000  0.26093000  0.52892000  1.0
  C  C62  1  0.78875000  0.26093000  0.97108000  1.0
  C  C63  1  0.71126000  0.73907000  0.47109000  1.0
  C  C64  1  0.04019000  0.98148000  0.32065000  1.0
  C  C65  1  0.45980000  0.01852000  0.82065000  1.0
  C  C66  1  0.95980000  0.01852000  0.67935000  1.0
  C  C67  1  0.54020000  0.98148000  0.17936000  1.0
  C  C68  1  0.02409000  0.06413000  0.27247000  1.0
  C  C69  1  0.47591000  0.93587000  0.77248000  1.0
  C  C70  1  0.97591000  0.93587000  0.72752000  1.0
  C  C71  1  0.52409000  0.06413000  0.22753000  1.0
  C  C72  1  0.09748000  0.92761000  0.20472000  1.0
  C  C73  1  0.40252000  0.07239000  0.70471000  1.0
  C  C74  1  0.90252000  0.07239000  0.79528000  1.0
  C  C75  1  0.59748000  0.92761000  0.29529000  1.0
  C  C76  1  0.11435000  0.83866000  0.25039000  1.0
  C  C77  1  0.38565000  0.16134000  0.75039000  1.0
  C  C78  1  0.88565000  0.16134000  0.74961000  1.0
  C  C79  1  0.61435000  0.83866000  0.24961000  1.0
  C  C80  1  0.08754000  0.86628000  0.30956000  1.0
  C  C81  1  0.41246000  0.13372000  0.80956000  1.0
  C  C82  1  0.91246000  0.13372000  0.69044000  1.0
  C  C83  1  0.58754000  0.86628000  0.19044000  1.0
  C  C84  1  0.00396000  0.02157000  0.38174000  1.0
  C  C85  1  0.49604000  0.97844000  0.88174000  1.0
  C  C86  1  0.99604000  0.97843000  0.61826000  1.0
  C  C87  1  0.50396000  0.02157000  0.11826000  1.0
  C  C88  1  0.99577000  0.02149000  0.03297000  1.0
  C  C89  1  0.50424000  0.97851000  0.53297000  1.0
  C  C90  1  0.00425000  0.97850000  0.96703000  1.0
  C  C91  1  0.49576000  0.02149000  0.46703000  1.0
  C  C92  1  0.49120000  0.49231000  0.96528000  1.0
  C  C93  1  0.00880000  0.50770000  0.46528000  1.0
  C  C94  1  0.50880000  0.50770000  0.03471000  1.0
  C  C95  1  0.99120000  0.49231000  0.53472000  1.0
  N  N96  1  0.98530000  0.37509000  0.11802000  1.0
  N  N97  1  0.51470000  0.62491000  0.61803000  1.0
  N  N98  1  0.01470000  0.62491000  0.88197000  1.0
  N  N99  1  0.48530000  0.37509000  0.38198000  1.0
  N  N100  1  0.05353000  0.03985000  0.21561000  1.0
  N  N101  1  0.44647000  0.96015000  0.71561000  1.0
  N  N102  1  0.94647000  0.96015000  0.78439000  1.0
  N  N103  1  0.55352000  0.03984000  0.28439000  1.0
  O  O104  1  0.31630000  0.70808000  0.00322000  1.0
  O  O105  1  0.18370000  0.29193000  0.50322000  1.0
  O  O106  1  0.68370000  0.29193000  0.99678000  1.0
  O  O107  1  0.81630000  0.70808000  0.49678000  1.0
  O  O108  1  0.20790000  0.86741000  0.02887000  1.0
  O  O109  1  0.29210000  0.13260000  0.52887000  1.0
  O  O110  1  0.79210000  0.13259000  0.97113000  1.0
  O  O111  1  0.70790000  0.86741000  0.47113000  1.0
  O  O112  1  0.93652000  0.10971000  0.38446000  1.0
  O  O113  1  0.56349000  0.89030000  0.88446000  1.0
  O  O114  1  0.06349000  0.89030000  0.61554000  1.0
  O  O115  1  0.43652000  0.10971000  0.11554000  1.0
  O  O116  1  0.04179000  0.96705000  0.42729000  1.0
  O  O117  1  0.45821000  0.03295000  0.92729000  1.0
  O  O118  1  0.95822000  0.03295000  0.57271000  1.0
  O  O119  1  0.54179000  0.96705000  0.07271000  1.0
  O  O120  1  0.12833000  0.12088000  0.05587000  1.0
  O  O121  1  0.37168000  0.87912000  0.55587000  1.0
  O  O122  1  0.87168000  0.87912000  0.94413000  1.0
  O  O123  1  0.62833000  0.12088000  0.44413000  1.0
  O  O124  1  0.85990000  0.95658000  0.05941000  1.0
  O  O125  1  0.64011000  0.04342000  0.55941000  1.0
  O  O126  1  0.14011000  0.04342000  0.94059000  1.0
  O  O127  1  0.35990000  0.95658000  0.44059000  1.0
  O  O128  1  0.54755000  0.61495000  0.93547000  1.0
  O  O129  1  0.95245000  0.38505000  0.43547000  1.0
  O  O130  1  0.45245000  0.38506000  0.06453000  1.0
  O  O131  1  0.04755000  0.61495000  0.56453000  1.0
  O  O132  1  0.42116000  0.35749000  0.94396000  1.0
  O  O133  1  0.07884000  0.64250000  0.44397000  1.0
  O  O134  1  0.57883000  0.64250000  0.05603000  1.0
  O  O135  1  0.92116000  0.35749000  0.55604000  1.0
