# generated using pymatgen
data_LiH24C23N4OF9
_symmetry_space_group_name_H-M   'P 1'
_cell_length_a   8.65644000
_cell_length_b   9.39636000
_cell_length_c   16.64700000
_cell_angle_alpha   90.00000000
_cell_angle_beta   90.00000000
_cell_angle_gamma   114.44400000
_symmetry_Int_Tables_number   1
_chemical_formula_structural   LiH24C23N4OF9
_chemical_formula_sum   'Li2 H48 C46 N8 O2 F18'
_cell_volume   1232.68199224
_cell_formula_units_Z   2
loop_
 _symmetry_equiv_pos_site_id
 _symmetry_equiv_pos_as_xyz
  1  'x, y, z'
loop_
 _atom_site_type_symbol
 _atom_site_label
 _atom_site_symmetry_multiplicity
 _atom_site_fract_x
 _atom_site_fract_y
 _atom_site_fract_z
 _atom_site_occupancy
  Li  Li0  1  0.97635000  0.22895000  0.78582000  1.0
  Li  Li1  1  0.02365000  0.77105000  0.28582000  1.0
  H  H2  1  0.11721000  0.93786000  0.91750000  1.0
  H  H3  1  0.88279000  0.06215000  0.41750000  1.0
  H  H4  1  0.96244000  0.88991000  0.84068000  1.0
  H  H5  1  0.03756000  0.11009000  0.34068000  1.0
  H  H6  1  0.26431000  0.97717000  0.79049000  1.0
  H  H7  1  0.73569000  0.02283000  0.29049000  1.0
  H  H8  1  0.31278000  0.16406000  0.83230000  1.0
  H  H9  1  0.68722000  0.83594000  0.33230000  1.0
  H  H10  1  0.24650000  0.27635000  0.92694000  1.0
  H  H11  1  0.75350000  0.72366000  0.42694000  1.0
  H  H12  1  0.14502000  0.14896000  0.00874000  1.0
  H  H13  1  0.85498000  0.85104000  0.50874000  1.0
  H  H14  1  0.07218000  0.29203000  0.97604000  1.0
  H  H15  1  0.92783000  0.70797000  0.47604000  1.0
  H  H16  1  0.79347000  0.09972000  0.96112000  1.0
  H  H17  1  0.20653000  0.90028000  0.46112000  1.0
  H  H18  1  0.85263000  0.94655000  0.99114000  1.0
  H  H19  1  0.14737000  0.05345000  0.49114000  1.0
  H  H20  1  0.74876000  0.93525000  0.89715000  1.0
  H  H21  1  0.25124000  0.06476000  0.39715000  1.0
  H  H22  1  0.99778000  0.02166000  0.63208000  1.0
  H  H23  1  0.00222000  0.97834000  0.13208000  1.0
  H  H24  1  0.93736000  0.89738000  0.71692000  1.0
  H  H25  1  0.06264000  0.10263000  0.21692000  1.0
  H  H26  1  0.12150000  0.91771000  0.66123000  1.0
  H  H27  1  0.87850000  0.08229000  0.16123000  1.0
  H  H28  1  0.37362000  0.31973000  0.72376000  1.0
  H  H29  1  0.62638000  0.68027000  0.22376000  1.0
  H  H30  1  0.24704000  0.26305000  0.63521000  1.0
  H  H31  1  0.75297000  0.73695000  0.13521000  1.0
  H  H32  1  0.37276000  0.16087000  0.66450000  1.0
  H  H33  1  0.62724000  0.83913000  0.16450000  1.0
  H  H34  1  0.00114000  0.58193000  0.83642000  1.0
  H  H35  1  0.99886000  0.41807000  0.33642000  1.0
  H  H36  1  0.03485000  0.51367000  0.93222000  1.0
  H  H37  1  0.96515000  0.48633000  0.43221000  1.0
  H  H38  1  0.82590000  0.59301000  0.98444000  1.0
  H  H39  1  0.17410000  0.40699000  0.48444000  1.0
  H  H40  1  0.78208000  0.63877000  0.88640000  1.0
  H  H41  1  0.21792000  0.36123000  0.38640000  1.0
  H  H42  1  0.61338000  0.33105000  0.97583000  1.0
  H  H43  1  0.38662000  0.66895000  0.47584000  1.0
  H  H44  1  0.52378000  0.41548000  0.90433000  1.0
  H  H45  1  0.47621000  0.58452000  0.40433000  1.0
  H  H46  1  0.61398000  0.17632000  0.85951000  1.0
  H  H47  1  0.38601000  0.82367000  0.35951000  1.0
  H  H48  1  0.65134000  0.33591000  0.79262000  1.0
  H  H49  1  0.34866000  0.66408000  0.29262000  1.0
  C  C50  1  0.16271000  0.54027000  0.69230000  1.0
  C  C51  1  0.83729000  0.45973000  0.19230000  1.0
  C  C52  1  0.27642000  0.56001000  0.75801000  1.0
  C  C53  1  0.72357000  0.43998000  0.25801000  1.0
  C  C54  1  0.42503000  0.69004000  0.76893000  1.0
  C  C55  1  0.57497000  0.30997000  0.26894000  1.0
  C  C56  1  0.47825000  0.81746000  0.71487000  1.0
  C  C57  1  0.52175000  0.18254000  0.21488000  1.0
  C  C58  1  0.37128000  0.80029000  0.64815000  1.0
  C  C59  1  0.62871000  0.19971000  0.14815000  1.0
  C  C60  1  0.22179000  0.66984000  0.63747000  1.0
  C  C61  1  0.77821000  0.33016000  0.13748000  1.0
  C  C62  1  0.89021000  0.39578000  0.63730000  1.0
  C  C63  1  0.10980000  0.60421000  0.13730000  1.0
  C  C64  1  0.82590000  0.27960000  0.57773000  1.0
  C  C65  1  0.17410000  0.72039000  0.07773000  1.0
  C  C66  1  0.68487000  0.25929000  0.53092000  1.0
  C  C67  1  0.31513000  0.74071000  0.03093000  1.0
  C  C68  1  0.60019000  0.35562000  0.54252000  1.0
  C  C69  1  0.39982000  0.64439000  0.04252000  1.0
  C  C70  1  0.66006000  0.47288000  0.60058000  1.0
  C  C71  1  0.33994000  0.52712000  0.10058000  1.0
  C  C72  1  0.80064000  0.49058000  0.64674000  1.0
  C  C73  1  0.19936000  0.50941000  0.14674000  1.0
  C  C74  1  0.06953000  0.98785000  0.86809000  1.0
  C  C75  1  0.93047000  0.01215000  0.36809000  1.0
  C  C76  1  0.20925000  0.06145000  0.80612000  1.0
  C  C77  1  0.79075000  0.93856000  0.30612000  1.0
  C  C78  1  0.12361000  0.20957000  0.95553000  1.0
  C  C79  1  0.87640000  0.79043000  0.45553000  1.0
  C  C80  1  0.84119000  0.01541000  0.93924000  1.0
  C  C81  1  0.15881000  0.98459000  0.43924000  1.0
  C  C82  1  0.04625000  0.98030000  0.68361000  1.0
  C  C83  1  0.95375000  0.01970000  0.18361000  1.0
  C  C84  1  0.29342000  0.21962000  0.68691000  1.0
  C  C85  1  0.70658000  0.78038000  0.18692000  1.0
  C  C86  1  0.93805000  0.50667000  0.88788000  1.0
  C  C87  1  0.06195000  0.49333000  0.38788000  1.0
  C  C88  1  0.79755000  0.54836000  0.92289000  1.0
  C  C89  1  0.20245000  0.45164000  0.42289000  1.0
  C  C90  1  0.63640000  0.39475000  0.91867000  1.0
  C  C91  1  0.36359000  0.60525000  0.41867000  1.0
  C  C92  1  0.67874000  0.30364000  0.85312000  1.0
  C  C93  1  0.32126000  0.69636000  0.35312000  1.0
  C  C94  1  0.62633000  0.95219000  0.72890000  1.0
  C  C95  1  0.37368000  0.04782000  0.22890000  1.0
  N  N96  1  0.02356000  0.40693000  0.68668000  1.0
  N  N97  1  0.97644000  0.59307000  0.18668000  1.0
  N  N98  1  0.74997000  0.06298000  0.74368000  1.0
  N  N99  1  0.25002000  0.93701000  0.24368000  1.0
  N  N100  1  0.00434000  0.09932000  0.89866000  1.0
  N  N101  1  0.99566000  0.90068000  0.39866000  1.0
  N  N102  1  0.14920000  0.11367000  0.73413000  1.0
  N  N103  1  0.85080000  0.88633000  0.23413000  1.0
  O  O104  1  0.85810000  0.34539000  0.86136000  1.0
  O  O105  1  0.14190000  0.65461000  0.36136000  1.0
  F  F106  1  0.23173000  0.44253000  0.81356000  1.0
  F  F107  1  0.76827000  0.55747000  0.31356000  1.0
  F  F108  1  0.52345000  0.69781000  0.83341000  1.0
  F  F109  1  0.47655000  0.30219000  0.33342000  1.0
  F  F110  1  0.41854000  0.91641000  0.59277000  1.0
  F  F111  1  0.58145000  0.08359000  0.09277000  1.0
  F  F112  1  0.12952000  0.66239000  0.56997000  1.0
  F  F113  1  0.87047000  0.33761000  0.06998000  1.0
  F  F114  1  0.90763000  0.18657000  0.56223000  1.0
  F  F115  1  0.09237000  0.81343000  0.06223000  1.0
  F  F116  1  0.63111000  0.14779000  0.47322000  1.0
  F  F117  1  0.36889000  0.85222000  0.97322000  1.0
  F  F118  1  0.46024000  0.33447000  0.49943000  1.0
  F  F119  1  0.53977000  0.66553000  0.99943000  1.0
  F  F120  1  0.57909000  0.56750000  0.61237000  1.0
  F  F121  1  0.42091000  0.43250000  0.11237000  1.0
  F  F122  1  0.85307000  0.60486000  0.70354000  1.0
  F  F123  1  0.14693000  0.39514000  0.20354000  1.0
