# generated using pymatgen
data_ZnH5C12Br3NO10
_symmetry_space_group_name_H-M   'P 1'
_cell_length_a   8.37710000
_cell_length_b   8.92851000
_cell_length_c   15.80510000
_cell_angle_alpha   88.61060000
_cell_angle_beta   84.68430000
_cell_angle_gamma   88.60040000
_symmetry_Int_Tables_number   1
_chemical_formula_structural   ZnH5C12Br3NO10
_chemical_formula_sum   'Zn2 H10 C24 Br6 N2 O20'
_cell_volume   1176.42061492
_cell_formula_units_Z   2
loop_
 _symmetry_equiv_pos_site_id
 _symmetry_equiv_pos_as_xyz
  1  'x, y, z'
loop_
 _atom_site_type_symbol
 _atom_site_label
 _atom_site_symmetry_multiplicity
 _atom_site_fract_x
 _atom_site_fract_y
 _atom_site_fract_z
 _atom_site_occupancy
  Zn  Zn0  1  0.67290000  0.52325000  0.49766000  1.0
  Zn  Zn1  1  0.32877000  0.50293000  0.50344000  1.0
  H  H2  1  0.61611000  0.64723000  0.89073000  1.0
  H  H3  1  0.70746000  0.01485000  0.47032000  1.0
  H  H4  1  0.01111000  0.40352000  0.55352000  1.0
  H  H5  1  0.22413000  0.46125000  0.95710000  1.0
  H  H6  1  0.92908000  0.62345000  0.94797000  1.0
  H  H7  1  0.26916000  0.99264000  0.98867000  1.0
  H  H8  1  0.01025000  0.37724000  0.11415000  1.0
  H  H9  1  0.28866000  0.88129000  0.16151000  1.0
  H  H10  1  0.34114000  0.83097000  0.83144000  1.0
  H  H11  1  0.64062000  0.10000000  0.80398000  1.0
  C  C12  1  0.50749000  0.79937000  0.51935000  1.0
  C  C13  1  0.62697000  0.54537000  0.92928000  1.0
  C  C14  1  0.47486000  0.45277000  0.91940000  1.0
  C  C15  1  0.48822000  0.29323000  0.96448000  1.0
  C  C16  1  0.52396000  0.32559000  0.05940000  1.0
  C  C17  1  0.45467000  0.44691000  0.82905000  1.0
  C  C18  1  0.51818000  0.51769000  0.17158000  1.0
  C  C19  1  0.50776000  0.51989000  0.24841000  1.0
  C  C20  1  0.48687000  0.96553000  0.53417000  1.0
  C  C21  1  0.59683000  0.06328000  0.50134000  1.0
  C  C22  1  0.49630000  0.52000000  0.33977000  1.0
  C  C23  1  0.58446000  0.22961000  0.50146000  1.0
  C  C24  1  0.43911000  0.48288000  0.66322000  1.0
  C  C25  1  0.64153000  0.58761000  0.02270000  1.0
  C  C26  1  0.33265000  0.56756000  0.05744000  1.0
  C  C27  1  0.32125000  0.53939000  0.96107000  1.0
  C  C28  1  0.43776000  0.46448000  0.75413000  1.0
  C  C29  1  0.50504000  0.50405000  0.08142000  1.0
  C  C30  1  0.80729000  0.59331000  0.06113000  1.0
  C  C31  1  0.33245000  0.19941000  0.95657000  1.0
  C  C32  1  0.19361000  0.49117000  0.11707000  1.0
  C  C33  1  0.29121000  0.73406000  0.07900000  1.0
  C  C34  1  0.27021000  0.66789000  0.90140000  1.0
  C  C35  1  0.61032000  0.18262000  0.91280000  1.0
  Br  Br36  1  0.81905000  0.44813000  0.86902000  1.0
  Br  Br37  1  0.29403000  0.02118000  0.59963000  1.0
  Br  Br38  1  0.01289000  0.69807000  0.39397000  1.0
  Br  Br39  1  0.61306000  0.81258000  0.02344000  1.0
  Br  Br40  1  0.74022000  0.25750000  0.08775000  1.0
  Br  Br41  1  0.38732000  0.21105000  0.14728000  1.0
  N  N42  1  0.06068000  0.48232000  0.50990000  1.0
  N  N43  1  0.95003000  0.55019000  0.47813000  1.0
  O  O44  1  0.65145000  0.74827000  0.51039000  1.0
  O  O45  1  0.38056000  0.72680000  0.51515000  1.0
  O  O46  1  0.62691000  0.52947000  0.37435000  1.0
  O  O47  1  0.35504000  0.50987000  0.37740000  1.0
  O  O48  1  0.71724000  0.29907000  0.50204000  1.0
  O  O49  1  0.44734000  0.29116000  0.49840000  1.0
  O  O50  1  0.57631000  0.50592000  0.62421000  1.0
  O  O51  1  0.30548000  0.47551000  0.63054000  1.0
  O  O52  1  0.81912000  0.58030000  0.13703000  1.0
  O  O53  1  0.93443000  0.63478000  0.00962000  1.0
  O  O54  1  0.21328000  0.24221000  0.92432000  1.0
  O  O55  1  0.36234000  0.06011000  0.98433000  1.0
  O  O56  1  0.16458000  0.52114000  0.19130000  1.0
  O  O57  1  0.10699000  0.39709000  0.07559000  1.0
  O  O58  1  0.21361000  0.81303000  0.03212000  1.0
  O  O59  1  0.32422000  0.77614000  0.15587000  1.0
  O  O60  1  0.14064000  0.67282000  0.87201000  1.0
  O  O61  1  0.38707000  0.76576000  0.87428000  1.0
  O  O62  1  0.71502000  0.10302000  0.93862000  1.0
  O  O63  1  0.56573000  0.17252000  0.83273000  1.0
