# generated using pymatgen
data_Zr3H30(C5O2)8
_symmetry_space_group_name_H-M   'P 1'
_cell_length_a   15.02330000
_cell_length_b   18.64610000
_cell_length_c   19.60188237
_cell_angle_alpha   81.14931694
_cell_angle_beta   67.47976038
_cell_angle_gamma   66.26790000
_symmetry_Int_Tables_number   1
_chemical_formula_structural   Zr3H30(C5O2)8
_chemical_formula_sum   'Zr6 H60 C80 O32'
_cell_volume   4643.35036793
_cell_formula_units_Z   2
loop_
 _symmetry_equiv_pos_site_id
 _symmetry_equiv_pos_as_xyz
  1  'x, y, z'
loop_
 _atom_site_type_symbol
 _atom_site_label
 _atom_site_symmetry_multiplicity
 _atom_site_fract_x
 _atom_site_fract_y
 _atom_site_fract_z
 _atom_site_occupancy
  Zr  Zr0  1  0.56957000  0.99985000  0.86050000  1.0
  Zr  Zr1  1  0.43041000  0.00016000  0.13950000  1.0
  Zr  Zr2  1  0.43817000  0.89370000  0.00091000  1.0
  Zr  Zr3  1  0.56182000  0.10630000  0.99910000  1.0
  Zr  Zr4  1  0.66742000  0.89397000  0.00061000  1.0
  Zr  Zr5  1  0.33257000  0.10603000  0.99938000  1.0
  H  H6  1  0.35724000  0.99598000  0.90565000  1.0
  H  H7  1  0.74098000  0.99625000  0.90491000  1.0
  H  H8  1  0.64275000  0.00401000  0.09435000  1.0
  H  H9  1  0.25901000  0.00375000  0.09509000  1.0
  H  H10  1  0.46550000  0.74495000  0.04353000  1.0
  H  H11  1  0.48723000  0.25246000  0.04511000  1.0
  H  H12  1  0.78461000  0.74782000  0.95454000  1.0
  H  H13  1  0.25395000  0.25491000  0.95691000  1.0
  H  H14  1  0.53449000  0.25504000  0.95648000  1.0
  H  H15  1  0.51276000  0.74754000  0.95490000  1.0
  H  H16  1  0.21539000  0.25219000  0.04545000  1.0
  H  H17  1  0.74603000  0.74509000  0.04309000  1.0
  H  H18  1  0.67558000  0.28036000  0.81825000  1.0
  H  H19  1  0.50906000  0.71868000  0.81804000  1.0
  H  H20  1  0.04623000  0.28101000  0.18196000  1.0
  H  H21  1  0.77467000  0.71974000  0.18149000  1.0
  H  H22  1  0.32443000  0.71963000  0.18175000  1.0
  H  H23  1  0.49094000  0.28132000  0.18196000  1.0
  H  H24  1  0.95376000  0.71899000  0.81805000  1.0
  H  H25  1  0.22532000  0.28025000  0.81851000  1.0
  H  H26  1  0.68878000  0.11971000  0.67649000  1.0
  H  H27  1  0.63581000  0.87995000  0.67622000  1.0
  H  H28  1  0.19278000  0.12035000  0.32391000  1.0
  H  H29  1  0.48539000  0.88020000  0.32307000  1.0
  H  H30  1  0.31123000  0.88028000  0.32350000  1.0
  H  H31  1  0.36418000  0.12005000  0.32379000  1.0
  H  H32  1  0.80724000  0.87966000  0.67609000  1.0
  H  H33  1  0.51461000  0.11980000  0.67694000  1.0
  H  H34  1  0.72904000  0.36234000  0.70960000  1.0
  H  H35  1  0.56179000  0.63769000  0.70911000  1.0
  H  H36  1  0.90923000  0.36223000  0.29078000  1.0
  H  H37  1  0.80131000  0.63779000  0.29016000  1.0
  H  H38  1  0.27097000  0.63766000  0.29040000  1.0
  H  H39  1  0.43822000  0.36231000  0.29088000  1.0
  H  H40  1  0.09077000  0.63778000  0.70923000  1.0
  H  H41  1  0.19869000  0.36221000  0.70984000  1.0
  H  H42  1  0.74012000  0.20192000  0.56733000  1.0
  H  H43  1  0.69169000  0.79868000  0.56681000  1.0
  H  H44  1  0.05800000  0.20179000  0.43322000  1.0
  H  H45  1  0.50952000  0.79800000  0.43225000  1.0
  H  H46  1  0.25990000  0.79808000  0.43266000  1.0
  H  H47  1  0.30831000  0.20132000  0.43319000  1.0
  H  H48  1  0.94203000  0.79822000  0.56678000  1.0
  H  H49  1  0.49050000  0.20200000  0.56775000  1.0
  H  H50  1  0.67362000  0.44678000  0.61261000  1.0
  H  H51  1  0.71193000  0.55362000  0.61256000  1.0
  H  H52  1  0.87877000  0.44660000  0.38737000  1.0
  H  H53  1  0.73374000  0.55325000  0.38692000  1.0
  H  H54  1  0.32638000  0.55322000  0.38740000  1.0
  H  H55  1  0.28807000  0.44638000  0.38744000  1.0
  H  H56  1  0.12124000  0.55340000  0.61263000  1.0
  H  H57  1  0.26628000  0.44674000  0.61308000  1.0
  H  H58  1  0.88589000  0.22873000  0.50036000  1.0
  H  H59  1  0.61450000  0.77138000  0.49944000  1.0
  H  H60  1  0.11413000  0.77127000  0.49964000  1.0
  H  H61  1  0.38552000  0.22861000  0.50055000  1.0
  H  H62  1  0.24930000  0.88767000  0.03607000  1.0
  H  H63  1  0.75067000  0.11236000  0.96391000  1.0
  H  H64  1  0.82687000  0.88628000  0.03667000  1.0
  H  H65  1  0.17311000  0.11368000  0.96336000  1.0
  C  C66  1  0.65069000  0.14239000  0.81736000  1.0
  C  C67  1  0.53599000  0.85558000  0.81761000  1.0
  C  C68  1  0.20963000  0.14428000  0.18255000  1.0
  C  C69  1  0.61090000  0.85762000  0.18230000  1.0
  C  C70  1  0.34930000  0.85761000  0.18264000  1.0
  C  C71  1  0.46399000  0.14442000  0.18240000  1.0
  C  C72  1  0.79036000  0.85573000  0.81745000  1.0
  C  C73  1  0.38909000  0.14238000  0.81770000  1.0
  C  C74  1  0.67928000  0.19469000  0.75396000  1.0
  C  C75  1  0.56947000  0.80426000  0.75373000  1.0
  C  C76  1  0.12813000  0.19577000  0.24634000  1.0
  C  C77  1  0.62836000  0.80534000  0.24570000  1.0
  C  C78  1  0.32073000  0.80531000  0.24604000  1.0
  C  C79  1  0.43053000  0.19574000  0.24627000  1.0
  C  C80  1  0.87188000  0.80424000  0.75366000  1.0
  C  C81  1  0.37164000  0.19466000  0.75430000  1.0
  C  C82  1  0.68911000  0.26390000  0.76308000  1.0
  C  C83  1  0.55014000  0.73525000  0.76280000  1.0
  C  C84  1  0.04873000  0.26461000  0.23721000  1.0
  C  C85  1  0.71652000  0.73621000  0.23662000  1.0
  C  C86  1  0.31091000  0.73609000  0.23691000  1.0
  C  C87  1  0.44986000  0.26474000  0.23721000  1.0
  C  C88  1  0.95127000  0.73540000  0.76280000  1.0
  C  C89  1  0.28348000  0.26379000  0.76337000  1.0
  C  C90  1  0.69781000  0.17310000  0.68285000  1.0
  C  C91  1  0.62059000  0.82650000  0.68255000  1.0
  C  C92  1  0.13040000  0.17371000  0.31753000  1.0
  C  C93  1  0.55413000  0.82684000  0.31677000  1.0
  C  C94  1  0.30221000  0.82689000  0.31714000  1.0
  C  C95  1  0.37941000  0.17350000  0.31745000  1.0
  C  C96  1  0.86962000  0.82629000  0.68247000  1.0
  C  C97  1  0.44587000  0.17316000  0.68323000  1.0
  C  C98  1  0.71859000  0.30982000  0.70213000  1.0
  C  C99  1  0.58015000  0.68999000  0.70170000  1.0
  C  C100  1  0.97243000  0.30997000  0.29823000  1.0
  C  C101  1  0.73091000  0.69027000  0.29756000  1.0
  C  C102  1  0.28142000  0.69017000  0.29787000  1.0
  C  C103  1  0.41985000  0.31001000  0.29830000  1.0
  C  C104  1  0.02757000  0.69004000  0.70177000  1.0
  C  C105  1  0.26909000  0.30973000  0.70243000  1.0
  C  C106  1  0.72712000  0.21886000  0.62221000  1.0
  C  C107  1  0.65068000  0.78130000  0.62175000  1.0
  C  C108  1  0.05449000  0.21900000  0.37827000  1.0
  C  C109  1  0.56851000  0.78110000  0.37742000  1.0
  C  C110  1  0.27288000  0.78114000  0.37779000  1.0
  C  C111  1  0.34932000  0.21870000  0.37825000  1.0
  C  C112  1  0.94553000  0.78100000  0.62173000  1.0
  C  C113  1  0.43149000  0.21890000  0.62258000  1.0
  C  C114  1  0.73935000  0.28758000  0.63052000  1.0
  C  C115  1  0.63009000  0.71262000  0.63004000  1.0
  C  C116  1  0.97347000  0.28757000  0.36990000  1.0
  C  C117  1  0.65776000  0.71245000  0.36914000  1.0
  C  C118  1  0.26066000  0.71242000  0.36948000  1.0
  C  C119  1  0.36991000  0.28738000  0.36996000  1.0
  C  C120  1  0.02655000  0.71243000  0.63010000  1.0
  C  C121  1  0.34225000  0.28755000  0.63085000  1.0
  C  C122  1  0.77658000  0.33277000  0.56449000  1.0
  C  C123  1  0.65834000  0.66753000  0.56406000  1.0
  C  C124  1  0.89049000  0.33267000  0.43580000  1.0
  C  C125  1  0.67397000  0.66730000  0.43519000  1.0
  C  C126  1  0.22343000  0.66723000  0.43551000  1.0
  C  C127  1  0.34167000  0.33247000  0.43593000  1.0
  C  C128  1  0.10951000  0.66733000  0.56420000  1.0
  C  C129  1  0.32604000  0.33271000  0.56481000  1.0
  C  C130  1  0.73621000  0.41490000  0.56373000  1.0
  C  C131  1  0.69877000  0.58540000  0.56353000  1.0
  C  C132  1  0.84810000  0.41481000  0.43630000  1.0
  C  C133  1  0.71518000  0.58517000  0.43590000  1.0
  C  C134  1  0.26380000  0.58510000  0.43627000  1.0
  C  C135  1  0.30125000  0.41460000  0.43646000  1.0
  C  C136  1  0.15191000  0.58519000  0.56370000  1.0
  C  C137  1  0.28482000  0.41483000  0.56410000  1.0
  C  C138  1  0.85375000  0.29261000  0.50021000  1.0
  C  C139  1  0.64618000  0.70752000  0.49958000  1.0
  C  C140  1  0.14626000  0.70739000  0.49979000  1.0
  C  C141  1  0.35382000  0.29248000  0.50042000  1.0
  C  C142  1  0.77110000  0.45671000  0.49994000  1.0
  C  C143  1  0.72773000  0.54345000  0.49981000  1.0
  C  C144  1  0.22890000  0.54329000  0.50006000  1.0
  C  C145  1  0.27227000  0.45655000  0.50019000  1.0
  O  O146  1  0.65101000  0.07886000  0.80038000  1.0
  O  O147  1  0.54819000  0.92098000  0.80082000  1.0
  O  O148  1  0.27052000  0.07899000  0.19938000  1.0
  O  O149  1  0.53091000  0.92123000  0.19933000  1.0
  O  O150  1  0.34897000  0.92114000  0.19963000  1.0
  O  O151  1  0.45179000  0.07902000  0.19918000  1.0
  O  O152  1  0.72947000  0.92101000  0.80062000  1.0
  O  O153  1  0.46908000  0.07876000  0.80067000  1.0
  O  O154  1  0.40153000  0.99991000  0.92915000  1.0
  O  O155  1  0.66940000  0.00000000  0.92888000  1.0
  O  O156  1  0.59846000  0.00010000  0.07084000  1.0
  O  O157  1  0.33059000  0.00000000  0.07113000  1.0
  O  O158  1  0.57868000  0.90874000  0.93378000  1.0
  O  O159  1  0.48683000  0.09392000  0.93206000  1.0
  O  O160  1  0.51316000  0.90608000  0.06795000  1.0
  O  O161  1  0.42130000  0.09127000  0.06622000  1.0
  O  O162  1  0.62975000  0.16292000  0.88276000  1.0
  O  O163  1  0.49720000  0.83278000  0.88295000  1.0
  O  O164  1  0.21303000  0.16679000  0.11720000  1.0
  O  O165  1  0.67571000  0.83703000  0.11689000  1.0
  O  O166  1  0.37023000  0.83708000  0.11725000  1.0
  O  O167  1  0.50279000  0.16722000  0.11706000  1.0
  O  O168  1  0.78695000  0.83322000  0.88281000  1.0
  O  O169  1  0.32427000  0.16296000  0.88310000  1.0
  O  O170  1  0.31083000  0.88715000  0.99438000  1.0
  O  O171  1  0.68917000  0.11286000  0.00561000  1.0
  O  O172  1  0.80788000  0.88690000  0.99452000  1.0
  O  O173  1  0.19210000  0.11309000  0.00550000  1.0
  O  O174  1  0.51714000  0.75831000  0.00081000  1.0
  O  O175  1  0.48284000  0.24169000  0.99920000  1.0
  O  O176  1  0.72357000  0.75845000  0.00045000  1.0
  O  O177  1  0.27642000  0.24155000  0.99954000  1.0
