# generated using pymatgen
data_ZnH8(CO2)4
_symmetry_space_group_name_H-M   'P 1'
_cell_length_a   6.72585000
_cell_length_b   8.04925000
_cell_length_c   8.04925000
_cell_angle_alpha   111.77200000
_cell_angle_beta   95.53320000
_cell_angle_gamma   95.53280000
_symmetry_Int_Tables_number   1
_chemical_formula_structural   ZnH8(CO2)4
_chemical_formula_sum   'Zn2 H16 C8 O16'
_cell_volume   398.66063741
_cell_formula_units_Z   2
loop_
 _symmetry_equiv_pos_site_id
 _symmetry_equiv_pos_as_xyz
  1  'x, y, z'
loop_
 _atom_site_type_symbol
 _atom_site_label
 _atom_site_symmetry_multiplicity
 _atom_site_fract_x
 _atom_site_fract_y
 _atom_site_fract_z
 _atom_site_occupancy
  Zn  Zn0  1  0.00000000  0.00000000  0.50000000  1.0
  Zn  Zn1  1  0.50000000  0.50000000  0.00000000  1.0
  H  H2  1  0.37620000  0.14112000  0.44485000  1.0
  H  H3  1  0.12380000  0.55515000  0.85888000  1.0
  H  H4  1  0.62380000  0.85888000  0.55515000  1.0
  H  H5  1  0.87620000  0.44485000  0.14111000  1.0
  H  H6  1  0.38430000  0.15407000  0.64952000  1.0
  H  H7  1  0.11570000  0.35048000  0.84593000  1.0
  H  H8  1  0.61570000  0.84593000  0.35048000  1.0
  H  H9  1  0.88430000  0.64952000  0.15407000  1.0
  H  H10  1  0.95187000  0.28162000  0.40481000  1.0
  H  H11  1  0.54813000  0.59519000  0.71838000  1.0
  H  H12  1  0.04813000  0.71838000  0.59519000  1.0
  H  H13  1  0.45186000  0.40481000  0.28162000  1.0
  H  H14  1  0.75721000  0.23231000  0.47834000  1.0
  H  H15  1  0.74279000  0.52166000  0.76769000  1.0
  H  H16  1  0.24279000  0.76769000  0.52166000  1.0
  H  H17  1  0.25721000  0.47834000  0.23230000  1.0
  C  C18  1  0.00658000  0.05168000  0.89943000  1.0
  C  C19  1  0.49342000  0.10058000  0.94831000  1.0
  C  C20  1  0.99342000  0.94832000  0.10058000  1.0
  C  C21  1  0.50658000  0.89942000  0.05168000  1.0
  C  C22  1  0.00180000  0.13074000  0.09550000  1.0
  C  C23  1  0.49820000  0.90449000  0.86925000  1.0
  C  C24  1  0.99820000  0.86926000  0.90450000  1.0
  C  C25  1  0.50181000  0.09551000  0.13074000  1.0
  O  O26  1  0.30498000  0.09918000  0.52713000  1.0
  O  O27  1  0.19502000  0.47287000  0.90082000  1.0
  O  O28  1  0.69502000  0.90082000  0.47288000  1.0
  O  O29  1  0.80499000  0.52712000  0.09917000  1.0
  O  O30  1  0.90482000  0.24867000  0.50468000  1.0
  O  O31  1  0.59518000  0.49531000  0.75133000  1.0
  O  O32  1  0.09517000  0.75133000  0.49532000  1.0
  O  O33  1  0.40483000  0.50469000  0.24867000  1.0
  O  O34  1  0.01499000  0.12055000  0.78235000  1.0
  O  O35  1  0.48502000  0.21764000  0.87945000  1.0
  O  O36  1  0.98501000  0.87945000  0.21766000  1.0
  O  O37  1  0.51498000  0.78236000  0.12055000  1.0
  O  O38  1  0.00265000  0.28968000  0.20859000  1.0
  O  O39  1  0.49735000  0.79142000  0.71033000  1.0
  O  O40  1  0.99735000  0.71032000  0.79142000  1.0
  O  O41  1  0.50266000  0.20858000  0.28967000  1.0
