# generated using pymatgen
data_ZnH16C22(NO2)2
_symmetry_space_group_name_H-M   'P 1'
_cell_length_a   10.00090000
_cell_length_b   10.26030000
_cell_length_c   10.26270000
_cell_angle_alpha   66.02030000
_cell_angle_beta   82.19080000
_cell_angle_gamma   73.37920000
_symmetry_Int_Tables_number   1
_chemical_formula_structural   ZnH16C22(NO2)2
_chemical_formula_sum   'Zn2 H32 C44 N4 O8'
_cell_volume   921.75384949
_cell_formula_units_Z   2
loop_
 _symmetry_equiv_pos_site_id
 _symmetry_equiv_pos_as_xyz
  1  'x, y, z'
loop_
 _atom_site_type_symbol
 _atom_site_label
 _atom_site_symmetry_multiplicity
 _atom_site_fract_x
 _atom_site_fract_y
 _atom_site_fract_z
 _atom_site_occupancy
  Zn  Zn0  1  0.12476000  0.39194000  0.47730000  1.0
  Zn  Zn1  1  0.87525000  0.60806000  0.52270000  1.0
  H  H2  1  0.60765000  0.66685000  0.19116000  1.0
  H  H3  1  0.39235000  0.33314000  0.80884000  1.0
  H  H4  1  0.49701000  0.66971000  0.98488000  1.0
  H  H5  1  0.50300000  0.33028000  0.01513000  1.0
  H  H6  1  0.62996000  0.52235000  0.84668000  1.0
  H  H7  1  0.37004000  0.47765000  0.15332000  1.0
  H  H8  1  0.86979000  0.37206000  0.91162000  1.0
  H  H9  1  0.13021000  0.62794000  0.08837000  1.0
  H  H10  1  0.98019000  0.36713000  0.12050000  1.0
  H  H11  1  0.01981000  0.63286000  0.87949000  1.0
  H  H12  1  0.65358000  0.30065000  0.81219000  1.0
  H  H13  1  0.34642000  0.69936000  0.18782000  1.0
  H  H14  1  0.57278000  0.10418000  0.02393000  1.0
  H  H15  1  0.42722000  0.89582000  0.97607000  1.0
  H  H16  1  0.72685000  0.85131000  0.11970000  1.0
  H  H17  1  0.27314000  0.14869000  0.88030000  1.0
  H  H18  1  0.95386000  0.78864000  0.99882000  1.0
  H  H19  1  0.04613000  0.21136000  0.00118000  1.0
  H  H20  1  0.03453000  0.98461000  0.78986000  1.0
  H  H21  1  0.96547000  0.01539000  0.21014000  1.0
  H  H22  1  0.13371000  0.18202000  0.35470000  1.0
  H  H23  1  0.86628000  0.81798000  0.64530000  1.0
  H  H24  1  0.30649000  0.01428000  0.25158000  1.0
  H  H25  1  0.69351000  0.98572000  0.74842000  1.0
  H  H26  1  0.73753000  0.06433000  0.29653000  1.0
  H  H27  1  0.26247000  0.93567000  0.70346000  1.0
  H  H28  1  0.82397000  0.20571000  0.40330000  1.0
  H  H29  1  0.17603000  0.79428000  0.59670000  1.0
  H  H30  1  0.65633000  0.36226000  0.51531000  1.0
  H  H31  1  0.34368000  0.63773000  0.48469000  1.0
  H  H32  1  0.40115000  0.38264000  0.52170000  1.0
  H  H33  1  0.59885000  0.61736000  0.47830000  1.0
  C  C34  1  0.86891000  0.51709000  0.28797000  1.0
  C  C35  1  0.13112000  0.48289000  0.71203000  1.0
  C  C36  1  0.80080000  0.51721000  0.16701000  1.0
  C  C37  1  0.19921000  0.48278000  0.83299000  1.0
  C  C38  1  0.66427000  0.60251000  0.12935000  1.0
  C  C39  1  0.33574000  0.39748000  0.87066000  1.0
  C  C40  1  0.60306000  0.60407000  0.01457000  1.0
  C  C41  1  0.39694000  0.39593000  0.98543000  1.0
  C  C42  1  0.67753000  0.52077000  0.93682000  1.0
  C  C43  1  0.32247000  0.47923000  0.06318000  1.0
  C  C44  1  0.81297000  0.43491000  0.97447000  1.0
  C  C45  1  0.18702000  0.56508000  0.02553000  1.0
  C  C46  1  0.87424000  0.43242000  0.08968000  1.0
  C  C47  1  0.12577000  0.56757000  0.91032000  1.0
  C  C48  1  0.90349000  0.27496000  0.67328000  1.0
  C  C49  1  0.09653000  0.72503000  0.32672000  1.0
  C  C50  1  0.84914000  0.15447000  0.78923000  1.0
  C  C51  1  0.15085000  0.84553000  0.21077000  1.0
  C  C52  1  0.71802000  0.18769000  0.85406000  1.0
  C  C53  1  0.28198000  0.81231000  0.14594000  1.0
  C  C54  1  0.67331000  0.07872000  0.97135000  1.0
  C  C55  1  0.32669000  0.92128000  0.02865000  1.0
  C  C56  1  0.75922000  0.93538000  0.02497000  1.0
  C  C57  1  0.24078000  0.06463000  0.97503000  1.0
  C  C58  1  0.88763000  0.90058000  0.95766000  1.0
  C  C59  1  0.11236000  0.09943000  0.04234000  1.0
  C  C60  1  0.93272000  0.00919000  0.84049000  1.0
  C  C61  1  0.06727000  0.99082000  0.15951000  1.0
  C  C62  1  0.24541000  0.17103000  0.35460000  1.0
  C  C63  1  0.75459000  0.82897000  0.64540000  1.0
  C  C64  1  0.34295000  0.07841000  0.29530000  1.0
  C  C65  1  0.65704000  0.92159000  0.70470000  1.0
  C  C66  1  0.52204000  0.14622000  0.34641000  1.0
  C  C67  1  0.47796000  0.85379000  0.65358000  1.0
  C  C68  1  0.66653000  0.13610000  0.34443000  1.0
  C  C69  1  0.33347000  0.86390000  0.65556000  1.0
  C  C70  1  0.71285000  0.21356000  0.40398000  1.0
  C  C71  1  0.28715000  0.78643000  0.59601000  1.0
  C  C72  1  0.61702000  0.30341000  0.46751000  1.0
  C  C73  1  0.38298000  0.69659000  0.53248000  1.0
  C  C74  1  0.47557000  0.31624000  0.47062000  1.0
  C  C75  1  0.52443000  0.68376000  0.52937000  1.0
  C  C76  1  0.42529000  0.23858000  0.40975000  1.0
  C  C77  1  0.57470000  0.76143000  0.59024000  1.0
  N  N78  1  0.28505000  0.24996000  0.41012000  1.0
  N  N79  1  0.71495000  0.75004000  0.58987000  1.0
  N  N80  1  0.47835000  0.06656000  0.28949000  1.0
  N  N81  1  0.52165000  0.93345000  0.71050000  1.0
  O  O82  1  0.98995000  0.43076000  0.32173000  1.0
  O  O83  1  0.01004000  0.56924000  0.67827000  1.0
  O  O84  1  0.80105000  0.60444000  0.34812000  1.0
  O  O85  1  0.19896000  0.39557000  0.65188000  1.0
  O  O86  1  0.02115000  0.23768000  0.61540000  1.0
  O  O87  1  0.97884000  0.76233000  0.38462000  1.0
  O  O88  1  0.82850000  0.40698000  0.64396000  1.0
  O  O89  1  0.17149000  0.59304000  0.35604000  1.0
