# generated using pymatgen
data_Gd2CuH16C32(N2O13)2
_symmetry_space_group_name_H-M   'P 1'
_cell_length_a   9.83650000
_cell_length_b   10.30760000
_cell_length_c   11.01480000
_cell_angle_alpha   70.15590000
_cell_angle_beta   85.14980000
_cell_angle_gamma   71.17710000
_symmetry_Int_Tables_number   1
_chemical_formula_structural   Gd2CuH16C32(N2O13)2
_chemical_formula_sum   'Gd2 Cu1 H16 C32 N4 O26'
_cell_volume   993.91193421
_cell_formula_units_Z   1
loop_
 _symmetry_equiv_pos_site_id
 _symmetry_equiv_pos_as_xyz
  1  'x, y, z'
loop_
 _atom_site_type_symbol
 _atom_site_label
 _atom_site_symmetry_multiplicity
 _atom_site_fract_x
 _atom_site_fract_y
 _atom_site_fract_z
 _atom_site_occupancy
  Gd  Gd0  1  0.40470000  0.40626000  0.41675000  1.0
  Gd  Gd1  1  0.59530000  0.59374000  0.58325000  1.0
  Cu  Cu2  1  0.50000000  0.00000000  0.50000000  1.0
  H  H3  1  0.91873000  0.36251000  0.48450000  1.0
  H  H4  1  0.08127000  0.63750000  0.51550000  1.0
  H  H5  1  0.81022000  0.96686000  0.66372000  1.0
  H  H6  1  0.18977000  0.03315000  0.33627000  1.0
  H  H7  1  0.25156000  0.95501000  0.65162000  1.0
  H  H8  1  0.74843000  0.04499000  0.34839000  1.0
  H  H9  1  0.45877000  0.37130000  0.97920000  1.0
  H  H10  1  0.54124000  0.62869000  0.02080000  1.0
  H  H11  1  0.34911000  0.98675000  0.20173000  1.0
  H  H12  1  0.65089000  0.01324000  0.79827000  1.0
  H  H13  1  0.29101000  0.15171000  0.78760000  1.0
  H  H14  1  0.70899000  0.84829000  0.21240000  1.0
  H  H15  1  0.13734000  0.56046000  0.24143000  1.0
  H  H16  1  0.86266000  0.43954000  0.75857000  1.0
  H  H17  1  0.22675000  0.67084000  0.18308000  1.0
  H  H18  1  0.77325000  0.32916000  0.81692000  1.0
  C  C19  1  0.09627000  0.16679000  0.56015000  1.0
  C  C20  1  0.90373000  0.83321000  0.43985000  1.0
  C  C21  1  0.95002000  0.24597000  0.53608000  1.0
  C  C22  1  0.04998000  0.75403000  0.46392000  1.0
  C  C23  1  0.84685000  0.17430000  0.57146000  1.0
  C  C24  1  0.15315000  0.82570000  0.42853000  1.0
  C  C25  1  0.88847000  0.02517000  0.63846000  1.0
  C  C26  1  0.11152000  0.97484000  0.36154000  1.0
  C  C27  1  0.03288000  0.95110000  0.67117000  1.0
  C  C28  1  0.96711000  0.04891000  0.32882000  1.0
  C  C29  1  0.13896000  0.01818000  0.63021000  1.0
  C  C30  1  0.86103000  0.98182000  0.36979000  1.0
  C  C31  1  0.20253000  0.24470000  0.50401000  1.0
  C  C32  1  0.79746000  0.75530000  0.49599000  1.0
  C  C33  1  0.69414000  0.25427000  0.52872000  1.0
  C  C34  1  0.30586000  0.74574000  0.47128000  1.0
  C  C35  1  0.37991000  0.26950000  0.87084000  1.0
  C  C36  1  0.62010000  0.73050000  0.12916000  1.0
  C  C37  1  0.41618000  0.28401000  0.98510000  1.0
  C  C38  1  0.58383000  0.71599000  0.01490000  1.0
  C  C39  1  0.40378000  0.18301000  0.10468000  1.0
  C  C40  1  0.59623000  0.81698000  0.89533000  1.0
  C  C41  1  0.35198000  0.06994000  0.11016000  1.0
  C  C42  1  0.64803000  0.93006000  0.88984000  1.0
  C  C43  1  0.30505000  0.06494000  0.99684000  1.0
  C  C44  1  0.69495000  0.93506000  0.00316000  1.0
  C  C45  1  0.31965000  0.16202000  0.87632000  1.0
  C  C46  1  0.68035000  0.83798000  0.12368000  1.0
  C  C47  1  0.41476000  0.36148000  0.74061000  1.0
  C  C48  1  0.58525000  0.63851000  0.25939000  1.0
  C  C49  1  0.44610000  0.18712000  0.23101000  1.0
  C  C50  1  0.55390000  0.81287000  0.76899000  1.0
  N  N51  1  0.07450000  0.79450000  0.74582000  1.0
  N  N52  1  0.92550000  0.20550000  0.25418000  1.0
  N  N53  1  0.24333000  0.95045000  0.00590000  1.0
  N  N54  1  0.75668000  0.04955000  0.99410000  1.0
  O  O55  1  0.33634000  0.17548000  0.49661000  1.0
  O  O56  1  0.66366000  0.82451000  0.50339000  1.0
  O  O57  1  0.16180000  0.38207000  0.46083000  1.0
  O  O58  1  0.83820000  0.61793000  0.53917000  1.0
  O  O59  1  0.64208000  0.38812000  0.51958000  1.0
  O  O60  1  0.35791000  0.61188000  0.48041000  1.0
  O  O61  1  0.61883000  0.19108000  0.49671000  1.0
  O  O62  1  0.38117000  0.80892000  0.50329000  1.0
  O  O63  1  0.97606000  0.74039000  0.78486000  1.0
  O  O64  1  0.02392000  0.25962000  0.21513000  1.0
  O  O65  1  0.20418000  0.72609000  0.76400000  1.0
  O  O66  1  0.79581000  0.27392000  0.23600000  1.0
  O  O67  1  0.38148000  0.33726000  0.64344000  1.0
  O  O68  1  0.61853000  0.66275000  0.35656000  1.0
  O  O69  1  0.47926000  0.45064000  0.73948000  1.0
  O  O70  1  0.52074000  0.54936000  0.26052000  1.0
  O  O71  1  0.43130000  0.30671000  0.24541000  1.0
  O  O72  1  0.56870000  0.69328000  0.75459000  1.0
  O  O73  1  0.49315000  0.05957000  0.31513000  1.0
  O  O74  1  0.50685000  0.94042000  0.68488000  1.0
  O  O75  1  0.25187000  0.85391000  0.11347000  1.0
  O  O76  1  0.74814000  0.14609000  0.88653000  1.0
  O  O77  1  0.18582000  0.95476000  0.90841000  1.0
  O  O78  1  0.81418000  0.04524000  0.09159000  1.0
  O  O79  1  0.21954000  0.58644000  0.25608000  1.0
  O  O80  1  0.78046000  0.41355000  0.74391000  1.0
