# generated using pymatgen
data_NaBH11(CO2)4
_symmetry_space_group_name_H-M   'P 1'
_cell_length_a   7.64783000
_cell_length_b   10.99700000
_cell_length_c   10.99710000
_cell_angle_alpha   76.38850000
_cell_angle_beta   85.72790000
_cell_angle_gamma   85.72740000
_symmetry_Int_Tables_number   1
_chemical_formula_structural   NaBH11(CO2)4
_chemical_formula_sum   'Na4 B4 H44 C16 O32'
_cell_volume   894.86688443
_cell_formula_units_Z   4
loop_
 _symmetry_equiv_pos_site_id
 _symmetry_equiv_pos_as_xyz
  1  'x, y, z'
loop_
 _atom_site_type_symbol
 _atom_site_label
 _atom_site_symmetry_multiplicity
 _atom_site_fract_x
 _atom_site_fract_y
 _atom_site_fract_z
 _atom_site_occupancy
  Na  Na0  1  0.56888000  0.08868000  0.60289000  1.0
  Na  Na1  1  0.93112000  0.39711000  0.91131000  1.0
  Na  Na2  1  0.43113000  0.91131000  0.39711000  1.0
  Na  Na3  1  0.06888000  0.60288000  0.08869000  1.0
  B  B4  1  0.59373000  0.83371000  0.85759000  1.0
  B  B5  1  0.90628000  0.14242000  0.16629000  1.0
  B  B6  1  0.40627000  0.16628000  0.14242000  1.0
  B  B7  1  0.09372000  0.85758000  0.83371000  1.0
  H  H8  1  0.67920000  0.30613000  0.57218000  1.0
  H  H9  1  0.82076000  0.42782000  0.69387000  1.0
  H  H10  1  0.32078000  0.69389000  0.42782000  1.0
  H  H11  1  0.17922000  0.57219000  0.30613000  1.0
  H  H12  1  0.68465000  0.62133000  0.25447000  1.0
  H  H13  1  0.81534000  0.74551000  0.37864000  1.0
  H  H14  1  0.31534000  0.37867000  0.74552000  1.0
  H  H15  1  0.18466000  0.25449000  0.62135000  1.0
  H  H16  1  0.52996000  0.82386000  0.68716000  1.0
  H  H17  1  0.97005000  0.31285000  0.17614000  1.0
  H  H18  1  0.47005000  0.17613000  0.31284000  1.0
  H  H19  1  0.02995000  0.68715000  0.82386000  1.0
  H  H20  1  0.51433000  0.66083000  0.85434000  1.0
  H  H21  1  0.98567000  0.14567000  0.33917000  1.0
  H  H22  1  0.48566000  0.33916000  0.14567000  1.0
  H  H23  1  0.01434000  0.85433000  0.66083000  1.0
  H  H24  1  0.62761000  0.88074000  0.02021000  1.0
  H  H25  1  0.87240000  0.97979000  0.11926000  1.0
  H  H26  1  0.37239000  0.11926000  0.97979000  1.0
  H  H27  1  0.12761000  0.02020000  0.88074000  1.0
  H  H28  1  0.22436000  0.10764000  0.49443000  1.0
  H  H29  1  0.27565000  0.50557000  0.89236000  1.0
  H  H30  1  0.77564000  0.89236000  0.50556000  1.0
  H  H31  1  0.72436000  0.49442000  0.10763000  1.0
  H  H32  1  0.22452000  0.99185000  0.60831000  1.0
  H  H33  1  0.27549000  0.39168000  0.00815000  1.0
  H  H34  1  0.77548000  0.00816000  0.39169000  1.0
  H  H35  1  0.72451000  0.60831000  0.99185000  1.0
  H  H36  1  0.55958000  0.21605000  0.82758000  1.0
  H  H37  1  0.94042000  0.17243000  0.78395000  1.0
  H  H38  1  0.44042000  0.78394000  0.17243000  1.0
  H  H39  1  0.05959000  0.82757000  0.21605000  1.0
  H  H40  1  0.56737000  0.06735000  0.86040000  1.0
  H  H41  1  0.93264000  0.13960000  0.93264000  1.0
  H  H42  1  0.43264000  0.93264000  0.13960000  1.0
  H  H43  1  0.06736000  0.86039000  0.06736000  1.0
  H  H44  1  0.92241000  0.04726000  0.67245000  1.0
  H  H45  1  0.57759000  0.32755000  0.95275000  1.0
  H  H46  1  0.07759000  0.95275000  0.32755000  1.0
  H  H47  1  0.42242000  0.67244000  0.04726000  1.0
  H  H48  1  0.92624000  0.17318000  0.57040000  1.0
  H  H49  1  0.57377000  0.42960000  0.82683000  1.0
  H  H50  1  0.07376000  0.82683000  0.42959000  1.0
  H  H51  1  0.42624000  0.57040000  0.17318000  1.0
  C  C52  1  0.59081000  0.37441000  0.33397000  1.0
  C  C53  1  0.90917000  0.66604000  0.62557000  1.0
  C  C54  1  0.40920000  0.62559000  0.66603000  1.0
  C  C55  1  0.09082000  0.33397000  0.37442000  1.0
  C  C56  1  0.67305000  0.45377000  0.40484000  1.0
  C  C57  1  0.82692000  0.59517000  0.54622000  1.0
  C  C58  1  0.32696000  0.54623000  0.59516000  1.0
  C  C59  1  0.17306000  0.40485000  0.45377000  1.0
  C  C60  1  0.71079000  0.40171000  0.52930000  1.0
  C  C61  1  0.78918000  0.47071000  0.59829000  1.0
  C  C62  1  0.28921000  0.59830000  0.47070000  1.0
  C  C63  1  0.21080000  0.52931000  0.40171000  1.0
  C  C64  1  0.71254000  0.57840000  0.35126000  1.0
  C  C65  1  0.78742000  0.64873000  0.42159000  1.0
  C  C66  1  0.28746000  0.42160000  0.64873000  1.0
  C  C67  1  0.21256000  0.35128000  0.57841000  1.0
  O  O68  1  0.56129000  0.26233000  0.38776000  1.0
  O  O69  1  0.93870000  0.61225000  0.73766000  1.0
  O  O70  1  0.43872000  0.73767000  0.61225000  1.0
  O  O71  1  0.06130000  0.38777000  0.26233000  1.0
  O  O72  1  0.55386000  0.42531000  0.21944000  1.0
  O  O73  1  0.94613000  0.78056000  0.57467000  1.0
  O  O74  1  0.44614000  0.57468000  0.78056000  1.0
  O  O75  1  0.05387000  0.21945000  0.42532000  1.0
  O  O76  1  0.57958000  0.88281000  0.73220000  1.0
  O  O77  1  0.92045000  0.26780000  0.11719000  1.0
  O  O78  1  0.42043000  0.11718000  0.26780000  1.0
  O  O79  1  0.07955000  0.73219000  0.88281000  1.0
  O  O80  1  0.55665000  0.71078000  0.91405000  1.0
  O  O81  1  0.94335000  0.08595000  0.28923000  1.0
  O  O82  1  0.44335000  0.28922000  0.08595000  1.0
  O  O83  1  0.05665000  0.91405000  0.71078000  1.0
  O  O84  1  0.64862000  0.91071000  0.92797000  1.0
  O  O85  1  0.85139000  0.07203000  0.08930000  1.0
  O  O86  1  0.35138000  0.08929000  0.07203000  1.0
  O  O87  1  0.14862000  0.92796000  0.91071000  1.0
  O  O88  1  0.30234000  0.03967000  0.54100000  1.0
  O  O89  1  0.19766000  0.45900000  0.96033000  1.0
  O  O90  1  0.69766000  0.96034000  0.45900000  1.0
  O  O91  1  0.80234000  0.54099000  0.03966000  1.0
  O  O92  1  0.49337000  0.14303000  0.82311000  1.0
  O  O93  1  0.00664000  0.17688000  0.85696000  1.0
  O  O94  1  0.50663000  0.85696000  0.17690000  1.0
  O  O95  1  0.99337000  0.82311000  0.14304000  1.0
  O  O96  1  0.86041000  0.13149000  0.64837000  1.0
  O  O97  1  0.63960000  0.35163000  0.86851000  1.0
  O  O98  1  0.13960000  0.86852000  0.35163000  1.0
  O  O99  1  0.36041000  0.64837000  0.13149000  1.0
