# generated using pymatgen
data_KH9C12S(NO2)2
_symmetry_space_group_name_H-M   'P 1'
_cell_length_a   6.93563000
_cell_length_b   13.16160000
_cell_length_c   14.54750000
_cell_angle_alpha   96.24030000
_cell_angle_beta   103.10600000
_cell_angle_gamma   90.07650000
_symmetry_Int_Tables_number   1
_chemical_formula_structural   KH9C12S(NO2)2
_chemical_formula_sum   'K4 H36 C48 S4 N8 O16'
_cell_volume   1285.23700228
_cell_formula_units_Z   4
loop_
 _symmetry_equiv_pos_site_id
 _symmetry_equiv_pos_as_xyz
  1  'x, y, z'
loop_
 _atom_site_type_symbol
 _atom_site_label
 _atom_site_symmetry_multiplicity
 _atom_site_fract_x
 _atom_site_fract_y
 _atom_site_fract_z
 _atom_site_occupancy
  K  K0  1  0.15154000  0.36416000  0.49552000  1.0
  K  K1  1  0.65606000  0.13678000  0.50616000  1.0
  K  K2  1  0.84844000  0.63583000  0.50448000  1.0
  K  K3  1  0.34397000  0.86323000  0.49384000  1.0
  H  H4  1  0.75816000  0.19653000  0.28363000  1.0
  H  H5  1  0.46703000  0.30549000  0.72105000  1.0
  H  H6  1  0.24186000  0.80346000  0.71637000  1.0
  H  H7  1  0.53295000  0.69453000  0.27895000  1.0
  H  H8  1  0.61833000  0.21418000  0.11344000  1.0
  H  H9  1  0.49504000  0.28609000  0.89132000  1.0
  H  H10  1  0.38167000  0.78581000  0.88658000  1.0
  H  H11  1  0.50494000  0.71394000  0.10869000  1.0
  H  H12  1  0.80442000  0.14773000  0.99153000  1.0
  H  H13  1  0.80276000  0.34835000  0.01144000  1.0
  H  H14  1  0.19555000  0.85225000  0.00849000  1.0
  H  H15  1  0.19722000  0.65168000  0.98857000  1.0
  H  H16  1  0.12595000  0.06270000  0.04247000  1.0
  H  H17  1  0.07494000  0.43285000  0.95901000  1.0
  H  H18  1  0.87403000  0.93728000  0.95753000  1.0
  H  H19  1  0.92505000  0.56717000  0.04099000  1.0
  H  H20  1  0.59975000  0.92496000  0.04380000  1.0
  H  H21  1  0.54612000  0.57101000  0.95492000  1.0
  H  H22  1  0.40032000  0.07504000  0.95623000  1.0
  H  H23  1  0.45390000  0.42901000  0.04505000  1.0
  H  H24  1  0.90547000  0.82118000  0.08470000  1.0
  H  H25  1  0.81067000  0.67596000  0.91326000  1.0
  H  H26  1  0.09461000  0.17883000  0.91534000  1.0
  H  H27  1  0.18937000  0.32401000  0.08667000  1.0
  H  H28  1  0.03033000  0.78419000  0.25212000  1.0
  H  H29  1  0.77016000  0.71596000  0.74628000  1.0
  H  H30  1  0.96969000  0.21580000  0.74792000  1.0
  H  H31  1  0.22983000  0.28400000  0.25364000  1.0
  H  H32  1  0.85747000  0.84741000  0.37730000  1.0
  H  H33  1  0.47403000  0.65486000  0.62259000  1.0
  H  H34  1  0.14251000  0.15259000  0.62273000  1.0
  H  H35  1  0.52592000  0.34510000  0.37735000  1.0
  H  H36  1  0.41158000  0.98995000  0.31613000  1.0
  H  H37  1  0.08868000  0.51127000  0.68489000  1.0
  H  H38  1  0.58842000  0.01006000  0.68388000  1.0
  H  H39  1  0.91126000  0.48874000  0.31510000  1.0
  C  C40  1  0.01631000  0.11902000  0.25878000  1.0
  C  C41  1  0.75078000  0.38124000  0.74427000  1.0
  C  C42  1  0.98369000  0.88096000  0.74123000  1.0
  C  C43  1  0.24921000  0.61877000  0.25573000  1.0
  C  C44  1  0.83674000  0.16696000  0.23007000  1.0
  C  C45  1  0.59894000  0.33379000  0.77387000  1.0
  C  C46  1  0.16327000  0.83302000  0.76994000  1.0
  C  C47  1  0.40103000  0.66623000  0.22614000  1.0
  C  C48  1  0.75974000  0.17736000  0.13435000  1.0
  C  C49  1  0.61638000  0.32218000  0.86960000  1.0
  C  C50  1  0.24028000  0.82264000  0.86566000  1.0
  C  C51  1  0.38359000  0.67784000  0.13040000  1.0
  C  C52  1  0.86440000  0.14069000  0.06649000  1.0
  C  C53  1  0.78858000  0.35680000  0.93653000  1.0
  C  C54  1  0.13561000  0.85931000  0.93352000  1.0
  C  C55  1  0.21140000  0.64322000  0.06347000  1.0
  C  C56  1  0.04327000  0.09290000  0.09416000  1.0
  C  C57  1  0.94059000  0.40433000  0.90802000  1.0
  C  C58  1  0.95673000  0.90709000  0.90584000  1.0
  C  C59  1  0.05938000  0.59570000  0.09198000  1.0
  C  C60  1  0.12037000  0.08020000  0.19008000  1.0
  C  C61  1  0.92277000  0.41867000  0.81216000  1.0
  C  C62  1  0.87964000  0.91977000  0.80993000  1.0
  C  C63  1  0.07721000  0.58135000  0.18785000  1.0
  C  C64  1  0.55663000  0.94210000  0.18632000  1.0
  C  C65  1  0.36218000  0.55646000  0.81355000  1.0
  C  C66  1  0.44341000  0.05790000  0.81370000  1.0
  C  C67  1  0.63780000  0.44354000  0.18642000  1.0
  C  C68  1  0.65887000  0.90625000  0.11596000  1.0
  C  C69  1  0.53366000  0.59121000  0.88306000  1.0
  C  C70  1  0.34116000  0.09373000  0.88406000  1.0
  C  C71  1  0.46636000  0.40878000  0.11690000  1.0
  C  C72  1  0.82743000  0.84968000  0.13893000  1.0
  C  C73  1  0.67910000  0.64856000  0.85965000  1.0
  C  C74  1  0.17259000  0.15032000  0.86110000  1.0
  C  C75  1  0.32093000  0.35140000  0.14028000  1.0
  C  C76  1  0.89758000  0.82846000  0.23331000  1.0
  C  C77  1  0.65610000  0.67138000  0.76555000  1.0
  C  C78  1  0.10243000  0.17154000  0.76673000  1.0
  C  C79  1  0.34390000  0.32858000  0.23439000  1.0
  C  C80  1  0.80070000  0.86274000  0.30409000  1.0
  C  C81  1  0.48958000  0.63818000  0.69561000  1.0
  C  C82  1  0.19931000  0.13727000  0.69595000  1.0
  C  C83  1  0.51037000  0.36181000  0.30434000  1.0
  C  C84  1  0.62942000  0.91975000  0.28210000  1.0
  C  C85  1  0.34028000  0.58062000  0.71808000  1.0
  C  C86  1  0.37059000  0.08026000  0.71792000  1.0
  C  C87  1  0.65969000  0.41939000  0.28188000  1.0
  S  S88  1  0.11744000  0.11833000  0.38380000  1.0
  S  S89  1  0.73007000  0.38232000  0.61903000  1.0
  S  S90  1  0.88258000  0.88165000  0.61620000  1.0
  S  S91  1  0.26994000  0.61769000  0.38098000  1.0
  N  N92  1  0.29649000  0.02859000  0.22053000  1.0
  N  N93  1  0.06866000  0.47045000  0.78081000  1.0
  N  N94  1  0.70355000  0.97140000  0.77950000  1.0
  N  N95  1  0.93130000  0.52957000  0.21919000  1.0
  N  N96  1  0.38810000  0.99663000  0.15600000  1.0
  N  N97  1  0.22401000  0.50121000  0.84443000  1.0
  N  N98  1  0.61192000  0.00336000  0.84402000  1.0
  N  N99  1  0.77597000  0.49880000  0.15556000  1.0
  O  O100  1  0.29537000  0.18608000  0.40371000  1.0
  O  O101  1  0.88692000  0.31383000  0.59818000  1.0
  O  O102  1  0.70465000  0.81391000  0.59630000  1.0
  O  O103  1  0.11310000  0.68618000  0.40184000  1.0
  O  O104  1  0.16297000  0.01302000  0.40189000  1.0
  O  O105  1  0.76032000  0.48750000  0.60082000  1.0
  O  O106  1  0.83702000  0.98699000  0.59810000  1.0
  O  O107  1  0.23968000  0.51249000  0.39917000  1.0
  O  O108  1  0.96394000  0.16291000  0.42957000  1.0
  O  O109  1  0.53164000  0.33877000  0.57403000  1.0
  O  O110  1  0.03608000  0.83711000  0.57044000  1.0
  O  O111  1  0.46837000  0.66122000  0.42596000  1.0
  O  O112  1  0.53415000  0.95230000  0.35049000  1.0
  O  O113  1  0.17771000  0.54934000  0.65044000  1.0
  O  O114  1  0.46584000  0.04770000  0.64953000  1.0
  O  O115  1  0.82223000  0.45065000  0.34954000  1.0
