# generated using pymatgen
data_AgH5C6S(NO)2
_symmetry_space_group_name_H-M   'P 1'
_cell_length_a   6.80527000
_cell_length_b   9.92586000
_cell_length_c   10.74140000
_cell_angle_alpha   90.00020000
_cell_angle_beta   90.00010000
_cell_angle_gamma   79.81700000
_symmetry_Int_Tables_number   1
_chemical_formula_structural   AgH5C6S(NO)2
_chemical_formula_sum   'Ag4 H20 C24 S4 N8 O8'
_cell_volume   714.13280497
_cell_formula_units_Z   4
loop_
 _symmetry_equiv_pos_site_id
 _symmetry_equiv_pos_as_xyz
  1  'x, y, z'
loop_
 _atom_site_type_symbol
 _atom_site_label
 _atom_site_symmetry_multiplicity
 _atom_site_fract_x
 _atom_site_fract_y
 _atom_site_fract_z
 _atom_site_occupancy
  Ag  Ag0  1  0.16700000  0.07450000  0.97727000  1.0
  Ag  Ag1  1  0.33300000  0.92550000  0.47727000  1.0
  Ag  Ag2  1  0.83300000  0.92550000  0.02273000  1.0
  Ag  Ag3  1  0.66701000  0.07449000  0.52273000  1.0
  H  H4  1  0.45067000  0.94534000  0.75908000  1.0
  H  H5  1  0.04934000  0.05467000  0.25908000  1.0
  H  H6  1  0.54933000  0.05466000  0.24092000  1.0
  H  H7  1  0.95067000  0.94534000  0.74093000  1.0
  H  H8  1  0.34572000  0.61746000  0.54292000  1.0
  H  H9  1  0.15428000  0.38255000  0.04292000  1.0
  H  H10  1  0.65427000  0.38254000  0.45708000  1.0
  H  H11  1  0.84572000  0.61746000  0.95708000  1.0
  H  H12  1  0.19777000  0.70077000  0.09283000  1.0
  H  H13  1  0.30223000  0.29923000  0.59283000  1.0
  H  H14  1  0.80223000  0.29923000  0.90717000  1.0
  H  H15  1  0.69777000  0.70077000  0.40717000  1.0
  H  H16  1  0.45601000  0.62707000  0.09854000  1.0
  H  H17  1  0.04399000  0.37294000  0.59854000  1.0
  H  H18  1  0.54398000  0.37293000  0.90145000  1.0
  H  H19  1  0.95601000  0.62706000  0.40146000  1.0
  H  H20  1  0.30747000  0.48160000  0.74157000  1.0
  H  H21  1  0.19252000  0.51840000  0.24157000  1.0
  H  H22  1  0.69251000  0.51840000  0.25843000  1.0
  H  H23  1  0.80748000  0.48160000  0.75843000  1.0
  C  C24  1  0.41831000  0.84160000  0.75469000  1.0
  C  C25  1  0.08168000  0.15840000  0.25469000  1.0
  C  C26  1  0.58169000  0.15840000  0.24531000  1.0
  C  C27  1  0.91832000  0.84160000  0.74532000  1.0
  C  C28  1  0.36170000  0.65837000  0.63586000  1.0
  C  C29  1  0.13831000  0.34163000  0.13585000  1.0
  C  C30  1  0.63830000  0.34164000  0.36414000  1.0
  C  C31  1  0.86169000  0.65837000  0.86414000  1.0
  C  C32  1  0.34765000  0.72143000  0.11367000  1.0
  C  C33  1  0.15235000  0.27857000  0.61366000  1.0
  C  C34  1  0.65235000  0.27857000  0.88633000  1.0
  C  C35  1  0.84765000  0.72143000  0.38634000  1.0
  C  C36  1  0.39232000  0.76622000  0.86248000  1.0
  C  C37  1  0.10767000  0.23379000  0.36247000  1.0
  C  C38  1  0.60767000  0.23378000  0.13752000  1.0
  C  C39  1  0.89233000  0.76622000  0.63753000  1.0
  C  C40  1  0.35642000  0.76966000  0.24801000  1.0
  C  C41  1  0.14357000  0.23033000  0.74801000  1.0
  C  C42  1  0.64358000  0.23033000  0.75199000  1.0
  C  C43  1  0.85642000  0.76966000  0.25199000  1.0
  C  C44  1  0.34124000  0.58503000  0.74410000  1.0
  C  C45  1  0.15876000  0.41498000  0.24410000  1.0
  C  C46  1  0.65875000  0.41496000  0.25590000  1.0
  C  C47  1  0.84124000  0.58503000  0.75590000  1.0
  S  S48  1  0.40595000  0.84935000  0.00678000  1.0
  S  S49  1  0.09405000  0.15066000  0.50678000  1.0
  S  S50  1  0.59405000  0.15065000  0.99321000  1.0
  S  S51  1  0.90596000  0.84935000  0.49322000  1.0
  N  N52  1  0.39993000  0.78730000  0.64234000  1.0
  N  N53  1  0.10007000  0.21271000  0.14234000  1.0
  N  N54  1  0.60006000  0.21270000  0.35766000  1.0
  N  N55  1  0.89994000  0.78729000  0.85766000  1.0
  N  N56  1  0.35537000  0.63861000  0.85804000  1.0
  N  N57  1  0.14462000  0.36140000  0.35804000  1.0
  N  N58  1  0.64462000  0.36139000  0.14195000  1.0
  N  N59  1  0.85538000  0.63861000  0.64196000  1.0
  O  O60  1  0.38774000  0.89188000  0.26641000  1.0
  O  O61  1  0.11225000  0.10812000  0.76641000  1.0
  O  O62  1  0.61226000  0.10811000  0.73359000  1.0
  O  O63  1  0.88774000  0.89188000  0.23359000  1.0
  O  O64  1  0.33028000  0.68559000  0.33106000  1.0
  O  O65  1  0.16972000  0.31440000  0.83106000  1.0
  O  O66  1  0.66972000  0.31440000  0.66894000  1.0
  O  O67  1  0.83028000  0.68559000  0.16894000  1.0
