# generated using pymatgen
data_KH5C5SO4
_symmetry_space_group_name_H-M   'P 1'
_cell_length_a   8.20414000
_cell_length_b   8.32127000
_cell_length_c   10.94920000
_cell_angle_alpha   89.99960000
_cell_angle_beta   76.52300000
_cell_angle_gamma   89.99980000
_symmetry_Int_Tables_number   1
_chemical_formula_structural   KH5C5SO4
_chemical_formula_sum   'K4 H20 C20 S4 O16'
_cell_volume   726.90624282
_cell_formula_units_Z   4
loop_
 _symmetry_equiv_pos_site_id
 _symmetry_equiv_pos_as_xyz
  1  'x, y, z'
loop_
 _atom_site_type_symbol
 _atom_site_label
 _atom_site_symmetry_multiplicity
 _atom_site_fract_x
 _atom_site_fract_y
 _atom_site_fract_z
 _atom_site_occupancy
  K  K0  1  0.19249000  0.21694000  0.96704000  1.0
  K  K1  1  0.30750000  0.71693000  0.03296000  1.0
  K  K2  1  0.80751000  0.78306000  0.03296000  1.0
  K  K3  1  0.69248000  0.28306000  0.96704000  1.0
  H  H4  1  0.89748000  0.02745000  0.81488000  1.0
  H  H5  1  0.60252000  0.52745000  0.18512000  1.0
  H  H6  1  0.10252000  0.97255000  0.18512000  1.0
  H  H7  1  0.39749000  0.47255000  0.81487000  1.0
  H  H8  1  0.05234000  0.93136000  0.83903000  1.0
  H  H9  1  0.44766000  0.43136000  0.16097000  1.0
  H  H10  1  0.94766000  0.06864000  0.16097000  1.0
  H  H11  1  0.55235000  0.56863000  0.83902000  1.0
  H  H12  1  0.48893000  0.21103000  0.70038000  1.0
  H  H13  1  0.01106000  0.71103000  0.29962000  1.0
  H  H14  1  0.51107000  0.78897000  0.29962000  1.0
  H  H15  1  0.98894000  0.28897000  0.70038000  1.0
  H  H16  1  0.63328000  0.64886000  0.64463000  1.0
  H  H17  1  0.86670000  0.14887000  0.35537000  1.0
  H  H18  1  0.36671000  0.35113000  0.35537000  1.0
  H  H19  1  0.13329000  0.85114000  0.64463000  1.0
  H  H20  1  0.39303000  0.41495000  0.57171000  1.0
  H  H21  1  0.10698000  0.91495000  0.42828000  1.0
  H  H22  1  0.60697000  0.58505000  0.42829000  1.0
  H  H23  1  0.89302000  0.08505000  0.57172000  1.0
  C  C24  1  0.47327000  0.17898000  0.60754000  1.0
  C  C25  1  0.02672000  0.67899000  0.39246000  1.0
  C  C26  1  0.52672000  0.82102000  0.39246000  1.0
  C  C27  1  0.97328000  0.32102000  0.60753000  1.0
  C  C28  1  0.50718000  0.01947000  0.56276000  1.0
  C  C29  1  0.99281000  0.51948000  0.43725000  1.0
  C  C30  1  0.49281000  0.98053000  0.43725000  1.0
  C  C31  1  0.00719000  0.48053000  0.56276000  1.0
  C  C32  1  0.55585000  0.89385000  0.63640000  1.0
  C  C33  1  0.94415000  0.39386000  0.36360000  1.0
  C  C34  1  0.44415000  0.10615000  0.36360000  1.0
  C  C35  1  0.05586000  0.60615000  0.63640000  1.0
  C  C36  1  0.59206000  0.74132000  0.58821000  1.0
  C  C37  1  0.90794000  0.24133000  0.41179000  1.0
  C  C38  1  0.40794000  0.25868000  0.41179000  1.0
  C  C39  1  0.09207000  0.75867000  0.58821000  1.0
  C  C40  1  0.42291000  0.29466000  0.53438000  1.0
  C  C41  1  0.07708000  0.79466000  0.46562000  1.0
  C  C42  1  0.57708000  0.70534000  0.46563000  1.0
  C  C43  1  0.92292000  0.20534000  0.53438000  1.0
  S  S44  1  0.57174000  0.93111000  0.79378000  1.0
  S  S45  1  0.92825000  0.43112000  0.20623000  1.0
  S  S46  1  0.42826000  0.06889000  0.20622000  1.0
  S  S47  1  0.07175000  0.56888000  0.79377000  1.0
  O  O48  1  0.40648000  0.98500000  0.86516000  1.0
  O  O49  1  0.09352000  0.48501000  0.13486000  1.0
  O  O50  1  0.59352000  0.01500000  0.13485000  1.0
  O  O51  1  0.90648000  0.51500000  0.86515000  1.0
  O  O52  1  0.70051000  0.05714000  0.78537000  1.0
  O  O53  1  0.79948000  0.55715000  0.21463000  1.0
  O  O54  1  0.29948000  0.94286000  0.21463000  1.0
  O  O55  1  0.20052000  0.44285000  0.78537000  1.0
  O  O56  1  0.62323000  0.77862000  0.84273000  1.0
  O  O57  1  0.87676000  0.27863000  0.15728000  1.0
  O  O58  1  0.37677000  0.22137000  0.15727000  1.0
  O  O59  1  0.12324000  0.72137000  0.84272000  1.0
  O  O60  1  0.99243000  0.03436000  0.85596000  1.0
  O  O61  1  0.50757000  0.53436000  0.14403000  1.0
  O  O62  1  0.00757000  0.96564000  0.14404000  1.0
  O  O63  1  0.49244000  0.46563000  0.85596000  1.0
