# generated using pymatgen
data_CdH14(C4O3)2
_symmetry_space_group_name_H-M   'P 1'
_cell_length_a   8.70446000
_cell_length_b   12.94060000
_cell_length_c   20.01620000
_cell_angle_alpha   89.99990000
_cell_angle_beta   90.00010000
_cell_angle_gamma   89.99990000
_symmetry_Int_Tables_number   1
_chemical_formula_structural   CdH14(C4O3)2
_chemical_formula_sum   'Cd8 H112 C64 O48'
_cell_volume   2254.64348466
_cell_formula_units_Z   8
loop_
 _symmetry_equiv_pos_site_id
 _symmetry_equiv_pos_as_xyz
  1  'x, y, z'
loop_
 _atom_site_type_symbol
 _atom_site_label
 _atom_site_symmetry_multiplicity
 _atom_site_fract_x
 _atom_site_fract_y
 _atom_site_fract_z
 _atom_site_occupancy
  Cd  Cd0  1  0.00675000  0.35334000  0.49119000  1.0
  Cd  Cd1  1  0.00675000  0.14667000  0.00881000  1.0
  Cd  Cd2  1  0.49325000  0.64666000  0.99119000  1.0
  Cd  Cd3  1  0.49325000  0.85333000  0.50881000  1.0
  Cd  Cd4  1  0.99325000  0.64667000  0.50881000  1.0
  Cd  Cd5  1  0.99325000  0.85333000  0.99119000  1.0
  Cd  Cd6  1  0.50675000  0.35333000  0.00881000  1.0
  Cd  Cd7  1  0.50675000  0.14667000  0.49119000  1.0
  H  H8  1  0.75248000  0.37677000  0.63125000  1.0
  H  H9  1  0.75247000  0.12323000  0.86875000  1.0
  H  H10  1  0.74752000  0.62323000  0.13125000  1.0
  H  H11  1  0.74753000  0.87677000  0.36875000  1.0
  H  H12  1  0.24752000  0.62324000  0.36875000  1.0
  H  H13  1  0.24752000  0.87677000  0.13125000  1.0
  H  H14  1  0.25248000  0.37677000  0.86875000  1.0
  H  H15  1  0.25248000  0.12323000  0.63125000  1.0
  H  H16  1  0.56047000  0.55568000  0.68764000  1.0
  H  H17  1  0.56047000  0.94432000  0.81236000  1.0
  H  H18  1  0.93953000  0.44432000  0.18765000  1.0
  H  H19  1  0.93953000  0.05568000  0.31235000  1.0
  H  H20  1  0.43953000  0.44432000  0.31236000  1.0
  H  H21  1  0.43953000  0.05568000  0.18765000  1.0
  H  H22  1  0.06047000  0.55568000  0.81235000  1.0
  H  H23  1  0.06047000  0.94432000  0.68765000  1.0
  H  H24  1  0.72839000  0.50505000  0.72484000  1.0
  H  H25  1  0.72839000  0.99495000  0.77516000  1.0
  H  H26  1  0.77162000  0.49495000  0.22484000  1.0
  H  H27  1  0.77161000  0.00505000  0.27516000  1.0
  H  H28  1  0.27161000  0.49495000  0.27516000  1.0
  H  H29  1  0.27162000  0.00505000  0.22484000  1.0
  H  H30  1  0.22838000  0.50505000  0.77516000  1.0
  H  H31  1  0.22839000  0.99495000  0.72484000  1.0
  H  H32  1  0.49370000  0.42707000  0.77769000  1.0
  H  H33  1  0.49369000  0.07292000  0.72231000  1.0
  H  H34  1  0.00631000  0.57292000  0.27769000  1.0
  H  H35  1  0.00631000  0.92708000  0.22231000  1.0
  H  H36  1  0.50631000  0.57292000  0.22231000  1.0
  H  H37  1  0.50631000  0.92708000  0.27769000  1.0
  H  H38  1  0.99369000  0.42708000  0.72231000  1.0
  H  H39  1  0.99369000  0.07292000  0.77769000  1.0
  H  H40  1  0.60291000  0.33212000  0.73637000  1.0
  H  H41  1  0.60291000  0.16788000  0.76363000  1.0
  H  H42  1  0.89709000  0.66788000  0.23637000  1.0
  H  H43  1  0.89710000  0.83212000  0.26363000  1.0
  H  H44  1  0.39709000  0.66788000  0.26363000  1.0
  H  H45  1  0.39710000  0.83212000  0.23637000  1.0
  H  H46  1  0.10290000  0.33212000  0.76363000  1.0
  H  H47  1  0.10291000  0.16788000  0.73637000  1.0
  H  H48  1  0.32670000  0.30976000  0.70874000  1.0
  H  H49  1  0.32670000  0.19024000  0.79126000  1.0
  H  H50  1  0.17330000  0.69024000  0.20874000  1.0
  H  H51  1  0.17331000  0.80976000  0.29126000  1.0
  H  H52  1  0.67331000  0.69024000  0.29126000  1.0
  H  H53  1  0.67331000  0.80976000  0.20873000  1.0
  H  H54  1  0.82669000  0.30976000  0.79126000  1.0
  H  H55  1  0.82669000  0.19024000  0.70874000  1.0
  H  H56  1  0.31521000  0.43869000  0.68081000  1.0
  H  H57  1  0.31521000  0.06131000  0.81919000  1.0
  H  H58  1  0.18479000  0.56131000  0.18081000  1.0
  H  H59  1  0.18479000  0.93869000  0.31919000  1.0
  H  H60  1  0.68479000  0.56131000  0.31919000  1.0
  H  H61  1  0.68479000  0.93869000  0.18081000  1.0
  H  H62  1  0.81521000  0.43869000  0.81919000  1.0
  H  H63  1  0.81521000  0.06131000  0.68081000  1.0
  H  H64  1  0.58372000  0.39080000  0.53244000  1.0
  H  H65  1  0.58373000  0.10919000  0.96756000  1.0
  H  H66  1  0.91627000  0.60919000  0.03244000  1.0
  H  H67  1  0.91628000  0.89080000  0.46756000  1.0
  H  H68  1  0.41628000  0.60920000  0.46756000  1.0
  H  H69  1  0.41627000  0.89081000  0.03244000  1.0
  H  H70  1  0.08372000  0.39081000  0.96756000  1.0
  H  H71  1  0.08372000  0.10920000  0.53244000  1.0
  H  H72  1  0.47622000  0.49050000  0.57184000  1.0
  H  H73  1  0.47622000  0.00950000  0.92816000  1.0
  H  H74  1  0.02378000  0.50950000  0.07184000  1.0
  H  H75  1  0.02378000  0.99050000  0.42816000  1.0
  H  H76  1  0.52378000  0.50950000  0.42816000  1.0
  H  H77  1  0.52378000  0.99050000  0.07184000  1.0
  H  H78  1  0.97621000  0.49050000  0.92816000  1.0
  H  H79  1  0.97622000  0.00950000  0.57184000  1.0
  H  H80  1  0.50723000  0.26596000  0.61833000  1.0
  H  H81  1  0.50723000  0.23404000  0.88167000  1.0
  H  H82  1  0.99277000  0.73404000  0.11833000  1.0
  H  H83  1  0.99277000  0.76595000  0.38167000  1.0
  H  H84  1  0.49277000  0.73405000  0.38167000  1.0
  H  H85  1  0.49277000  0.76596000  0.11833000  1.0
  H  H86  1  0.00723000  0.26596000  0.88167000  1.0
  H  H87  1  0.00723000  0.23405000  0.61833000  1.0
  H  H88  1  0.92717000  0.17621000  0.41080000  1.0
  H  H89  1  0.92717000  0.32379000  0.08919000  1.0
  H  H90  1  0.57283000  0.82379000  0.91081000  1.0
  H  H91  1  0.57283000  0.67621000  0.58920000  1.0
  H  H92  1  0.07283000  0.82379000  0.58920000  1.0
  H  H93  1  0.07283000  0.67621000  0.91081000  1.0
  H  H94  1  0.42717000  0.17621000  0.08919000  1.0
  H  H95  1  0.42717000  0.32379000  0.41081000  1.0
  H  H96  1  0.11276000  0.18203000  0.41291000  1.0
  H  H97  1  0.11277000  0.31797000  0.08709000  1.0
  H  H98  1  0.38724000  0.81797000  0.91292000  1.0
  H  H99  1  0.38723000  0.68203000  0.58709000  1.0
  H  H100  1  0.88724000  0.81797000  0.58709000  1.0
  H  H101  1  0.88723000  0.68203000  0.91291000  1.0
  H  H102  1  0.61277000  0.18203000  0.08709000  1.0
  H  H103  1  0.61276000  0.31797000  0.41291000  1.0
  H  H104  1  0.84868000  0.38769000  0.36911000  1.0
  H  H105  1  0.84868000  0.11231000  0.13089000  1.0
  H  H106  1  0.65132000  0.61231000  0.86911000  1.0
  H  H107  1  0.65132000  0.88769000  0.63089000  1.0
  H  H108  1  0.15132000  0.61231000  0.63089000  1.0
  H  H109  1  0.15132000  0.88769000  0.86911000  1.0
  H  H110  1  0.34868000  0.38769000  0.13089000  1.0
  H  H111  1  0.34868000  0.11231000  0.36911000  1.0
  H  H112  1  0.79908000  0.48502000  0.41150000  1.0
  H  H113  1  0.79908000  0.01498000  0.08850000  1.0
  H  H114  1  0.70092000  0.51498000  0.91150000  1.0
  H  H115  1  0.70092000  0.98502000  0.58850000  1.0
  H  H116  1  0.20092000  0.51498000  0.58850000  1.0
  H  H117  1  0.20092000  0.98502000  0.91150000  1.0
  H  H118  1  0.29908000  0.48502000  0.08850000  1.0
  H  H119  1  0.29908000  0.01498000  0.41150000  1.0
  C  C120  1  0.77937000  0.52602000  0.58875000  1.0
  C  C121  1  0.77937000  0.97398000  0.91125000  1.0
  C  C122  1  0.72063000  0.47398000  0.08875000  1.0
  C  C123  1  0.72063000  0.02602000  0.41125000  1.0
  C  C124  1  0.22063000  0.47399000  0.41125000  1.0
  C  C125  1  0.22063000  0.02602000  0.08875000  1.0
  C  C126  1  0.27936000  0.52602000  0.91125000  1.0
  C  C127  1  0.27937000  0.97398000  0.58875000  1.0
  C  C128  1  0.68225000  0.44680000  0.62518000  1.0
  C  C129  1  0.68225000  0.05320000  0.87482000  1.0
  C  C130  1  0.81775000  0.55320000  0.12518000  1.0
  C  C131  1  0.81775000  0.94679000  0.37482000  1.0
  C  C132  1  0.31775000  0.55321000  0.37482000  1.0
  C  C133  1  0.31775000  0.94679000  0.12518000  1.0
  C  C134  1  0.18225000  0.44680000  0.87482000  1.0
  C  C135  1  0.18225000  0.05321000  0.62518000  1.0
  C  C136  1  0.62845000  0.48455000  0.69393000  1.0
  C  C137  1  0.62845000  0.01544000  0.80607000  1.0
  C  C138  1  0.87155000  0.51544000  0.19393000  1.0
  C  C139  1  0.87155000  0.98456000  0.30607000  1.0
  C  C140  1  0.37155000  0.51545000  0.30607000  1.0
  C  C141  1  0.37155000  0.98455000  0.19393000  1.0
  C  C142  1  0.12845000  0.48456000  0.80607000  1.0
  C  C143  1  0.12845000  0.01544000  0.69393000  1.0
  C  C144  1  0.53154000  0.40127000  0.72796000  1.0
  C  C145  1  0.53154000  0.09872000  0.77204000  1.0
  C  C146  1  0.96846000  0.59873000  0.22796000  1.0
  C  C147  1  0.96846000  0.90127000  0.27204000  1.0
  C  C148  1  0.46846000  0.59873000  0.27205000  1.0
  C  C149  1  0.46846000  0.90127000  0.22795000  1.0
  C  C150  1  0.03154000  0.40128000  0.77204000  1.0
  C  C151  1  0.03154000  0.09873000  0.72796000  1.0
  C  C152  1  0.39311000  0.37217000  0.68506000  1.0
  C  C153  1  0.39311000  0.12783000  0.81495000  1.0
  C  C154  1  0.10689000  0.62783000  0.18505000  1.0
  C  C155  1  0.10690000  0.87217000  0.31494000  1.0
  C  C156  1  0.60690000  0.62783000  0.31495000  1.0
  C  C157  1  0.60690000  0.87217000  0.18505000  1.0
  C  C158  1  0.89310000  0.37217000  0.81495000  1.0
  C  C159  1  0.89311000  0.12783000  0.68505000  1.0
  C  C160  1  0.54367000  0.41997000  0.58094000  1.0
  C  C161  1  0.54367000  0.08003000  0.91906000  1.0
  C  C162  1  0.95633000  0.58003000  0.08094000  1.0
  C  C163  1  0.95633000  0.91997000  0.41906000  1.0
  C  C164  1  0.45633000  0.58003000  0.41907000  1.0
  C  C165  1  0.45633000  0.91997000  0.08094000  1.0
  C  C166  1  0.04367000  0.41997000  0.91906000  1.0
  C  C167  1  0.04367000  0.08003000  0.58094000  1.0
  C  C168  1  0.44125000  0.33847000  0.61475000  1.0
  C  C169  1  0.44125000  0.16152000  0.88525000  1.0
  C  C170  1  0.05875000  0.66152000  0.11475000  1.0
  C  C171  1  0.05875000  0.83847000  0.38524000  1.0
  C  C172  1  0.55875000  0.66153000  0.38525000  1.0
  C  C173  1  0.55875000  0.83848000  0.11475000  1.0
  C  C174  1  0.94125000  0.33848000  0.88525000  1.0
  C  C175  1  0.94125000  0.16153000  0.61475000  1.0
  C  C176  1  0.30348000  0.31772000  0.57012000  1.0
  C  C177  1  0.30349000  0.18228000  0.92988000  1.0
  C  C178  1  0.19651000  0.68228000  0.07012000  1.0
  C  C179  1  0.19652000  0.81771000  0.42988000  1.0
  C  C180  1  0.69652000  0.68228000  0.42988000  1.0
  C  C181  1  0.69652000  0.81772000  0.07012000  1.0
  C  C182  1  0.80348000  0.31772000  0.92988000  1.0
  C  C183  1  0.80348000  0.18229000  0.57012000  1.0
  O  O184  1  0.90206000  0.49546000  0.55856000  1.0
  O  O185  1  0.90206000  0.00454000  0.94144000  1.0
  O  O186  1  0.59794000  0.50454000  0.05856000  1.0
  O  O187  1  0.59794000  0.99545000  0.44144000  1.0
  O  O188  1  0.09794000  0.50455000  0.44144000  1.0
  O  O189  1  0.09794000  0.99546000  0.05856000  1.0
  O  O190  1  0.40206000  0.49546000  0.94144000  1.0
  O  O191  1  0.40206000  0.00455000  0.55856000  1.0
  O  O192  1  0.73901000  0.61958000  0.58756000  1.0
  O  O193  1  0.73901000  0.88042000  0.91244000  1.0
  O  O194  1  0.76099000  0.38042000  0.08756000  1.0
  O  O195  1  0.76099000  0.11957000  0.41244000  1.0
  O  O196  1  0.26099000  0.38043000  0.41244000  1.0
  O  O197  1  0.26099000  0.11957000  0.08756000  1.0
  O  O198  1  0.23901000  0.61957000  0.91244000  1.0
  O  O199  1  0.23901000  0.88043000  0.58756000  1.0
  O  O200  1  0.19003000  0.38120000  0.57296000  1.0
  O  O201  1  0.19003000  0.11881000  0.92704000  1.0
  O  O202  1  0.30997000  0.61881000  0.07297000  1.0
  O  O203  1  0.30997000  0.88119000  0.42704000  1.0
  O  O204  1  0.80997000  0.61881000  0.42704000  1.0
  O  O205  1  0.80997000  0.88119000  0.07296000  1.0
  O  O206  1  0.69003000  0.38119000  0.92704000  1.0
  O  O207  1  0.69003000  0.11881000  0.57296000  1.0
  O  O208  1  0.30230000  0.24034000  0.53143000  1.0
  O  O209  1  0.30230000  0.25966000  0.96857000  1.0
  O  O210  1  0.19770000  0.75966000  0.03143000  1.0
  O  O211  1  0.19770000  0.74034000  0.46857000  1.0
  O  O212  1  0.69770000  0.75966000  0.46857000  1.0
  O  O213  1  0.69770000  0.74034000  0.03143000  1.0
  O  O214  1  0.80230000  0.24034000  0.96857000  1.0
  O  O215  1  0.80230000  0.25966000  0.53143000  1.0
  O  O216  1  0.01843000  0.22388000  0.41165000  1.0
  O  O217  1  0.01843000  0.27612000  0.08835000  1.0
  O  O218  1  0.48157000  0.77612000  0.91165000  1.0
  O  O219  1  0.48157000  0.72388000  0.58835000  1.0
  O  O220  1  0.98157000  0.77612000  0.58835000  1.0
  O  O221  1  0.98157000  0.72388000  0.91165000  1.0
  O  O222  1  0.51843000  0.22388000  0.08835000  1.0
  O  O223  1  0.51843000  0.27612000  0.41165000  1.0
  O  O224  1  0.79332000  0.40779000  0.40935000  1.0
  O  O225  1  0.79332000  0.09221000  0.09065000  1.0
  O  O226  1  0.70667000  0.59221000  0.90935000  1.0
  O  O227  1  0.70668000  0.90779000  0.59065000  1.0
  O  O228  1  0.20668000  0.59221000  0.59065000  1.0
  O  O229  1  0.20668000  0.90779000  0.90935000  1.0
  O  O230  1  0.29332000  0.40779000  0.09065000  1.0
  O  O231  1  0.29332000  0.09221000  0.40935000  1.0
