# generated using pymatgen
data_CdH22C22(NO2)4
_symmetry_space_group_name_H-M   'P 1'
_cell_length_a   8.80082000
_cell_length_b   11.72390000
_cell_length_c   13.06310000
_cell_angle_alpha   64.81860000
_cell_angle_beta   76.44890000
_cell_angle_gamma   81.77280000
_symmetry_Int_Tables_number   1
_chemical_formula_structural   CdH22C22(NO2)4
_chemical_formula_sum   'Cd2 H44 C44 N8 O16'
_cell_volume   1184.35690038
_cell_formula_units_Z   2
loop_
 _symmetry_equiv_pos_site_id
 _symmetry_equiv_pos_as_xyz
  1  'x, y, z'
loop_
 _atom_site_type_symbol
 _atom_site_label
 _atom_site_symmetry_multiplicity
 _atom_site_fract_x
 _atom_site_fract_y
 _atom_site_fract_z
 _atom_site_occupancy
  Cd  Cd0  1  0.83047000  0.57169000  0.89938000  1.0
  Cd  Cd1  1  0.16953000  0.42832000  0.10062000  1.0
  H  H2  1  0.80240000  0.41075000  0.31885000  1.0
  H  H3  1  0.19760000  0.58925000  0.68116000  1.0
  H  H4  1  0.69365000  0.29952000  0.30949000  1.0
  H  H5  1  0.30635000  0.70048000  0.69051000  1.0
  H  H6  1  0.26485000  0.50159000  0.31627000  1.0
  H  H7  1  0.73514000  0.49841000  0.68373000  1.0
  H  H8  1  0.00168000  0.58011000  0.38290000  1.0
  H  H9  1  0.99832000  0.41990000  0.61710000  1.0
  H  H10  1  0.97322000  0.74304000  0.46134000  1.0
  H  H11  1  0.02678000  0.25696000  0.53866000  1.0
  H  H12  1  0.47802000  0.75099000  0.39946000  1.0
  H  H13  1  0.52198000  0.24900000  0.60055000  1.0
  H  H14  1  0.15859000  0.06133000  0.51632000  1.0
  H  H15  1  0.84141000  0.93867000  0.48368000  1.0
  H  H16  1  0.32944000  0.00159000  0.57740000  1.0
  H  H17  1  0.67056000  0.99841000  0.42260000  1.0
  H  H18  1  0.66549000  0.72259000  0.04734000  1.0
  H  H19  1  0.33452000  0.27741000  0.95266000  1.0
  H  H20  1  0.65518000  0.93000000  0.05784000  1.0
  H  H21  1  0.34482000  0.07001000  0.94215000  1.0
  H  H22  1  0.02056000  0.04249000  0.75190000  1.0
  H  H23  1  0.97944000  0.95752000  0.24809000  1.0
  H  H24  1  0.01752000  0.82997000  0.75535000  1.0
  H  H25  1  0.98248000  0.17003000  0.24465000  1.0
  H  H26  1  0.59705000  0.34580000  0.98846000  1.0
  H  H27  1  0.40295000  0.65420000  0.01154000  1.0
  H  H28  1  0.59069000  0.13621000  0.98786000  1.0
  H  H29  1  0.40931000  0.86380000  0.01214000  1.0
  H  H30  1  0.08210000  0.16438000  0.82789000  1.0
  H  H31  1  0.91790000  0.83562000  0.17211000  1.0
  H  H32  1  0.06903000  0.37267000  0.83266000  1.0
  H  H33  1  0.93097000  0.62733000  0.16734000  1.0
  H  H34  1  0.46747000  0.39309000  0.36602000  1.0
  H  H35  1  0.53253000  0.60690000  0.63398000  1.0
  H  H36  1  0.38728000  0.95561000  0.38012000  1.0
  H  H37  1  0.61272000  0.04439000  0.61988000  1.0
  H  H38  1  0.55959000  0.71932000  0.78918000  1.0
  H  H39  1  0.44041000  0.28067000  0.21082000  1.0
  H  H40  1  0.50576000  0.57799000  0.86974000  1.0
  H  H41  1  0.49424000  0.42201000  0.13025000  1.0
  H  H42  1  0.81462000  0.67183000  0.65629000  1.0
  H  H43  1  0.18538000  0.32817000  0.34371000  1.0
  H  H44  1  0.97784000  0.71580000  0.64863000  1.0
  H  H45  1  0.02216000  0.28420000  0.35137000  1.0
  C  C46  1  0.75142000  0.46064000  0.15236000  1.0
  C  C47  1  0.24858000  0.53936000  0.84765000  1.0
  C  C48  1  0.70600000  0.40061000  0.28359000  1.0
  C  C49  1  0.29400000  0.59939000  0.71642000  1.0
  C  C50  1  0.54739000  0.57348000  0.31433000  1.0
  C  C51  1  0.45261000  0.42652000  0.68567000  1.0
  C  C52  1  0.38771000  0.62098000  0.35463000  1.0
  C  C53  1  0.61230000  0.37902000  0.64537000  1.0
  C  C54  1  0.25364000  0.57281000  0.35056000  1.0
  C  C55  1  0.74636000  0.42719000  0.64944000  1.0
  C  C56  1  0.10504000  0.61771000  0.38739000  1.0
  C  C57  1  0.89496000  0.38229000  0.61261000  1.0
  C  C58  1  0.08938000  0.70968000  0.43043000  1.0
  C  C59  1  0.91062000  0.29032000  0.56958000  1.0
  C  C60  1  0.22292000  0.75952000  0.43441000  1.0
  C  C61  1  0.77708000  0.24048000  0.56559000  1.0
  C  C62  1  0.37224000  0.71618000  0.39490000  1.0
  C  C63  1  0.62776000  0.28381000  0.60510000  1.0
  C  C64  1  0.19844000  0.85104000  0.48923000  1.0
  C  C65  1  0.80157000  0.14895000  0.51077000  1.0
  C  C66  1  0.28379000  0.03616000  0.49700000  1.0
  C  C67  1  0.71621000  0.96383000  0.50300000  1.0
  C  C68  1  0.36870000  0.15412000  0.40835000  1.0
  C  C69  1  0.63129000  0.84588000  0.59165000  1.0
  C  C70  1  0.74056000  0.79706000  0.98268000  1.0
  C  C71  1  0.25944000  0.20295000  0.01732000  1.0
  C  C72  1  0.73502000  0.91385000  0.98720000  1.0
  C  C73  1  0.26498000  0.08616000  0.01280000  1.0
  C  C74  1  0.83705000  0.00600000  0.90468000  1.0
  C  C75  1  0.16295000  0.99401000  0.09532000  1.0
  C  C76  1  0.94061000  0.97445000  0.82004000  1.0
  C  C77  1  0.05939000  0.02555000  0.17996000  1.0
  C  C78  1  0.93914000  0.85539000  0.82138000  1.0
  C  C79  1  0.06086000  0.14461000  0.17862000  1.0
  C  C80  1  0.70248000  0.30294000  0.95296000  1.0
  C  C81  1  0.29752000  0.69706000  0.04704000  1.0
  C  C82  1  0.70009000  0.18445000  0.95348000  1.0
  C  C83  1  0.29991000  0.81555000  0.04652000  1.0
  C  C84  1  0.83636000  0.13047000  0.90760000  1.0
  C  C85  1  0.16364000  0.86953000  0.09240000  1.0
  C  C86  1  0.97122000  0.19996000  0.86418000  1.0
  C  C87  1  0.02878000  0.80004000  0.13582000  1.0
  C  C88  1  0.96491000  0.31763000  0.86719000  1.0
  C  C89  1  0.03509000  0.68237000  0.13281000  1.0
  N  N90  1  0.84101000  0.76792000  0.90138000  1.0
  N  N91  1  0.15899000  0.23209000  0.09862000  1.0
  N  N92  1  0.83296000  0.36881000  0.91023000  1.0
  N  N93  1  0.16704000  0.63120000  0.08977000  1.0
  N  N94  1  0.56007000  0.45150000  0.32849000  1.0
  N  N95  1  0.43993000  0.54849000  0.67152000  1.0
  N  N96  1  0.30364000  0.93918000  0.45297000  1.0
  N  N97  1  0.69636000  0.06081000  0.54703000  1.0
  O  O98  1  0.89416000  0.45567000  0.10529000  1.0
  O  O99  1  0.10583000  0.54433000  0.89472000  1.0
  O  O100  1  0.64534000  0.51147000  0.09265000  1.0
  O  O101  1  0.35465000  0.48853000  0.90735000  1.0
  O  O102  1  0.66100000  0.64322000  0.26916000  1.0
  O  O103  1  0.33899000  0.35677000  0.73084000  1.0
  O  O104  1  0.08246000  0.84476000  0.56899000  1.0
  O  O105  1  0.91754000  0.15524000  0.43102000  1.0
  O  O106  1  0.46285000  0.14505000  0.32183000  1.0
  O  O107  1  0.53714000  0.85495000  0.67817000  1.0
  O  O108  1  0.33444000  0.25314000  0.42806000  1.0
  O  O109  1  0.66556000  0.74686000  0.57194000  1.0
  O  O110  1  0.58138000  0.64062000  0.85706000  1.0
  O  O111  1  0.41863000  0.35938000  0.14293000  1.0
  O  O112  1  0.90582000  0.64494000  0.69503000  1.0
  O  O113  1  0.09418000  0.35506000  0.30498000  1.0
