# generated using pymatgen
data_CuH4C7N5
_symmetry_space_group_name_H-M   'P 1'
_cell_length_a   25.20430000
_cell_length_b   25.92160000
_cell_length_c   26.96210000
_cell_angle_alpha   92.26310000
_cell_angle_beta   93.49710000
_cell_angle_gamma   94.51340000
_symmetry_Int_Tables_number   1
_chemical_formula_structural   CuH4C7N5
_chemical_formula_sum   'Cu12 H48 C84 N60'
_cell_volume   17510.60841105
_cell_formula_units_Z   12
loop_
 _symmetry_equiv_pos_site_id
 _symmetry_equiv_pos_as_xyz
  1  'x, y, z'
loop_
 _atom_site_type_symbol
 _atom_site_label
 _atom_site_symmetry_multiplicity
 _atom_site_fract_x
 _atom_site_fract_y
 _atom_site_fract_z
 _atom_site_occupancy
  Cu  Cu0  1  0.76543000  0.74685000  0.81319000  1.0
  Cu  Cu1  1  0.84283000  0.75151000  0.72946000  1.0
  Cu  Cu2  1  0.78486000  0.85350000  0.76184000  1.0
  Cu  Cu3  1  0.75248000  0.21275000  0.16658000  1.0
  Cu  Cu4  1  0.86681000  0.23051000  0.22669000  1.0
  Cu  Cu5  1  0.78171000  0.13626000  0.24768000  1.0
  Cu  Cu6  1  0.16408000  0.80831000  0.12764000  1.0
  Cu  Cu7  1  0.12692000  0.78963000  0.23544000  1.0
  Cu  Cu8  1  0.21632000  0.88121000  0.21362000  1.0
  Cu  Cu9  1  0.26008000  0.24381000  0.90612000  1.0
  Cu  Cu10  1  0.16685000  0.22824000  0.82080000  1.0
  Cu  Cu11  1  0.27664000  0.18616000  0.80080000  1.0
  H  H12  1  0.80262000  0.65068000  0.87154000  1.0
  H  H13  1  0.90855000  0.65127000  0.75077000  1.0
  H  H14  1  0.69765000  0.91854000  0.81359000  1.0
  H  H15  1  0.65923000  0.76483000  0.86547000  1.0
  H  H16  1  0.88839000  0.78887000  0.62957000  1.0
  H  H17  1  0.84035000  0.93391000  0.69030000  1.0
  H  H18  1  0.75990000  0.30578000  0.09515000  1.0
  H  H19  1  0.91893000  0.32411000  0.16751000  1.0
  H  H20  1  0.69230000  0.04257000  0.22136000  1.0
  H  H21  1  0.64865000  0.15299000  0.11254000  1.0
  H  H22  1  0.95944000  0.21164000  0.30979000  1.0
  H  H23  1  0.83904000  0.08993000  0.33929000  1.0
  H  H24  1  0.10598000  0.71278000  0.06810000  1.0
  H  H25  1  0.06629000  0.67371000  0.21696000  1.0
  H  H26  1  0.31583000  0.93485000  0.15962000  1.0
  H  H27  1  0.22614000  0.85039000  0.03570000  1.0
  H  H28  1  0.08977000  0.83356000  0.33755000  1.0
  H  H29  1  0.21369000  0.95251000  0.30993000  1.0
  H  H30  1  0.20807000  0.32136000  0.98236000  1.0
  H  H31  1  0.08244000  0.29711000  0.86480000  1.0
  H  H32  1  0.38066000  0.13194000  0.82759000  1.0
  H  H33  1  0.35919000  0.20759000  0.97031000  1.0
  H  H34  1  0.09653000  0.17985000  0.72500000  1.0
  H  H35  1  0.25429000  0.14310000  0.68721000  1.0
  H  H36  1  0.91789000  0.01677000  0.49465000  1.0
  H  H37  1  0.08384000  0.07180000  0.47943000  1.0
  H  H38  1  0.02255000  0.91255000  0.49825000  1.0
  H  H39  1  0.02231000  0.00985000  0.61343000  1.0
  H  H40  1  0.00404000  0.47131000  0.89191000  1.0
  H  H41  1  0.99596000  0.45826000  0.05186000  1.0
  H  H42  1  0.86236000  0.47896000  0.94614000  1.0
  H  H43  1  0.97366000  0.59621000  0.97007000  1.0
  H  H44  1  0.45632000  0.87526000  0.94680000  1.0
  H  H45  1  0.46839000  0.01794000  0.03900000  1.0
  H  H46  1  0.52941000  0.99883000  0.89306000  1.0
  H  H47  1  0.60050000  0.92815000  0.00513000  1.0
  H  H48  1  0.86739000  0.58167000  0.92064000  1.0
  H  H49  1  0.94518000  0.39575000  0.08343000  1.0
  H  H50  1  0.04455000  0.63154000  0.02926000  1.0
  H  H51  1  0.04660000  0.39193000  0.89837000  1.0
  H  H52  1  0.62213000  0.95038000  0.89709000  1.0
  H  H53  1  0.43838000  0.05808000  0.88266000  1.0
  H  H54  1  0.56509000  0.07620000  0.07203000  1.0
  H  H55  1  0.40543000  0.94448000  0.08987000  1.0
  H  H56  1  0.94288000  0.97447000  0.63119000  1.0
  H  H57  1  0.05945000  0.90039000  0.41718000  1.0
  H  H58  1  0.05928000  0.09570000  0.64865000  1.0
  H  H59  1  0.90638000  0.05668000  0.41427000  1.0
  C  C60  1  0.82431000  0.65765000  0.83858000  1.0
  C  C61  1  0.86690000  0.63268000  0.82015000  1.0
  C  C62  1  0.87819000  0.65809000  0.77652000  1.0
  C  C63  1  0.69597000  0.87814000  0.82293000  1.0
  C  C64  1  0.65910000  0.84937000  0.84998000  1.0
  C  C65  1  0.67633000  0.79921000  0.84883000  1.0
  C  C66  1  0.87254000  0.81966000  0.65114000  1.0
  C  C67  1  0.87501000  0.87284000  0.64293000  1.0
  C  C68  1  0.84879000  0.89412000  0.68231000  1.0
  C  C69  1  0.79627000  0.30320000  0.11823000  1.0
  C  C70  1  0.84524000  0.33287000  0.11741000  1.0
  C  C71  1  0.87785000  0.31272000  0.15474000  1.0
  C  C72  1  0.68819000  0.07601000  0.19889000  1.0
  C  C73  1  0.65247000  0.08185000  0.15788000  1.0
  C  C74  1  0.66548000  0.13238000  0.14321000  1.0
  C  C75  1  0.92432000  0.18472000  0.31032000  1.0
  C  C76  1  0.91416000  0.14391000  0.34205000  1.0
  C  C77  1  0.86297000  0.12239000  0.32569000  1.0
  C  C78  1  0.10005000  0.71131000  0.10757000  1.0
  C  C79  1  0.07498000  0.67192000  0.13422000  1.0
  C  C80  1  0.08023000  0.69133000  0.18381000  1.0
  C  C81  1  0.28766000  0.91100000  0.13469000  1.0
  C  C82  1  0.28759000  0.90078000  0.08318000  1.0
  C  C83  1  0.24120000  0.86791000  0.07151000  1.0
  C  C84  1  0.12223000  0.85786000  0.32382000  1.0
  C  C85  1  0.14661000  0.90574000  0.34274000  1.0
  C  C86  1  0.18576000  0.91843000  0.30947000  1.0
  C  C87  1  0.18259000  0.30955000  0.94934000  1.0
  C  C88  1  0.13181000  0.32455000  0.93484000  1.0
  C  C89  1  0.11851000  0.29764000  0.88904000  1.0
  C  C90  1  0.36833000  0.15463000  0.85891000  1.0
  C  C91  1  0.38873000  0.15867000  0.90861000  1.0
  C  C92  1  0.35726000  0.19371000  0.93171000  1.0
  C  C93  1  0.13864000  0.17408000  0.72375000  1.0
  C  C94  1  0.16609000  0.15142000  0.68587000  1.0
  C  C95  1  0.21958000  0.15598000  0.70440000  1.0
  C  C96  1  0.98847000  0.98232000  0.53496000  1.0
  C  C97  1  0.96103000  0.01981000  0.50083000  1.0
  C  C98  1  0.99649000  0.05190000  0.47983000  1.0
  C  C99  1  0.05516000  0.04499000  0.49613000  1.0
  C  C100  1  0.02702000  0.95443000  0.50306000  1.0
  C  C101  1  0.06081000  0.98772000  0.48170000  1.0
  C  C102  1  0.02379000  0.01564000  0.57385000  1.0
  C  C103  1  0.05826000  0.04880000  0.55289000  1.0
  C  C104  1  0.94788000  0.51455000  0.93819000  1.0
  C  C105  1  0.99077000  0.47731000  0.92909000  1.0
  C  C106  1  0.00736000  0.45622000  0.97119000  1.0
  C  C107  1  0.98060000  0.47477000  0.01778000  1.0
  C  C108  1  0.90290000  0.48343000  0.96271000  1.0
  C  C109  1  0.92053000  0.46257000  0.00465000  1.0
  C  C110  1  0.97242000  0.55528000  0.97762000  1.0
  C  C111  1  0.98951000  0.53403000  0.01939000  1.0
  C  C112  1  0.52841000  0.93509000  0.95029000  1.0
  C  C113  1  0.47366000  0.91190000  0.96364000  1.0
  C  C114  1  0.45177000  0.94270000  0.99610000  1.0
  C  C115  1  0.48676000  0.99262000  0.01281000  1.0
  C  C116  1  0.51965000  0.98912000  0.93048000  1.0
  C  C117  1  0.49655000  0.01854000  0.96341000  1.0
  C  C118  1  0.56244000  0.94477000  0.99958000  1.0
  C  C119  1  0.54050000  0.97563000  0.03185000  1.0
  C  C120  1  0.89536000  0.59254000  0.84300000  1.0
  C  C121  1  0.89192000  0.57342000  0.89012000  1.0
  C  C122  1  0.85661000  0.37352000  0.08338000  1.0
  C  C123  1  0.90401000  0.39884000  0.07077000  1.0
  C  C124  1  0.04937000  0.62362000  0.11258000  1.0
  C  C125  1  0.03773000  0.61085000  0.06264000  1.0
  C  C126  1  0.10019000  0.36141000  0.95878000  1.0
  C  C127  1  0.06185000  0.38984000  0.93657000  1.0
  C  C128  1  0.61330000  0.86468000  0.87513000  1.0
  C  C129  1  0.60119000  0.91213000  0.89507000  1.0
  C  C130  1  0.42772000  0.12830000  0.93273000  1.0
  C  C131  1  0.44623000  0.08205000  0.91652000  1.0
  C  C132  1  0.61664000  0.04175000  0.13220000  1.0
  C  C133  1  0.57996000  0.04437000  0.09220000  1.0
  C  C134  1  0.32728000  0.91513000  0.04860000  1.0
  C  C135  1  0.38020000  0.93407000  0.05644000  1.0
  C  C136  1  0.90147000  0.89764000  0.60284000  1.0
  C  C137  1  0.93250000  0.94425000  0.60264000  1.0
  C  C138  1  0.13282000  0.93761000  0.38445000  1.0
  C  C139  1  0.09129000  0.93065000  0.41526000  1.0
  C  C140  1  0.14435000  0.12635000  0.63928000  1.0
  C  C141  1  0.09433000  0.10162000  0.62765000  1.0
  C  C142  1  0.94839000  0.12678000  0.38204000  1.0
  C  C143  1  0.93937000  0.08575000  0.41250000  1.0
  N  N144  1  0.84470000  0.69564000  0.76972000  1.0
  N  N145  1  0.81127000  0.69529000  0.80813000  1.0
  N  N146  1  0.72035000  0.79830000  0.82310000  1.0
  N  N147  1  0.73259000  0.84715000  0.80682000  1.0
  N  N148  1  0.83187000  0.85614000  0.71190000  1.0
  N  N149  1  0.84695000  0.80999000  0.69259000  1.0
  N  N150  1  0.85013000  0.27379000  0.17617000  1.0
  N  N151  1  0.79956000  0.26793000  0.15340000  1.0
  N  N152  1  0.70625000  0.15492000  0.17319000  1.0
  N  N153  1  0.72024000  0.11995000  0.20772000  1.0
  N  N154  1  0.84407000  0.14846000  0.28707000  1.0
  N  N155  1  0.88208000  0.18715000  0.27751000  1.0
  N  N156  1  0.10655000  0.73892000  0.18621000  1.0
  N  N157  1  0.11879000  0.75118000  0.13886000  1.0
  N  N158  1  0.21570000  0.85898000  0.11316000  1.0
  N  N159  1  0.24442000  0.88573000  0.15234000  1.0
  N  N160  1  0.18452000  0.88088000  0.27330000  1.0
  N  N161  1  0.14511000  0.84320000  0.28214000  1.0
  N  N162  1  0.15844000  0.26884000  0.87707000  1.0
  N  N163  1  0.19832000  0.27635000  0.91436000  1.0
  N  N164  1  0.32043000  0.20891000  0.89818000  1.0
  N  N165  1  0.32740000  0.18480000  0.85294000  1.0
  N  N166  1  0.22354000  0.17945000  0.75015000  1.0
  N  N167  1  0.17338000  0.19090000  0.76208000  1.0
  N  N168  1  0.95584000  0.53650000  0.85085000  1.0
  N  N169  1  0.93481000  0.56849000  0.82034000  1.0
  N  N170  1  0.92966000  0.53888000  0.89337000  1.0
  N  N171  1  0.83479000  0.42669000  0.02542000  1.0
  N  N172  1  0.81570000  0.39224000  0.05467000  1.0
  N  N173  1  0.88925000  0.43145000  0.03457000  1.0
  N  N174  1  0.01134000  0.54414000  0.10845000  1.0
  N  N175  1  0.03250000  0.58149000  0.13904000  1.0
  N  N176  1  0.01433000  0.56160000  0.06110000  1.0
  N  N177  1  0.07013000  0.40843000  0.01888000  1.0
  N  N178  1  0.10377000  0.37416000  0.00916000  1.0
  N  N179  1  0.04395000  0.41858000  0.97456000  1.0
  N  N180  1  0.53759000  0.85054000  0.91024000  1.0
  N  N181  1  0.57298000  0.82835000  0.88526000  1.0
  N  N182  1  0.55384000  0.90179000  0.91602000  1.0
  N  N183  1  0.47571000  0.10158000  0.99594000  1.0
  N  N184  1  0.44745000  0.13876000  0.98128000  1.0
  N  N185  1  0.47561000  0.06627000  0.95652000  1.0
  N  N186  1  0.59041000  0.96109000  0.10873000  1.0
  N  N187  1  0.62060000  0.99010000  0.14132000  1.0
  N  N188  1  0.56491000  0.99380000  0.07811000  1.0
  N  N189  1  0.35954000  0.91662000  0.97476000  1.0
  N  N190  1  0.31679000  0.90571000  0.99809000  1.0
  N  N191  1  0.39937000  0.93410000  0.01014000  1.0
  N  N192  1  0.93253000  0.90170000  0.52889000  1.0
  N  N193  1  0.90259000  0.87312000  0.55680000  1.0
  N  N194  1  0.95128000  0.94508000  0.55641000  1.0
  N  N195  1  0.13715000  0.00779000  0.43352000  1.0
  N  N196  1  0.15973000  0.98531000  0.39730000  1.0
  N  N197  1  0.09486000  0.97475000  0.44517000  1.0
  N  N198  1  0.14474000  0.09666000  0.56185000  1.0
  N  N199  1  0.17359000  0.12225000  0.59777000  1.0
  N  N200  1  0.09562000  0.08360000  0.57952000  1.0
  N  N201  1  0.02101000  0.12569000  0.43132000  1.0
  N  N202  1  0.99884000  0.14994000  0.39518000  1.0
  N  N203  1  0.98496000  0.08592000  0.44262000  1.0
