# generated using pymatgen
data_MgH5C8O5
_symmetry_space_group_name_H-M   'P 1'
_cell_length_a   12.47400000
_cell_length_b   12.47407719
_cell_length_c   12.47403929
_cell_angle_alpha   104.69631278
_cell_angle_beta   119.51049047
_cell_angle_gamma   104.69806292
_symmetry_Int_Tables_number   1
_chemical_formula_structural   MgH5C8O5
_chemical_formula_sum   'Mg4 H20 C32 O20'
_cell_volume   1459.23812294
_cell_formula_units_Z   4
loop_
 _symmetry_equiv_pos_site_id
 _symmetry_equiv_pos_as_xyz
  1  'x, y, z'
loop_
 _atom_site_type_symbol
 _atom_site_label
 _atom_site_symmetry_multiplicity
 _atom_site_fract_x
 _atom_site_fract_y
 _atom_site_fract_z
 _atom_site_occupancy
  Mg  Mg0  1  0.67978000  1.00000000  0.32022000  1.0
  Mg  Mg1  1  0.32023000  0.00001000  0.67979000  1.0
  Mg  Mg2  1  0.42978000  0.85956000  0.92979000  1.0
  Mg  Mg3  1  0.07023000  0.14045000  0.57022000  1.0
  H  H4  1  0.14000000  0.93994000  0.94924000  1.0
  H  H5  1  0.67002000  0.99919000  0.06587000  1.0
  H  H6  1  0.00931000  0.06006000  0.20007000  1.0
  H  H7  1  0.06668000  0.00081000  0.67083000  1.0
  H  H8  1  0.95006000  0.69077000  0.39001000  1.0
  H  H9  1  0.42082000  0.10414000  0.92002000  1.0
  H  H10  1  0.69925000  0.30924000  0.25930000  1.0
  H  H11  1  0.81588000  0.89586000  0.31669000  1.0
  H  H12  1  0.74069000  0.69076000  0.30075000  1.0
  H  H13  1  0.68331000  0.10415000  0.18412000  1.0
  H  H14  1  0.60998000  0.30923000  0.04993000  1.0
  H  H15  1  0.07997000  0.89586000  0.57917000  1.0
  H  H16  1  0.05075000  0.06005000  0.85999000  1.0
  H  H17  1  0.93412000  0.00081000  0.32997000  1.0
  H  H18  1  0.79994000  0.93995000  0.99071000  1.0
  H  H19  1  0.32916000  0.99919000  0.93331000  1.0
  H  H20  1  0.37038000  0.99999000  0.37039000  1.0
  H  H21  1  0.12041000  0.50001000  0.62040000  1.0
  H  H22  1  0.37962000  0.50000000  0.87960000  1.0
  H  H23  1  0.62960000  0.99999000  0.62960000  1.0
  C  C24  1  0.15453000  0.96924000  0.04746000  1.0
  C  C25  1  0.26861000  0.97300000  0.15979000  1.0
  C  C26  1  0.37450000  0.94981000  0.14583000  1.0
  C  C27  1  0.07822000  0.03076000  0.18529000  1.0
  C  C28  1  0.18678000  0.02699000  0.29560000  1.0
  C  C29  1  0.19601000  0.05018000  0.42468000  1.0
  C  C30  1  0.93530000  0.60708000  0.40454000  1.0
  C  C31  1  0.04561000  0.60883000  0.51862000  1.0
  C  C32  1  0.17468000  0.72867000  0.62450000  1.0
  C  C33  1  0.79747000  0.39293000  0.32822000  1.0
  C  C34  1  0.90979000  0.39118000  0.43678000  1.0
  C  C35  1  0.89582000  0.27133000  0.44600000  1.0
  C  C36  1  0.67177000  0.60707000  0.20253000  1.0
  C  C37  1  0.56322000  0.60882000  0.09021000  1.0
  C  C38  1  0.55400000  0.72867000  0.10418000  1.0
  C  C39  1  0.59546000  0.39293000  0.06470000  1.0
  C  C40  1  0.48140000  0.39118000  0.95440000  1.0
  C  C41  1  0.37551000  0.27134000  0.82533000  1.0
  C  C42  1  0.95253000  0.03075000  0.84546000  1.0
  C  C43  1  0.84021000  0.02699000  0.73139000  1.0
  C  C44  1  0.85417000  0.05018000  0.62550000  1.0
  C  C45  1  0.81470000  0.96924000  0.92178000  1.0
  C  C46  1  0.70439000  0.97300000  0.81321000  1.0
  C  C47  1  0.57532000  0.94982000  0.80399000  1.0
  C  C48  1  0.05884000  0.00000000  0.05884000  1.0
  C  C49  1  0.28376000  0.99999000  0.28376000  1.0
  C  C50  1  0.80883000  0.50000000  0.30883000  1.0
  C  C51  1  0.03376000  0.50000000  0.53376000  1.0
  C  C52  1  0.69117000  0.50000000  0.19117000  1.0
  C  C53  1  0.46625000  0.50001000  0.96624000  1.0
  C  C54  1  0.94117000  0.00000000  0.94117000  1.0
  C  C55  1  0.71624000  0.00000000  0.71624000  1.0
  O  O56  1  0.49022000  0.98021000  0.25430000  1.0
  O  O57  1  0.34045000  0.90336000  0.02304000  1.0
  O  O58  1  0.27408000  0.01978000  0.51000000  1.0
  O  O59  1  0.11967000  0.09663000  0.43708000  1.0
  O  O60  1  0.26001000  0.73593000  0.74023000  1.0
  O  O61  1  0.18709000  0.81742000  0.59046000  1.0
  O  O62  1  0.00432000  0.26408000  0.52409000  1.0
  O  O63  1  0.77305000  0.18259000  0.36967000  1.0
  O  O64  1  0.47591000  0.73592000  0.99569000  1.0
  O  O65  1  0.63032000  0.81741000  0.22695000  1.0
  O  O66  1  0.25977000  0.26408000  0.73999000  1.0
  O  O67  1  0.40954000  0.18258000  0.81291000  1.0
  O  O68  1  0.74570000  0.01978000  0.50977000  1.0
  O  O69  1  0.97696000  0.09663000  0.65955000  1.0
  O  O70  1  0.48999000  0.98022000  0.72592000  1.0
  O  O71  1  0.56292000  0.90338000  0.88034000  1.0
  O  O72  1  0.87500000  0.98589000  0.36089000  1.0
  O  O73  1  0.37501000  0.01411000  0.88911000  1.0
  O  O74  1  0.63911000  0.01411000  0.12501000  1.0
  O  O75  1  0.11090000  0.98590000  0.62501000  1.0
