# generated using pymatgen
data_Zn2H18C12N2Cl2O7
_symmetry_space_group_name_H-M   'P 1'
_cell_length_a   8.10360000
_cell_length_b   10.95630000
_cell_length_c   13.57380000
_cell_angle_alpha   73.74300000
_cell_angle_beta   89.76810000
_cell_angle_gamma   69.26000000
_symmetry_Int_Tables_number   1
_chemical_formula_structural   Zn2H18C12N2Cl2O7
_chemical_formula_sum   'Zn4 H36 C24 N4 Cl4 O14'
_cell_volume   1075.90803579
_cell_formula_units_Z   2
loop_
 _symmetry_equiv_pos_site_id
 _symmetry_equiv_pos_as_xyz
  1  'x, y, z'
loop_
 _atom_site_type_symbol
 _atom_site_label
 _atom_site_symmetry_multiplicity
 _atom_site_fract_x
 _atom_site_fract_y
 _atom_site_fract_z
 _atom_site_occupancy
  Zn  Zn0  1  0.48688000  0.65664000  0.48987000  1.0
  Zn  Zn1  1  0.90202000  0.35111000  0.53872000  1.0
  Zn  Zn2  1  0.51316000  0.34335000  0.51015000  1.0
  Zn  Zn3  1  0.09804000  0.64888000  0.46132000  1.0
  H  H4  1  0.64108000  0.43735000  0.63802000  1.0
  H  H5  1  0.20546000  0.04860000  0.58372000  1.0
  H  H6  1  0.32172000  0.95312000  0.51005000  1.0
  H  H7  1  0.75230000  0.69350000  0.56464000  1.0
  H  H8  1  0.61318000  0.84930000  0.50398000  1.0
  H  H9  1  0.78811000  0.59567000  0.74245000  1.0
  H  H10  1  0.69181000  0.61709000  0.91374000  1.0
  H  H11  1  0.26689000  0.99617000  0.76005000  1.0
  H  H12  1  0.90729000  0.94570000  0.78133000  1.0
  H  H13  1  0.06972000  0.89404000  0.69902000  1.0
  H  H14  1  0.85275000  0.88792000  0.68058000  1.0
  H  H15  1  0.27595000  0.25814000  0.81729000  1.0
  H  H16  1  0.10321000  0.22450000  0.75990000  1.0
  H  H17  1  0.06730000  0.39271000  0.76371000  1.0
  H  H18  1  0.71562000  0.33461000  0.19798000  1.0
  H  H19  1  0.91684000  0.36922000  0.20126000  1.0
  H  H20  1  0.70332000  0.50279000  0.18313000  1.0
  H  H21  1  0.43192000  0.81937000  0.92229000  1.0
  H  H22  1  0.35895000  0.56264000  0.36200000  1.0
  H  H23  1  0.79447000  0.95146000  0.41616000  1.0
  H  H24  1  0.67828000  0.04692000  0.48986000  1.0
  H  H25  1  0.24770000  0.30655000  0.43536000  1.0
  H  H26  1  0.38681000  0.15075000  0.49597000  1.0
  H  H27  1  0.21183000  0.40446000  0.25755000  1.0
  H  H28  1  0.30803000  0.38309000  0.08623000  1.0
  H  H29  1  0.73294000  0.00395000  0.23983000  1.0
  H  H30  1  0.09258000  0.05424000  0.21861000  1.0
  H  H31  1  0.93028000  0.10594000  0.30098000  1.0
  H  H32  1  0.14728000  0.11205000  0.31931000  1.0
  H  H33  1  0.72423000  0.74163000  0.18278000  1.0
  H  H34  1  0.89682000  0.77545000  0.24015000  1.0
  H  H35  1  0.93296000  0.60719000  0.23643000  1.0
  H  H36  1  0.28452000  0.66529000  0.80207000  1.0
  H  H37  1  0.08329000  0.63071000  0.79879000  1.0
  H  H38  1  0.29679000  0.49712000  0.81689000  1.0
  H  H39  1  0.56785000  0.18081000  0.07762000  1.0
  C  C40  1  0.42818000  0.89325000  0.66032000  1.0
  C  C41  1  0.57769000  0.77925000  0.65601000  1.0
  C  C42  1  0.67269000  0.68272000  0.74750000  1.0
  C  C43  1  0.62024000  0.69531000  0.84328000  1.0
  C  C44  1  0.47440000  0.80849000  0.84796000  1.0
  C  C45  1  0.38143000  0.90738000  0.75734000  1.0
  C  C46  1  0.86205000  0.09105000  0.63280000  1.0
  C  C47  1  0.92714000  0.94493000  0.70119000  1.0
  C  C48  1  0.23488000  0.33153000  0.65107000  1.0
  C  C49  1  0.16749000  0.29858000  0.75531000  1.0
  C  C50  1  0.77624000  0.37244000  0.33762000  1.0
  C  C51  1  0.78135000  0.39463000  0.22287000  1.0
  C  C52  1  0.57174000  0.10685000  0.33960000  1.0
  C  C53  1  0.42226000  0.22085000  0.34394000  1.0
  C  C54  1  0.32722000  0.31740000  0.25248000  1.0
  C  C55  1  0.37961000  0.30484000  0.15668000  1.0
  C  C56  1  0.52541000  0.19166000  0.15196000  1.0
  C  C57  1  0.61841000  0.09274000  0.24257000  1.0
  C  C58  1  0.13794000  0.90893000  0.36717000  1.0
  C  C59  1  0.07284000  0.05504000  0.29876000  1.0
  C  C60  1  0.76523000  0.66838000  0.34900000  1.0
  C  C61  1  0.83266000  0.70129000  0.24478000  1.0
  C  C62  1  0.22383000  0.62751000  0.66242000  1.0
  C  C63  1  0.21877000  0.60529000  0.77717000  1.0
  N  N64  1  0.32902000  0.99140000  0.57011000  1.0
  N  N65  1  0.62317000  0.75825000  0.55883000  1.0
  N  N66  1  0.67093000  0.00867000  0.42979000  1.0
  N  N67  1  0.37682000  0.24181000  0.44114000  1.0
  Cl  Cl68  1  0.60753000  0.00309000  0.96519000  1.0
  Cl  Cl69  1  0.99625000  0.58148000  0.02083000  1.0
  Cl  Cl70  1  0.39252000  0.99656000  0.03516000  1.0
  Cl  Cl71  1  0.00353000  0.41864000  0.97915000  1.0
  O  O72  1  0.66180000  0.44856000  0.56580000  1.0
  O  O73  1  0.96929000  0.15524000  0.62873000  1.0
  O  O74  1  0.70866000  0.14213000  0.58438000  1.0
  O  O75  1  0.12764000  0.37120000  0.56873000  1.0
  O  O76  1  0.39480000  0.32191000  0.64769000  1.0
  O  O77  1  0.91824000  0.35409000  0.39184000  1.0
  O  O78  1  0.63122000  0.37576000  0.37285000  1.0
  O  O79  1  0.33824000  0.55143000  0.43422000  1.0
  O  O80  1  0.03069000  0.84474000  0.37130000  1.0
  O  O81  1  0.29135000  0.85786000  0.41557000  1.0
  O  O82  1  0.87245000  0.62870000  0.43135000  1.0
  O  O83  1  0.60530000  0.67803000  0.35236000  1.0
  O  O84  1  0.08183000  0.64585000  0.60821000  1.0
  O  O85  1  0.36882000  0.62424000  0.62717000  1.0
