# generated using pymatgen
data_CdH9C5SNO5
_symmetry_space_group_name_H-M   'P 1'
_cell_length_a   7.70680000
_cell_length_b   7.96648000
_cell_length_c   16.80450000
_cell_angle_alpha   89.99840000
_cell_angle_beta   89.99970000
_cell_angle_gamma   89.99990000
_symmetry_Int_Tables_number   1
_chemical_formula_structural   CdH9C5SNO5
_chemical_formula_sum   'Cd4 H36 C20 S4 N4 O20'
_cell_volume   1031.73022536
_cell_formula_units_Z   4
loop_
 _symmetry_equiv_pos_site_id
 _symmetry_equiv_pos_as_xyz
  1  'x, y, z'
loop_
 _atom_site_type_symbol
 _atom_site_label
 _atom_site_symmetry_multiplicity
 _atom_site_fract_x
 _atom_site_fract_y
 _atom_site_fract_z
 _atom_site_occupancy
  Cd  Cd0  1  0.97610000  0.76856000  0.31558000  1.0
  Cd  Cd1  1  0.52389000  0.23143000  0.81558000  1.0
  Cd  Cd2  1  0.02389000  0.26857000  0.18442000  1.0
  Cd  Cd3  1  0.47611000  0.73144000  0.68442000  1.0
  H  H4  1  0.29239000  0.57633000  0.29854000  1.0
  H  H5  1  0.20761000  0.42367000  0.79853000  1.0
  H  H6  1  0.70762000  0.07634000  0.20147000  1.0
  H  H7  1  0.79240000  0.92367000  0.70146000  1.0
  H  H8  1  0.28924000  0.71924000  0.22886000  1.0
  H  H9  1  0.21076000  0.28076000  0.72886000  1.0
  H  H10  1  0.71077000  0.21925000  0.27114000  1.0
  H  H11  1  0.78924000  0.78076000  0.77114000  1.0
  H  H12  1  0.79006000  0.52543000  0.37316000  1.0
  H  H13  1  0.70995000  0.47457000  0.87315000  1.0
  H  H14  1  0.20995000  0.02544000  0.12685000  1.0
  H  H15  1  0.29006000  0.97457000  0.62684000  1.0
  H  H16  1  0.98194000  0.44403000  0.37462000  1.0
  H  H17  1  0.51806000  0.55594000  0.87461000  1.0
  H  H18  1  0.01807000  0.94406000  0.12538000  1.0
  H  H19  1  0.48194000  0.05596000  0.62539000  1.0
  H  H20  1  0.05849000  0.16897000  0.46920000  1.0
  H  H21  1  0.44151000  0.83100000  0.96920000  1.0
  H  H22  1  0.94151000  0.66900000  0.03080000  1.0
  H  H23  1  0.55851000  0.33102000  0.53080000  1.0
  H  H24  1  0.28014000  0.14730000  0.44601000  1.0
  H  H25  1  0.21986000  0.85268000  0.94601000  1.0
  H  H26  1  0.71986000  0.64732000  0.05399000  1.0
  H  H27  1  0.78015000  0.35270000  0.55400000  1.0
  H  H28  1  0.43886000  0.87733000  0.45753000  1.0
  H  H29  1  0.06113000  0.12264000  0.95753000  1.0
  H  H30  1  0.56113000  0.37736000  0.04247000  1.0
  H  H31  1  0.93887000  0.62267000  0.54247000  1.0
  H  H32  1  0.34428000  0.67683000  0.44567000  1.0
  H  H33  1  0.15572000  0.32315000  0.94567000  1.0
  H  H34  1  0.65571000  0.17685000  0.05433000  1.0
  H  H35  1  0.84429000  0.82318000  0.55434000  1.0
  H  H36  1  0.38940000  0.93222000  0.30927000  1.0
  H  H37  1  0.11058000  0.06777000  0.80927000  1.0
  H  H38  1  0.61058000  0.43224000  0.19073000  1.0
  H  H39  1  0.88941000  0.56777000  0.69073000  1.0
  C  C40  1  0.10942000  0.16015000  0.34428000  1.0
  C  C41  1  0.39056000  0.83984000  0.84429000  1.0
  C  C42  1  0.89056000  0.66016000  0.15571000  1.0
  C  C43  1  0.60942000  0.33986000  0.65572000  1.0
  C  C44  1  0.14967000  0.10420000  0.42921000  1.0
  C  C45  1  0.35033000  0.89578000  0.92922000  1.0
  C  C46  1  0.85033000  0.60421000  0.07078000  1.0
  C  C47  1  0.64967000  0.39581000  0.57079000  1.0
  C  C48  1  0.34333000  0.80617000  0.42282000  1.0
  C  C49  1  0.15666000  0.19380000  0.92282000  1.0
  C  C50  1  0.65666000  0.30620000  0.07718000  1.0
  C  C51  1  0.84334000  0.69382000  0.57718000  1.0
  C  C52  1  0.39096000  0.80487000  0.33416000  1.0
  C  C53  1  0.10904000  0.19512000  0.83416000  1.0
  C  C54  1  0.60904000  0.30488000  0.16584000  1.0
  C  C55  1  0.89097000  0.69512000  0.66584000  1.0
  C  C56  1  0.57920000  0.73787000  0.33069000  1.0
  C  C57  1  0.92079000  0.26213000  0.83069000  1.0
  C  C58  1  0.42080000  0.23787000  0.16931000  1.0
  C  C59  1  0.07921000  0.76212000  0.66931000  1.0
  S  S60  1  0.13141000  0.88359000  0.45074000  1.0
  S  S61  1  0.36859000  0.11639000  0.95074000  1.0
  S  S62  1  0.86859000  0.38361000  0.04925000  1.0
  S  S63  1  0.63142000  0.61642000  0.54925000  1.0
  N  N64  1  0.26876000  0.70150000  0.28834000  1.0
  N  N65  1  0.23123000  0.29849000  0.78834000  1.0
  N  N66  1  0.73123000  0.20151000  0.21166000  1.0
  N  N67  1  0.76876000  0.79850000  0.71166000  1.0
  O  O68  1  0.90652000  0.53047000  0.39957000  1.0
  O  O69  1  0.59347000  0.46951000  0.89957000  1.0
  O  O70  1  0.09348000  0.03049000  0.10043000  1.0
  O  O71  1  0.40653000  0.96953000  0.60043000  1.0
  O  O72  1  0.06064000  0.05563000  0.29179000  1.0
  O  O73  1  0.43936000  0.94437000  0.79179000  1.0
  O  O74  1  0.93936000  0.55564000  0.20820000  1.0
  O  O75  1  0.56065000  0.44438000  0.70821000  1.0
  O  O76  1  0.12469000  0.31598000  0.32973000  1.0
  O  O77  1  0.37529000  0.68400000  0.82974000  1.0
  O  O78  1  0.87530000  0.81600000  0.17026000  1.0
  O  O79  1  0.62468000  0.18402000  0.67027000  1.0
  O  O80  1  0.69725000  0.85011000  0.33625000  1.0
  O  O81  1  0.80274000  0.14988000  0.83625000  1.0
  O  O82  1  0.30275000  0.35012000  0.16376000  1.0
  O  O83  1  0.19725000  0.64988000  0.66376000  1.0
  O  O84  1  0.60019000  0.58092000  0.32608000  1.0
  O  O85  1  0.89982000  0.41907000  0.82608000  1.0
  O  O86  1  0.39982000  0.08092000  0.17392000  1.0
  O  O87  1  0.10019000  0.91907000  0.67392000  1.0
