# generated using pymatgen
data_Zn2H21C25NO8
_symmetry_space_group_name_H-M   'P 1'
_cell_length_a   10.16970000
_cell_length_b   11.09460000
_cell_length_c   29.52800000
_cell_angle_alpha   89.99930000
_cell_angle_beta   90.00040000
_cell_angle_gamma   89.99940000
_symmetry_Int_Tables_number   1
_chemical_formula_structural   Zn2H21C25NO8
_chemical_formula_sum   'Zn8 H84 C100 N4 O32'
_cell_volume   3331.60743638
_cell_formula_units_Z   4
loop_
 _symmetry_equiv_pos_site_id
 _symmetry_equiv_pos_as_xyz
  1  'x, y, z'
loop_
 _atom_site_type_symbol
 _atom_site_label
 _atom_site_symmetry_multiplicity
 _atom_site_fract_x
 _atom_site_fract_y
 _atom_site_fract_z
 _atom_site_occupancy
  Zn  Zn0  1  0.65957000  0.68218000  0.99003000  1.0
  Zn  Zn1  1  0.84043000  0.31782000  0.49003000  1.0
  Zn  Zn2  1  0.34044000  0.18220000  0.50997000  1.0
  Zn  Zn3  1  0.15956000  0.81779000  0.00997000  1.0
  Zn  Zn4  1  0.96533000  0.56515000  0.99438000  1.0
  Zn  Zn5  1  0.53467000  0.43485000  0.49438000  1.0
  Zn  Zn6  1  0.03469000  0.06518000  0.50561000  1.0
  Zn  Zn7  1  0.46532000  0.93482000  0.00562000  1.0
  H  H8  1  0.75233000  0.99733000  0.02196000  1.0
  H  H9  1  0.74768000  0.00266000  0.52196000  1.0
  H  H10  1  0.24765000  0.49736000  0.47804000  1.0
  H  H11  1  0.25234000  0.50263000  0.97805000  1.0
  H  H12  1  0.87919000  0.14253000  0.98020000  1.0
  H  H13  1  0.62081000  0.85747000  0.48020000  1.0
  H  H14  1  0.12080000  0.64256000  0.51980000  1.0
  H  H15  1  0.37917000  0.35742000  0.01982000  1.0
  H  H16  1  0.91612000  0.25062000  0.90799000  1.0
  H  H17  1  0.58389000  0.74938000  0.40799000  1.0
  H  H18  1  0.08389000  0.75063000  0.59202000  1.0
  H  H19  1  0.41609000  0.24934000  0.09203000  1.0
  H  H20  1  0.83060000  0.16391000  0.83550000  1.0
  H  H21  1  0.66939000  0.83612000  0.33551000  1.0
  H  H22  1  0.16938000  0.66388000  0.66450000  1.0
  H  H23  1  0.33064000  0.33611000  0.16452000  1.0
  H  H24  1  0.71170000  0.96710000  0.83669000  1.0
  H  H25  1  0.78828000  0.03292000  0.33669000  1.0
  H  H26  1  0.28824000  0.46705000  0.66331000  1.0
  H  H27  1  0.21181000  0.53295000  0.16333000  1.0
  H  H28  1  0.67401000  0.86065000  0.90976000  1.0
  H  H29  1  0.82599000  0.13936000  0.40976000  1.0
  H  H30  1  0.32594000  0.36063000  0.59024000  1.0
  H  H31  1  0.17410000  0.63938000  0.09026000  1.0
  H  H32  1  0.96348000  0.50811000  0.13218000  1.0
  H  H33  1  0.53649000  0.49192000  0.63218000  1.0
  H  H34  1  0.03653000  0.00808000  0.36782000  1.0
  H  H35  1  0.46349000  0.99191000  0.86782000  1.0
  H  H36  1  0.94265000  0.47613000  0.21505000  1.0
  H  H37  1  0.55732000  0.52389000  0.71505000  1.0
  H  H38  1  0.05735000  0.97609000  0.28495000  1.0
  H  H39  1  0.44267000  0.02389000  0.78495000  1.0
  H  H40  1  0.52381000  0.53330000  0.20498000  1.0
  H  H41  1  0.97616000  0.46668000  0.70498000  1.0
  H  H42  1  0.47618000  0.03330000  0.29501000  1.0
  H  H43  1  0.02384000  0.96663000  0.79501000  1.0
  H  H44  1  0.54786000  0.57272000  0.12273000  1.0
  H  H45  1  0.95210000  0.42726000  0.62274000  1.0
  H  H46  1  0.45214000  0.07272000  0.37726000  1.0
  H  H47  1  0.04789000  0.92723000  0.87726000  1.0
  H  H48  1  0.87989000  0.35241000  0.26827000  1.0
  H  H49  1  0.62010000  0.64760000  0.76827000  1.0
  H  H50  1  0.12012000  0.85238000  0.23173000  1.0
  H  H51  1  0.37991000  0.14757000  0.73173000  1.0
  H  H52  1  0.86745000  0.32435000  0.35157000  1.0
  H  H53  1  0.63254000  0.67566000  0.85157000  1.0
  H  H54  1  0.13254000  0.82433000  0.14843000  1.0
  H  H55  1  0.36748000  0.17565000  0.64843000  1.0
  H  H56  1  0.53650000  0.56346000  0.35792000  1.0
  H  H57  1  0.96349000  0.43654000  0.85792000  1.0
  H  H58  1  0.46348000  0.06346000  0.14208000  1.0
  H  H59  1  0.03651000  0.93656000  0.64207000  1.0
  H  H60  1  0.55497000  0.60177000  0.27513000  1.0
  H  H61  1  0.94502000  0.39824000  0.77513000  1.0
  H  H62  1  0.44502000  0.10178000  0.22487000  1.0
  H  H63  1  0.05496000  0.89824000  0.72486000  1.0
  H  H64  1  0.97035000  0.35340000  0.05914000  1.0
  H  H65  1  0.52965000  0.64660000  0.55915000  1.0
  H  H66  1  0.02967000  0.85343000  0.44085000  1.0
  H  H67  1  0.47035000  0.14657000  0.94084000  1.0
  H  H68  1  0.03263000  0.05566000  0.06992000  1.0
  H  H69  1  0.46738000  0.94434000  0.56992000  1.0
  H  H70  1  0.96739000  0.55569000  0.43007000  1.0
  H  H71  1  0.53260000  0.44432000  0.93007000  1.0
  H  H72  1  0.99824000  0.19438000  0.09898000  1.0
  H  H73  1  0.50177000  0.80562000  0.59898000  1.0
  H  H74  1  0.00178000  0.69442000  0.40102000  1.0
  H  H75  1  0.49821000  0.30559000  0.90102000  1.0
  H  H76  1  0.16342000  0.14188000  0.09432000  1.0
  H  H77  1  0.33659000  0.85813000  0.59433000  1.0
  H  H78  1  0.83660000  0.64192000  0.40567000  1.0
  H  H79  1  0.66339000  0.35810000  0.90567000  1.0
  H  H80  1  0.25494000  0.12638000  0.01513000  1.0
  H  H81  1  0.24506000  0.87363000  0.51513000  1.0
  H  H82  1  0.74509000  0.62640000  0.48486000  1.0
  H  H83  1  0.75490000  0.37361000  0.98486000  1.0
  H  H84  1  0.18932000  0.23185000  0.97493000  1.0
  H  H85  1  0.31067000  0.76816000  0.47494000  1.0
  H  H86  1  0.81070000  0.73187000  0.52506000  1.0
  H  H87  1  0.68928000  0.26814000  0.02506000  1.0
  H  H88  1  0.11315000  0.08764000  0.98242000  1.0
  H  H89  1  0.38684000  0.91236000  0.48242000  1.0
  H  H90  1  0.88687000  0.58766000  0.51758000  1.0
  H  H91  1  0.61311000  0.41234000  0.01757000  1.0
  C  C92  1  0.87571000  0.85015000  0.00247000  1.0
  C  C93  1  0.62430000  0.14986000  0.50247000  1.0
  C  C94  1  0.12428000  0.35015000  0.49753000  1.0
  C  C95  1  0.37572000  0.64984000  0.99754000  1.0
  C  C96  1  0.75333000  0.92936000  0.99470000  1.0
  C  C97  1  0.74667000  0.07064000  0.49470000  1.0
  C  C98  1  0.24665000  0.42938000  0.50530000  1.0
  C  C99  1  0.25335000  0.57061000  0.00531000  1.0
  C  C100  1  0.77415000  0.99483000  0.94971000  1.0
  C  C101  1  0.72585000  0.00518000  0.44972000  1.0
  C  C102  1  0.22585000  0.49484000  0.55028000  1.0
  C  C103  1  0.27417000  0.50516000  0.05029000  1.0
  C  C104  1  0.84269000  0.10420000  0.94861000  1.0
  C  C105  1  0.65732000  0.89580000  0.44861000  1.0
  C  C106  1  0.15731000  0.60422000  0.55139000  1.0
  C  C107  1  0.34267000  0.39577000  0.05140000  1.0
  C  C108  1  0.86342000  0.16494000  0.90785000  1.0
  C  C109  1  0.63657000  0.83507000  0.40786000  1.0
  C  C110  1  0.13658000  0.66495000  0.59215000  1.0
  C  C111  1  0.36341000  0.33503000  0.09216000  1.0
  C  C112  1  0.81553000  0.11624000  0.86741000  1.0
  C  C113  1  0.68447000  0.88377000  0.36742000  1.0
  C  C114  1  0.18445000  0.61623000  0.63259000  1.0
  C  C115  1  0.31556000  0.38377000  0.13260000  1.0
  C  C116  1  0.74813000  0.00642000  0.86820000  1.0
  C  C117  1  0.75186000  0.99360000  0.36820000  1.0
  C  C118  1  0.25185000  0.50640000  0.63180000  1.0
  C  C119  1  0.24818000  0.49361000  0.13182000  1.0
  C  C120  1  0.72732000  0.94590000  0.90911000  1.0
  C  C121  1  0.77268000  0.05411000  0.40911000  1.0
  C  C122  1  0.27264000  0.44589000  0.59089000  1.0
  C  C123  1  0.22738000  0.55412000  0.09090000  1.0
  C  C124  1  0.77090000  0.56543000  0.07279000  1.0
  C  C125  1  0.72908000  0.43456000  0.57279000  1.0
  C  C126  1  0.22910000  0.06545000  0.42721000  1.0
  C  C127  1  0.27092000  0.93455000  0.92721000  1.0
  C  C128  1  0.75699000  0.54274000  0.12240000  1.0
  C  C129  1  0.74299000  0.45725000  0.62240000  1.0
  C  C130  1  0.24302000  0.04276000  0.37759000  1.0
  C  C131  1  0.25701000  0.95724000  0.87760000  1.0
  C  C132  1  0.86762000  0.51370000  0.14855000  1.0
  C  C133  1  0.63236000  0.48630000  0.64855000  1.0
  C  C134  1  0.13239000  0.01370000  0.35144000  1.0
  C  C135  1  0.36763000  0.98630000  0.85144000  1.0
  C  C136  1  0.85510000  0.49472000  0.19488000  1.0
  C  C137  1  0.64488000  0.50528000  0.69488000  1.0
  C  C138  1  0.14490000  0.99472000  0.30512000  1.0
  C  C139  1  0.35511000  0.00527000  0.80512000  1.0
  C  C140  1  0.73155000  0.50187000  0.21630000  1.0
  C  C141  1  0.76844000  0.49812000  0.71631000  1.0
  C  C142  1  0.26845000  0.00188000  0.28369000  1.0
  C  C143  1  0.23156000  0.99809000  0.78369000  1.0
  C  C144  1  0.62117000  0.52997000  0.18953000  1.0
  C  C145  1  0.87881000  0.47000000  0.68954000  1.0
  C  C146  1  0.37884000  0.02998000  0.31046000  1.0
  C  C147  1  0.12118000  0.96998000  0.81046000  1.0
  C  C148  1  0.63360000  0.55106000  0.14330000  1.0
  C  C149  1  0.86637000  0.44892000  0.64330000  1.0
  C  C150  1  0.36640000  0.05107000  0.35669000  1.0
  C  C151  1  0.13362000  0.94889000  0.85669000  1.0
  C  C152  1  0.71926000  0.48037000  0.26547000  1.0
  C  C153  1  0.78072000  0.51964000  0.76547000  1.0
  C  C154  1  0.28075000  0.98036000  0.23453000  1.0
  C  C155  1  0.21927000  0.01963000  0.73453000  1.0
  C  C156  1  0.80622000  0.40143000  0.28780000  1.0
  C  C157  1  0.69377000  0.59858000  0.78780000  1.0
  C  C158  1  0.19378000  0.90142000  0.21220000  1.0
  C  C159  1  0.30625000  0.09856000  0.71219000  1.0
  C  C160  1  0.79852000  0.38378000  0.33429000  1.0
  C  C161  1  0.70147000  0.61624000  0.83428000  1.0
  C  C162  1  0.20147000  0.88376000  0.16572000  1.0
  C  C163  1  0.29855000  0.11623000  0.66571000  1.0
  C  C164  1  0.70152000  0.44232000  0.35988000  1.0
  C  C165  1  0.79846000  0.55768000  0.85988000  1.0
  C  C166  1  0.29846000  0.94231000  0.14011000  1.0
  C  C167  1  0.20154000  0.05770000  0.64011000  1.0
  C  C168  1  0.61219000  0.51869000  0.33792000  1.0
  C  C169  1  0.88780000  0.48133000  0.83792000  1.0
  C  C170  1  0.38779000  0.01868000  0.16207000  1.0
  C  C171  1  0.11221000  0.98133000  0.66207000  1.0
  C  C172  1  0.62200000  0.53850000  0.29148000  1.0
  C  C173  1  0.87798000  0.46150000  0.79148000  1.0
  C  C174  1  0.37798000  0.03851000  0.20851000  1.0
  C  C175  1  0.12202000  0.96150000  0.70851000  1.0
  C  C176  1  0.69759000  0.42469000  0.41006000  1.0
  C  C177  1  0.80241000  0.57534000  0.91006000  1.0
  C  C178  1  0.30239000  0.92467000  0.08994000  1.0
  C  C179  1  0.19761000  0.07534000  0.58994000  1.0
  C  C180  1  0.02590000  0.32102000  0.02954000  1.0
  C  C181  1  0.47411000  0.67899000  0.52954000  1.0
  C  C182  1  0.97413000  0.82105000  0.47045000  1.0
  C  C183  1  0.52587000  0.17895000  0.97045000  1.0
  C  C184  1  0.06805000  0.14715000  0.07695000  1.0
  C  C185  1  0.43195000  0.85286000  0.57696000  1.0
  C  C186  1  0.93197000  0.64718000  0.42304000  1.0
  C  C187  1  0.56803000  0.35282000  0.92304000  1.0
  C  C188  1  0.16478000  0.16160000  0.99956000  1.0
  C  C189  1  0.33521000  0.83840000  0.49956000  1.0
  C  C190  1  0.83524000  0.66162000  0.50043000  1.0
  C  C191  1  0.66475000  0.33838000  0.00043000  1.0
  N  N192  1  0.08225000  0.21370000  0.03475000  1.0
  N  N193  1  0.41775000  0.78631000  0.53476000  1.0
  N  N194  1  0.91777000  0.71373000  0.46524000  1.0
  N  N195  1  0.58223000  0.28628000  0.96524000  1.0
  O  O196  1  0.86383000  0.73824000  0.99366000  1.0
  O  O197  1  0.63619000  0.26176000  0.49366000  1.0
  O  O198  1  0.13619000  0.23826000  0.50633000  1.0
  O  O199  1  0.36381000  0.76173000  0.00634000  1.0
  O  O200  1  0.97979000  0.90111000  0.01573000  1.0
  O  O201  1  0.52021000  0.09890000  0.51574000  1.0
  O  O202  1  0.02019000  0.40112000  0.48426000  1.0
  O  O203  1  0.47980000  0.59888000  0.98426000  1.0
  O  O204  1  0.63758000  0.85944000  0.99572000  1.0
  O  O205  1  0.86243000  0.14055000  0.49572000  1.0
  O  O206  1  0.36242000  0.35948000  0.50428000  1.0
  O  O207  1  0.13759000  0.64052000  0.00429000  1.0
  O  O208  1  0.67288000  0.61162000  0.05249000  1.0
  O  O209  1  0.82711000  0.38842000  0.55249000  1.0
  O  O210  1  0.32712000  0.11162000  0.44750000  1.0
  O  O211  1  0.17290000  0.88838000  0.94751000  1.0
  O  O212  1  0.88001000  0.53504000  0.05466000  1.0
  O  O213  1  0.61998000  0.46495000  0.55467000  1.0
  O  O214  1  0.11999000  0.03506000  0.44533000  1.0
  O  O215  1  0.38001000  0.96496000  0.94534000  1.0
  O  O216  1  0.79858000  0.37531000  0.42748000  1.0
  O  O217  1  0.70141000  0.62469000  0.92748000  1.0
  O  O218  1  0.20141000  0.87528000  0.07253000  1.0
  O  O219  1  0.29859000  0.12473000  0.57252000  1.0
  O  O220  1  0.59648000  0.46337000  0.43117000  1.0
  O  O221  1  0.90351000  0.53664000  0.93118000  1.0
  O  O222  1  0.40350000  0.96336000  0.06883000  1.0
  O  O223  1  0.09650000  0.03665000  0.56883000  1.0
  O  O224  1  0.03305000  0.38335000  0.99395000  1.0
  O  O225  1  0.46697000  0.61667000  0.49395000  1.0
  O  O226  1  0.96700000  0.88336000  0.50605000  1.0
  O  O227  1  0.53300000  0.11665000  0.00605000  1.0
