# generated using pymatgen
data_ZnH7C10N2ClO2
_symmetry_space_group_name_H-M   'P 1'
_cell_length_a   8.45101000
_cell_length_b   8.56469000
_cell_length_c   15.11360000
_cell_angle_alpha   90.00010000
_cell_angle_beta   90.00080000
_cell_angle_gamma   109.80400000
_symmetry_Int_Tables_number   1
_chemical_formula_structural   ZnH7C10N2ClO2
_chemical_formula_sum   'Zn4 H28 C40 N8 Cl4 O8'
_cell_volume   1029.22864010
_cell_formula_units_Z   4
loop_
 _symmetry_equiv_pos_site_id
 _symmetry_equiv_pos_as_xyz
  1  'x, y, z'
loop_
 _atom_site_type_symbol
 _atom_site_label
 _atom_site_symmetry_multiplicity
 _atom_site_fract_x
 _atom_site_fract_y
 _atom_site_fract_z
 _atom_site_occupancy
  Zn  Zn0  1  0.41363000  0.51755000  0.60375000  1.0
  Zn  Zn1  1  0.08636000  0.48244000  0.10375000  1.0
  Zn  Zn2  1  0.58636000  0.48245000  0.39625000  1.0
  Zn  Zn3  1  0.91364000  0.51756000  0.89625000  1.0
  H  H4  1  0.31154000  0.92364000  0.52800000  1.0
  H  H5  1  0.18847000  0.07636000  0.02800000  1.0
  H  H6  1  0.68848000  0.07637000  0.47199000  1.0
  H  H7  1  0.81154000  0.92365000  0.97200000  1.0
  H  H8  1  0.19387000  0.13211000  0.47313000  1.0
  H  H9  1  0.30614000  0.86789000  0.97312000  1.0
  H  H10  1  0.80616000  0.86790000  0.52687000  1.0
  H  H11  1  0.69387000  0.13211000  0.02688000  1.0
  H  H12  1  0.17432000  0.92887000  0.20888000  1.0
  H  H13  1  0.32568000  0.07114000  0.70887000  1.0
  H  H14  1  0.82566000  0.07113000  0.79112000  1.0
  H  H15  1  0.67433000  0.92885000  0.29113000  1.0
  H  H16  1  0.29983000  0.72865000  0.26483000  1.0
  H  H17  1  0.20016000  0.27135000  0.76483000  1.0
  H  H18  1  0.70014000  0.27134000  0.73517000  1.0
  H  H19  1  0.79984000  0.72864000  0.23517000  1.0
  H  H20  1  0.15831000  0.16367000  0.16509000  1.0
  H  H21  1  0.34169000  0.83633000  0.66508000  1.0
  H  H22  1  0.84169000  0.83633000  0.83491000  1.0
  H  H23  1  0.65830000  0.16367000  0.33492000  1.0
  H  H24  1  0.03933000  0.26012000  0.42829000  1.0
  H  H25  1  0.46067000  0.73989000  0.92828000  1.0
  H  H26  1  0.96067000  0.73989000  0.57171000  1.0
  H  H27  1  0.53933000  0.26010000  0.07172000  1.0
  H  H28  1  0.97178000  0.48072000  0.31393000  1.0
  H  H29  1  0.52822000  0.51928000  0.81393000  1.0
  H  H30  1  0.02822000  0.51928000  0.68607000  1.0
  H  H31  1  0.47178000  0.48072000  0.18607000  1.0
  C  C32  1  0.31229000  0.81125000  0.40076000  1.0
  C  C33  1  0.18771000  0.18875000  0.90075000  1.0
  C  C34  1  0.68771000  0.18875000  0.59924000  1.0
  C  C35  1  0.81229000  0.81124000  0.09925000  1.0
  C  C36  1  0.28000000  0.92512000  0.45829000  1.0
  C  C37  1  0.22000000  0.07488000  0.95828000  1.0
  C  C38  1  0.72001000  0.07489000  0.54171000  1.0
  C  C39  1  0.78000000  0.92512000  0.04172000  1.0
  C  C40  1  0.21272000  0.04171000  0.42733000  1.0
  C  C41  1  0.28729000  0.95830000  0.92732000  1.0
  C  C42  1  0.78729000  0.95831000  0.57267000  1.0
  C  C43  1  0.71272000  0.04170000  0.07268000  1.0
  C  C44  1  0.17536000  0.04441000  0.33736000  1.0
  C  C45  1  0.32464000  0.95560000  0.83735000  1.0
  C  C46  1  0.82464000  0.95560000  0.66264000  1.0
  C  C47  1  0.67536000  0.04440000  0.16265000  1.0
  C  C48  1  0.20510000  0.93038000  0.27889000  1.0
  C  C49  1  0.29490000  0.06963000  0.77888000  1.0
  C  C50  1  0.79489000  0.06962000  0.72111000  1.0
  C  C51  1  0.70511000  0.93037000  0.22112000  1.0
  C  C52  1  0.27436000  0.81540000  0.31062000  1.0
  C  C53  1  0.22564000  0.18461000  0.81061000  1.0
  C  C54  1  0.72563000  0.18460000  0.68938000  1.0
  C  C55  1  0.77436000  0.81539000  0.18939000  1.0
  C  C56  1  0.38734000  0.68922000  0.43543000  1.0
  C  C57  1  0.11266000  0.31078000  0.93543000  1.0
  C  C58  1  0.61266000  0.31077000  0.56457000  1.0
  C  C59  1  0.88734000  0.68922000  0.06457000  1.0
  C  C60  1  0.11417000  0.21803000  0.22019000  1.0
  C  C61  1  0.38583000  0.78197000  0.72018000  1.0
  C  C62  1  0.88583000  0.78197000  0.77981000  1.0
  C  C63  1  0.61417000  0.21803000  0.27982000  1.0
  C  C64  1  0.05026000  0.27035000  0.35691000  1.0
  C  C65  1  0.44974000  0.72966000  0.85690000  1.0
  C  C66  1  0.94973000  0.72965000  0.64309000  1.0
  C  C67  1  0.55026000  0.27034000  0.14310000  1.0
  C  C68  1  0.01844000  0.37990000  0.29954000  1.0
  C  C69  1  0.48156000  0.62010000  0.79954000  1.0
  C  C70  1  0.98156000  0.62010000  0.70046000  1.0
  C  C71  1  0.51844000  0.37989000  0.20046000  1.0
  N  N72  1  0.05882000  0.34558000  0.21451000  1.0
  N  N73  1  0.44118000  0.65442000  0.71451000  1.0
  N  N74  1  0.94118000  0.65442000  0.78549000  1.0
  N  N75  1  0.55882000  0.34558000  0.28549000  1.0
  N  N76  1  0.11189000  0.16812000  0.30582000  1.0
  N  N77  1  0.38812000  0.83188000  0.80581000  1.0
  N  N78  1  0.88811000  0.83188000  0.69418000  1.0
  N  N79  1  0.61189000  0.16811000  0.19419000  1.0
  Cl  Cl80  1  0.15951000  0.32485000  0.59151000  1.0
  Cl  Cl81  1  0.34047000  0.67515000  0.09151000  1.0
  Cl  Cl82  1  0.84047000  0.67516000  0.40849000  1.0
  Cl  Cl83  1  0.65953000  0.32484000  0.90849000  1.0
  O  O84  1  0.42297000  0.69615000  0.51778000  1.0
  O  O85  1  0.07703000  0.30385000  0.01778000  1.0
  O  O86  1  0.57703000  0.30385000  0.48221000  1.0
  O  O87  1  0.92296000  0.69615000  0.98222000  1.0
  O  O88  1  0.41352000  0.58721000  0.38049000  1.0
  O  O89  1  0.08648000  0.41279000  0.88049000  1.0
  O  O90  1  0.58646000  0.41278000  0.61951000  1.0
  O  O91  1  0.91351000  0.58719000  0.11951000  1.0
