# generated using pymatgen
data_DyZnH16C26N2ClO11
_symmetry_space_group_name_H-M   'P 1'
_cell_length_a   8.29288000
_cell_length_b   12.76590000
_cell_length_c   13.20980000
_cell_angle_alpha   107.02000000
_cell_angle_beta   104.47600000
_cell_angle_gamma   93.62350000
_symmetry_Int_Tables_number   1
_chemical_formula_structural   DyZnH16C26N2ClO11
_chemical_formula_sum   'Dy2 Zn2 H32 C52 N4 Cl2 O22'
_cell_volume   1280.64515838
_cell_formula_units_Z   2
loop_
 _symmetry_equiv_pos_site_id
 _symmetry_equiv_pos_as_xyz
  1  'x, y, z'
loop_
 _atom_site_type_symbol
 _atom_site_label
 _atom_site_symmetry_multiplicity
 _atom_site_fract_x
 _atom_site_fract_y
 _atom_site_fract_z
 _atom_site_occupancy
  Dy  Dy0  1  0.24635000  0.48940000  0.48894000  1.0
  Dy  Dy1  1  0.75365000  0.51060000  0.51106000  1.0
  Zn  Zn2  1  0.32122000  0.21703000  0.66400000  1.0
  Zn  Zn3  1  0.67878000  0.78297000  0.33600000  1.0
  H  H4  1  0.00270000  0.58268000  0.36292000  1.0
  H  H5  1  0.99730000  0.41732000  0.63708000  1.0
  H  H6  1  0.14007000  0.58520000  0.29675000  1.0
  H  H7  1  0.85994000  0.41480000  0.70325000  1.0
  H  H8  1  0.26488000  0.21632000  0.14779000  1.0
  H  H9  1  0.73512000  0.78368000  0.85221000  1.0
  H  H10  1  0.35837000  0.14093000  0.97618000  1.0
  H  H11  1  0.64164000  0.85907000  0.02383000  1.0
  H  H12  1  0.57570000  0.25265000  0.93905000  1.0
  H  H13  1  0.42431000  0.74735000  0.06095000  1.0
  H  H14  1  0.70533000  0.49546000  0.88954000  1.0
  H  H15  1  0.29466000  0.50454000  0.11046000  1.0
  H  H16  1  0.95750000  0.31164000  0.09215000  1.0
  H  H17  1  0.04251000  0.68836000  0.90786000  1.0
  H  H18  1  0.09720000  0.23024000  0.94135000  1.0
  H  H19  1  0.90281000  0.76977000  0.05865000  1.0
  H  H20  1  0.02951000  0.28558000  0.77364000  1.0
  H  H21  1  0.97049000  0.71443000  0.22636000  1.0
  H  H22  1  0.67272000  0.19220000  0.17944000  1.0
  H  H23  1  0.32727000  0.80780000  0.82056000  1.0
  H  H24  1  0.75814000  0.04333000  0.04082000  1.0
  H  H25  1  0.24185000  0.95666000  0.95918000  1.0
  H  H26  1  0.03887000  0.98034000  0.09571000  1.0
  H  H27  1  0.96112000  0.01965000  0.90429000  1.0
  H  H28  1  0.51598000  0.95827000  0.28062000  1.0
  H  H29  1  0.48402000  0.04174000  0.71938000  1.0
  H  H30  1  0.41498000  0.75114000  0.45535000  1.0
  H  H31  1  0.58503000  0.24886000  0.54466000  1.0
  H  H32  1  0.15218000  0.83230000  0.47664000  1.0
  H  H33  1  0.84782000  0.16771000  0.52336000  1.0
  H  H34  1  0.06998000  0.98049000  0.39456000  1.0
  H  H35  1  0.93001000  0.01951000  0.60544000  1.0
  C  C36  1  0.61587000  0.38702000  0.09132000  1.0
  C  C37  1  0.38413000  0.61299000  0.90868000  1.0
  C  C38  1  0.56733000  0.42963000  0.18805000  1.0
  C  C39  1  0.43266000  0.57038000  0.81195000  1.0
  C  C40  1  0.43805000  0.36748000  0.20618000  1.0
  C  C41  1  0.56195000  0.63252000  0.79382000  1.0
  C  C42  1  0.36376000  0.26287000  0.13074000  1.0
  C  C43  1  0.63624000  0.73713000  0.86926000  1.0
  C  C44  1  0.41631000  0.22122000  0.03661000  1.0
  C  C45  1  0.58370000  0.77878000  0.96339000  1.0
  C  C46  1  0.54018000  0.28377000  0.01517000  1.0
  C  C47  1  0.45983000  0.71624000  0.98483000  1.0
  C  C48  1  0.65515000  0.54150000  0.26670000  1.0
  C  C49  1  0.34486000  0.45850000  0.73330000  1.0
  C  C50  1  0.37106000  0.41172000  0.30222000  1.0
  C  C51  1  0.62894000  0.58828000  0.69778000  1.0
  C  C52  1  0.79046000  0.43607000  0.90216000  1.0
  C  C53  1  0.20954000  0.56393000  0.09784000  1.0
  C  C54  1  0.81845000  0.40607000  0.99763000  1.0
  C  C55  1  0.18155000  0.59393000  0.00237000  1.0
  C  C56  1  0.93053000  0.33207000  0.01555000  1.0
  C  C57  1  0.06947000  0.66793000  0.98445000  1.0
  C  C58  1  0.00744000  0.28787000  0.93332000  1.0
  C  C59  1  0.99256000  0.71214000  0.06668000  1.0
  C  C60  1  0.97109000  0.32014000  0.83897000  1.0
  C  C61  1  0.02891000  0.67986000  0.16103000  1.0
  C  C62  1  0.10565000  0.09625000  0.25950000  1.0
  C  C63  1  0.89434000  0.90375000  0.74050000  1.0
  C  C64  1  0.06248000  0.18247000  0.33633000  1.0
  C  C65  1  0.93752000  0.81753000  0.66366000  1.0
  C  C66  1  0.90461000  0.21667000  0.30571000  1.0
  C  C67  1  0.09539000  0.78333000  0.69429000  1.0
  C  C68  1  0.79475000  0.16490000  0.20044000  1.0
  C  C69  1  0.20525000  0.83509000  0.79956000  1.0
  C  C70  1  0.84303000  0.08171000  0.12365000  1.0
  C  C71  1  0.15696000  0.91828000  0.87635000  1.0
  C  C72  1  0.99902000  0.04684000  0.15312000  1.0
  C  C73  1  0.00096000  0.95315000  0.84688000  1.0
  C  C74  1  0.18066000  0.22934000  0.45144000  1.0
  C  C75  1  0.81933000  0.77065000  0.54856000  1.0
  C  C76  1  0.85834000  0.31395000  0.38162000  1.0
  C  C77  1  0.14166000  0.68605000  0.61837000  1.0
  C  C78  1  0.28832000  0.98091000  0.33217000  1.0
  C  C79  1  0.71168000  0.01909000  0.66784000  1.0
  C  C80  1  0.43194000  0.93221000  0.32329000  1.0
  C  C81  1  0.56807000  0.06780000  0.67672000  1.0
  C  C82  1  0.37523000  0.81641000  0.42141000  1.0
  C  C83  1  0.62478000  0.18359000  0.57859000  1.0
  C  C84  1  0.23058000  0.86221000  0.43311000  1.0
  C  C85  1  0.76942000  0.13780000  0.56689000  1.0
  C  C86  1  0.18418000  0.94522000  0.38754000  1.0
  C  C87  1  0.81583000  0.05478000  0.61246000  1.0
  N  N88  1  0.86619000  0.39355000  0.82375000  1.0
  N  N89  1  0.13380000  0.60645000  0.17624000  1.0
  N  N90  1  0.47304000  0.85109000  0.36644000  1.0
  N  N91  1  0.52696000  0.14892000  0.63357000  1.0
  Cl  Cl92  1  0.22525000  0.12173000  0.75856000  1.0
  Cl  Cl93  1  0.77475000  0.87827000  0.24145000  1.0
  O  O94  1  0.73794000  0.45485000  0.07605000  1.0
  O  O95  1  0.26206000  0.54516000  0.92395000  1.0
  O  O96  1  0.78087000  0.54435000  0.34634000  1.0
  O  O97  1  0.21913000  0.45566000  0.65366000  1.0
  O  O98  1  0.59911000  0.62504000  0.24519000  1.0
  O  O99  1  0.40089000  0.37496000  0.75481000  1.0
  O  O100  1  0.46646000  0.48344000  0.39348000  1.0
  O  O101  1  0.53354000  0.51655000  0.60651000  1.0
  O  O102  1  0.21995000  0.38152000  0.29455000  1.0
  O  O103  1  0.78005000  0.61848000  0.70545000  1.0
  O  O104  1  0.26485000  0.06438000  0.28586000  1.0
  O  O105  1  0.73514000  0.93562000  0.71414000  1.0
  O  O106  1  0.14907000  0.18191000  0.51856000  1.0
  O  O107  1  0.85092000  0.81809000  0.48144000  1.0
  O  O108  1  0.30124000  0.30612000  0.47588000  1.0
  O  O109  1  0.69875000  0.69387000  0.52412000  1.0
  O  O110  1  0.97667000  0.39464000  0.44285000  1.0
  O  O111  1  0.02333000  0.60535000  0.55715000  1.0
  O  O112  1  0.70835000  0.32046000  0.38500000  1.0
  O  O113  1  0.29165000  0.67954000  0.61500000  1.0
  O  O114  1  0.12506000  0.58832000  0.37199000  1.0
  O  O115  1  0.87494000  0.41168000  0.62801000  1.0
