# generated using pymatgen
data_Cu2Si2H42C28S2I2O3
_symmetry_space_group_name_H-M   'P 1'
_cell_length_a   16.54260000
_cell_length_b   16.54730000
_cell_length_c   18.74141767
_cell_angle_alpha   63.81445621
_cell_angle_beta   63.80370164
_cell_angle_gamma   90.01090000
_symmetry_Int_Tables_number   1
_chemical_formula_structural   Cu2Si2H42C28S2I2O3
_chemical_formula_sum   'Cu8 Si8 H168 C112 S8 I8 O12'
_cell_volume   4007.86312221
_cell_formula_units_Z   4
loop_
 _symmetry_equiv_pos_site_id
 _symmetry_equiv_pos_as_xyz
  1  'x, y, z'
loop_
 _atom_site_type_symbol
 _atom_site_label
 _atom_site_symmetry_multiplicity
 _atom_site_fract_x
 _atom_site_fract_y
 _atom_site_fract_z
 _atom_site_occupancy
  Cu  Cu0  1  0.27557000  0.86008000  0.44005000  1.0
  Cu  Cu1  1  0.28446000  0.70010000  0.44002000  1.0
  Cu  Cu2  1  0.85990000  0.28436000  0.43997000  1.0
  Cu  Cu3  1  0.69993000  0.27554000  0.44000000  1.0
  Cu  Cu4  1  0.72444000  0.13993000  0.55995000  1.0
  Cu  Cu5  1  0.71555000  0.29991000  0.55997000  1.0
  Cu  Cu6  1  0.14010000  0.71564000  0.56003000  1.0
  Cu  Cu7  1  0.30007000  0.72445000  0.56000000  1.0
  Si  Si8  1  0.49064000  0.31929000  0.10681000  1.0
  Si  Si9  1  0.40260000  0.57408000  0.10667000  1.0
  Si  Si10  1  0.31925000  0.40257000  0.10679000  1.0
  Si  Si11  1  0.57398000  0.49079000  0.10669000  1.0
  Si  Si12  1  0.50936000  0.68071000  0.89319000  1.0
  Si  Si13  1  0.59740000  0.42592000  0.89333000  1.0
  Si  Si14  1  0.68075000  0.59743000  0.89321000  1.0
  Si  Si15  1  0.42602000  0.50921000  0.89331000  1.0
  H  H16  1  0.45120000  0.00493000  0.24969000  1.0
  H  H17  1  0.29928000  0.74552000  0.24970000  1.0
  H  H18  1  0.00478000  0.29927000  0.24957000  1.0
  H  H19  1  0.74555000  0.45107000  0.24955000  1.0
  H  H20  1  0.54880000  0.99507000  0.75031000  1.0
  H  H21  1  0.70072000  0.25448000  0.75030000  1.0
  H  H22  1  0.99522000  0.70073000  0.75043000  1.0
  H  H23  1  0.25445000  0.54893000  0.75045000  1.0
  H  H24  1  0.36145000  0.98677000  0.22743000  1.0
  H  H25  1  0.41131000  0.78589000  0.22746000  1.0
  H  H26  1  0.98658000  0.41120000  0.22738000  1.0
  H  H27  1  0.78585000  0.36134000  0.22732000  1.0
  H  H28  1  0.63854000  0.01323000  0.77258000  1.0
  H  H29  1  0.58869000  0.21411000  0.77254000  1.0
  H  H30  1  0.01342000  0.58880000  0.77262000  1.0
  H  H31  1  0.21414000  0.63866000  0.77269000  1.0
  H  H32  1  0.36760000  0.15874000  0.16042000  1.0
  H  H33  1  0.47215000  0.68095000  0.16036000  1.0
  H  H34  1  0.15863000  0.47218000  0.16028000  1.0
  H  H35  1  0.68083000  0.36756000  0.16028000  1.0
  H  H36  1  0.63240000  0.84126000  0.83958000  1.0
  H  H37  1  0.52784000  0.31905000  0.83964000  1.0
  H  H38  1  0.84138000  0.52782000  0.83971000  1.0
  H  H39  1  0.31916000  0.63244000  0.83972000  1.0
  H  H40  1  0.47402000  0.13721000  0.10004000  1.0
  H  H41  1  0.42612000  0.76292000  0.10006000  1.0
  H  H42  1  0.13711000  0.42607000  0.09995000  1.0
  H  H43  1  0.76285000  0.47388000  0.09994000  1.0
  H  H44  1  0.52599000  0.86279000  0.89996000  1.0
  H  H45  1  0.57387000  0.23708000  0.89995000  1.0
  H  H46  1  0.86289000  0.57393000  0.90005000  1.0
  H  H47  1  0.23715000  0.52612000  0.90006000  1.0
  H  H48  1  0.54488000  0.18129000  0.17397000  1.0
  H  H49  1  0.28124000  0.64498000  0.17397000  1.0
  H  H50  1  0.18105000  0.28133000  0.17404000  1.0
  H  H51  1  0.64493000  0.54477000  0.17398000  1.0
  H  H52  1  0.45512000  0.81871000  0.82603000  1.0
  H  H53  1  0.71875000  0.35503000  0.82603000  1.0
  H  H54  1  0.81894000  0.71868000  0.82596000  1.0
  H  H55  1  0.35506000  0.45523000  0.82603000  1.0
  H  H56  1  0.43652000  0.18223000  0.25307000  1.0
  H  H57  1  0.31057000  0.56485000  0.25292000  1.0
  H  H58  1  0.18207000  0.31070000  0.25303000  1.0
  H  H59  1  0.56479000  0.43647000  0.25294000  1.0
  H  H60  1  0.56348000  0.81777000  0.74693000  1.0
  H  H61  1  0.68943000  0.43515000  0.74708000  1.0
  H  H62  1  0.81793000  0.68929000  0.74697000  1.0
  H  H63  1  0.43521000  0.56352000  0.74706000  1.0
  H  H64  1  0.23894000  0.01884000  0.23863000  1.0
  H  H65  1  0.52243000  0.74259000  0.23880000  1.0
  H  H66  1  0.01880000  0.52249000  0.23852000  1.0
  H  H67  1  0.74255000  0.23891000  0.23865000  1.0
  H  H68  1  0.76106000  0.98116000  0.76137000  1.0
  H  H69  1  0.47757000  0.25742000  0.76120000  1.0
  H  H70  1  0.98121000  0.47751000  0.76148000  1.0
  H  H71  1  0.25745000  0.76109000  0.76135000  1.0
  H  H72  1  0.99064000  0.11058000  0.34177000  1.0
  H  H73  1  0.66758000  0.54768000  0.34181000  1.0
  H  H74  1  0.11041000  0.66747000  0.34189000  1.0
  H  H75  1  0.54766000  0.99058000  0.34186000  1.0
  H  H76  1  0.00936000  0.88942000  0.65823000  1.0
  H  H77  1  0.33242000  0.45233000  0.65819000  1.0
  H  H78  1  0.88958000  0.33253000  0.65812000  1.0
  H  H79  1  0.45234000  0.00942000  0.65814000  1.0
  H  H80  1  0.03098000  0.12574000  0.44677000  1.0
  H  H81  1  0.52217000  0.42757000  0.44685000  1.0
  H  H82  1  0.12544000  0.52208000  0.44692000  1.0
  H  H83  1  0.42751000  0.03090000  0.44688000  1.0
  H  H84  1  0.96901000  0.87425000  0.55324000  1.0
  H  H85  1  0.47783000  0.57243000  0.55315000  1.0
  H  H86  1  0.87455000  0.47792000  0.55309000  1.0
  H  H87  1  0.57250000  0.96909000  0.55312000  1.0
  H  H88  1  0.13087000  0.12298000  0.50511000  1.0
  H  H89  1  0.36387000  0.37201000  0.50517000  1.0
  H  H90  1  0.12274000  0.36395000  0.50512000  1.0
  H  H91  1  0.37182000  0.13065000  0.50520000  1.0
  H  H92  1  0.86913000  0.87702000  0.49489000  1.0
  H  H93  1  0.63614000  0.62799000  0.49481000  1.0
  H  H94  1  0.87726000  0.63605000  0.49488000  1.0
  H  H95  1  0.62818000  0.86934000  0.49480000  1.0
  H  H96  1  0.25145000  0.14171000  0.43028000  1.0
  H  H97  1  0.31815000  0.42820000  0.43034000  1.0
  H  H98  1  0.14145000  0.31829000  0.43022000  1.0
  H  H99  1  0.42788000  0.25125000  0.43047000  1.0
  H  H100  1  0.74855000  0.85829000  0.56972000  1.0
  H  H101  1  0.68186000  0.57180000  0.56965000  1.0
  H  H102  1  0.85855000  0.68171000  0.56979000  1.0
  H  H103  1  0.57212000  0.74875000  0.56953000  1.0
  H  H104  1  0.18453000  0.02822000  0.51796000  1.0
  H  H105  1  0.29741000  0.45396000  0.51804000  1.0
  H  H106  1  0.02795000  0.29744000  0.51796000  1.0
  H  H107  1  0.45371000  0.18432000  0.51811000  1.0
  H  H108  1  0.81546000  0.97177000  0.48204000  1.0
  H  H109  1  0.70259000  0.54603000  0.48195000  1.0
  H  H110  1  0.97205000  0.70256000  0.48205000  1.0
  H  H111  1  0.54629000  0.81567000  0.48189000  1.0
  H  H112  1  0.22879000  0.08271000  0.10651000  1.0
  H  H113  1  0.66481000  0.81083000  0.10651000  1.0
  H  H114  1  0.08282000  0.66478000  0.10642000  1.0
  H  H115  1  0.81084000  0.22865000  0.10649000  1.0
  H  H116  1  0.77121000  0.91728000  0.89350000  1.0
  H  H117  1  0.33519000  0.18917000  0.89349000  1.0
  H  H118  1  0.91718000  0.33522000  0.89358000  1.0
  H  H119  1  0.18916000  0.77135000  0.89350000  1.0
  H  H120  1  0.14171000  0.02403000  0.10332000  1.0
  H  H121  1  0.75508000  0.87267000  0.10333000  1.0
  H  H122  1  0.02418000  0.75504000  0.10324000  1.0
  H  H123  1  0.87269000  0.14159000  0.10338000  1.0
  H  H124  1  0.85829000  0.97596000  0.89668000  1.0
  H  H125  1  0.24490000  0.12734000  0.89667000  1.0
  H  H126  1  0.97582000  0.24496000  0.89676000  1.0
  H  H127  1  0.12731000  0.85842000  0.89662000  1.0
  H  H128  1  0.17585000  0.96229000  0.18605000  1.0
  H  H129  1  0.63818000  0.85179000  0.18600000  1.0
  H  H130  1  0.96233000  0.63818000  0.18587000  1.0
  H  H131  1  0.85181000  0.17589000  0.18600000  1.0
  H  H132  1  0.82415000  0.03771000  0.81395000  1.0
  H  H133  1  0.36182000  0.14821000  0.81399000  1.0
  H  H134  1  0.03767000  0.36182000  0.81413000  1.0
  H  H135  1  0.14820000  0.82411000  0.81399000  1.0
  H  H136  1  0.01325000  0.16669000  0.20081000  1.0
  H  H137  1  0.78593000  0.63255000  0.20078000  1.0
  H  H138  1  0.16683000  0.78580000  0.20079000  1.0
  H  H139  1  0.63258000  0.01305000  0.20093000  1.0
  H  H140  1  0.98675000  0.83331000  0.79919000  1.0
  H  H141  1  0.21407000  0.36745000  0.79922000  1.0
  H  H142  1  0.83317000  0.21420000  0.79921000  1.0
  H  H143  1  0.36742000  0.98696000  0.79907000  1.0
  H  H144  1  0.04764000  0.13808000  0.11247000  1.0
  H  H145  1  0.83994000  0.74952000  0.11241000  1.0
  H  H146  1  0.13822000  0.83979000  0.11243000  1.0
  H  H147  1  0.74959000  0.04748000  0.11262000  1.0
  H  H148  1  0.95235000  0.86192000  0.88754000  1.0
  H  H149  1  0.16007000  0.25048000  0.88758000  1.0
  H  H150  1  0.86178000  0.16021000  0.88757000  1.0
  H  H151  1  0.25041000  0.95253000  0.88738000  1.0
  H  H152  1  0.13187000  0.20272000  0.11439000  1.0
  H  H153  1  0.75372000  0.68300000  0.11439000  1.0
  H  H154  1  0.20277000  0.75362000  0.11439000  1.0
  H  H155  1  0.68297000  0.13160000  0.11445000  1.0
  H  H156  1  0.86813000  0.79728000  0.88561000  1.0
  H  H157  1  0.24626000  0.31700000  0.88562000  1.0
  H  H158  1  0.79723000  0.24638000  0.88561000  1.0
  H  H159  1  0.31704000  0.86840000  0.88555000  1.0
  H  H160  1  0.00828000  0.91055000  0.31507000  1.0
  H  H161  1  0.67665000  0.77445000  0.31511000  1.0
  H  H162  1  0.91045000  0.67650000  0.31498000  1.0
  H  H163  1  0.77446000  0.00849000  0.31517000  1.0
  H  H164  1  0.99172000  0.08945000  0.68493000  1.0
  H  H165  1  0.32335000  0.22557000  0.68488000  1.0
  H  H166  1  0.08956000  0.32351000  0.68501000  1.0
  H  H167  1  0.22554000  0.99151000  0.68483000  1.0
  H  H168  1  0.97610000  0.96603000  0.22906000  1.0
  H  H169  1  0.79488000  0.80498000  0.22908000  1.0
  H  H170  1  0.96595000  0.79471000  0.22901000  1.0
  H  H171  1  0.80507000  0.97620000  0.22922000  1.0
  H  H172  1  0.02390000  0.03397000  0.77094000  1.0
  H  H173  1  0.20512000  0.19503000  0.77091000  1.0
  H  H174  1  0.03404000  0.20530000  0.77099000  1.0
  H  H175  1  0.19494000  0.02381000  0.77077000  1.0
  H  H176  1  0.93958000  0.99274000  0.31899000  1.0
  H  H177  1  0.74139000  0.68834000  0.31900000  1.0
  H  H178  1  0.99255000  0.74128000  0.31900000  1.0
  H  H179  1  0.68838000  0.93969000  0.31915000  1.0
  H  H180  1  0.06042000  0.00726000  0.68101000  1.0
  H  H181  1  0.25861000  0.31167000  0.68099000  1.0
  H  H182  1  0.00744000  0.25873000  0.68100000  1.0
  H  H183  1  0.31163000  0.06031000  0.68084000  1.0
  C  C184  1  0.39401000  0.03264000  0.24057000  1.0
  C  C185  1  0.36557000  0.72689000  0.24059000  1.0
  C  C186  1  0.03249000  0.36555000  0.24050000  1.0
  C  C187  1  0.72684000  0.39388000  0.24048000  1.0
  C  C188  1  0.60599000  0.96736000  0.75943000  1.0
  C  C189  1  0.63442000  0.27311000  0.75942000  1.0
  C  C190  1  0.96751000  0.63445000  0.75950000  1.0
  C  C191  1  0.27316000  0.60611000  0.75952000  1.0
  C  C192  1  0.42743000  0.13370000  0.16581000  1.0
  C  C193  1  0.40694000  0.70064000  0.16577000  1.0
  C  C194  1  0.13359000  0.40697000  0.16570000  1.0
  C  C195  1  0.70053000  0.42733000  0.16570000  1.0
  C  C196  1  0.57258000  0.86631000  0.83419000  1.0
  C  C197  1  0.59306000  0.29936000  0.83423000  1.0
  C  C198  1  0.86641000  0.59303000  0.83430000  1.0
  C  C199  1  0.29946000  0.57267000  0.83431000  1.0
  C  C200  1  0.47754000  0.19623000  0.18209000  1.0
  C  C201  1  0.34052000  0.62189000  0.18199000  1.0
  C  C202  1  0.19609000  0.34059000  0.18206000  1.0
  C  C203  1  0.62181000  0.47752000  0.18198000  1.0
  C  C204  1  0.52247000  0.80377000  0.81791000  1.0
  C  C205  1  0.65947000  0.37811000  0.81802000  1.0
  C  C206  1  0.80391000  0.65941000  0.81794000  1.0
  C  C207  1  0.37818000  0.52248000  0.81803000  1.0
  C  C208  1  0.21568000  0.05116000  0.34425000  1.0
  C  C209  1  0.44004000  0.60467000  0.34440000  1.0
  C  C210  1  0.05092000  0.44007000  0.34427000  1.0
  C  C211  1  0.60458000  0.21565000  0.34427000  1.0
  C  C212  1  0.78432000  0.94884000  0.65576000  1.0
  C  C213  1  0.55995000  0.39533000  0.65560000  1.0
  C  C214  1  0.94908000  0.55993000  0.65573000  1.0
  C  C215  1  0.39543000  0.78435000  0.65573000  1.0
  C  C216  1  0.19335000  0.04356000  0.28320000  1.0
  C  C217  1  0.52342000  0.67329000  0.28336000  1.0
  C  C218  1  0.04342000  0.52344000  0.28318000  1.0
  C  C219  1  0.67324000  0.19332000  0.28325000  1.0
  C  C220  1  0.80665000  0.95643000  0.71680000  1.0
  C  C221  1  0.47658000  0.32671000  0.71664000  1.0
  C  C222  1  0.95658000  0.47657000  0.71682000  1.0
  C  C223  1  0.32677000  0.80668000  0.71675000  1.0
  C  C224  1  0.11310000  0.06528000  0.27963000  1.0
  C  C225  1  0.60727000  0.65514000  0.27972000  1.0
  C  C226  1  0.06520000  0.60722000  0.27965000  1.0
  C  C227  1  0.65511000  0.11306000  0.27968000  1.0
  C  C228  1  0.88691000  0.93471000  0.72037000  1.0
  C  C229  1  0.39273000  0.34486000  0.72028000  1.0
  C  C230  1  0.93480000  0.39279000  0.72035000  1.0
  C  C231  1  0.34489000  0.88694000  0.72032000  1.0
  C  C232  1  0.05494000  0.09415000  0.34054000  1.0
  C  C233  1  0.60450000  0.56538000  0.34062000  1.0
  C  C234  1  0.09396000  0.60443000  0.34064000  1.0
  C  C235  1  0.56533000  0.05489000  0.34061000  1.0
  C  C236  1  0.94506000  0.90585000  0.65946000  1.0
  C  C237  1  0.39549000  0.43463000  0.65938000  1.0
  C  C238  1  0.90603000  0.39557000  0.65937000  1.0
  C  C239  1  0.43468000  0.94511000  0.65939000  1.0
  C  C240  1  0.07757000  0.10266000  0.40061000  1.0
  C  C241  1  0.52175000  0.49680000  0.40073000  1.0
  C  C242  1  0.10240000  0.52171000  0.40073000  1.0
  C  C243  1  0.49673000  0.07752000  0.40069000  1.0
  C  C244  1  0.92243000  0.89733000  0.59938000  1.0
  C  C245  1  0.47825000  0.50320000  0.59927000  1.0
  C  C246  1  0.89759000  0.47829000  0.59928000  1.0
  C  C247  1  0.50327000  0.92247000  0.59931000  1.0
  C  C248  1  0.15868000  0.08264000  0.40363000  1.0
  C  C249  1  0.43763000  0.51380000  0.40377000  1.0
  C  C250  1  0.08237000  0.43765000  0.40370000  1.0
  C  C251  1  0.51369000  0.15861000  0.40371000  1.0
  C  C252  1  0.84132000  0.91735000  0.59637000  1.0
  C  C253  1  0.56237000  0.48619000  0.59623000  1.0
  C  C254  1  0.91763000  0.56236000  0.59630000  1.0
  C  C255  1  0.48632000  0.84138000  0.59629000  1.0
  C  C256  1  0.18245000  0.09463000  0.46763000  1.0
  C  C257  1  0.34980000  0.43787000  0.46771000  1.0
  C  C258  1  0.09436000  0.34989000  0.46764000  1.0
  C  C259  1  0.43764000  0.18226000  0.46777000  1.0
  C  C260  1  0.81755000  0.90537000  0.53237000  1.0
  C  C261  1  0.65020000  0.56213000  0.53228000  1.0
  C  C262  1  0.90563000  0.65011000  0.53237000  1.0
  C  C263  1  0.56236000  0.81773000  0.53224000  1.0
  C  C264  1  0.08663000  0.05454000  0.21491000  1.0
  C  C265  1  0.69849000  0.73063000  0.21494000  1.0
  C  C266  1  0.05452000  0.69842000  0.21489000  1.0
  C  C267  1  0.73062000  0.08660000  0.21499000  1.0
  C  C268  1  0.91336000  0.94546000  0.78510000  1.0
  C  C269  1  0.30150000  0.26938000  0.78506000  1.0
  C  C270  1  0.94548000  0.30158000  0.78511000  1.0
  C  C271  1  0.26938000  0.91340000  0.78501000  1.0
  C  C272  1  0.16298000  0.02942000  0.14927000  1.0
  C  C273  1  0.68783000  0.82136000  0.14926000  1.0
  C  C274  1  0.02951000  0.68779000  0.14917000  1.0
  C  C275  1  0.82139000  0.16293000  0.14928000  1.0
  C  C276  1  0.83701000  0.97057000  0.85074000  1.0
  C  C277  1  0.31216000  0.17864000  0.85074000  1.0
  C  C278  1  0.97049000  0.31220000  0.85083000  1.0
  C  C279  1  0.17861000  0.83707000  0.85072000  1.0
  C  C280  1  0.06877000  0.14596000  0.15753000  1.0
  C  C281  1  0.77372000  0.69657000  0.15754000  1.0
  C  C282  1  0.14604000  0.77360000  0.15753000  1.0
  C  C283  1  0.69659000  0.06858000  0.15766000  1.0
  C  C284  1  0.93123000  0.85404000  0.84247000  1.0
  C  C285  1  0.22628000  0.30344000  0.84246000  1.0
  C  C286  1  0.85397000  0.22640000  0.84246000  1.0
  C  C287  1  0.30341000  0.93142000  0.84234000  1.0
  C  C288  1  0.99724000  0.97634000  0.27306000  1.0
  C  C289  1  0.72972000  0.75070000  0.27307000  1.0
  C  C290  1  0.97624000  0.72959000  0.27300000  1.0
  C  C291  1  0.75071000  0.99734000  0.27319000  1.0
  C  C292  1  0.00276000  0.02366000  0.72694000  1.0
  C  C293  1  0.27028000  0.24931000  0.72692000  1.0
  C  C294  1  0.02376000  0.27041000  0.72699000  1.0
  C  C295  1  0.24929000  0.00266000  0.72681000  1.0
  S  S296  1  0.31444000  0.01702000  0.35293000  1.0
  S  S297  1  0.33262000  0.63016000  0.35299000  1.0
  S  S298  1  0.01685000  0.33268000  0.35286000  1.0
  S  S299  1  0.63007000  0.31442000  0.35288000  1.0
  S  S300  1  0.68556000  0.98298000  0.64707000  1.0
  S  S301  1  0.66738000  0.36984000  0.64701000  1.0
  S  S302  1  0.98316000  0.66732000  0.64713000  1.0
  S  S303  1  0.36993000  0.68557000  0.64712000  1.0
  I  I304  1  0.18616000  0.82788000  0.61278000  1.0
  I  I305  1  0.20129000  0.55946000  0.61278000  1.0
  I  I306  1  0.82787000  0.20107000  0.61271000  1.0
  I  I307  1  0.55939000  0.18588000  0.61276000  1.0
  I  I308  1  0.81384000  0.17213000  0.38722000  1.0
  I  I309  1  0.79870000  0.44054000  0.38722000  1.0
  I  I310  1  0.17213000  0.79893000  0.38729000  1.0
  I  I311  1  0.44061000  0.81412000  0.38724000  1.0
  O  O312  1  0.55349000  0.34445000  0.00009000  1.0
  O  O313  1  0.44651000  0.65555000  0.99991000  1.0
  O  O314  1  0.34447000  0.44645000  0.00006000  1.0
  O  O315  1  0.65553000  0.55355000  0.99994000  1.0
  O  O316  1  0.38638000  0.33389000  0.12684000  1.0
  O  O317  1  0.48682000  0.53943000  0.12667000  1.0
  O  O318  1  0.33408000  0.48676000  0.12676000  1.0
  O  O319  1  0.53913000  0.38659000  0.12680000  1.0
  O  O320  1  0.61362000  0.66611000  0.87317000  1.0
  O  O321  1  0.51318000  0.46058000  0.87333000  1.0
  O  O322  1  0.66592000  0.51324000  0.87324000  1.0
  O  O323  1  0.46087000  0.61342000  0.87320000  1.0
