# generated using pymatgen
data_ZnH12C14(NO)4
_symmetry_space_group_name_H-M   'P 1'
_cell_length_a   7.75120000
_cell_length_b   12.23470000
_cell_length_c   16.64170000
_cell_angle_alpha   90.00000000
_cell_angle_beta   90.00000000
_cell_angle_gamma   99.56820000
_symmetry_Int_Tables_number   1
_chemical_formula_structural   ZnH12C14(NO)4
_chemical_formula_sum   'Zn4 H48 C56 N16 O16'
_cell_volume   1556.23731972
_cell_formula_units_Z   4
loop_
 _symmetry_equiv_pos_site_id
 _symmetry_equiv_pos_as_xyz
  1  'x, y, z'
loop_
 _atom_site_type_symbol
 _atom_site_label
 _atom_site_symmetry_multiplicity
 _atom_site_fract_x
 _atom_site_fract_y
 _atom_site_fract_z
 _atom_site_occupancy
  Zn  Zn0  1  0.84332000  0.92069000  0.68622000  1.0
  Zn  Zn1  1  0.15668000  0.57932000  0.18622000  1.0
  Zn  Zn2  1  0.15668000  0.07931000  0.31378000  1.0
  Zn  Zn3  1  0.84334000  0.42068000  0.81378000  1.0
  H  H4  1  0.14662000  0.88580000  0.78462000  1.0
  H  H5  1  0.85339000  0.61420000  0.28461000  1.0
  H  H6  1  0.85337000  0.11420000  0.21537000  1.0
  H  H7  1  0.14663000  0.38580000  0.71538000  1.0
  H  H8  1  0.84325000  0.66372000  0.72169000  1.0
  H  H9  1  0.15674000  0.83628000  0.22170000  1.0
  H  H10  1  0.15674000  0.33627000  0.27831000  1.0
  H  H11  1  0.84327000  0.16373000  0.77831000  1.0
  H  H12  1  0.61357000  0.44156000  0.55956000  1.0
  H  H13  1  0.38640000  0.05843000  0.05955000  1.0
  H  H14  1  0.38645000  0.55844000  0.44044000  1.0
  H  H15  1  0.61355000  0.94156000  0.94044000  1.0
  H  H16  1  0.49822000  0.38344000  0.42379000  1.0
  H  H17  1  0.50178000  0.11657000  0.92379000  1.0
  H  H18  1  0.50180000  0.61656000  0.57621000  1.0
  H  H19  1  0.49822000  0.88343000  0.07621000  1.0
  H  H20  1  0.51336000  0.19379000  0.37372000  1.0
  H  H21  1  0.48665000  0.30622000  0.87372000  1.0
  H  H22  1  0.48665000  0.80621000  0.62629000  1.0
  H  H23  1  0.51336000  0.69379000  0.12629000  1.0
  H  H24  1  0.62471000  0.05795000  0.46407000  1.0
  H  H25  1  0.37531000  0.44205000  0.96408000  1.0
  H  H26  1  0.37529000  0.94204000  0.53593000  1.0
  H  H27  1  0.62473000  0.55795000  0.03593000  1.0
  H  H28  1  0.46968000  0.99054000  0.78399000  1.0
  H  H29  1  0.53032000  0.50948000  0.28397000  1.0
  H  H30  1  0.53032000  0.00946000  0.21599000  1.0
  H  H31  1  0.46969000  0.49054000  0.71600000  1.0
  H  H32  1  0.45099000  0.18571000  0.70331000  1.0
  H  H33  1  0.54899000  0.31429000  0.20330000  1.0
  H  H34  1  0.54901000  0.81429000  0.29669000  1.0
  H  H35  1  0.45102000  0.68572000  0.79668000  1.0
  H  H36  1  0.10555000  0.16057000  0.65411000  1.0
  H  H37  1  0.89444000  0.33942000  0.15411000  1.0
  H  H38  1  0.89445000  0.83945000  0.34590000  1.0
  H  H39  1  0.10558000  0.66058000  0.84589000  1.0
  H  H40  1  0.93349000  0.52223000  0.62540000  1.0
  H  H41  1  0.06649000  0.97777000  0.12542000  1.0
  H  H42  1  0.06649000  0.47776000  0.37460000  1.0
  H  H43  1  0.93349000  0.02223000  0.87459000  1.0
  H  H44  1  0.98360000  0.62934000  0.47749000  1.0
  H  H45  1  0.01640000  0.87067000  0.97750000  1.0
  H  H46  1  0.01639000  0.37065000  0.52251000  1.0
  H  H47  1  0.98357000  0.12931000  0.02251000  1.0
  H  H48  1  0.92667000  0.84072000  0.51134000  1.0
  H  H49  1  0.07335000  0.65930000  0.01134000  1.0
  H  H50  1  0.07333000  0.15928000  0.48866000  1.0
  H  H51  1  0.92666000  0.34069000  0.98867000  1.0
  C  C52  1  0.73516000  0.08899000  0.61713000  1.0
  C  C53  1  0.26484000  0.41100000  0.11713000  1.0
  C  C54  1  0.26485000  0.91101000  0.38287000  1.0
  C  C55  1  0.73517000  0.58900000  0.88287000  1.0
  C  C56  1  0.68190000  0.17314000  0.56160000  1.0
  C  C57  1  0.31808000  0.32684000  0.06159000  1.0
  C  C58  1  0.31811000  0.82685000  0.43841000  1.0
  C  C59  1  0.68190000  0.67314000  0.93840000  1.0
  C  C60  1  0.68286000  0.28268000  0.58827000  1.0
  C  C61  1  0.31711000  0.21732000  0.08827000  1.0
  C  C62  1  0.31715000  0.71732000  0.41173000  1.0
  C  C63  1  0.68285000  0.78267000  0.91173000  1.0
  C  C64  1  0.61351000  0.35698000  0.53880000  1.0
  C  C65  1  0.38648000  0.14301000  0.03878000  1.0
  C  C66  1  0.38650000  0.64301000  0.46121000  1.0
  C  C67  1  0.61349000  0.85698000  0.96121000  1.0
  C  C68  1  0.55133000  0.32476000  0.46208000  1.0
  C  C69  1  0.44865000  0.17524000  0.96208000  1.0
  C  C70  1  0.44867000  0.67524000  0.53792000  1.0
  C  C71  1  0.55133000  0.82475000  0.03792000  1.0
  C  C72  1  0.55875000  0.21817000  0.43409000  1.0
  C  C73  1  0.44126000  0.28183000  0.93409000  1.0
  C  C74  1  0.44126000  0.78183000  0.56592000  1.0
  C  C75  1  0.55875000  0.71817000  0.06591000  1.0
  C  C76  1  0.62195000  0.14240000  0.48415000  1.0
  C  C77  1  0.37805000  0.35761000  0.98415000  1.0
  C  C78  1  0.37806000  0.85760000  0.51586000  1.0
  C  C79  1  0.62196000  0.64240000  0.01586000  1.0
  C  C80  1  0.35956000  0.01955000  0.75562000  1.0
  C  C81  1  0.64044000  0.48045000  0.25560000  1.0
  C  C82  1  0.64044000  0.98044000  0.24438000  1.0
  C  C83  1  0.35958000  0.51956000  0.74438000  1.0
  C  C84  1  0.34686000  0.11650000  0.71367000  1.0
  C  C85  1  0.65313000  0.38351000  0.21366000  1.0
  C  C86  1  0.65314000  0.88350000  0.28632000  1.0
  C  C87  1  0.34689000  0.61651000  0.78632000  1.0
  C  C88  1  0.17228000  0.10428000  0.68811000  1.0
  C  C89  1  0.82773000  0.39571000  0.18810000  1.0
  C  C90  1  0.82772000  0.89573000  0.31189000  1.0
  C  C91  1  0.17230000  0.60429000  0.81189000  1.0
  C  C92  1  0.92281000  0.60621000  0.60796000  1.0
  C  C93  1  0.07717000  0.89380000  0.10797000  1.0
  C  C94  1  0.07718000  0.39379000  0.39204000  1.0
  C  C95  1  0.92282000  0.10620000  0.89203000  1.0
  C  C96  1  0.94811000  0.66132000  0.53471000  1.0
  C  C97  1  0.05189000  0.83870000  0.03472000  1.0
  C  C98  1  0.05188000  0.33867000  0.46529000  1.0
  C  C99  1  0.94809000  0.16130000  0.96529000  1.0
  C  C100  1  0.91988000  0.76949000  0.55076000  1.0
  C  C101  1  0.08013000  0.73052000  0.05076000  1.0
  C  C102  1  0.08012000  0.23051000  0.44925000  1.0
  C  C103  1  0.91987000  0.26948000  0.94925000  1.0
  C  C104  1  0.77917000  0.32493000  0.66355000  1.0
  C  C105  1  0.22080000  0.17506000  0.16354000  1.0
  C  C106  1  0.22083000  0.67506000  0.33646000  1.0
  C  C107  1  0.77917000  0.82493000  0.83645000  1.0
  N  N108  1  0.08351000  0.00633000  0.71330000  1.0
  N  N109  1  0.91649000  0.49366000  0.21330000  1.0
  N  N110  1  0.91648000  0.99368000  0.28670000  1.0
  N  N111  1  0.08354000  0.50634000  0.78670000  1.0
  N  N112  1  0.19973000  0.95603000  0.75363000  1.0
  N  N113  1  0.80027000  0.54397000  0.25362000  1.0
  N  N114  1  0.80026000  0.04397000  0.24636000  1.0
  N  N115  1  0.19974000  0.45604000  0.74637000  1.0
  N  N116  1  0.87886000  0.77930000  0.62871000  1.0
  N  N117  1  0.12113000  0.72071000  0.12871000  1.0
  N  N118  1  0.12113000  0.22069000  0.37129000  1.0
  N  N119  1  0.87888000  0.27929000  0.87130000  1.0
  N  N120  1  0.88157000  0.67929000  0.66260000  1.0
  N  N121  1  0.11841000  0.82071000  0.16262000  1.0
  N  N122  1  0.11842000  0.32072000  0.33739000  1.0
  N  N123  1  0.88159000  0.17929000  0.83739000  1.0
  O  O124  1  0.76992000  0.99808000  0.58712000  1.0
  O  O125  1  0.23007000  0.50192000  0.08712000  1.0
  O  O126  1  0.23008000  0.00192000  0.41288000  1.0
  O  O127  1  0.76993000  0.49808000  0.91288000  1.0
  O  O128  1  0.74020000  0.10602000  0.69233000  1.0
  O  O129  1  0.25978000  0.39397000  0.19233000  1.0
  O  O130  1  0.25981000  0.89397000  0.30767000  1.0
  O  O131  1  0.74023000  0.60603000  0.80767000  1.0
  O  O132  1  0.69297000  0.36743000  0.71866000  1.0
  O  O133  1  0.30701000  0.13257000  0.21865000  1.0
  O  O134  1  0.30703000  0.63256000  0.28135000  1.0
  O  O135  1  0.69297000  0.86743000  0.78135000  1.0
  O  O136  1  0.94113000  0.32285000  0.66576000  1.0
  O  O137  1  0.05885000  0.17714000  0.16575000  1.0
  O  O138  1  0.05888000  0.67715000  0.33425000  1.0
  O  O139  1  0.94112000  0.82286000  0.83425000  1.0
