# generated using pymatgen
data_HoAgH8C12(N2O5)2
_symmetry_space_group_name_H-M   'P 1'
_cell_length_a   6.72396000
_cell_length_b   9.27035000
_cell_length_c   14.43512407
_cell_angle_alpha   78.05789667
_cell_angle_beta   81.48140858
_cell_angle_gamma   76.55300000
_symmetry_Int_Tables_number   1
_chemical_formula_structural   HoAgH8C12(N2O5)2
_chemical_formula_sum   'Ho2 Ag2 H16 C24 N8 O20'
_cell_volume   851.44146141
_cell_formula_units_Z   2
loop_
 _symmetry_equiv_pos_site_id
 _symmetry_equiv_pos_as_xyz
  1  'x, y, z'
loop_
 _atom_site_type_symbol
 _atom_site_label
 _atom_site_symmetry_multiplicity
 _atom_site_fract_x
 _atom_site_fract_y
 _atom_site_fract_z
 _atom_site_occupancy
  Ho  Ho0  1  0.18519000  0.51147000  0.72703000  1.0
  Ho  Ho1  1  0.81481000  0.48852000  0.27297000  1.0
  Ag  Ag2  1  0.79361000  0.17723000  0.80151000  1.0
  Ag  Ag3  1  0.20639000  0.82276000  0.19848000  1.0
  H  H4  1  0.48734000  0.73308000  0.83856000  1.0
  H  H5  1  0.51266000  0.26691000  0.16145000  1.0
  H  H6  1  0.39119000  0.66019000  0.01615000  1.0
  H  H7  1  0.60881000  0.33980000  0.98386000  1.0
  H  H8  1  0.81527000  0.04740000  0.61673000  1.0
  H  H9  1  0.18471000  0.95260000  0.38327000  1.0
  H  H10  1  0.83158000  0.13759000  0.43819000  1.0
  H  H11  1  0.16843000  0.86241000  0.56180000  1.0
  H  H12  1  0.03344000  0.61360000  0.91757000  1.0
  H  H13  1  0.96656000  0.38640000  0.08243000  1.0
  H  H14  1  0.16774000  0.44624000  0.93128000  1.0
  H  H15  1  0.83226000  0.55375000  0.06872000  1.0
  H  H16  1  0.88503000  0.76062000  0.70701000  1.0
  H  H17  1  0.11496000  0.23938000  0.29299000  1.0
  H  H18  1  0.99293000  0.82007000  0.77814000  1.0
  H  H19  1  0.00706000  0.17994000  0.22186000  1.0
  C  C20  1  0.41835000  0.81854000  0.88244000  1.0
  C  C21  1  0.58166000  0.18146000  0.11756000  1.0
  C  C22  1  0.36431000  0.77748000  0.98023000  1.0
  C  C23  1  0.63571000  0.22252000  0.01977000  1.0
  C  C24  1  0.24376000  0.02783000  0.99111000  1.0
  C  C25  1  0.75623000  0.97216000  0.00889000  1.0
  C  C26  1  0.29754000  0.06700000  0.89289000  1.0
  C  C27  1  0.70246000  0.93301000  0.10711000  1.0
  C  C28  1  0.25562000  0.22735000  0.84027000  1.0
  C  C29  1  0.74438000  0.77265000  0.15973000  1.0
  C  C30  1  0.14586000  0.14257000  0.05407000  1.0
  C  C31  1  0.85414000  0.85741000  0.94593000  1.0
  C  C32  1  0.79756000  0.16667000  0.58584000  1.0
  C  C33  1  0.20245000  0.83333000  0.41415000  1.0
  C  C34  1  0.80796000  0.21581000  0.48759000  1.0
  C  C35  1  0.19204000  0.78419000  0.51241000  1.0
  C  C36  1  0.75602000  0.46098000  0.51015000  1.0
  C  C37  1  0.24401000  0.53902000  0.48985000  1.0
  C  C38  1  0.74032000  0.41195000  0.60903000  1.0
  C  C39  1  0.25967000  0.58805000  0.39098000  1.0
  C  C40  1  0.68955000  0.52155000  0.67817000  1.0
  C  C41  1  0.31044000  0.47846000  0.32184000  1.0
  C  C42  1  0.73540000  0.62659000  0.46540000  1.0
  C  C43  1  0.26460000  0.37342000  0.53461000  1.0
  N  N44  1  0.38839000  0.96273000  0.83898000  1.0
  N  N45  1  0.61160000  0.03728000  0.16102000  1.0
  N  N46  1  0.28027000  0.88190000  0.03385000  1.0
  N  N47  1  0.71974000  0.11810000  0.96615000  1.0
  N  N48  1  0.76578000  0.26370000  0.64656000  1.0
  N  N49  1  0.23421000  0.73630000  0.35344000  1.0
  N  N50  1  0.79086000  0.36232000  0.45017000  1.0
  N  N51  1  0.20914000  0.63768000  0.54983000  1.0
  O  O52  1  0.07468000  0.28929000  0.81840000  1.0
  O  O53  1  0.92532000  0.71072000  0.18159000  1.0
  O  O54  1  0.40146000  0.29765000  0.81583000  1.0
  O  O55  1  0.59854000  0.70236000  0.18416000  1.0
  O  O56  1  0.14396000  0.28075000  0.02072000  1.0
  O  O57  1  0.85604000  0.71922000  0.97927000  1.0
  O  O58  1  0.06949000  0.09211000  0.13688000  1.0
  O  O59  1  0.93053000  0.90790000  0.86312000  1.0
  O  O60  1  0.83733000  0.55104000  0.71069000  1.0
  O  O61  1  0.16267000  0.44896000  0.28932000  1.0
  O  O62  1  0.50148000  0.56947000  0.70372000  1.0
  O  O63  1  0.49850000  0.43054000  0.29629000  1.0
  O  O64  1  0.71423000  0.71994000  0.51857000  1.0
  O  O65  1  0.28576000  0.28008000  0.48143000  1.0
  O  O66  1  0.74277000  0.65283000  0.37384000  1.0
  O  O67  1  0.25724000  0.34717000  0.62616000  1.0
  O  O68  1  0.15030000  0.54350000  0.88673000  1.0
  O  O69  1  0.84968000  0.45649000  0.11327000  1.0
  O  O70  1  0.02007000  0.77046000  0.71959000  1.0
  O  O71  1  0.97992000  0.22953000  0.28042000  1.0
