# generated using pymatgen
data_AgBH7(C2N3)3
_symmetry_space_group_name_H-M   'P 1'
_cell_length_a   6.57139000
_cell_length_b   12.71990000
_cell_length_c   12.96860000
_cell_angle_alpha   90.00000000
_cell_angle_beta   89.99990000
_cell_angle_gamma   89.99970000
_symmetry_Int_Tables_number   1
_chemical_formula_structural   AgBH7(C2N3)3
_chemical_formula_sum   'Ag4 B4 H28 C24 N36'
_cell_volume   1084.01186247
_cell_formula_units_Z   4
loop_
 _symmetry_equiv_pos_site_id
 _symmetry_equiv_pos_as_xyz
  1  'x, y, z'
loop_
 _atom_site_type_symbol
 _atom_site_label
 _atom_site_symmetry_multiplicity
 _atom_site_fract_x
 _atom_site_fract_y
 _atom_site_fract_z
 _atom_site_occupancy
  Ag  Ag0  1  0.96606000  0.21593000  0.10834000  1.0
  Ag  Ag1  1  0.46606000  0.78407000  0.89166000  1.0
  Ag  Ag2  1  0.46605000  0.71593000  0.39166000  1.0
  Ag  Ag3  1  0.96606000  0.28407000  0.60834000  1.0
  B  B4  1  0.69146000  0.02719000  0.26235000  1.0
  B  B5  1  0.19146000  0.97281000  0.73765000  1.0
  B  B6  1  0.19146000  0.52719000  0.23765000  1.0
  B  B7  1  0.69146000  0.47281000  0.76235000  1.0
  H  H8  1  0.57887000  0.53860000  0.79858000  1.0
  H  H9  1  0.07887000  0.46140000  0.20142000  1.0
  H  H10  1  0.07887000  0.03860000  0.70142000  1.0
  H  H11  1  0.57887000  0.96140000  0.29858000  1.0
  H  H12  1  0.20539000  0.43327000  0.00143000  1.0
  H  H13  1  0.70538000  0.56672000  0.99857000  1.0
  H  H14  1  0.70538000  0.93327000  0.49857000  1.0
  H  H15  1  0.20538000  0.06672000  0.50143000  1.0
  H  H16  1  0.67643000  0.28296000  0.89509000  1.0
  H  H17  1  0.17643000  0.71704000  0.10491000  1.0
  H  H18  1  0.17642000  0.78296000  0.60491000  1.0
  H  H19  1  0.67642000  0.21704000  0.39510000  1.0
  H  H20  1  0.15892000  0.96255000  0.00440000  1.0
  H  H21  1  0.65892000  0.03746000  0.99559000  1.0
  H  H22  1  0.65892000  0.46255000  0.49560000  1.0
  H  H23  1  0.15892000  0.53745000  0.50440000  1.0
  H  H24  1  0.70949000  0.81543000  0.18255000  1.0
  H  H25  1  0.20948000  0.18457000  0.81745000  1.0
  H  H26  1  0.20949000  0.31543000  0.31745000  1.0
  H  H27  1  0.70948000  0.68457000  0.68255000  1.0
  H  H28  1  0.48042000  0.33628000  0.10903000  1.0
  H  H29  1  0.98042000  0.66372000  0.89097000  1.0
  H  H30  1  0.98041000  0.83628000  0.39097000  1.0
  H  H31  1  0.48042000  0.16372000  0.60903000  1.0
  H  H32  1  0.25837000  0.05894000  0.24539000  1.0
  H  H33  1  0.75837000  0.94106000  0.75461000  1.0
  H  H34  1  0.75837000  0.55894000  0.25461000  1.0
  H  H35  1  0.25837000  0.44106000  0.74539000  1.0
  C  C36  1  0.06930000  0.41523000  0.95737000  1.0
  C  C37  1  0.56930000  0.58477000  0.04263000  1.0
  C  C38  1  0.56930000  0.91523000  0.54263000  1.0
  C  C39  1  0.06930000  0.08477000  0.45737000  1.0
  C  C40  1  0.80282000  0.33770000  0.90364000  1.0
  C  C41  1  0.30282000  0.66230000  0.09636000  1.0
  C  C42  1  0.30282000  0.83770000  0.59636000  1.0
  C  C43  1  0.80281000  0.16230000  0.40365000  1.0
  C  C44  1  0.03738000  0.94811000  0.05938000  1.0
  C  C45  1  0.53738000  0.05190000  0.94061000  1.0
  C  C46  1  0.53737000  0.44811000  0.44062000  1.0
  C  C47  1  0.03738000  0.55190000  0.55938000  1.0
  C  C48  1  0.81251000  0.87194000  0.14808000  1.0
  C  C49  1  0.31250000  0.12806000  0.85192000  1.0
  C  C50  1  0.31251000  0.37194000  0.35192000  1.0
  C  C51  1  0.81250000  0.62806000  0.64808000  1.0
  C  C52  1  0.47090000  0.25929000  0.14487000  1.0
  C  C53  1  0.97091000  0.74071000  0.85513000  1.0
  C  C54  1  0.97089000  0.75929000  0.35513000  1.0
  C  C55  1  0.47090000  0.24071000  0.64487000  1.0
  C  C56  1  0.35620000  0.12007000  0.21458000  1.0
  C  C57  1  0.85620000  0.87992000  0.78542000  1.0
  C  C58  1  0.85620000  0.62007000  0.28542000  1.0
  C  C59  1  0.35620000  0.37993000  0.71458000  1.0
  N  N60  1  0.95053000  0.32905000  0.97456000  1.0
  N  N61  1  0.45053000  0.67095000  0.02544000  1.0
  N  N62  1  0.45053000  0.82905000  0.52544000  1.0
  N  N63  1  0.95053000  0.17095000  0.47456000  1.0
  N  N64  1  0.81637000  0.97388000  0.17680000  1.0
  N  N65  1  0.31636000  0.02612000  0.82320000  1.0
  N  N66  1  0.31636000  0.47388000  0.32320000  1.0
  N  N67  1  0.81637000  0.52612000  0.67680000  1.0
  N  N68  1  0.96084000  0.02414000  0.11876000  1.0
  N  N69  1  0.46084000  0.97586000  0.88124000  1.0
  N  N70  1  0.46084000  0.52414000  0.38124000  1.0
  N  N71  1  0.96084000  0.47586000  0.61876000  1.0
  N  N72  1  0.95067000  0.85216000  0.07502000  1.0
  N  N73  1  0.45066000  0.14784000  0.92498000  1.0
  N  N74  1  0.45067000  0.35216000  0.42499000  1.0
  N  N75  1  0.95066000  0.64784000  0.57502000  1.0
  N  N76  1  0.55981000  0.11653000  0.21878000  1.0
  N  N77  1  0.05981000  0.88347000  0.78123000  1.0
  N  N78  1  0.05980000  0.61653000  0.28122000  1.0
  N  N79  1  0.55981000  0.38347000  0.71877000  1.0
  N  N80  1  0.63567000  0.20635000  0.17412000  1.0
  N  N81  1  0.13567000  0.79365000  0.82588000  1.0
  N  N82  1  0.13566000  0.70635000  0.32588000  1.0
  N  N83  1  0.63567000  0.29365000  0.67412000  1.0
  N  N84  1  0.29408000  0.20869000  0.16868000  1.0
  N  N85  1  0.79408000  0.79131000  0.83132000  1.0
  N  N86  1  0.79407000  0.70869000  0.33132000  1.0
  N  N87  1  0.29408000  0.29131000  0.66868000  1.0
  N  N88  1  0.83225000  0.07530000  0.34629000  1.0
  N  N89  1  0.33225000  0.92470000  0.65372000  1.0
  N  N90  1  0.33225000  0.57530000  0.15372000  1.0
  N  N91  1  0.83226000  0.42470000  0.84628000  1.0
  N  N92  1  0.00292000  0.47575000  0.88073000  1.0
  N  N93  1  0.50292000  0.52424000  0.11927000  1.0
  N  N94  1  0.50292000  0.97575000  0.61927000  1.0
  N  N95  1  0.00292000  0.02424000  0.38073000  1.0
