# generated using pymatgen
data_CuH13C23(NO2)2
_symmetry_space_group_name_H-M   'P 1'
_cell_length_a   11.87620000
_cell_length_b   11.87630000
_cell_length_c   16.63990000
_cell_angle_alpha   73.12090000
_cell_angle_beta   73.12080000
_cell_angle_gamma   80.23460000
_symmetry_Int_Tables_number   1
_chemical_formula_structural   CuH13C23(NO2)2
_chemical_formula_sum   'Cu4 H52 C92 N8 O16'
_cell_volume   2139.76993863
_cell_formula_units_Z   4
loop_
 _symmetry_equiv_pos_site_id
 _symmetry_equiv_pos_as_xyz
  1  'x, y, z'
loop_
 _atom_site_type_symbol
 _atom_site_label
 _atom_site_symmetry_multiplicity
 _atom_site_fract_x
 _atom_site_fract_y
 _atom_site_fract_z
 _atom_site_occupancy
  Cu  Cu0  1  0.18640000  0.39446000  0.46951000  1.0
  Cu  Cu1  1  0.60554000  0.81360000  0.03049000  1.0
  Cu  Cu2  1  0.81360000  0.60554000  0.53049000  1.0
  Cu  Cu3  1  0.39446000  0.18640000  0.96951000  1.0
  H  H4  1  0.20947000  0.52069000  0.77249000  1.0
  H  H5  1  0.47931000  0.79053000  0.72751000  1.0
  H  H6  1  0.79054000  0.47932000  0.22751000  1.0
  H  H7  1  0.52069000  0.20947000  0.27249000  1.0
  H  H8  1  0.08316000  0.57997000  0.66594000  1.0
  H  H9  1  0.42004000  0.91684000  0.83406000  1.0
  H  H10  1  0.91684000  0.42004000  0.33406000  1.0
  H  H11  1  0.57997000  0.08316000  0.16594000  1.0
  H  H12  1  0.09825000  0.17130000  0.85621000  1.0
  H  H13  1  0.82870000  0.90175000  0.64378000  1.0
  H  H14  1  0.90175000  0.82871000  0.14378000  1.0
  H  H15  1  0.17130000  0.09825000  0.35622000  1.0
  H  H16  1  0.79608000  0.33787000  0.75234000  1.0
  H  H17  1  0.66213000  0.20392000  0.74766000  1.0
  H  H18  1  0.20392000  0.66213000  0.24766000  1.0
  H  H19  1  0.33787000  0.79609000  0.25234000  1.0
  H  H20  1  0.07773000  0.05739000  0.75246000  1.0
  H  H21  1  0.94261000  0.92228000  0.74754000  1.0
  H  H22  1  0.92227000  0.94261000  0.24754000  1.0
  H  H23  1  0.05739000  0.07773000  0.25246000  1.0
  H  H24  1  0.22539000  0.13540000  0.57146000  1.0
  H  H25  1  0.86460000  0.77461000  0.92854000  1.0
  H  H26  1  0.77461000  0.86460000  0.42855000  1.0
  H  H27  1  0.13540000  0.22539000  0.07146000  1.0
  H  H28  1  0.34162000  0.03312000  0.68259000  1.0
  H  H29  1  0.96688000  0.65838000  0.81741000  1.0
  H  H30  1  0.65838000  0.96688000  0.31741000  1.0
  H  H31  1  0.03312000  0.34162000  0.18259000  1.0
  H  H32  1  0.44785000  0.15461000  0.73213000  1.0
  H  H33  1  0.84539000  0.55215000  0.76787000  1.0
  H  H34  1  0.55215000  0.84539000  0.26787000  1.0
  H  H35  1  0.15461000  0.44785000  0.23213000  1.0
  H  H36  1  0.16775000  0.67863000  0.41872000  1.0
  H  H37  1  0.32137000  0.83225000  0.08129000  1.0
  H  H38  1  0.83226000  0.32137000  0.58128000  1.0
  H  H39  1  0.67863000  0.16775000  0.91872000  1.0
  H  H40  1  0.27422000  0.82344000  0.44520000  1.0
  H  H41  1  0.17655000  0.72578000  0.05480000  1.0
  H  H42  1  0.72579000  0.17656000  0.55480000  1.0
  H  H43  1  0.82345000  0.27422000  0.94520000  1.0
  H  H44  1  0.41038000  0.74913000  0.54502000  1.0
  H  H45  1  0.25087000  0.58962000  0.95498000  1.0
  H  H46  1  0.58962000  0.25087000  0.45498000  1.0
  H  H47  1  0.74913000  0.41038000  0.04502000  1.0
  H  H48  1  0.49732000  0.57369000  0.64519000  1.0
  H  H49  1  0.42631000  0.50268000  0.85481000  1.0
  H  H50  1  0.50267000  0.42631000  0.35481000  1.0
  H  H51  1  0.57369000  0.49732000  0.14519000  1.0
  H  H52  1  0.50814000  0.35840000  0.71520000  1.0
  H  H53  1  0.64159000  0.49187000  0.78480000  1.0
  H  H54  1  0.49186000  0.64160000  0.28480000  1.0
  H  H55  1  0.35840000  0.50814000  0.21520000  1.0
  C  C56  1  0.24825000  0.30739000  0.87485000  1.0
  C  C57  1  0.69261000  0.75175000  0.62515000  1.0
  C  C58  1  0.75175000  0.69261000  0.12515000  1.0
  C  C59  1  0.30740000  0.24825000  0.37485000  1.0
  C  C60  1  0.16249000  0.34239000  0.81898000  1.0
  C  C61  1  0.65762000  0.83750000  0.68102000  1.0
  C  C62  1  0.83751000  0.65761000  0.18102000  1.0
  C  C63  1  0.34239000  0.16249000  0.31898000  1.0
  C  C64  1  0.15576000  0.45857000  0.76729000  1.0
  C  C65  1  0.54143000  0.84424000  0.73271000  1.0
  C  C66  1  0.84424000  0.54144000  0.23271000  1.0
  C  C67  1  0.45857000  0.15576000  0.26729000  1.0
  C  C68  1  0.08644000  0.49056000  0.70820000  1.0
  C  C69  1  0.50944000  0.91356000  0.79180000  1.0
  C  C70  1  0.91356000  0.50945000  0.29180000  1.0
  C  C71  1  0.49056000  0.08644000  0.20820000  1.0
  C  C72  1  0.02369000  0.40689000  0.69944000  1.0
  C  C73  1  0.59311000  0.97631000  0.80056000  1.0
  C  C74  1  0.97631000  0.59311000  0.30056000  1.0
  C  C75  1  0.40689000  0.02369000  0.19944000  1.0
  C  C76  1  0.02406000  0.29138000  0.75483000  1.0
  C  C77  1  0.70863000  0.97594000  0.74517000  1.0
  C  C78  1  0.97594000  0.70863000  0.24518000  1.0
  C  C79  1  0.29137000  0.02406000  0.25483000  1.0
  C  C80  1  0.09480000  0.26043000  0.81366000  1.0
  C  C81  1  0.73958000  0.90520000  0.68634000  1.0
  C  C82  1  0.90520000  0.73958000  0.18634000  1.0
  C  C83  1  0.26043000  0.09480000  0.31366000  1.0
  C  C84  1  0.94689000  0.20752000  0.75249000  1.0
  C  C85  1  0.79248000  0.05311000  0.74751000  1.0
  C  C86  1  0.05311000  0.79248000  0.24751000  1.0
  C  C87  1  0.20752000  0.94689000  0.25249000  1.0
  C  C88  1  0.82883000  0.24670000  0.75124000  1.0
  C  C89  1  0.75330000  0.17117000  0.74876000  1.0
  C  C90  1  0.17117000  0.75330000  0.24876000  1.0
  C  C91  1  0.24670000  0.82883000  0.25124000  1.0
  C  C92  1  0.98623000  0.08941000  0.75166000  1.0
  C  C93  1  0.91060000  0.01377000  0.74834000  1.0
  C  C94  1  0.01377000  0.91060000  0.24835000  1.0
  C  C95  1  0.08940000  0.98623000  0.25166000  1.0
  C  C96  1  0.96554000  0.43834000  0.62537000  1.0
  C  C97  1  0.56166000  0.03446000  0.87463000  1.0
  C  C98  1  0.03446000  0.56166000  0.37463000  1.0
  C  C99  1  0.43834000  0.96554000  0.12537000  1.0
  C  C100  1  0.27438000  0.18407000  0.59435000  1.0
  C  C101  1  0.81593000  0.72562000  0.90565000  1.0
  C  C102  1  0.72562000  0.81593000  0.40565000  1.0
  C  C103  1  0.18407000  0.27438000  0.09435000  1.0
  C  C104  1  0.33952000  0.12854000  0.65589000  1.0
  C  C105  1  0.87145000  0.66048000  0.84411000  1.0
  C  C106  1  0.66048000  0.87146000  0.34411000  1.0
  C  C107  1  0.12854000  0.33952000  0.15589000  1.0
  C  C108  1  0.40012000  0.19523000  0.68229000  1.0
  C  C109  1  0.80477000  0.59988000  0.81771000  1.0
  C  C110  1  0.59988000  0.80477000  0.31771000  1.0
  C  C111  1  0.19523000  0.40012000  0.18229000  1.0
  C  C112  1  0.39691000  0.31852000  0.64581000  1.0
  C  C113  1  0.68147000  0.60309000  0.85419000  1.0
  C  C114  1  0.60309000  0.68148000  0.35419000  1.0
  C  C115  1  0.31853000  0.39691000  0.14581000  1.0
  C  C116  1  0.32862000  0.36714000  0.58469000  1.0
  C  C117  1  0.63285000  0.67137000  0.91532000  1.0
  C  C118  1  0.67138000  0.63286000  0.41531000  1.0
  C  C119  1  0.36714000  0.32862000  0.08469000  1.0
  C  C120  1  0.31752000  0.49183000  0.54720000  1.0
  C  C121  1  0.50817000  0.68248000  0.95280000  1.0
  C  C122  1  0.68248000  0.50817000  0.45280000  1.0
  C  C123  1  0.49183000  0.31752000  0.04720000  1.0
  C  C124  1  0.23000000  0.64891000  0.45901000  1.0
  C  C125  1  0.35109000  0.77000000  0.04099000  1.0
  C  C126  1  0.77000000  0.35109000  0.54099000  1.0
  C  C127  1  0.64891000  0.23000000  0.95901000  1.0
  C  C128  1  0.28861000  0.72962000  0.47607000  1.0
  C  C129  1  0.27038000  0.71139000  0.02393000  1.0
  C  C130  1  0.71140000  0.27039000  0.52393000  1.0
  C  C131  1  0.72962000  0.28861000  0.97607000  1.0
  C  C132  1  0.36309000  0.68895000  0.53091000  1.0
  C  C133  1  0.31105000  0.63691000  0.96909000  1.0
  C  C134  1  0.63691000  0.31105000  0.46909000  1.0
  C  C135  1  0.68895000  0.36309000  0.03091000  1.0
  C  C136  1  0.37824000  0.56645000  0.56953000  1.0
  C  C137  1  0.43355000  0.62176000  0.93047000  1.0
  C  C138  1  0.62176000  0.43355000  0.43047000  1.0
  C  C139  1  0.56645000  0.37824000  0.06953000  1.0
  C  C140  1  0.44936000  0.51522000  0.62994000  1.0
  C  C141  1  0.48477000  0.55064000  0.87006000  1.0
  C  C142  1  0.55064000  0.48478000  0.37006000  1.0
  C  C143  1  0.51522000  0.44936000  0.12994000  1.0
  C  C144  1  0.45707000  0.39621000  0.66721000  1.0
  C  C145  1  0.60379000  0.54293000  0.83279000  1.0
  C  C146  1  0.54293000  0.60379000  0.33279000  1.0
  C  C147  1  0.39621000  0.45707000  0.16721000  1.0
  N  N148  1  0.24519000  0.53271000  0.49276000  1.0
  N  N149  1  0.46728000  0.75481000  0.00725000  1.0
  N  N150  1  0.75481000  0.46729000  0.50724000  1.0
  N  N151  1  0.53272000  0.24518000  0.99276000  1.0
  N  N152  1  0.26901000  0.30037000  0.56034000  1.0
  N  N153  1  0.69963000  0.73099000  0.93967000  1.0
  N  N154  1  0.73099000  0.69963000  0.43966000  1.0
  N  N155  1  0.30037000  0.26901000  0.06033000  1.0
  O  O156  1  0.00353000  0.38406000  0.56705000  1.0
  O  O157  1  0.61595000  0.99646000  0.93295000  1.0
  O  O158  1  0.99646000  0.61595000  0.43295000  1.0
  O  O159  1  0.38405000  0.00353000  0.06706000  1.0
  O  O160  1  0.87993000  0.52101000  0.62925000  1.0
  O  O161  1  0.47900000  0.12007000  0.87075000  1.0
  O  O162  1  0.12007000  0.47899000  0.37075000  1.0
  O  O163  1  0.52101000  0.87992000  0.12925000  1.0
  O  O164  1  0.24914000  0.20093000  0.92451000  1.0
  O  O165  1  0.79907000  0.75086000  0.57549000  1.0
  O  O166  1  0.75085000  0.79907000  0.07549000  1.0
  O  O167  1  0.20093000  0.24915000  0.42451000  1.0
  O  O168  1  0.31673000  0.38098000  0.86901000  1.0
  O  O169  1  0.61901000  0.68327000  0.63099000  1.0
  O  O170  1  0.68327000  0.61902000  0.13099000  1.0
  O  O171  1  0.38099000  0.31673000  0.36901000  1.0
