# generated using pymatgen
data_CdPH8C6NO5
_symmetry_space_group_name_H-M   'P 1'
_cell_length_a   5.26495000
_cell_length_b   11.93118292
_cell_length_c   14.59838524
_cell_angle_alpha   74.66358471
_cell_angle_beta   79.61692004
_cell_angle_gamma   77.27040561
_symmetry_Int_Tables_number   1
_chemical_formula_structural   CdPH8C6NO5
_chemical_formula_sum   'Cd4 P4 H32 C24 N4 O20'
_cell_volume   855.35552932
_cell_formula_units_Z   4
loop_
 _symmetry_equiv_pos_site_id
 _symmetry_equiv_pos_as_xyz
  1  'x, y, z'
loop_
 _atom_site_type_symbol
 _atom_site_label
 _atom_site_symmetry_multiplicity
 _atom_site_fract_x
 _atom_site_fract_y
 _atom_site_fract_z
 _atom_site_occupancy
  Cd  Cd0  1  0.27252000  0.14567000  0.01815000  1.0
  Cd  Cd1  1  0.43673000  0.35422000  0.48193000  1.0
  Cd  Cd2  1  0.72749000  0.85433000  0.98185000  1.0
  Cd  Cd3  1  0.56327000  0.64578000  0.51807000  1.0
  P  P4  1  0.83952000  0.96364000  0.13709000  1.0
  P  P5  1  0.94055000  0.53639000  0.36298000  1.0
  P  P6  1  0.16049000  0.03636000  0.86291000  1.0
  P  P7  1  0.05945000  0.46361000  0.63702000  1.0
  H  H8  1  0.52635000  0.30004000  0.85410000  1.0
  H  H9  1  0.68083000  0.19994000  0.64593000  1.0
  H  H10  1  0.47365000  0.69995000  0.14590000  1.0
  H  H11  1  0.31917000  0.80006000  0.35407000  1.0
  H  H12  1  0.74660000  0.21342000  0.91455000  1.0
  H  H13  1  0.87499000  0.28649000  0.58540000  1.0
  H  H14  1  0.25341000  0.78657000  0.08545000  1.0
  H  H15  1  0.12503000  0.71351000  0.41459000  1.0
  H  H16  1  0.82486000  0.11964000  0.47184000  1.0
  H  H17  1  0.41659000  0.37996000  0.02840000  1.0
  H  H18  1  0.17515000  0.88037000  0.52816000  1.0
  H  H19  1  0.58341000  0.62004000  0.97160000  1.0
  H  H20  1  0.93434000  0.95391000  0.38643000  1.0
  H  H21  1  0.27551000  0.54574000  0.11376000  1.0
  H  H22  1  0.06566000  0.04609000  0.61357000  1.0
  H  H23  1  0.72449000  0.45426000  0.88623000  1.0
  H  H24  1  0.22802000  0.10716000  0.25346000  1.0
  H  H25  1  0.58877000  0.39287000  0.24657000  1.0
  H  H26  1  0.77197000  0.89283000  0.74655000  1.0
  H  H27  1  0.41123000  0.60713000  0.75343000  1.0
  H  H28  1  0.15564000  0.26786000  0.34107000  1.0
  H  H29  1  0.76446000  0.23196000  0.15920000  1.0
  H  H30  1  0.84437000  0.73213000  0.65893000  1.0
  H  H31  1  0.23554000  0.76804000  0.84080000  1.0
  H  H32  1  0.78039000  0.84447000  0.29809000  1.0
  H  H33  1  0.92371000  0.65540000  0.20193000  1.0
  H  H34  1  0.21962000  0.15553000  0.70191000  1.0
  H  H35  1  0.07629000  0.34460000  0.79807000  1.0
  H  H36  1  0.30626000  0.93935000  0.20676000  1.0
  H  H37  1  0.45295000  0.56059000  0.29330000  1.0
  H  H38  1  0.69375000  0.06065000  0.79324000  1.0
  H  H39  1  0.54704000  0.43941000  0.70670000  1.0
  C  C40  1  0.70178000  0.11313000  0.42159000  1.0
  C  C41  1  0.23677000  0.38653000  0.07864000  1.0
  C  C42  1  0.29822000  0.88687000  0.57841000  1.0
  C  C43  1  0.76322000  0.61347000  0.92136000  1.0
  C  C44  1  0.76017000  0.02227000  0.37405000  1.0
  C  C45  1  0.15708000  0.47746000  0.12612000  1.0
  C  C46  1  0.23984000  0.97773000  0.62595000  1.0
  C  C47  1  0.84292000  0.52254000  0.87388000  1.0
  C  C48  1  0.59217000  0.01822000  0.31123000  1.0
  C  C49  1  0.92212000  0.48160000  0.18889000  1.0
  C  C50  1  0.40784000  0.98177000  0.68877000  1.0
  C  C51  1  0.07788000  0.51840000  0.81110000  1.0
  C  C52  1  0.36847000  0.10721000  0.29990000  1.0
  C  C53  1  0.77581000  0.39268000  0.20021000  1.0
  C  C54  1  0.63153000  0.89278000  0.70010000  1.0
  C  C55  1  0.22419000  0.60731000  0.79979000  1.0
  C  C56  1  0.32488000  0.19606000  0.34928000  1.0
  C  C57  1  0.87031000  0.30376000  0.15092000  1.0
  C  C58  1  0.67511000  0.80394000  0.65072000  1.0
  C  C59  1  0.12969000  0.69624000  0.84908000  1.0
  C  C60  1  0.65351000  0.92138000  0.25823000  1.0
  C  C61  1  0.83374000  0.57852000  0.24179000  1.0
  C  C62  1  0.34649000  0.07862000  0.74177000  1.0
  C  C63  1  0.16626000  0.42148000  0.75821000  1.0
  N  N64  1  0.48865000  0.19949000  0.40919000  1.0
  N  N65  1  0.09745000  0.30020000  0.09108000  1.0
  N  N66  1  0.51135000  0.80051000  0.59081000  1.0
  N  N67  1  0.90255000  0.69980000  0.90892000  1.0
  O  O68  1  0.06451000  0.02133000  0.14753000  1.0
  O  O69  1  0.23363000  0.47881000  0.35268000  1.0
  O  O70  1  0.93549000  0.97867000  0.85247000  1.0
  O  O71  1  0.76637000  0.52119000  0.64732000  1.0
  O  O72  1  0.56605000  0.26231000  0.92113000  1.0
  O  O73  1  0.74972000  0.23762000  0.57886000  1.0
  O  O74  1  0.43395000  0.73769000  0.07886000  1.0
  O  O75  1  0.25028000  0.76238000  0.42114000  1.0
  O  O76  1  0.93964000  0.84618000  0.10443000  1.0
  O  O77  1  0.89001000  0.65398000  0.39551000  1.0
  O  O78  1  0.06036000  0.15382000  0.89557000  1.0
  O  O79  1  0.10999000  0.34602000  0.60449000  1.0
  O  O80  1  0.64646000  0.04685000  0.07213000  1.0
  O  O81  1  0.76585000  0.45308000  0.42792000  1.0
  O  O82  1  0.35354000  0.95315000  0.92787000  1.0
  O  O83  1  0.23417000  0.54691000  0.57208000  1.0
  O  O84  1  0.42769000  0.87957000  0.24944000  1.0
  O  O85  1  0.55735000  0.62029000  0.25050000  1.0
  O  O86  1  0.57231000  0.12043000  0.75056000  1.0
  O  O87  1  0.44264000  0.37971000  0.74950000  1.0
