# generated using pymatgen
data_Zn2Cu3H18C20S3N5O7
_symmetry_space_group_name_H-M   'P 1'
_cell_length_a   11.92770000
_cell_length_b   11.92770000
_cell_length_c   25.86630000
_cell_angle_alpha   95.10150000
_cell_angle_beta   95.10150000
_cell_angle_gamma   108.37100000
_symmetry_Int_Tables_number   1
_chemical_formula_structural   Zn2Cu3H18C20S3N5O7
_chemical_formula_sum   'Zn8 Cu12 H72 C80 S12 N20 O28'
_cell_volume   3451.89228811
_cell_formula_units_Z   4
loop_
 _symmetry_equiv_pos_site_id
 _symmetry_equiv_pos_as_xyz
  1  'x, y, z'
loop_
 _atom_site_type_symbol
 _atom_site_label
 _atom_site_symmetry_multiplicity
 _atom_site_fract_x
 _atom_site_fract_y
 _atom_site_fract_z
 _atom_site_occupancy
  Zn  Zn0  1  0.49344000  0.47272000  0.93695000  1.0
  Zn  Zn1  1  0.52728000  0.50656000  0.56305000  1.0
  Zn  Zn2  1  0.50656000  0.52728000  0.06305000  1.0
  Zn  Zn3  1  0.47272000  0.49344000  0.43695000  1.0
  Zn  Zn4  1  0.74049000  0.46428000  0.99527000  1.0
  Zn  Zn5  1  0.53572000  0.25951000  0.50473000  1.0
  Zn  Zn6  1  0.25951000  0.53572000  0.00473000  1.0
  Zn  Zn7  1  0.46429000  0.74049000  0.49527000  1.0
  Cu  Cu8  1  0.95828000  0.13338000  0.80165000  1.0
  Cu  Cu9  1  0.86662000  0.04173000  0.69835000  1.0
  Cu  Cu10  1  0.04173000  0.86662000  0.19835000  1.0
  Cu  Cu11  1  0.13338000  0.95827000  0.30165000  1.0
  Cu  Cu12  1  0.12480000  0.97087000  0.79703000  1.0
  Cu  Cu13  1  0.02912000  0.87519000  0.70297000  1.0
  Cu  Cu14  1  0.87520000  0.02913000  0.20297000  1.0
  Cu  Cu15  1  0.97088000  0.12480000  0.29703000  1.0
  Cu  Cu16  1  0.85483000  0.90211000  0.78538000  1.0
  Cu  Cu17  1  0.09789000  0.14518000  0.71462000  1.0
  Cu  Cu18  1  0.14517000  0.09789000  0.21462000  1.0
  Cu  Cu19  1  0.90211000  0.85483000  0.28538000  1.0
  H  H20  1  0.48575000  0.55837000  0.84729000  1.0
  H  H21  1  0.44163000  0.51425000  0.65271000  1.0
  H  H22  1  0.51425000  0.44163000  0.15271000  1.0
  H  H23  1  0.55837000  0.48575000  0.34729000  1.0
  H  H24  1  0.42215000  0.63015000  0.88707000  1.0
  H  H25  1  0.36985000  0.57785000  0.61293000  1.0
  H  H26  1  0.57785000  0.36985000  0.11293000  1.0
  H  H27  1  0.63015000  0.42215000  0.38707000  1.0
  H  H28  1  0.25123000  0.85241000  0.87169000  1.0
  H  H29  1  0.14758000  0.74877000  0.62831000  1.0
  H  H30  1  0.74877000  0.14758000  0.12831000  1.0
  H  H31  1  0.85242000  0.25122000  0.37169000  1.0
  H  H32  1  0.26498000  0.32552000  0.93414000  1.0
  H  H33  1  0.67448000  0.73502000  0.56586000  1.0
  H  H34  1  0.73502000  0.67448000  0.06586000  1.0
  H  H35  1  0.32552000  0.26498000  0.43414000  1.0
  H  H36  1  0.34677000  0.24660000  0.91389000  1.0
  H  H37  1  0.75340000  0.65323000  0.58611000  1.0
  H  H38  1  0.65323000  0.75340000  0.08611000  1.0
  H  H39  1  0.24660000  0.34676000  0.41389000  1.0
  H  H40  1  0.86448000  0.28839000  0.87087000  1.0
  H  H41  1  0.71161000  0.13552000  0.62913000  1.0
  H  H42  1  0.13552000  0.71161000  0.12913000  1.0
  H  H43  1  0.28839000  0.86448000  0.37087000  1.0
  H  H44  1  0.97895000  0.82107000  0.99890000  1.0
  H  H45  1  0.17893000  0.02105000  0.50110000  1.0
  H  H46  1  0.02105000  0.17893000  0.00110000  1.0
  H  H47  1  0.82107000  0.97895000  0.49890000  1.0
  H  H48  1  0.10927000  0.99389000  0.95924000  1.0
  H  H49  1  0.00611000  0.89073000  0.54076000  1.0
  H  H50  1  0.89073000  0.00611000  0.04075000  1.0
  H  H51  1  0.99390000  0.10927000  0.45924000  1.0
  H  H52  1  0.85710000  0.55894000  0.81067000  1.0
  H  H53  1  0.44106000  0.14290000  0.68933000  1.0
  H  H54  1  0.14290000  0.44106000  0.18933000  1.0
  H  H55  1  0.55894000  0.85710000  0.31067000  1.0
  H  H56  1  0.98118000  0.52348000  0.88758000  1.0
  H  H57  1  0.47651000  0.01883000  0.61242000  1.0
  H  H58  1  0.01882000  0.47652000  0.11243000  1.0
  H  H59  1  0.52348000  0.98118000  0.38758000  1.0
  H  H60  1  0.50817000  0.02172000  0.75933000  1.0
  H  H61  1  0.97828000  0.49183000  0.74066000  1.0
  H  H62  1  0.49183000  0.97828000  0.24066000  1.0
  H  H63  1  0.02172000  0.50817000  0.25934000  1.0
  H  H64  1  0.71747000  0.76011000  0.86470000  1.0
  H  H65  1  0.23989000  0.28253000  0.63530000  1.0
  H  H66  1  0.28253000  0.23989000  0.13530000  1.0
  H  H67  1  0.76011000  0.71747000  0.36470000  1.0
  H  H68  1  0.48860000  0.18928000  0.81934000  1.0
  H  H69  1  0.81072000  0.51140000  0.68066000  1.0
  H  H70  1  0.51140000  0.81072000  0.18066000  1.0
  H  H71  1  0.18928000  0.48860000  0.31935000  1.0
  H  H72  1  0.20815000  0.27978000  0.84173000  1.0
  H  H73  1  0.72022000  0.79185000  0.65827000  1.0
  H  H74  1  0.79185000  0.72022000  0.15827000  1.0
  H  H75  1  0.27978000  0.20815000  0.34173000  1.0
  H  H76  1  0.36084000  0.31219000  0.83318000  1.0
  H  H77  1  0.68781000  0.63916000  0.66682000  1.0
  H  H78  1  0.63916000  0.68781000  0.16682000  1.0
  H  H79  1  0.31219000  0.36084000  0.33318000  1.0
  H  H80  1  0.28300000  0.47561000  0.81032000  1.0
  H  H81  1  0.52439000  0.71701000  0.68968000  1.0
  H  H82  1  0.71700000  0.52439000  0.18968000  1.0
  H  H83  1  0.47561000  0.28299000  0.31032000  1.0
  H  H84  1  0.24110000  0.48949000  0.87377000  1.0
  H  H85  1  0.51051000  0.75890000  0.62622000  1.0
  H  H86  1  0.75890000  0.51051000  0.12623000  1.0
  H  H87  1  0.48949000  0.24110000  0.37378000  1.0
  H  H88  1  0.45505000  0.65491000  0.98764000  1.0
  H  H89  1  0.34509000  0.54496000  0.51236000  1.0
  H  H90  1  0.54496000  0.34509000  0.01236000  1.0
  H  H91  1  0.65491000  0.45505000  0.48764000  1.0
  C  C92  1  0.12826000  0.68310000  0.88345000  1.0
  C  C93  1  0.31689000  0.87175000  0.61655000  1.0
  C  C94  1  0.87175000  0.31689000  0.11655000  1.0
  C  C95  1  0.68310000  0.12825000  0.38345000  1.0
  C  C96  1  0.67543000  0.25146000  0.85036000  1.0
  C  C97  1  0.74855000  0.32457000  0.64964000  1.0
  C  C98  1  0.32457000  0.74854000  0.14964000  1.0
  C  C99  1  0.25146000  0.67543000  0.35036000  1.0
  C  C100  1  0.83617000  0.78110000  0.93560000  1.0
  C  C101  1  0.21889000  0.16383000  0.56440000  1.0
  C  C102  1  0.16383000  0.21890000  0.06440000  1.0
  C  C103  1  0.78111000  0.83617000  0.43560000  1.0
  C  C104  1  0.16479000  0.78519000  0.85855000  1.0
  C  C105  1  0.21480000  0.83521000  0.64145000  1.0
  C  C106  1  0.83521000  0.21481000  0.14145000  1.0
  C  C107  1  0.78519000  0.16479000  0.35855000  1.0
  C  C108  1  0.78384000  0.23193000  0.84628000  1.0
  C  C109  1  0.76807000  0.21616000  0.65372000  1.0
  C  C110  1  0.21616000  0.76807000  0.15372000  1.0
  C  C111  1  0.23193000  0.78384000  0.34628000  1.0
  C  C112  1  0.98973000  0.72426000  0.80077000  1.0
  C  C113  1  0.27573000  0.01027000  0.69923000  1.0
  C  C114  1  0.01027000  0.27574000  0.19923000  1.0
  C  C115  1  0.72426000  0.98973000  0.30077000  1.0
  C  C116  1  0.94972000  0.84573000  0.96172000  1.0
  C  C117  1  0.15427000  0.05028000  0.53828000  1.0
  C  C118  1  0.05028000  0.15427000  0.03828000  1.0
  C  C119  1  0.84574000  0.94972000  0.46172000  1.0
  C  C120  1  0.02175000  0.93988000  0.93967000  1.0
  C  C121  1  0.06012000  0.97825000  0.56033000  1.0
  C  C122  1  0.97825000  0.06012000  0.06033000  1.0
  C  C123  1  0.93988000  0.02175000  0.43967000  1.0
  C  C124  1  0.94523000  0.62136000  0.82516000  1.0
  C  C125  1  0.37864000  0.05476000  0.67484000  1.0
  C  C126  1  0.05476000  0.37865000  0.17484000  1.0
  C  C127  1  0.62136000  0.94523000  0.32516000  1.0
  C  C128  1  0.01399000  0.60131000  0.86716000  1.0
  C  C129  1  0.39868000  0.98601000  0.63283000  1.0
  C  C130  1  0.98601000  0.39869000  0.13284000  1.0
  C  C131  1  0.60131000  0.01399000  0.36716000  1.0
  C  C132  1  0.58513000  0.08339000  0.78427000  1.0
  C  C133  1  0.91661000  0.41487000  0.71573000  1.0
  C  C134  1  0.41487000  0.91661000  0.21572000  1.0
  C  C135  1  0.08339000  0.58513000  0.28427000  1.0
  C  C136  1  0.75530000  0.67761000  0.95658000  1.0
  C  C137  1  0.32238000  0.24470000  0.54343000  1.0
  C  C138  1  0.24470000  0.32238000  0.04342000  1.0
  C  C139  1  0.67762000  0.75530000  0.45657000  1.0
  C  C140  1  0.80327000  0.81108000  0.88692000  1.0
  C  C141  1  0.18891000  0.19673000  0.61308000  1.0
  C  C142  1  0.19673000  0.18892000  0.11308000  1.0
  C  C143  1  0.81108000  0.80327000  0.38692000  1.0
  C  C144  1  0.21020000  0.66184000  0.92586000  1.0
  C  C145  1  0.33816000  0.78979000  0.57414000  1.0
  C  C146  1  0.78980000  0.33816000  0.07414000  1.0
  C  C147  1  0.66184000  0.21020000  0.42586000  1.0
  C  C148  1  0.98200000  0.96547000  0.89071000  1.0
  C  C149  1  0.03453000  0.01800000  0.60929000  1.0
  C  C150  1  0.01800000  0.03453000  0.10929000  1.0
  C  C151  1  0.96547000  0.98200000  0.39071000  1.0
  C  C152  1  0.66556000  0.34541000  0.89011000  1.0
  C  C153  1  0.65459000  0.33444000  0.60989000  1.0
  C  C154  1  0.33444000  0.65459000  0.10989000  1.0
  C  C155  1  0.34541000  0.66556000  0.39011000  1.0
  C  C156  1  0.57461000  0.17598000  0.81766000  1.0
  C  C157  1  0.82402000  0.42539000  0.68234000  1.0
  C  C158  1  0.42539000  0.82403000  0.18234000  1.0
  C  C159  1  0.17597000  0.57461000  0.31766000  1.0
  C  C160  1  0.69722000  0.06878000  0.78258000  1.0
  C  C161  1  0.93122000  0.30278000  0.71742000  1.0
  C  C162  1  0.30278000  0.93122000  0.21742000  1.0
  C  C163  1  0.06878000  0.69722000  0.28258000  1.0
  C  C164  1  0.29879000  0.33829000  0.85668000  1.0
  C  C165  1  0.66171000  0.70122000  0.64332000  1.0
  C  C166  1  0.70121000  0.66171000  0.14332000  1.0
  C  C167  1  0.33829000  0.29878000  0.35668000  1.0
  C  C168  1  0.30671000  0.46672000  0.85148000  1.0
  C  C169  1  0.53327000  0.69330000  0.64852000  1.0
  C  C170  1  0.69330000  0.53328000  0.14852000  1.0
  C  C171  1  0.46672000  0.30670000  0.35148000  1.0
  S  S172  1  0.07269000  0.08051000  0.86100000  1.0
  S  S173  1  0.91949000  0.92731000  0.63900000  1.0
  S  S174  1  0.92731000  0.91949000  0.13900000  1.0
  S  S175  1  0.08052000  0.07269000  0.36100000  1.0
  S  S176  1  0.71270000  0.95150000  0.74143000  1.0
  S  S177  1  0.04850000  0.28731000  0.75857000  1.0
  S  S178  1  0.28730000  0.04850000  0.25857000  1.0
  S  S179  1  0.95150000  0.71269000  0.24143000  1.0
  S  S180  1  0.90547000  0.75119000  0.74717000  1.0
  S  S181  1  0.24880000  0.09452000  0.75283000  1.0
  S  S182  1  0.09452000  0.24881000  0.25283000  1.0
  S  S183  1  0.75120000  0.90548000  0.24717000  1.0
  N  N184  1  0.09701000  0.80753000  0.81892000  1.0
  N  N185  1  0.19246000  0.90298000  0.68108000  1.0
  N  N186  1  0.90299000  0.19247000  0.18108000  1.0
  N  N187  1  0.80753000  0.09701000  0.31892000  1.0
  N  N188  1  0.42577000  0.54805000  0.87374000  1.0
  N  N189  1  0.45195000  0.57423000  0.62626000  1.0
  N  N190  1  0.57423000  0.45195000  0.12626000  1.0
  N  N191  1  0.54805000  0.42577000  0.37374000  1.0
  N  N192  1  0.79558000  0.14476000  0.81275000  1.0
  N  N193  1  0.85524000  0.20442000  0.68725000  1.0
  N  N194  1  0.20442000  0.85524000  0.18725000  1.0
  N  N195  1  0.14476000  0.79558000  0.31275000  1.0
  N  N196  1  0.87475000  0.89837000  0.86404000  1.0
  N  N197  1  0.10163000  0.12524000  0.63596000  1.0
  N  N198  1  0.12524000  0.10163000  0.13596000  1.0
  N  N199  1  0.89837000  0.87476000  0.36404000  1.0
  N  N200  1  0.33217000  0.32602000  0.91179000  1.0
  N  N201  1  0.67398000  0.66784000  0.58821000  1.0
  N  N202  1  0.66784000  0.67398000  0.08821000  1.0
  N  N203  1  0.32602000  0.33216000  0.41179000  1.0
  O  O204  1  0.43070000  0.57258000  0.99528000  1.0
  O  O205  1  0.42742000  0.56931000  0.50472000  1.0
  O  O206  1  0.56930000  0.42741000  0.00472000  1.0
  O  O207  1  0.57258000  0.43069000  0.49528000  1.0
  O  O208  1  0.56989000  0.37061000  0.88642000  1.0
  O  O209  1  0.62939000  0.43012000  0.61358000  1.0
  O  O210  1  0.43012000  0.62939000  0.11358000  1.0
  O  O211  1  0.37061000  0.56988000  0.38642000  1.0
  O  O212  1  0.75510000  0.39106000  0.92564000  1.0
  O  O213  1  0.60894000  0.24491000  0.57436000  1.0
  O  O214  1  0.24490000  0.60893000  0.07436000  1.0
  O  O215  1  0.39107000  0.75510000  0.42564000  1.0
  O  O216  1  0.31841000  0.72321000  0.93340000  1.0
  O  O217  1  0.27679000  0.68159000  0.56660000  1.0
  O  O218  1  0.68160000  0.27679000  0.06661000  1.0
  O  O219  1  0.72321000  0.31841000  0.43339000  1.0
  O  O220  1  0.80185000  0.63983000  0.99565000  1.0
  O  O221  1  0.36017000  0.19815000  0.50435000  1.0
  O  O222  1  0.19816000  0.36017000  0.00435000  1.0
  O  O223  1  0.63983000  0.80185000  0.49565000  1.0
  O  O224  1  0.64926000  0.63262000  0.93481000  1.0
  O  O225  1  0.36738000  0.35074000  0.56519000  1.0
  O  O226  1  0.35074000  0.36738000  0.06519000  1.0
  O  O227  1  0.63262000  0.64927000  0.43481000  1.0
  O  O228  1  0.15881000  0.57401000  0.95115000  1.0
  O  O229  1  0.42600000  0.84118000  0.54885000  1.0
  O  O230  1  0.84119000  0.42599000  0.04885000  1.0
  O  O231  1  0.57400000  0.15881000  0.45115000  1.0
