# generated using pymatgen
data_CdNiH10(C2N)6
_symmetry_space_group_name_H-M   'P 1'
_cell_length_a   6.91364000
_cell_length_b   7.68695000
_cell_length_c   9.73302000
_cell_angle_alpha   89.96900000
_cell_angle_beta   87.30960000
_cell_angle_gamma   89.21110000
_symmetry_Int_Tables_number   1
_chemical_formula_structural   CdNiH10(C2N)6
_chemical_formula_sum   'Cd1 Ni1 H10 C12 N6'
_cell_volume   516.64032286
_cell_formula_units_Z   1
loop_
 _symmetry_equiv_pos_site_id
 _symmetry_equiv_pos_as_xyz
  1  'x, y, z'
loop_
 _atom_site_type_symbol
 _atom_site_label
 _atom_site_symmetry_multiplicity
 _atom_site_fract_x
 _atom_site_fract_y
 _atom_site_fract_z
 _atom_site_occupancy
  Cd  Cd0  1  0.00000000  0.00000000  0.00000000  1.0
  Ni  Ni1  1  0.49999000  0.50000000  0.99999000  1.0
  H  H2  1  0.93955000  0.01992000  0.69115000  1.0
  H  H3  1  0.62764000  0.18913000  0.80316000  1.0
  H  H4  1  0.58064000  0.97689000  0.84865000  1.0
  H  H5  1  0.80484000  0.16535000  0.51456000  1.0
  H  H6  1  0.33420000  0.88298000  0.71178000  1.0
  H  H7  1  0.06046000  0.98009000  0.30886000  1.0
  H  H8  1  0.37237000  0.81087000  0.19685000  1.0
  H  H9  1  0.41936000  0.02311000  0.15136000  1.0
  H  H10  1  0.19516000  0.83465000  0.48545000  1.0
  H  H11  1  0.66579000  0.11703000  0.28822000  1.0
  C  C12  1  0.68324000  0.33941000  0.04932000  1.0
  C  C13  1  0.33701000  0.32077000  0.96412000  1.0
  C  C14  1  0.66049000  0.05278000  0.76842000  1.0
  C  C15  1  0.57981000  0.02554000  0.62905000  1.0
  C  C16  1  0.67195000  0.09050000  0.50892000  1.0
  C  C17  1  0.40636000  0.93529000  0.61891000  1.0
  C  C18  1  0.31675000  0.66059000  0.95067000  1.0
  C  C19  1  0.66298000  0.67923000  0.03586000  1.0
  C  C20  1  0.33952000  0.94721000  0.23159000  1.0
  C  C21  1  0.42020000  0.97446000  0.37096000  1.0
  C  C22  1  0.32806000  0.90950000  0.49108000  1.0
  C  C23  1  0.59364000  0.06471000  0.38110000  1.0
  N  N24  1  0.79674000  0.23183000  0.07744000  1.0
  N  N25  1  0.23708000  0.20263000  0.94315000  1.0
  N  N26  1  0.86234000  0.02698000  0.78400000  1.0
  N  N27  1  0.20327000  0.76816000  0.92256000  1.0
  N  N28  1  0.76291000  0.79737000  0.05684000  1.0
  N  N29  1  0.13766000  0.97302000  0.21601000  1.0
