# generated using pymatgen
data_GdH10C14NO7
_symmetry_space_group_name_H-M   'P 1'
_cell_length_a   9.32577000
_cell_length_b   10.39680000
_cell_length_c   14.44040000
_cell_angle_alpha   89.99990000
_cell_angle_beta   89.99980000
_cell_angle_gamma   96.44170000
_symmetry_Int_Tables_number   1
_chemical_formula_structural   GdH10C14NO7
_chemical_formula_sum   'Gd4 H40 C56 N4 O28'
_cell_volume   1391.27510955
_cell_formula_units_Z   4
loop_
 _symmetry_equiv_pos_site_id
 _symmetry_equiv_pos_as_xyz
  1  'x, y, z'
loop_
 _atom_site_type_symbol
 _atom_site_label
 _atom_site_symmetry_multiplicity
 _atom_site_fract_x
 _atom_site_fract_y
 _atom_site_fract_z
 _atom_site_occupancy
  Gd  Gd0  1  0.62984000  0.98167000  0.12899000  1.0
  Gd  Gd1  1  0.37016000  0.51833000  0.62899000  1.0
  Gd  Gd2  1  0.37016000  0.01832000  0.87101000  1.0
  Gd  Gd3  1  0.62984000  0.48168000  0.37101000  1.0
  H  H4  1  0.98915000  0.98311000  0.06816000  1.0
  H  H5  1  0.01085000  0.51689000  0.56816000  1.0
  H  H6  1  0.01084000  0.01689000  0.93183000  1.0
  H  H7  1  0.98916000  0.48311000  0.43184000  1.0
  H  H8  1  0.27139000  0.19231000  0.26653000  1.0
  H  H9  1  0.72861000  0.30769000  0.76653000  1.0
  H  H10  1  0.72860000  0.80769000  0.73347000  1.0
  H  H11  1  0.27140000  0.69231000  0.23347000  1.0
  H  H12  1  0.04984000  0.27780000  0.33428000  1.0
  H  H13  1  0.95016000  0.22221000  0.83428000  1.0
  H  H14  1  0.95015000  0.72220000  0.66571000  1.0
  H  H15  1  0.04985000  0.77780000  0.16571000  1.0
  H  H16  1  0.46354000  0.54737000  0.11623000  1.0
  H  H17  1  0.53646000  0.95264000  0.61623000  1.0
  H  H18  1  0.53646000  0.45263000  0.88377000  1.0
  H  H19  1  0.46354000  0.04737000  0.38377000  1.0
  H  H20  1  0.33927000  0.32333000  0.09977000  1.0
  H  H21  1  0.66073000  0.17667000  0.59977000  1.0
  H  H22  1  0.66073000  0.67666000  0.90023000  1.0
  H  H23  1  0.33927000  0.82334000  0.40024000  1.0
  H  H24  1  0.13144000  0.27925000  0.99299000  1.0
  H  H25  1  0.86855000  0.22075000  0.49298000  1.0
  H  H26  1  0.86855000  0.72074000  0.00702000  1.0
  H  H27  1  0.13144000  0.77926000  0.50702000  1.0
  H  H28  1  0.04775000  0.46032000  0.90084000  1.0
  H  H29  1  0.95225000  0.03968000  0.40084000  1.0
  H  H30  1  0.95225000  0.53966000  0.09917000  1.0
  H  H31  1  0.04775000  0.96033000  0.59917000  1.0
  H  H32  1  0.18013000  0.68105000  0.91203000  1.0
  H  H33  1  0.81988000  0.81896000  0.41203000  1.0
  H  H34  1  0.81987000  0.31894000  0.08796000  1.0
  H  H35  1  0.18012000  0.18106000  0.58797000  1.0
  H  H36  1  0.54527000  0.78619000  0.26670000  1.0
  H  H37  1  0.45473000  0.71381000  0.76669000  1.0
  H  H38  1  0.45474000  0.21380000  0.73331000  1.0
  H  H39  1  0.54527000  0.28620000  0.23330000  1.0
  H  H40  1  0.42481000  0.88482000  0.26155000  1.0
  H  H41  1  0.57520000  0.61518000  0.76155000  1.0
  H  H42  1  0.57520000  0.11517000  0.73845000  1.0
  H  H43  1  0.42481000  0.38483000  0.23845000  1.0
  C  C44  1  0.00779000  0.04930000  0.12651000  1.0
  C  C45  1  0.99221000  0.45069000  0.62651000  1.0
  C  C46  1  0.99221000  0.95069000  0.87349000  1.0
  C  C47  1  0.00780000  0.54931000  0.37349000  1.0
  C  C48  1  0.14781000  0.08911000  0.15751000  1.0
  C  C49  1  0.85220000  0.41088000  0.65751000  1.0
  C  C50  1  0.85219000  0.91088000  0.84249000  1.0
  C  C51  1  0.14781000  0.58912000  0.34249000  1.0
  C  C52  1  0.16435000  0.16700000  0.23674000  1.0
  C  C53  1  0.83565000  0.33300000  0.73673000  1.0
  C  C54  1  0.83564000  0.83300000  0.76326000  1.0
  C  C55  1  0.16436000  0.66701000  0.26326000  1.0
  C  C56  1  0.04258000  0.21219000  0.27529000  1.0
  C  C57  1  0.95742000  0.28781000  0.77529000  1.0
  C  C58  1  0.95741000  0.78781000  0.72471000  1.0
  C  C59  1  0.04259000  0.71219000  0.22471000  1.0
  C  C60  1  0.90712000  0.17095000  0.23771000  1.0
  C  C61  1  0.09288000  0.32905000  0.73771000  1.0
  C  C62  1  0.09287000  0.82905000  0.76229000  1.0
  C  C63  1  0.90713000  0.67096000  0.26229000  1.0
  C  C64  1  0.27501000  0.05268000  0.10322000  1.0
  C  C65  1  0.72499000  0.44732000  0.60322000  1.0
  C  C66  1  0.72499000  0.94731000  0.89678000  1.0
  C  C67  1  0.27501000  0.55269000  0.39678000  1.0
  C  C68  1  0.77003000  0.21977000  0.27154000  1.0
  C  C69  1  0.22997000  0.28024000  0.77155000  1.0
  C  C70  1  0.22996000  0.78022000  0.72845000  1.0
  C  C71  1  0.77004000  0.71978000  0.22845000  1.0
  C  C72  1  0.32822000  0.62734000  0.01541000  1.0
  C  C73  1  0.67178000  0.87266000  0.51541000  1.0
  C  C74  1  0.67177000  0.37265000  0.98459000  1.0
  C  C75  1  0.32822000  0.12734000  0.48459000  1.0
  C  C76  1  0.37155000  0.52713000  0.06993000  1.0
  C  C77  1  0.62845000  0.97287000  0.56993000  1.0
  C  C78  1  0.62845000  0.47286000  0.93007000  1.0
  C  C79  1  0.37154000  0.02713000  0.43007000  1.0
  C  C80  1  0.30069000  0.40244000  0.06101000  1.0
  C  C81  1  0.69931000  0.09756000  0.56101000  1.0
  C  C82  1  0.69930000  0.59754000  0.93899000  1.0
  C  C83  1  0.30069000  0.90245000  0.43899000  1.0
  C  C84  1  0.18475000  0.37752000  0.00004000  1.0
  C  C85  1  0.81524000  0.12248000  0.50003000  1.0
  C  C86  1  0.81525000  0.62246000  0.99997000  1.0
  C  C87  1  0.18475000  0.87753000  0.49997000  1.0
  C  C88  1  0.13999000  0.47806000  0.94704000  1.0
  C  C89  1  0.86001000  0.02194000  0.44704000  1.0
  C  C90  1  0.86001000  0.52192000  0.05297000  1.0
  C  C91  1  0.13998000  0.97807000  0.55297000  1.0
  C  C92  1  0.21253000  0.60210000  0.95383000  1.0
  C  C93  1  0.78747000  0.89791000  0.45383000  1.0
  C  C94  1  0.78746000  0.39789000  0.04617000  1.0
  C  C95  1  0.21253000  0.10210000  0.54617000  1.0
  C  C96  1  0.40835000  0.75932000  0.02048000  1.0
  C  C97  1  0.59165000  0.74068000  0.52048000  1.0
  C  C98  1  0.59165000  0.24066000  0.97952000  1.0
  C  C99  1  0.40835000  0.25933000  0.47953000  1.0
  N  N100  1  0.88995000  0.08646000  0.16666000  1.0
  N  N101  1  0.11006000  0.41354000  0.66666667  1.0
  N  N102  1  0.11005000  0.91354000  0.83334000  1.0
  N  N103  1  0.88996000  0.58647000  0.33333333  1.0
  O  O104  1  0.65193000  0.15877000  0.24266000  1.0
  O  O105  1  0.34807000  0.34123000  0.74266000  1.0
  O  O106  1  0.34807000  0.84123000  0.75735000  1.0
  O  O107  1  0.65194000  0.65877000  0.25735000  1.0
  O  O108  1  0.78231000  0.32017000  0.32159000  1.0
  O  O109  1  0.21769000  0.17983000  0.82159000  1.0
  O  O110  1  0.21768000  0.67983000  0.67840000  1.0
  O  O111  1  0.78232000  0.82017000  0.17840000  1.0
  O  O112  1  0.38330000  0.02467000  0.14906000  1.0
  O  O113  1  0.61670000  0.47533000  0.64905000  1.0
  O  O114  1  0.61668000  0.97532000  0.85094000  1.0
  O  O115  1  0.38332000  0.52468000  0.35095000  1.0
  O  O116  1  0.26136000  0.05627000  0.01579000  1.0
  O  O117  1  0.73864000  0.44373000  0.51579000  1.0
  O  O118  1  0.73864000  0.94373000  0.98420000  1.0
  O  O119  1  0.26136000  0.55628000  0.48420000  1.0
  O  O120  1  0.49627000  0.78544000  0.08672000  1.0
  O  O121  1  0.50373000  0.71456000  0.58672000  1.0
  O  O122  1  0.50371000  0.21455000  0.91327000  1.0
  O  O123  1  0.49628000  0.28545000  0.41327000  1.0
  O  O124  1  0.38500000  0.83999000  0.95733000  1.0
  O  O125  1  0.61500000  0.66001000  0.45734000  1.0
  O  O126  1  0.61499000  0.16000000  0.04266000  1.0
  O  O127  1  0.38500000  0.33999000  0.54267000  1.0
  O  O128  1  0.52754000  0.87907000  0.26995000  1.0
  O  O129  1  0.47246000  0.62093000  0.76995000  1.0
  O  O130  1  0.47246000  0.12092000  0.73004000  1.0
  O  O131  1  0.52754000  0.37908000  0.23005000  1.0
