# generated using pymatgen
data_GaAsH4C5NO4
_symmetry_space_group_name_H-M   'P 1'
_cell_length_a   5.12798000
_cell_length_b   5.96169000
_cell_length_c   11.63770000
_cell_angle_alpha   79.77460000
_cell_angle_beta   87.99460000
_cell_angle_gamma   88.92150000
_symmetry_Int_Tables_number   1
_chemical_formula_structural   GaAsH4C5NO4
_chemical_formula_sum   'Ga2 As2 H8 C10 N2 O8'
_cell_volume   349.88702256
_cell_formula_units_Z   2
loop_
 _symmetry_equiv_pos_site_id
 _symmetry_equiv_pos_as_xyz
  1  'x, y, z'
loop_
 _atom_site_type_symbol
 _atom_site_label
 _atom_site_symmetry_multiplicity
 _atom_site_fract_x
 _atom_site_fract_y
 _atom_site_fract_z
 _atom_site_occupancy
  Ga  Ga0  1  0.66531000  0.79181000  0.89052000  1.0
  Ga  Ga1  1  0.33469000  0.20819000  0.10948000  1.0
  As  As2  1  0.14168000  0.72397000  0.07660000  1.0
  As  As3  1  0.85832000  0.27603000  0.92340000  1.0
  H  H4  1  0.29811000  0.55141000  0.76539000  1.0
  H  H5  1  0.70188000  0.44859000  0.23461000  1.0
  H  H6  1  0.26916000  0.31073000  0.52118000  1.0
  H  H7  1  0.73085000  0.68928000  0.47881000  1.0
  H  H8  1  0.97493000  0.62240000  0.61068000  1.0
  H  H9  1  0.02505000  0.37762000  0.38933000  1.0
  H  H10  1  0.57432000  0.20760000  0.68437000  1.0
  H  H11  1  0.42570000  0.79240000  0.31563000  1.0
  C  C12  1  0.28735000  0.71539000  0.70688000  1.0
  C  C13  1  0.71264000  0.28462000  0.29312000  1.0
  C  C14  1  0.10769000  0.75831000  0.61895000  1.0
  C  C15  1  0.89230000  0.24170000  0.38105000  1.0
  C  C16  1  0.09395000  0.97416000  0.54760000  1.0
  C  C17  1  0.90606000  0.02585000  0.45240000  1.0
  C  C18  1  0.26627000  0.13879000  0.57192000  1.0
  C  C19  1  0.73373000  0.86121000  0.42807000  1.0
  C  C20  1  0.43980000  0.08388000  0.66196000  1.0
  C  C21  1  0.56021000  0.91612000  0.33804000  1.0
  N  N22  1  0.45265000  0.87487000  0.72762000  1.0
  N  N23  1  0.54735000  0.12514000  0.27238000  1.0
  O  O24  1  0.82299000  0.69560000  0.04293000  1.0
  O  O25  1  0.17701000  0.30438000  0.95706000  1.0
  O  O26  1  0.32164000  0.80113000  0.95024000  1.0
  O  O27  1  0.67835000  0.19884000  0.04976000  1.0
  O  O28  1  0.16075000  0.93093000  0.16253000  1.0
  O  O29  1  0.83925000  0.06906000  0.83747000  1.0
  O  O30  1  0.24228000  0.47901000  0.16762000  1.0
  O  O31  1  0.75772000  0.52098000  0.83238000  1.0
