# generated using pymatgen
data_AgH11C11NO3
_symmetry_space_group_name_H-M   'P 1'
_cell_length_a   7.16393000
_cell_length_b   11.78940000
_cell_length_c   13.38000000
_cell_angle_alpha   93.14710000
_cell_angle_beta   90.00000000
_cell_angle_gamma   107.68800000
_symmetry_Int_Tables_number   1
_chemical_formula_structural   AgH11C11NO3
_chemical_formula_sum   'Ag4 H44 C44 N4 O12'
_cell_volume   1074.84177219
_cell_formula_units_Z   4
loop_
 _symmetry_equiv_pos_site_id
 _symmetry_equiv_pos_as_xyz
  1  'x, y, z'
loop_
 _atom_site_type_symbol
 _atom_site_label
 _atom_site_symmetry_multiplicity
 _atom_site_fract_x
 _atom_site_fract_y
 _atom_site_fract_z
 _atom_site_occupancy
  Ag  Ag0  1  0.51537000  0.43533000  0.89956000  1.0
  Ag  Ag1  1  0.07974000  0.56501000  0.60022000  1.0
  Ag  Ag2  1  0.48463000  0.56467000  0.10044000  1.0
  Ag  Ag3  1  0.92027000  0.43499000  0.39978000  1.0
  H  H4  1  0.05244000  0.19866000  0.86352000  1.0
  H  H5  1  0.85426000  0.80132000  0.63660000  1.0
  H  H6  1  0.94755000  0.80134000  0.13648000  1.0
  H  H7  1  0.14573000  0.19869000  0.36339000  1.0
  H  H8  1  0.30368000  0.13466000  0.94783000  1.0
  H  H9  1  0.16916000  0.86513000  0.55223000  1.0
  H  H10  1  0.69632000  0.86535000  0.05217000  1.0
  H  H11  1  0.83084000  0.13487000  0.44777000  1.0
  H  H12  1  0.24795000  0.34673000  0.21366000  1.0
  H  H13  1  0.90101000  0.65349000  0.28622000  1.0
  H  H14  1  0.75205000  0.65327000  0.78634000  1.0
  H  H15  1  0.09900000  0.34650000  0.71378000  1.0
  H  H16  1  0.99041000  0.40649000  0.12977000  1.0
  H  H17  1  0.58369000  0.59368000  0.37021000  1.0
  H  H18  1  0.00959000  0.59351000  0.87023000  1.0
  H  H19  1  0.41630000  0.40632000  0.62978000  1.0
  H  H20  1  0.64589000  0.16521000  0.04788000  1.0
  H  H21  1  0.48049000  0.83460000  0.45228000  1.0
  H  H22  1  0.35411000  0.83479000  0.95213000  1.0
  H  H23  1  0.51951000  0.16540000  0.54772000  1.0
  H  H24  1  0.41930000  0.05025000  0.05038000  1.0
  H  H25  1  0.36915000  0.94974000  0.44966000  1.0
  H  H26  1  0.58070000  0.94976000  0.94962000  1.0
  H  H27  1  0.63084000  0.05026000  0.55035000  1.0
  H  H28  1  0.89938000  0.10497000  0.12002000  1.0
  H  H29  1  0.79416000  0.89486000  0.38027000  1.0
  H  H30  1  0.10062000  0.89503000  0.87998000  1.0
  H  H31  1  0.20583000  0.10513000  0.61973000  1.0
  H  H32  1  0.02017000  0.99990000  0.25013000  1.0
  H  H33  1  0.97983000  0.00010000  0.74987000  1.0
  H  H34  1  0.32775000  0.99978000  0.25007000  1.0
  H  H35  1  0.67226000  0.00023000  0.74994000  1.0
  H  H36  1  0.14980000  0.43907000  0.84232000  1.0
  H  H37  1  0.71076000  0.56113000  0.65769000  1.0
  H  H38  1  0.85020000  0.56092000  0.15768000  1.0
  H  H39  1  0.28923000  0.43887000  0.34231000  1.0
  H  H40  1  0.26956000  0.55543000  0.90585000  1.0
  H  H41  1  0.71431000  0.44466000  0.59427000  1.0
  H  H42  1  0.73043000  0.44457000  0.09415000  1.0
  H  H43  1  0.28569000  0.55534000  0.40573000  1.0
  H  H44  1  0.47593000  0.24371000  0.20846000  1.0
  H  H45  1  0.23221000  0.75648000  0.29145000  1.0
  H  H46  1  0.52407000  0.75629000  0.79154000  1.0
  H  H47  1  0.76779000  0.24352000  0.70855000  1.0
  C  C48  1  0.09390000  0.23003000  0.94095000  1.0
  C  C49  1  0.86392000  0.76995000  0.55911000  1.0
  C  C50  1  0.90610000  0.76997000  0.05905000  1.0
  C  C51  1  0.13608000  0.23005000  0.44089000  1.0
  C  C52  1  0.23715000  0.19447000  0.98856000  1.0
  C  C53  1  0.04271000  0.80544000  0.51146000  1.0
  C  C54  1  0.76286000  0.80553000  0.01144000  1.0
  C  C55  1  0.95729000  0.19456000  0.48854000  1.0
  C  C56  1  0.29451000  0.23576000  0.08887000  1.0
  C  C57  1  0.05862000  0.76427000  0.41110000  1.0
  C  C58  1  0.70549000  0.76423000  0.91113000  1.0
  C  C59  1  0.94138000  0.23573000  0.58890000  1.0
  C  C60  1  0.20434000  0.31545000  0.13678000  1.0
  C  C61  1  0.88866000  0.68475000  0.36313000  1.0
  C  C62  1  0.79566000  0.68456000  0.86323000  1.0
  C  C63  1  0.11135000  0.31524000  0.63687000  1.0
  C  C64  1  0.05739000  0.34688000  0.08916000  1.0
  C  C65  1  0.71031000  0.65331000  0.41080000  1.0
  C  C66  1  0.94261000  0.65312000  0.91084000  1.0
  C  C67  1  0.28969000  0.34668000  0.58919000  1.0
  C  C68  1  0.00020000  0.30582000  0.98977000  1.0
  C  C69  1  0.69426000  0.69427000  0.51025000  1.0
  C  C70  1  0.99979000  0.69418000  0.01023000  1.0
  C  C71  1  0.30574000  0.30573000  0.48974000  1.0
  C  C72  1  0.85567000  0.34497000  0.93297000  1.0
  C  C73  1  0.51058000  0.65502000  0.56711000  1.0
  C  C74  1  0.14433000  0.65503000  0.06704000  1.0
  C  C75  1  0.48943000  0.34498000  0.43289000  1.0
  C  C76  1  0.52706000  0.11932000  0.09743000  1.0
  C  C77  1  0.40769000  0.88056000  0.40271000  1.0
  C  C78  1  0.47294000  0.88068000  0.90257000  1.0
  C  C79  1  0.59231000  0.11944000  0.59729000  1.0
  C  C80  1  0.60539000  0.05923000  0.17677000  1.0
  C  C81  1  0.54613000  0.94065000  0.32343000  1.0
  C  C82  1  0.39461000  0.94077000  0.82324000  1.0
  C  C83  1  0.45387000  0.05935000  0.67657000  1.0
  C  C84  1  0.80068000  0.05894000  0.17707000  1.0
  C  C85  1  0.74169000  0.94102000  0.32325000  1.0
  C  C86  1  0.19932000  0.94106000  0.82293000  1.0
  C  C87  1  0.25830000  0.05898000  0.67675000  1.0
  C  C88  1  0.86796000  0.00002000  0.25019000  1.0
  C  C89  1  0.13204000  0.99998000  0.74981000  1.0
  C  C90  1  0.48016000  0.99989000  0.25008000  1.0
  C  C91  1  0.51984000  0.00011000  0.74993000  1.0
  N  N92  1  0.42778000  0.19998000  0.14077000  1.0
  N  N93  1  0.22773000  0.79993000  0.35930000  1.0
  N  N94  1  0.57222000  0.80002000  0.85923000  1.0
  N  N95  1  0.77227000  0.20006000  0.64070000  1.0
  O  O96  1  0.86865000  0.34906000  0.83897000  1.0
  O  O97  1  0.51946000  0.65068000  0.66108000  1.0
  O  O98  1  0.13135000  0.65094000  0.16103000  1.0
  O  O99  1  0.48055000  0.34933000  0.33892000  1.0
  O  O100  1  0.72102000  0.37496000  0.98351000  1.0
  O  O101  1  0.34591000  0.62513000  0.51661000  1.0
  O  O102  1  0.27898000  0.62504000  0.01649000  1.0
  O  O103  1  0.65410000  0.37487000  0.48339000  1.0
  O  O104  1  0.27941000  0.50069000  0.84686000  1.0
  O  O105  1  0.77892000  0.49957000  0.65316000  1.0
  O  O106  1  0.72058000  0.49931000  0.15314000  1.0
  O  O107  1  0.22108000  0.50043000  0.34685000  1.0
