# generated using pymatgen
data_CuPH13C19N2O5
_symmetry_space_group_name_H-M   'P 1'
_cell_length_a   9.53253000
_cell_length_b   10.34150000
_cell_length_c   10.61960000
_cell_angle_alpha   100.47000000
_cell_angle_beta   114.78600000
_cell_angle_gamma   103.03800000
_symmetry_Int_Tables_number   1
_chemical_formula_structural   CuPH13C19N2O5
_chemical_formula_sum   'Cu2 P2 H26 C38 N4 O10'
_cell_volume   879.60716862
_cell_formula_units_Z   2
loop_
 _symmetry_equiv_pos_site_id
 _symmetry_equiv_pos_as_xyz
  1  'x, y, z'
loop_
 _atom_site_type_symbol
 _atom_site_label
 _atom_site_symmetry_multiplicity
 _atom_site_fract_x
 _atom_site_fract_y
 _atom_site_fract_z
 _atom_site_occupancy
  Cu  Cu0  1  0.92527000  0.33416000  0.88987000  1.0
  Cu  Cu1  1  0.07473000  0.66585000  0.11013000  1.0
  P  P2  1  0.73084000  0.49549000  0.07440000  1.0
  P  P3  1  0.26916000  0.50451000  0.92560000  1.0
  H  H4  1  0.26947000  0.41372000  0.16918000  1.0
  H  H5  1  0.73053000  0.58629000  0.83082000  1.0
  H  H6  1  0.33616000  0.97321000  0.61316000  1.0
  H  H7  1  0.66382000  0.02679000  0.38684000  1.0
  H  H8  1  0.18694000  0.08388000  0.35742000  1.0
  H  H9  1  0.81307000  0.91612000  0.64257000  1.0
  H  H10  1  0.89918000  0.89830000  0.22427000  1.0
  H  H11  1  0.10082000  0.10170000  0.77573000  1.0
  H  H12  1  0.39923000  0.84308000  0.79526000  1.0
  H  H13  1  0.60077000  0.15691000  0.20474000  1.0
  H  H14  1  0.61452000  0.81596000  0.02434000  1.0
  H  H15  1  0.38549000  0.18404000  0.97566000  1.0
  H  H16  1  0.37601000  0.30244000  0.36481000  1.0
  H  H17  1  0.62400000  0.69757000  0.63520000  1.0
  H  H18  1  0.56088000  0.18634000  0.65182000  1.0
  H  H19  1  0.43911000  0.81366000  0.34819000  1.0
  H  H20  1  0.46680000  0.37122000  0.92642000  1.0
  H  H21  1  0.53320000  0.62878000  0.07359000  1.0
  H  H22  1  0.94632000  0.35461000  0.22961000  1.0
  H  H23  1  0.05367000  0.64538000  0.77038000  1.0
  H  H24  1  0.59793000  0.53118000  0.27779000  1.0
  H  H25  1  0.40209000  0.46883000  0.72222000  1.0
  H  H26  1  0.97745000  0.26311000  0.43946000  1.0
  H  H27  1  0.02253000  0.73688000  0.56054000  1.0
  H  H28  1  0.64647000  0.45531000  0.49903000  1.0
  H  H29  1  0.35355000  0.54471000  0.50098000  1.0
  C  C30  1  0.93416000  0.14831000  0.05491000  1.0
  C  C31  1  0.06584000  0.85169000  0.94508000  1.0
  C  C32  1  0.76993000  0.09777000  0.93727000  1.0
  C  C33  1  0.23007000  0.90223000  0.06273000  1.0
  C  C34  1  0.19148000  0.31889000  0.16896000  1.0
  C  C35  1  0.80851000  0.68112000  0.83103000  1.0
  C  C36  1  0.98086000  0.07843000  0.16086000  1.0
  C  C37  1  0.01915000  0.92157000  0.83914000  1.0
  C  C38  1  0.65309000  0.97907000  0.92738000  1.0
  C  C39  1  0.34691000  0.02093000  0.07262000  1.0
  C  C40  1  0.45843000  0.00682000  0.70709000  1.0
  C  C41  1  0.54156000  0.99318000  0.29291000  1.0
  C  C42  1  0.14502000  0.13596000  0.27490000  1.0
  C  C43  1  0.85498000  0.86404000  0.72510000  1.0
  C  C44  1  0.86156000  0.95595000  0.14663000  1.0
  C  C45  1  0.13845000  0.04404000  0.85337000  1.0
  C  C46  1  0.49339000  0.93441000  0.80772000  1.0
  C  C47  1  0.50661000  0.06559000  0.19227000  1.0
  C  C48  1  0.70370000  0.90955000  0.03493000  1.0
  C  C49  1  0.29631000  0.09045000  0.96507000  1.0
  C  C50  1  0.24880000  0.25610000  0.27883000  1.0
  C  C51  1  0.75120000  0.74391000  0.72117000  1.0
  C  C52  1  0.58256000  0.12453000  0.72653000  1.0
  C  C53  1  0.41743000  0.87546000  0.27347000  1.0
  C  C54  1  0.76524000  0.44277000  0.23574000  1.0
  C  C55  1  0.23477000  0.55724000  0.76426000  1.0
  C  C56  1  0.87421000  0.36961000  0.28394000  1.0
  C  C57  1  0.12579000  0.63039000  0.71606000  1.0
  C  C58  1  0.68058000  0.47179000  0.31255000  1.0
  C  C59  1  0.31943000  0.52821000  0.68745000  1.0
  C  C60  1  0.81000000  0.35020000  0.47861000  1.0
  C  C61  1  0.18999000  0.64980000  0.52139000  1.0
  C  C62  1  0.89397000  0.32104000  0.40215000  1.0
  C  C63  1  0.10603000  0.67895000  0.59785000  1.0
  C  C64  1  0.70546000  0.42798000  0.43453000  1.0
  C  C65  1  0.29454000  0.57202000  0.56547000  1.0
  C  C66  1  0.84162000  0.30269000  0.61028000  1.0
  C  C67  1  0.15838000  0.69731000  0.38972000  1.0
  N  N68  1  0.73388000  0.16810000  0.83839000  1.0
  N  N69  1  0.26612000  0.83190000  0.16162000  1.0
  N  N70  1  0.03844000  0.26504000  0.05917000  1.0
  N  N71  1  0.96156000  0.73496000  0.94083000  1.0
  O  O72  1  0.87853000  0.50276000  0.04763000  1.0
  O  O73  1  0.12147000  0.49724000  0.95237000  1.0
  O  O74  1  0.58337000  0.36976000  0.94156000  1.0
  O  O75  1  0.41663000  0.63024000  0.05844000  1.0
  O  O76  1  0.69026000  0.62890000  0.09156000  1.0
  O  O77  1  0.30974000  0.37111000  0.90845000  1.0
  O  O78  1  0.81210000  0.37357000  0.70542000  1.0
  O  O79  1  0.18791000  0.62643000  0.29458000  1.0
  O  O80  1  0.89649000  0.20406000  0.62478000  1.0
  O  O81  1  0.10349000  0.79593000  0.37521000  1.0
