# generated using pymatgen
data_UH19C15NO6
_symmetry_space_group_name_H-M   'P 1'
_cell_length_a   8.02280000
_cell_length_b   9.39288000
_cell_length_c   12.30140000
_cell_angle_alpha   109.46000000
_cell_angle_beta   96.46330000
_cell_angle_gamma   101.96100000
_symmetry_Int_Tables_number   1
_chemical_formula_structural   UH19C15NO6
_chemical_formula_sum   'U2 H38 C30 N2 O12'
_cell_volume   838.32996653
_cell_formula_units_Z   2
loop_
 _symmetry_equiv_pos_site_id
 _symmetry_equiv_pos_as_xyz
  1  'x, y, z'
loop_
 _atom_site_type_symbol
 _atom_site_label
 _atom_site_symmetry_multiplicity
 _atom_site_fract_x
 _atom_site_fract_y
 _atom_site_fract_z
 _atom_site_occupancy
  U  U0  1  0.32877000  0.99378000  0.68116000  1.0
  U  U1  1  0.67123000  0.00621000  0.31884000  1.0
  H  H2  1  0.92178000  0.14510000  0.92952000  1.0
  H  H3  1  0.07822000  0.85490000  0.07048000  1.0
  H  H4  1  0.79549000  0.06497000  0.78645000  1.0
  H  H5  1  0.20451000  0.93503000  0.21355000  1.0
  H  H6  1  0.79795000  0.34489000  0.90029000  1.0
  H  H7  1  0.20205000  0.65511000  0.09971000  1.0
  H  H8  1  0.02017000  0.40504000  0.89747000  1.0
  H  H9  1  0.97982000  0.59496000  0.10253000  1.0
  H  H10  1  0.94737000  0.31010000  0.67677000  1.0
  H  H11  1  0.05263000  0.68990000  0.32322000  1.0
  H  H12  1  0.72901000  0.23590000  0.67797000  1.0
  H  H13  1  0.27098000  0.76410000  0.32202000  1.0
  H  H14  1  0.69476000  0.49720000  0.78127000  1.0
  H  H15  1  0.30524000  0.50280000  0.21873000  1.0
  H  H16  1  0.91875000  0.58360000  0.80469000  1.0
  H  H17  1  0.08125000  0.41640000  0.19531000  1.0
  H  H18  1  0.84450000  0.73615000  0.50680000  1.0
  H  H19  1  0.15550000  0.26385000  0.49320000  1.0
  H  H20  1  0.64448000  0.59450000  0.45021000  1.0
  H  H21  1  0.35552000  0.40551000  0.54979000  1.0
  H  H22  1  0.60247000  0.65607000  0.66733000  1.0
  H  H23  1  0.39753000  0.34393000  0.33267000  1.0
  H  H24  1  0.82158000  0.76476000  0.71101000  1.0
  H  H25  1  0.17842000  0.23524000  0.28899000  1.0
  H  H26  1  0.90398000  0.51792000  0.59010000  1.0
  H  H27  1  0.09602000  0.48208000  0.40990000  1.0
  H  H28  1  0.68552000  0.41462000  0.55947000  1.0
  H  H29  1  0.31449000  0.58538000  0.44053000  1.0
  H  H30  1  0.16616000  0.62656000  0.66823000  1.0
  H  H31  1  0.83384000  0.37344000  0.33177000  1.0
  H  H32  1  0.58230000  0.96926000  0.90691000  1.0
  H  H33  1  0.41770000  0.03074000  0.09309000  1.0
  H  H34  1  0.21327000  0.43072000  0.75723000  1.0
  H  H35  1  0.78672000  0.56928000  0.24277000  1.0
  H  H36  1  0.64394000  0.79317000  0.00769000  1.0
  H  H37  1  0.35605000  0.20682000  0.99231000  1.0
  H  H38  1  0.37542000  0.36267000  0.89595000  1.0
  H  H39  1  0.62458000  0.63733000  0.10405000  1.0
  C  C40  1  0.06383000  0.10384000  0.79299000  1.0
  C  C41  1  0.93617000  0.89616000  0.20701000  1.0
  C  C42  1  0.91362000  0.15473000  0.84239000  1.0
  C  C43  1  0.08638000  0.84527000  0.15761000  1.0
  C  C44  1  0.89761000  0.31666000  0.84813000  1.0
  C  C45  1  0.10239000  0.68334000  0.15187000  1.0
  C  C46  1  0.84618000  0.33007000  0.72899000  1.0
  C  C47  1  0.15382000  0.66993000  0.27101000  1.0
  C  C48  1  0.81068000  0.48793000  0.74180000  1.0
  C  C49  1  0.18932000  0.51207000  0.25820000  1.0
  C  C50  1  0.62222000  0.82408000  0.52467000  1.0
  C  C51  1  0.37778000  0.17592000  0.47533000  1.0
  C  C52  1  0.71529000  0.70044000  0.52672000  1.0
  C  C53  1  0.28471000  0.29956000  0.47328000  1.0
  C  C54  1  0.72871000  0.66564000  0.63960000  1.0
  C  C55  1  0.27129000  0.33436000  0.36040000  1.0
  C  C56  1  0.78381000  0.51528000  0.62604000  1.0
  C  C57  1  0.21619000  0.48472000  0.37396000  1.0
  C  C58  1  0.26957000  0.65811000  0.74416000  1.0
  C  C59  1  0.73043000  0.34189000  0.25584000  1.0
  C  C60  1  0.50174000  0.84967000  0.87787000  1.0
  C  C61  1  0.49826000  0.15033000  0.12213000  1.0
  C  C62  1  0.29591000  0.55013000  0.79401000  1.0
  C  C63  1  0.70409000  0.44987000  0.20599000  1.0
  C  C64  1  0.53536000  0.74977000  0.93358000  1.0
  C  C65  1  0.46464000  0.25023000  0.06643000  1.0
  C  C66  1  0.42930000  0.59562000  0.89300000  1.0
  C  C67  1  0.57070000  0.40439000  0.10701000  1.0
  C  C68  1  0.44960000  0.48279000  0.94715000  1.0
  C  C69  1  0.55040000  0.51721000  0.05285000  1.0
  N  N70  1  0.36971000  0.80642000  0.78523000  1.0
  N  N71  1  0.63029000  0.19358000  0.21477000  1.0
  O  O72  1  0.49408000  0.13925000  0.80194000  1.0
  O  O73  1  0.50591000  0.86075000  0.19805000  1.0
  O  O74  1  0.16357000  0.83848000  0.56646000  1.0
  O  O75  1  0.83643000  0.16152000  0.43354000  1.0
  O  O76  1  0.13756000  0.16428000  0.72512000  1.0
  O  O77  1  0.86244000  0.83572000  0.27487000  1.0
  O  O78  1  0.11999000  0.99655000  0.81578000  1.0
  O  O79  1  0.88000000  0.00345000  0.18422000  1.0
  O  O80  1  0.55010000  0.88320000  0.60953000  1.0
  O  O81  1  0.44990000  0.11680000  0.39047000  1.0
  O  O82  1  0.61621000  0.86393000  0.43505000  1.0
  O  O83  1  0.38378000  0.13607000  0.56495000  1.0
