# generated using pymatgen
data_ZnH6C12S2(NO2)2
_symmetry_space_group_name_H-M   'P 1'
_cell_length_a   11.09070000
_cell_length_b   12.82290000
_cell_length_c   12.82290000
_cell_angle_alpha   62.46410000
_cell_angle_beta   84.60770000
_cell_angle_gamma   84.60780000
_symmetry_Int_Tables_number   1
_chemical_formula_structural   ZnH6C12S2(NO2)2
_chemical_formula_sum   'Zn4 H24 C48 S8 N8 O16'
_cell_volume   1607.23691964
_cell_formula_units_Z   4
loop_
 _symmetry_equiv_pos_site_id
 _symmetry_equiv_pos_as_xyz
  1  'x, y, z'
loop_
 _atom_site_type_symbol
 _atom_site_label
 _atom_site_symmetry_multiplicity
 _atom_site_fract_x
 _atom_site_fract_y
 _atom_site_fract_z
 _atom_site_occupancy
  Zn  Zn0  1  0.13275000  0.97557000  0.50112000  1.0
  Zn  Zn1  1  0.36724000  0.49888000  0.02444000  1.0
  Zn  Zn2  1  0.86725000  0.02443000  0.49888000  1.0
  Zn  Zn3  1  0.63275000  0.50113000  0.97556000  1.0
  H  H4  1  0.24786000  0.30676000  0.20227000  1.0
  H  H5  1  0.25213000  0.79774000  0.69324000  1.0
  H  H6  1  0.75214000  0.69324000  0.79773000  1.0
  H  H7  1  0.74787000  0.20227000  0.30676000  1.0
  H  H8  1  0.87284000  0.39876000  0.25872000  1.0
  H  H9  1  0.62715000  0.74128000  0.60124000  1.0
  H  H10  1  0.12716000  0.60124000  0.74128000  1.0
  H  H11  1  0.37285000  0.25872000  0.39876000  1.0
  H  H12  1  0.90559000  0.60275000  0.09811000  1.0
  H  H13  1  0.59441000  0.90188000  0.39725000  1.0
  H  H14  1  0.09442000  0.39725000  0.90189000  1.0
  H  H15  1  0.40559000  0.09811000  0.60275000  1.0
  H  H16  1  0.80408000  0.97108000  0.18253000  1.0
  H  H17  1  0.69592000  0.81747000  0.02891000  1.0
  H  H18  1  0.19591000  0.02892000  0.81747000  1.0
  H  H19  1  0.30408000  0.18253000  0.97108000  1.0
  H  H20  1  0.16135000  0.81114000  0.28066000  1.0
  H  H21  1  0.33864000  0.71934000  0.18886000  1.0
  H  H22  1  0.83863000  0.18886000  0.71935000  1.0
  H  H23  1  0.66136000  0.28065000  0.81114000  1.0
  H  H24  1  0.16838000  0.75377000  0.11605000  1.0
  H  H25  1  0.33162000  0.88395000  0.24624000  1.0
  H  H26  1  0.83162000  0.24624000  0.88396000  1.0
  H  H27  1  0.66838000  0.11604000  0.75376000  1.0
  C  C28  1  0.04393000  0.21441000  0.33982000  1.0
  C  C29  1  0.45607000  0.66017000  0.78559000  1.0
  C  C30  1  0.95607000  0.78559000  0.66018000  1.0
  C  C31  1  0.54395000  0.33983000  0.21441000  1.0
  C  C32  1  0.05915000  0.33762000  0.24467000  1.0
  C  C33  1  0.44085000  0.75533000  0.66238000  1.0
  C  C34  1  0.94086000  0.66238000  0.75533000  1.0
  C  C35  1  0.55915000  0.24467000  0.33762000  1.0
  C  C36  1  0.17001000  0.36982000  0.18183000  1.0
  C  C37  1  0.32999000  0.81817000  0.63018000  1.0
  C  C38  1  0.83000000  0.63018000  0.81817000  1.0
  C  C39  1  0.67001000  0.18183000  0.36982000  1.0
  C  C40  1  0.96187000  0.42244000  0.21357000  1.0
  C  C41  1  0.53813000  0.78643000  0.57756000  1.0
  C  C42  1  0.03813000  0.57756000  0.78643000  1.0
  C  C43  1  0.46187000  0.21357000  0.42244000  1.0
  C  C44  1  0.97967000  0.53531000  0.12446000  1.0
  C  C45  1  0.52033000  0.87554000  0.46470000  1.0
  C  C46  1  0.02033000  0.46469000  0.87554000  1.0
  C  C47  1  0.47968000  0.12446000  0.53531000  1.0
  C  C48  1  0.09435000  0.56108000  0.06572000  1.0
  C  C49  1  0.40564000  0.93428000  0.43892000  1.0
  C  C50  1  0.90565000  0.43892000  0.93428000  1.0
  C  C51  1  0.59436000  0.06572000  0.56108000  1.0
  C  C52  1  0.98884000  0.83478000  0.06631000  1.0
  C  C53  1  0.51116000  0.93370000  0.16522000  1.0
  C  C54  1  0.01116000  0.16522000  0.93370000  1.0
  C  C55  1  0.48884000  0.06630000  0.83478000  1.0
  C  C56  1  0.88650000  0.92312000  0.17079000  1.0
  C  C57  1  0.61350000  0.82922000  0.07687000  1.0
  C  C58  1  0.11349000  0.07688000  0.82922000  1.0
  C  C59  1  0.38650000  0.17078000  0.92313000  1.0
  C  C60  1  0.98316000  0.89602000  0.24380000  1.0
  C  C61  1  0.51684000  0.75620000  0.10398000  1.0
  C  C62  1  0.01684000  0.10398000  0.75620000  1.0
  C  C63  1  0.48316000  0.24379000  0.89602000  1.0
  C  C64  1  0.08568000  0.83335000  0.22446000  1.0
  C  C65  1  0.41432000  0.77554000  0.16665000  1.0
  C  C66  1  0.91431000  0.16665000  0.77554000  1.0
  C  C67  1  0.58568000  0.22445000  0.83335000  1.0
  C  C68  1  0.98183000  0.93682000  0.33605000  1.0
  C  C69  1  0.51817000  0.66395000  0.06317000  1.0
  C  C70  1  0.01816000  0.06318000  0.66395000  1.0
  C  C71  1  0.48185000  0.33605000  0.93682000  1.0
  C  C72  1  0.08966000  0.80103000  0.13476000  1.0
  C  C73  1  0.41034000  0.86524000  0.19897000  1.0
  C  C74  1  0.91034000  0.19897000  0.86524000  1.0
  C  C75  1  0.58966000  0.13476000  0.80103000  1.0
  S  S76  1  0.97603000  0.80374000  0.94558000  1.0
  S  S77  1  0.52397000  0.05442000  0.19626000  1.0
  S  S78  1  0.02397000  0.19626000  0.05442000  1.0
  S  S79  1  0.47603000  0.94558000  0.80374000  1.0
  S  S80  1  0.12861000  0.70161000  0.94906000  1.0
  S  S81  1  0.37139000  0.05094000  0.29839000  1.0
  S  S82  1  0.87139000  0.29839000  0.05094000  1.0
  S  S83  1  0.62861000  0.94906000  0.70161000  1.0
  N  N84  1  0.88947000  0.89361000  0.08304000  1.0
  N  N85  1  0.61053000  0.91697000  0.10639000  1.0
  N  N86  1  0.11053000  0.10639000  0.91696000  1.0
  N  N87  1  0.38947000  0.08304000  0.89361000  1.0
  N  N88  1  0.18820000  0.47908000  0.09392000  1.0
  N  N89  1  0.31180000  0.90608000  0.52092000  1.0
  N  N90  1  0.81181000  0.52092000  0.90608000  1.0
  N  N91  1  0.68820000  0.09392000  0.47908000  1.0
  O  O92  1  0.88056000  0.97341000  0.36671000  1.0
  O  O93  1  0.61943000  0.63329000  0.02658000  1.0
  O  O94  1  0.11942000  0.02659000  0.63329000  1.0
  O  O95  1  0.38057000  0.36671000  0.97341000  1.0
  O  O96  1  0.08448000  0.93238000  0.37559000  1.0
  O  O97  1  0.41551000  0.62441000  0.06761000  1.0
  O  O98  1  0.91550000  0.06762000  0.62441000  1.0
  O  O99  1  0.58449000  0.37558000  0.93239000  1.0
  O  O100  1  0.93563000  0.18514000  0.37375000  1.0
  O  O101  1  0.56437000  0.62625000  0.81487000  1.0
  O  O102  1  0.06438000  0.81486000  0.62625000  1.0
  O  O103  1  0.43563000  0.37375000  0.18513000  1.0
  O  O104  1  0.14023000  0.14982000  0.37807000  1.0
  O  O105  1  0.35976000  0.62192000  0.85019000  1.0
  O  O106  1  0.85977000  0.85018000  0.62193000  1.0
  O  O107  1  0.64024000  0.37809000  0.14982000  1.0
