# generated using pymatgen
data_Al2H12C27(SO2)6
_symmetry_space_group_name_H-M   'P 1'
_cell_length_a   3.96345000
_cell_length_b   20.12040000
_cell_length_c   20.12040000
_cell_angle_alpha   60.00000000
_cell_angle_beta   90.00000000
_cell_angle_gamma   89.99940000
_symmetry_Int_Tables_number   1
_chemical_formula_structural   Al2H12C27(SO2)6
_chemical_formula_sum   'Al2 H12 C27 S6 O12'
_cell_volume   1389.55978330
_cell_formula_units_Z   1
loop_
 _symmetry_equiv_pos_site_id
 _symmetry_equiv_pos_as_xyz
  1  'x, y, z'
loop_
 _atom_site_type_symbol
 _atom_site_label
 _atom_site_symmetry_multiplicity
 _atom_site_fract_x
 _atom_site_fract_y
 _atom_site_fract_z
 _atom_site_occupancy
  Al  Al0  1  0.00207000  1.00000000  0.50000000  1.0
  Al  Al1  1  0.00374000  0.66666000  0.16667000  1.0
  H  H2  1  0.46320000  0.43780000  0.38624000  1.0
  H  H3  1  0.46321000  0.88625000  0.17596000  1.0
  H  H4  1  0.46320000  0.67596000  0.93780000  1.0
  H  H5  1  0.71600000  0.18825000  0.26850000  1.0
  H  H6  1  0.48748000  0.27204000  0.20386000  1.0
  H  H7  1  0.27149000  0.18701000  0.27108000  1.0
  H  H8  1  0.71599000  0.76850000  0.54325000  1.0
  H  H9  1  0.48748000  0.70385000  0.52410000  1.0
  H  H10  1  0.27148000  0.77107000  0.54191000  1.0
  H  H11  1  0.71600000  0.04325000  0.68825000  1.0
  H  H12  1  0.48748000  0.02409000  0.77205000  1.0
  H  H13  1  0.27149000  0.04190000  0.68702000  1.0
  C  C14  1  0.50244000  0.94066000  0.61793000  1.0
  C  C15  1  0.50244000  0.11793000  0.44141000  1.0
  C  C16  1  0.50244000  0.94141000  0.44066000  1.0
  C  C17  1  0.50333000  0.54884000  0.22587000  1.0
  C  C18  1  0.50332000  0.72587000  0.22528000  1.0
  C  C19  1  0.50333000  0.72528000  0.04885000  1.0
  C  C20  1  0.49794000  0.25007000  0.32000000  1.0
  C  C21  1  0.48135000  0.41638000  0.34632000  1.0
  C  C22  1  0.50162000  0.20266000  0.39907000  1.0
  C  C23  1  0.50043000  0.46408000  0.26782000  1.0
  C  C24  1  0.50264000  0.33846000  0.36590000  1.0
  C  C25  1  0.51282000  0.32790000  0.30187000  1.0
  C  C26  1  0.49793000  0.81999000  0.42993000  1.0
  C  C27  1  0.48136000  0.84632000  0.23730000  1.0
  C  C28  1  0.50164000  0.89906000  0.39827000  1.0
  C  C29  1  0.50043000  0.76782000  0.26809000  1.0
  C  C30  1  0.50264000  0.86589000  0.29564000  1.0
  C  C31  1  0.51281000  0.80187000  0.37023000  1.0
  C  C32  1  0.49794000  0.92993000  0.75007000  1.0
  C  C33  1  0.48135000  0.73730000  0.91638000  1.0
  C  C34  1  0.50164000  0.89826000  0.70267000  1.0
  C  C35  1  0.50043000  0.76809000  0.96409000  1.0
  C  C36  1  0.50264000  0.79563000  0.83847000  1.0
  C  C37  1  0.51282000  0.87023000  0.82790000  1.0
  C  C38  1  0.49283000  0.22318000  0.26268000  1.0
  C  C39  1  0.49283000  0.76268000  0.51414000  1.0
  C  C40  1  0.49283000  0.01414000  0.72318000  1.0
  S  S41  1  0.51454000  0.25154000  0.44991000  1.0
  S  S42  1  0.53620000  0.41478000  0.21768000  1.0
  S  S43  1  0.51456000  0.94992000  0.29855000  1.0
  S  S44  1  0.53617000  0.71768000  0.36753000  1.0
  S  S45  1  0.51455000  0.79855000  0.75154000  1.0
  S  S46  1  0.53618000  0.86753000  0.91479000  1.0
  O  O47  1  0.73612000  0.99078000  0.42527000  1.0
  O  O48  1  0.73612000  0.92527000  0.58395000  1.0
  O  O49  1  0.73611000  0.08395000  0.49078000  1.0
  O  O50  1  0.26864000  0.92574000  0.49005000  1.0
  O  O51  1  0.26863000  0.08421000  0.42574000  1.0
  O  O52  1  0.26863000  0.99005000  0.58421000  1.0
  O  O53  1  0.73844000  0.74090000  0.08231000  1.0
  O  O54  1  0.73844000  0.58231000  0.17679000  1.0
  O  O55  1  0.73844000  0.67679000  0.24090000  1.0
  O  O56  1  0.27067000  0.67576000  0.08275000  1.0
  O  O57  1  0.27066000  0.74149000  0.17576000  1.0
  O  O58  1  0.27067000  0.58275000  0.24149000  1.0
