# generated using pymatgen
data_NiH10C12(NO)4
_symmetry_space_group_name_H-M   'P 1'
_cell_length_a   7.35067000
_cell_length_b   7.84718000
_cell_length_c   10.97200000
_cell_angle_alpha   89.99920000
_cell_angle_beta   73.67500000
_cell_angle_gamma   89.99950000
_symmetry_Int_Tables_number   1
_chemical_formula_structural   NiH10C12(NO)4
_chemical_formula_sum   'Ni2 H20 C24 N8 O8'
_cell_volume   607.37095828
_cell_formula_units_Z   2
loop_
 _symmetry_equiv_pos_site_id
 _symmetry_equiv_pos_as_xyz
  1  'x, y, z'
loop_
 _atom_site_type_symbol
 _atom_site_label
 _atom_site_symmetry_multiplicity
 _atom_site_fract_x
 _atom_site_fract_y
 _atom_site_fract_z
 _atom_site_occupancy
  Ni  Ni0  1  0.50000000  0.50000000  0.50000000  1.0
  Ni  Ni1  1  0.00000000  0.00000000  0.50000000  1.0
  H  H2  1  0.28841000  0.72960000  0.15511000  1.0
  H  H3  1  0.21155000  0.22962000  0.84490000  1.0
  H  H4  1  0.71160000  0.27039000  0.84488000  1.0
  H  H5  1  0.78844000  0.77039000  0.15510000  1.0
  H  H6  1  0.43986000  0.20136000  0.33925000  1.0
  H  H7  1  0.06015000  0.70136000  0.66077000  1.0
  H  H8  1  0.56015000  0.79864000  0.66075000  1.0
  H  H9  1  0.93985000  0.29864000  0.33923000  1.0
  H  H10  1  0.27491000  0.16421000  0.04521000  1.0
  H  H11  1  0.22508000  0.66420000  0.95480000  1.0
  H  H12  1  0.72509000  0.83578000  0.95479000  1.0
  H  H13  1  0.77491000  0.33580000  0.04520000  1.0
  H  H14  1  0.32913000  0.04967000  0.17316000  1.0
  H  H15  1  0.17088000  0.54969000  0.82683000  1.0
  H  H16  1  0.67087000  0.95032000  0.82683000  1.0
  H  H17  1  0.82911000  0.45032000  0.17316000  1.0
  H  H18  1  0.51302000  0.13350000  0.04886000  1.0
  H  H19  1  0.98699000  0.63350000  0.95113000  1.0
  H  H20  1  0.48698000  0.86649000  0.95113000  1.0
  H  H21  1  0.01301000  0.36651000  0.04887000  1.0
  C  C22  1  0.40162000  0.76761000  0.37884000  1.0
  C  C23  1  0.09838000  0.26762000  0.62117000  1.0
  C  C24  1  0.59838000  0.23240000  0.62116000  1.0
  C  C25  1  0.90163000  0.73242000  0.37884000  1.0
  C  C26  1  0.38330000  0.61376000  0.30347000  1.0
  C  C27  1  0.11671000  0.11377000  0.69654000  1.0
  C  C28  1  0.61670000  0.38623000  0.69654000  1.0
  C  C29  1  0.88330000  0.88624000  0.30346000  1.0
  C  C30  1  0.32754000  0.61052000  0.19277000  1.0
  C  C31  1  0.17246000  0.11053000  0.80723000  1.0
  C  C32  1  0.67246000  0.38947000  0.80723000  1.0
  C  C33  1  0.82754000  0.88948000  0.19276000  1.0
  C  C34  1  0.41226000  0.31915000  0.29480000  1.0
  C  C35  1  0.08774000  0.81917000  0.70521000  1.0
  C  C36  1  0.58774000  0.68084000  0.70520000  1.0
  C  C37  1  0.91225000  0.18084000  0.29479000  1.0
  C  C38  1  0.36365000  0.32019000  0.17934000  1.0
  C  C39  1  0.13634000  0.82021000  0.82067000  1.0
  C  C40  1  0.63635000  0.67980000  0.82066000  1.0
  C  C41  1  0.86366000  0.17979000  0.17933000  1.0
  C  C42  1  0.36726000  0.15805000  0.10781000  1.0
  C  C43  1  0.13273000  0.65807000  0.89219000  1.0
  C  C44  1  0.63274000  0.84194000  0.89219000  1.0
  C  C45  1  0.86726000  0.34193000  0.10781000  1.0
  N  N46  1  0.42542000  0.46605000  0.35354000  1.0
  N  N47  1  0.07459000  0.96606000  0.64647000  1.0
  N  N48  1  0.57457000  0.53394000  0.64647000  1.0
  N  N49  1  0.92541000  0.03395000  0.35353000  1.0
  N  N50  1  0.31939000  0.46596000  0.12951000  1.0
  N  N51  1  0.18060000  0.96598000  0.87050000  1.0
  N  N52  1  0.68061000  0.53403000  0.87049000  1.0
  N  N53  1  0.81940000  0.03403000  0.12950000  1.0
  O  O54  1  0.45528000  0.73058000  0.48009000  1.0
  O  O55  1  0.04472000  0.23059000  0.51991000  1.0
  O  O56  1  0.54472000  0.26942000  0.51991000  1.0
  O  O57  1  0.95528000  0.76943000  0.48009000  1.0
  O  O58  1  0.36902000  0.91362000  0.34739000  1.0
  O  O59  1  0.13097000  0.41362000  0.65261000  1.0
  O  O60  1  0.63099000  0.08637000  0.65262000  1.0
  O  O61  1  0.86903000  0.58638000  0.34739000  1.0
