# generated using pymatgen
data_AlH18C27(NO2)3
_symmetry_space_group_name_H-M   'P 1'
_cell_length_a   4.00565000
_cell_length_b   15.99260000
_cell_length_c   16.05510000
_cell_angle_alpha   60.20100000
_cell_angle_beta   89.25520000
_cell_angle_gamma   88.60520000
_symmetry_Int_Tables_number   1
_chemical_formula_structural   AlH18C27(NO2)3
_chemical_formula_sum   'Al1 H18 C27 N3 O6'
_cell_volume   892.24239044
_cell_formula_units_Z   1
loop_
 _symmetry_equiv_pos_site_id
 _symmetry_equiv_pos_as_xyz
  1  'x, y, z'
loop_
 _atom_site_type_symbol
 _atom_site_label
 _atom_site_symmetry_multiplicity
 _atom_site_fract_x
 _atom_site_fract_y
 _atom_site_fract_z
 _atom_site_occupancy
  Al  Al0  1  0.99229000  0.50192000  0.49917000  1.0
  H  H1  1  0.48296000  0.92548000  0.92033000  1.0
  H  H2  1  0.50619000  0.65458000  0.92481000  1.0
  H  H3  1  0.50084000  0.92022000  0.65529000  1.0
  H  H4  1  0.19173000  0.23738000  0.73755000  1.0
  H  H5  1  0.18333000  0.05912000  0.82912000  1.0
  H  H6  1  0.81710000  0.04958000  0.61474000  1.0
  H  H7  1  0.78383000  0.83532000  0.05253000  1.0
  H  H8  1  0.18731000  0.52723000  0.23240000  1.0
  H  H9  1  0.17918000  0.61484000  0.05467000  1.0
  H  H10  1  0.19911000  0.61338000  0.83772000  1.0
  H  H11  1  0.79468000  0.73417000  0.52800000  1.0
  H  H12  1  0.80860000  0.82751000  0.61324000  1.0
  H  H13  1  0.96246000  0.30145000  0.48796000  1.0
  H  H14  1  0.02441000  0.19570000  0.49259000  1.0
  H  H15  1  0.92950000  0.70954000  0.30368000  1.0
  H  H16  1  0.98115000  0.81076000  0.19950000  1.0
  H  H17  1  0.09488000  0.47482000  0.72046000  1.0
  H  H18  1  0.98598000  0.49030000  0.81605000  1.0
  C  C19  1  0.49140000  0.57659000  0.34995000  1.0
  C  C20  1  0.48661000  0.57267000  0.57638000  1.0
  C  C21  1  0.50397000  0.35176000  0.57118000  1.0
  C  C22  1  0.48630000  0.78395000  0.93486000  1.0
  C  C23  1  0.48829000  0.88491000  0.88226000  1.0
  C  C24  1  0.49884000  0.93511000  0.78167000  1.0
  C  C25  1  0.50567000  0.88215000  0.73350000  1.0
  C  C26  1  0.50239000  0.78113000  0.78401000  1.0
  C  C27  1  0.49462000  0.73311000  0.88459000  1.0
  C  C28  1  0.33326000  0.19563000  0.71177000  1.0
  C  C29  1  0.33078000  0.09541000  0.76360000  1.0
  C  C30  1  0.49947000  0.04166000  0.72790000  1.0
  C  C31  1  0.67136000  0.09060000  0.64074000  1.0
  C  C32  1  0.68351000  0.19158000  0.58856000  1.0
  C  C33  1  0.50692000  0.24407000  0.62502000  1.0
  C  C34  1  0.64384000  0.76899000  0.09172000  1.0
  C  C35  1  0.65550000  0.71980000  0.19239000  1.0
  C  C36  1  0.48956000  0.63115000  0.24267000  1.0
  C  C37  1  0.32288000  0.59418000  0.19240000  1.0
  C  C38  1  0.32049000  0.64308000  0.09252000  1.0
  C  C39  1  0.48213000  0.73165000  0.04097000  1.0
  C  C40  1  0.33656000  0.63940000  0.77047000  1.0
  C  C41  1  0.31940000  0.58619000  0.72235000  1.0
  C  C42  1  0.48767000  0.62217000  0.63250000  1.0
  C  C43  1  0.66172000  0.70912000  0.59564000  1.0
  C  C44  1  0.66593000  0.76166000  0.64268000  1.0
  C  C45  1  0.50218000  0.72654000  0.73208000  1.0
  N  N46  1  0.85431000  0.23863000  0.50177000  1.0
  N  N47  1  0.81659000  0.75886000  0.24107000  1.0
  N  N48  1  0.15703000  0.49998000  0.76512000  1.0
  O  O49  1  0.73741000  0.39368000  0.58851000  1.0
  O  O50  1  0.73183000  0.51712000  0.39195000  1.0
  O  O51  1  0.71581000  0.59203000  0.51305000  1.0
  O  O52  1  0.26827000  0.39568000  0.51088000  1.0
  O  O53  1  0.25588000  0.51123000  0.59238000  1.0
  O  O54  1  0.25164000  0.59332000  0.39354000  1.0
