# generated using pymatgen
data_Zn4H55C86N16Cl
_symmetry_space_group_name_H-M   'P 1'
_cell_length_a   18.81740000
_cell_length_b   18.96580000
_cell_length_c   20.27800000
_cell_angle_alpha   105.56600000
_cell_angle_beta   107.45600000
_cell_angle_gamma   111.42600000
_symmetry_Int_Tables_number   1
_chemical_formula_structural   Zn4H55C86N16Cl
_chemical_formula_sum   'Zn4 H55 C86 N16 Cl1'
_cell_volume   5815.51629306
_cell_formula_units_Z   1
loop_
 _symmetry_equiv_pos_site_id
 _symmetry_equiv_pos_as_xyz
  1  'x, y, z'
loop_
 _atom_site_type_symbol
 _atom_site_label
 _atom_site_symmetry_multiplicity
 _atom_site_fract_x
 _atom_site_fract_y
 _atom_site_fract_z
 _atom_site_occupancy
  Zn  Zn0  1  0.89154000  0.89769000  0.50794000  1.0
  Zn  Zn1  1  0.10818000  0.10898000  0.50218000  1.0
  Zn  Zn2  1  0.09753000  0.99199000  0.59465000  1.0
  Zn  Zn3  1  0.89891000  0.99578000  0.39757000  1.0
  H  H4  1  0.85426000  0.02166000  0.62716000  1.0
  H  H5  1  0.23690000  0.97142000  0.33348000  1.0
  H  H6  1  0.34000000  0.99612000  0.27982000  1.0
  H  H7  1  0.11845000  0.25571000  0.62979000  1.0
  H  H8  1  0.46536000  0.98556000  0.27374000  1.0
  H  H9  1  0.57375000  0.94333000  0.31845000  1.0
  H  H10  1  0.38756000  0.69109000  0.41342000  1.0
  H  H11  1  0.26765000  0.70616000  0.42409000  1.0
  H  H12  1  0.11811000  0.73413000  0.67506000  1.0
  H  H13  1  0.84569000  0.59903000  0.53683000  1.0
  H  H14  1  0.76296000  0.44978000  0.50822000  1.0
  H  H15  1  0.15508000  0.01588000  0.37558000  1.0
  H  H16  1  0.76048000  0.31871000  0.50833000  1.0
  H  H17  1  0.83946000  0.24172000  0.53300000  1.0
  H  H18  1  0.28675000  0.11374000  0.74440000  1.0
  H  H19  1  0.11216000  0.37666000  0.66946000  1.0
  H  H20  1  0.19038000  0.53086000  0.72311000  1.0
  H  H21  1  0.19298000  0.66206000  0.72301000  1.0
  H  H22  1  0.90949000  0.75109000  0.17351000  1.0
  H  H23  1  0.46747000  0.32482000  0.70671000  1.0
  H  H24  1  0.70029000  0.52290000  0.95166000  1.0
  H  H25  1  0.73032000  0.48413000  0.17390000  1.0
  H  H26  1  0.12442000  0.84247000  0.63947000  1.0
  H  H27  1  0.52502000  0.37391000  0.97384000  1.0
  H  H28  1  0.81785000  0.61209000  0.29420000  1.0
  H  H29  1  0.68572000  0.92986000  0.30668000  1.0
  H  H30  1  0.65675000  0.42053000  0.04226000  1.0
  H  H31  1  0.82156000  0.62350000  0.05345000  1.0
  H  H32  1  0.61039000  0.43161000  0.81102000  1.0
  H  H33  1  0.88540000  0.15063000  0.19644000  1.0
  H  H34  1  0.15932000  0.26373000  0.30423000  1.0
  H  H35  1  0.09910000  0.29268000  0.07666000  1.0
  H  H36  1  0.84192000  0.10953000  0.86042000  1.0
  H  H37  1  0.87950000  0.06362000  0.26076000  1.0
  H  H38  1  0.89054000  0.19301000  0.09358000  1.0
  H  H39  1  0.85396000  0.05728000  0.74214000  1.0
  H  H40  1  0.30375000  0.27960000  0.63241000  1.0
  H  H41  1  0.90415000  0.18246000  0.99158000  1.0
  H  H42  1  0.10622000  0.29902000  0.97004000  1.0
  H  H43  1  0.16455000  0.30730000  0.20127000  1.0
  H  H44  1  0.69120000  0.83172000  0.47651000  1.0
  H  H45  1  0.84557000  0.11918000  0.48661000  1.0
  H  H46  1  0.12925000  0.13630000  0.74789000  1.0
  H  H47  1  0.89717000  0.73867000  0.40799000  1.0
  H  H48  1  0.15108000  0.22070000  0.40254000  1.0
  H  H49  1  0.56955000  0.71575000  0.37486000  1.0
  H  H50  1  0.55246000  0.74260000  0.45746000  1.0
  H  H51  1  0.46689000  0.66310000  0.36905000  1.0
  H  H52  1  0.38118000  0.29588000  0.93863000  1.0
  H  H53  1  0.30196000  0.24829000  0.84252000  1.0
  H  H54  1  0.35689000  0.19677000  0.87481000  1.0
  H  H55  1  0.84927000  0.72388000  0.54111000  1.0
  H  H56  1  0.91307000  0.86923000  0.26266000  1.0
  H  H57  1  0.13115000  0.85394000  0.49264000  1.0
  H  H58  1  0.19028000  0.78819000  0.42604000  1.0
  C  C59  1  0.92158000  0.04060000  0.64725000  1.0
  C  C60  1  0.91723000  0.76438000  0.56336000  1.0
  C  C61  1  0.91202000  0.84876000  0.30765000  1.0
  C  C62  1  0.05244000  0.21116000  0.58940000  1.0
  C  C63  1  0.13188000  0.90002000  0.47025000  1.0
  C  C64  1  0.89783000  0.77071000  0.30826000  1.0
  C  C65  1  0.15975000  0.91661000  0.41622000  1.0
  C  C66  1  0.98544000  0.75040000  0.59520000  1.0
  C  C67  1  0.01715000  0.16168000  0.30991000  1.0
  C  C68  1  0.22327000  0.82167000  0.39903000  1.0
  C  C69  1  0.20803000  0.88456000  0.38473000  1.0
  C  C70  1  0.97936000  0.22086000  0.57368000  1.0
  C  C71  1  0.24904000  0.92368000  0.34687000  1.0
  C  C72  1  0.31080000  0.90840000  0.33097000  1.0
  C  C73  1  0.33186000  0.85017000  0.35253000  1.0
  C  C74  1  0.27746000  0.14459000  0.70713000  1.0
  C  C75  1  0.28423000  0.80370000  0.38364000  1.0
  C  C76  1  0.35848000  0.95419000  0.29902000  1.0
  C  C77  1  0.42755000  0.94829000  0.29560000  1.0
  C  C78  1  0.45399000  0.89531000  0.32278000  1.0
  C  C79  1  0.40283000  0.84282000  0.34777000  1.0
  C  C80  1  0.42653000  0.78712000  0.37191000  1.0
  C  C81  1  0.33130000  0.22477000  0.71665000  1.0
  C  C82  1  0.37256000  0.73567000  0.39635000  1.0
  C  C83  1  0.30532000  0.74403000  0.40251000  1.0
  C  C84  1  0.53143000  0.89785000  0.33131000  1.0
  C  C85  1  0.55896000  0.84834000  0.36064000  1.0
  C  C86  1  0.70121000  0.91006000  0.35211000  1.0
  C  C87  1  0.50318000  0.78756000  0.37540000  1.0
  C  C88  1  0.05725000  0.67637000  0.64655000  1.0
  C  C89  1  0.98233000  0.67566000  0.60449000  1.0
  C  C90  1  0.90463000  0.60096000  0.56989000  1.0
  C  C91  1  0.90054000  0.52720000  0.57433000  1.0
  C  C92  1  0.64753000  0.86713000  0.37988000  1.0
  C  C93  1  0.97757000  0.52783000  0.61475000  1.0
  C  C94  1  0.05660000  0.60416000  0.65230000  1.0
  C  C95  1  0.82201000  0.44981000  0.53762000  1.0
  C  C96  1  0.82061000  0.37731000  0.53773000  1.0
  C  C97  1  0.89770000  0.37541000  0.57415000  1.0
  C  C98  1  0.28651000  0.22846000  0.64940000  1.0
  C  C99  1  0.97610000  0.45255000  0.61481000  1.0
  C  C100  1  0.05363000  0.45248000  0.65218000  1.0
  C  C101  1  0.13151000  0.53078000  0.69311000  1.0
  C  C102  1  0.13296000  0.60328000  0.69299000  1.0
  C  C103  1  0.90254000  0.78160000  0.38122000  1.0
  C  C104  1  0.89934000  0.30051000  0.56699000  1.0
  C  C105  1  0.97621000  0.29919000  0.59772000  1.0
  C  C106  1  0.05192000  0.37597000  0.64338000  1.0
  C  C107  1  0.86630000  0.69293000  0.24259000  1.0
  C  C108  1  0.86970000  0.69268000  0.17392000  1.0
  C  C109  1  0.81996000  0.62049000  0.10599000  1.0
  C  C110  1  0.70331000  0.85890000  0.43769000  1.0
  C  C111  1  0.76424000  0.54473000  0.10338000  1.0
  C  C112  1  0.77032000  0.54275000  0.17381000  1.0
  C  C113  1  0.81988000  0.61504000  0.24178000  1.0
  C  C114  1  0.14440000  0.98264000  0.41069000  1.0
  C  C115  1  0.51364000  0.36106000  0.91478000  1.0
  C  C116  1  0.43212000  0.30189000  0.85714000  1.0
  C  C117  1  0.48041000  0.33577000  0.76575000  1.0
  C  C118  1  0.56099000  0.39528000  0.82426000  1.0
  C  C119  1  0.58011000  0.40809000  0.90055000  1.0
  C  C120  1  0.69380000  0.47409000  0.03366000  1.0
  C  C121  1  0.66343000  0.47183000  0.96306000  1.0
  C  C122  1  0.91341000  0.14155000  0.51655000  1.0
  C  C123  1  0.41491000  0.28750000  0.78026000  1.0
  C  C124  1  0.98653000  0.14605000  0.78625000  1.0
  C  C125  1  0.05732000  0.82484000  0.61380000  1.0
  C  C126  1  0.05505000  0.21758000  0.85227000  1.0
  C  C127  1  0.04976000  0.24581000  0.92054000  1.0
  C  C128  1  0.97418000  0.20532000  0.92647000  1.0
  C  C129  1  0.90248000  0.14058000  0.85869000  1.0
  C  C130  1  0.90926000  0.11166000  0.79169000  1.0
  C  C131  1  0.95003000  0.20849000  0.13926000  1.0
  C  C132  1  0.94707000  0.18418000  0.19747000  1.0
  C  C133  1  0.09997000  0.24827000  0.25835000  1.0
  C  C134  1  0.06204000  0.09966000  0.70867000  1.0
  C  C135  1  0.10298000  0.27298000  0.20017000  1.0
  C  C136  1  0.94528000  0.09606000  0.30377000  1.0
  C  C137  1  0.02804000  0.24971000  0.13681000  1.0
  C  C138  1  0.96844000  0.21856000  0.99829000  1.0
  C  C139  1  0.03407000  0.25882000  0.06937000  1.0
  C  C140  1  0.02165000  0.19967000  0.25651000  1.0
  C  C141  1  0.99149000  0.10246000  0.71778000  1.0
  C  C142  1  0.52431000  0.72433000  0.39539000  1.0
  C  C143  1  0.36445000  0.25847000  0.87921000  1.0
  C  C144  1  0.08371000  0.17553000  0.37553000  1.0
  N  N145  1  0.94897000  0.00403000  0.60170000  1.0
  N  N146  1  0.20727000  0.10418000  0.64010000  1.0
  N  N147  1  0.78139000  0.92569000  0.39002000  1.0
  N  N148  1  0.21238000  0.15646000  0.60409000  1.0
  N  N149  1  0.78259000  0.89371000  0.44339000  1.0
  N  N150  1  0.94570000  0.09034000  0.49911000  1.0
  N  N151  1  0.03507000  0.04016000  0.63945000  1.0
  N  N152  1  0.91663000  0.85912000  0.41944000  1.0
  N  N153  1  0.11166000  0.00367000  0.45852000  1.0
  N  N154  1  0.03354000  0.87817000  0.59466000  1.0
  N  N155  1  0.96741000  0.07301000  0.36064000  1.0
  N  N156  1  0.05380000  0.12277000  0.40558000  1.0
  N  N157  1  0.94625000  0.84062000  0.56339000  1.0
  N  N158  1  0.92233000  0.90031000  0.37420000  1.0
  N  N159  1  0.10411000  0.95308000  0.49530000  1.0
  N  N160  1  0.03130000  0.13321000  0.54378000  1.0
  Cl  Cl161  1  0.15141000  0.27421000  0.85170000  1.0
