# generated using pymatgen
data_EuAgH12C14N2O11
_symmetry_space_group_name_H-M   'P 1'
_cell_length_a   7.34973000
_cell_length_b   13.23160000
_cell_length_c   19.75300000
_cell_angle_alpha   74.45100000
_cell_angle_beta   89.99850000
_cell_angle_gamma   89.99760000
_symmetry_Int_Tables_number   1
_chemical_formula_structural   EuAgH12C14N2O11
_chemical_formula_sum   'Eu4 Ag4 H48 C56 N8 O44'
_cell_volume   1850.64941822
_cell_formula_units_Z   4
loop_
 _symmetry_equiv_pos_site_id
 _symmetry_equiv_pos_as_xyz
  1  'x, y, z'
loop_
 _atom_site_type_symbol
 _atom_site_label
 _atom_site_symmetry_multiplicity
 _atom_site_fract_x
 _atom_site_fract_y
 _atom_site_fract_z
 _atom_site_occupancy
  Eu  Eu0  1  0.90580000  0.80586000  0.85132000  1.0
  Eu  Eu1  1  0.40580000  0.69414000  0.64868000  1.0
  Eu  Eu2  1  0.09420000  0.19414000  0.14868000  1.0
  Eu  Eu3  1  0.59420000  0.30587000  0.35132000  1.0
  Ag  Ag4  1  0.41877000  0.89280000  0.00655000  1.0
  Ag  Ag5  1  0.91878000  0.60721000  0.49345000  1.0
  Ag  Ag6  1  0.58123000  0.10719000  0.99345000  1.0
  Ag  Ag7  1  0.08122000  0.39279000  0.50655000  1.0
  H  H8  1  0.68251000  0.64831000  0.81259000  1.0
  H  H9  1  0.18250000  0.85170000  0.68741000  1.0
  H  H10  1  0.31749000  0.35169000  0.18741000  1.0
  H  H11  1  0.81750000  0.14830000  0.31259000  1.0
  H  H12  1  0.58339000  0.64371000  0.88436000  1.0
  H  H13  1  0.08337000  0.85629000  0.61564000  1.0
  H  H14  1  0.41661000  0.35629000  0.11564000  1.0
  H  H15  1  0.91663000  0.14371000  0.38436000  1.0
  H  H16  1  0.82594000  0.76971000  0.70528000  1.0
  H  H17  1  0.32595000  0.73030000  0.79472000  1.0
  H  H18  1  0.17406000  0.23029000  0.29472000  1.0
  H  H19  1  0.67405000  0.26970000  0.20528000  1.0
  H  H20  1  0.99302000  0.69237000  0.73665000  1.0
  H  H21  1  0.49302000  0.80763000  0.76335000  1.0
  H  H22  1  0.00698000  0.30763000  0.26335000  1.0
  H  H23  1  0.50698000  0.19237000  0.23665000  1.0
  H  H24  1  0.04187000  0.98266000  0.72453000  1.0
  H  H25  1  0.54188000  0.51735000  0.77547000  1.0
  H  H26  1  0.95813000  0.01734000  0.27547000  1.0
  H  H27  1  0.45812000  0.48265000  0.22453000  1.0
  H  H28  1  0.22830000  0.95749000  0.76652000  1.0
  H  H29  1  0.72829000  0.54252000  0.73348000  1.0
  H  H30  1  0.77170000  0.04251000  0.23348000  1.0
  H  H31  1  0.27171000  0.45748000  0.26652000  1.0
  H  H32  1  0.52787000  0.18460000  0.80379000  1.0
  H  H33  1  0.02788000  0.31541000  0.69620000  1.0
  H  H34  1  0.47213000  0.81540000  0.19620000  1.0
  H  H35  1  0.97212000  0.68459000  0.30380000  1.0
  H  H36  1  0.75940000  0.28276000  0.85695000  1.0
  H  H37  1  0.25943000  0.21725000  0.64304000  1.0
  H  H38  1  0.24060000  0.71724000  0.14305000  1.0
  H  H39  1  0.74058000  0.78275000  0.35696000  1.0
  H  H40  1  0.04210000  0.18585000  0.91180000  1.0
  H  H41  1  0.54214000  0.31416000  0.58819000  1.0
  H  H42  1  0.95790000  0.81415000  0.08820000  1.0
  H  H43  1  0.45786000  0.68584000  0.41181000  1.0
  H  H44  1  0.78876000  0.60266000  0.13279000  1.0
  H  H45  1  0.28877000  0.89734000  0.36721000  1.0
  H  H46  1  0.21124000  0.39734000  0.86721000  1.0
  H  H47  1  0.71123000  0.10266000  0.63279000  1.0
  H  H48  1  0.07791000  0.49596000  0.15343000  1.0
  H  H49  1  0.57792000  0.00404000  0.34657000  1.0
  H  H50  1  0.92209000  0.50404000  0.84657000  1.0
  H  H51  1  0.42209000  0.99596000  0.65343000  1.0
  H  H52  1  0.30084000  0.51840000  0.05301000  1.0
  H  H53  1  0.80084000  0.98159000  0.44698000  1.0
  H  H54  1  0.69916000  0.48159000  0.94699000  1.0
  H  H55  1  0.19916000  0.01841000  0.55301000  1.0
  C  C56  1  0.56817000  0.98118000  0.79243000  1.0
  C  C57  1  0.06820000  0.51883000  0.70757000  1.0
  C  C58  1  0.43183000  0.01882000  0.20757000  1.0
  C  C59  1  0.93181000  0.48117000  0.29243000  1.0
  C  C60  1  0.69452000  0.04600000  0.82420000  1.0
  C  C61  1  0.19454000  0.45401000  0.67579000  1.0
  C  C62  1  0.30547000  0.95401000  0.17580000  1.0
  C  C63  1  0.80546000  0.54599000  0.32421000  1.0
  C  C64  1  0.65585000  0.14884000  0.82558000  1.0
  C  C65  1  0.15586000  0.35116000  0.67441000  1.0
  C  C66  1  0.34415000  0.85116000  0.17442000  1.0
  C  C67  1  0.84414000  0.64884000  0.32559000  1.0
  C  C68  1  0.78336000  0.20193000  0.85591000  1.0
  C  C69  1  0.28339000  0.29807000  0.64408000  1.0
  C  C70  1  0.21665000  0.79807000  0.14409000  1.0
  C  C71  1  0.71662000  0.70193000  0.35592000  1.0
  C  C72  1  0.94029000  0.14928000  0.88624000  1.0
  C  C73  1  0.44032000  0.35072000  0.61376000  1.0
  C  C74  1  0.05971000  0.85072000  0.11376000  1.0
  C  C75  1  0.55968000  0.64928000  0.38624000  1.0
  C  C76  1  0.96448000  0.04525000  0.88485000  1.0
  C  C77  1  0.46450000  0.45475000  0.61514000  1.0
  C  C78  1  0.03552000  0.95475000  0.11515000  1.0
  C  C79  1  0.53550000  0.54525000  0.38486000  1.0
  C  C80  1  0.11775000  0.97717000  0.92168000  1.0
  C  C81  1  0.61777000  0.52283000  0.57832000  1.0
  C  C82  1  0.88225000  0.02283000  0.07832000  1.0
  C  C83  1  0.38223000  0.47717000  0.42168000  1.0
  C  C84  1  0.69752000  0.74945000  0.00694000  1.0
  C  C85  1  0.19752000  0.75056000  0.49306000  1.0
  C  C86  1  0.30248000  0.25055000  0.99306000  1.0
  C  C87  1  0.80248000  0.24945000  0.50694000  1.0
  C  C88  1  0.85441000  0.67387000  0.02434000  1.0
  C  C89  1  0.35442000  0.82613000  0.47567000  1.0
  C  C90  1  0.14559000  0.32613000  0.97566000  1.0
  C  C91  1  0.64558000  0.17387000  0.52433000  1.0
  C  C92  1  0.88753000  0.60705000  0.09104000  1.0
  C  C93  1  0.38755000  0.89296000  0.40896000  1.0
  C  C94  1  0.11246000  0.39295000  0.90896000  1.0
  C  C95  1  0.61245000  0.10704000  0.59104000  1.0
  C  C96  1  0.04860000  0.54904000  0.10216000  1.0
  C  C97  1  0.54860000  0.95096000  0.39784000  1.0
  C  C98  1  0.95140000  0.45096000  0.89784000  1.0
  C  C99  1  0.45140000  0.04904000  0.60216000  1.0
  C  C100  1  0.17193000  0.56027000  0.04691000  1.0
  C  C101  1  0.67194000  0.93973000  0.45309000  1.0
  C  C102  1  0.82807000  0.43973000  0.95309000  1.0
  C  C103  1  0.32806000  0.06027000  0.54691000  1.0
  C  C104  1  0.12564000  0.62644000  0.98150000  1.0
  C  C105  1  0.62564000  0.87356000  0.51850000  1.0
  C  C106  1  0.87436000  0.37356000  0.01850000  1.0
  C  C107  1  0.37436000  0.12644000  0.48150000  1.0
  C  C108  1  0.24781000  0.64287000  0.91824000  1.0
  C  C109  1  0.74782000  0.85713000  0.58176000  1.0
  C  C110  1  0.75219000  0.35713000  0.08176000  1.0
  C  C111  1  0.25218000  0.14287000  0.41824000  1.0
  N  N112  1  0.84662000  0.99646000  0.85253000  1.0
  N  N113  1  0.34662000  0.50354000  0.64747000  1.0
  N  N114  1  0.15338000  0.00354000  0.14747000  1.0
  N  N115  1  0.65337000  0.49646000  0.35253000  1.0
  N  N116  1  0.97002000  0.68093000  0.97079000  1.0
  N  N117  1  0.47003000  0.81907000  0.52921000  1.0
  N  N118  1  0.02998000  0.31906000  0.02921000  1.0
  N  N119  1  0.52997000  0.18093000  0.47079000  1.0
  O  O120  1  0.63551000  0.89520000  0.78500000  1.0
  O  O121  1  0.13551000  0.60480000  0.71500000  1.0
  O  O122  1  0.36449000  0.10480000  0.21500000  1.0
  O  O123  1  0.86449000  0.39520000  0.28500000  1.0
  O  O124  1  0.41062000  0.01624000  0.77589000  1.0
  O  O125  1  0.91064000  0.48376000  0.72411000  1.0
  O  O126  1  0.58938000  0.98375000  0.22411000  1.0
  O  O127  1  0.08936000  0.51625000  0.27589000  1.0
  O  O128  1  0.12555000  0.88426000  0.91556000  1.0
  O  O129  1  0.62557000  0.61575000  0.58444000  1.0
  O  O130  1  0.87444000  0.11574000  0.08444000  1.0
  O  O131  1  0.37442000  0.38425000  0.41556000  1.0
  O  O132  1  0.58787000  0.75449000  0.05569000  1.0
  O  O133  1  0.08789000  0.74552000  0.44431000  1.0
  O  O134  1  0.41213000  0.24551000  0.94431000  1.0
  O  O135  1  0.91211000  0.25448000  0.55569000  1.0
  O  O136  1  0.68981000  0.80777000  0.94422000  1.0
  O  O137  1  0.18982000  0.69224000  0.55579000  1.0
  O  O138  1  0.31019000  0.19223000  0.05578000  1.0
  O  O139  1  0.81018000  0.30777000  0.44421000  1.0
  O  O140  1  0.22586000  0.01616000  0.95830000  1.0
  O  O141  1  0.72589000  0.48384000  0.54169000  1.0
  O  O142  1  0.77414000  0.98384000  0.04170000  1.0
  O  O143  1  0.27411000  0.51616000  0.45831000  1.0
  O  O144  1  0.18117000  0.70033000  0.86019000  1.0
  O  O145  1  0.68117000  0.79966000  0.63981000  1.0
  O  O146  1  0.81883000  0.29967000  0.13981000  1.0
  O  O147  1  0.31883000  0.20033000  0.36019000  1.0
  O  O148  1  0.40121000  0.60026000  0.92638000  1.0
  O  O149  1  0.90119000  0.89973000  0.57362000  1.0
  O  O150  1  0.59879000  0.39974000  0.07362000  1.0
  O  O151  1  0.09881000  0.10027000  0.42638000  1.0
  O  O152  1  0.70283000  0.66073000  0.85894000  1.0
  O  O153  1  0.20282000  0.83928000  0.64106000  1.0
  O  O154  1  0.29717000  0.33927000  0.14106000  1.0
  O  O155  1  0.79718000  0.16072000  0.35894000  1.0
  O  O156  1  0.90944000  0.74594000  0.74676000  1.0
  O  O157  1  0.40943000  0.75407000  0.75323000  1.0
  O  O158  1  0.09056000  0.25406000  0.25324000  1.0
  O  O159  1  0.59057000  0.24593000  0.24676000  1.0
  O  O160  1  0.10747000  0.92626000  0.75706000  1.0
  O  O161  1  0.60746000  0.57374000  0.74294000  1.0
  O  O162  1  0.89253000  0.07374000  0.24294000  1.0
  O  O163  1  0.39255000  0.42626000  0.25706000  1.0
