# generated using pymatgen
data_DyH19C24S(NO2)4
_symmetry_space_group_name_H-M   'P 1'
_cell_length_a   8.79914000
_cell_length_b   8.96576000
_cell_length_c   14.46860000
_cell_angle_alpha   95.45540000
_cell_angle_beta   91.50190000
_cell_angle_gamma   99.16680000
_symmetry_Int_Tables_number   1
_chemical_formula_structural   DyH19C24S(NO2)4
_chemical_formula_sum   'Dy2 H38 C48 S2 N8 O16'
_cell_volume   1120.76654991
_cell_formula_units_Z   2
loop_
 _symmetry_equiv_pos_site_id
 _symmetry_equiv_pos_as_xyz
  1  'x, y, z'
loop_
 _atom_site_type_symbol
 _atom_site_label
 _atom_site_symmetry_multiplicity
 _atom_site_fract_x
 _atom_site_fract_y
 _atom_site_fract_z
 _atom_site_occupancy
  Dy  Dy0  1  0.05709000  0.05938000  0.15649000  1.0
  Dy  Dy1  1  0.94291000  0.94062000  0.84351000  1.0
  H  H2  1  0.79592000  0.56232000  0.54914000  1.0
  H  H3  1  0.20408000  0.43768000  0.45085000  1.0
  H  H4  1  0.19091000  0.73926000  0.19438000  1.0
  H  H5  1  0.80909000  0.26075000  0.80561000  1.0
  H  H6  1  0.15424000  0.51506000  0.28591000  1.0
  H  H7  1  0.84576000  0.48494000  0.71408000  1.0
  H  H8  1  0.98415000  0.52127000  0.42380000  1.0
  H  H9  1  0.01585000  0.47873000  0.57620000  1.0
  H  H10  1  0.66459000  0.16774000  0.51792000  1.0
  H  H11  1  0.33542000  0.83226000  0.48208000  1.0
  H  H12  1  0.73994000  0.37803000  0.41384000  1.0
  H  H13  1  0.26007000  0.62197000  0.58617000  1.0
  H  H14  1  0.90681000  0.33058000  0.28080000  1.0
  H  H15  1  0.09319000  0.66942000  0.71920000  1.0
  H  H16  1  0.58484000  0.44143000  0.58016000  1.0
  H  H17  1  0.41515000  0.55857000  0.41984000  1.0
  H  H18  1  0.41616000  0.28466000  0.67855000  1.0
  H  H19  1  0.58383000  0.71534000  0.32145000  1.0
  H  H20  1  0.27575000  0.41082000  0.80368000  1.0
  H  H21  1  0.72425000  0.58918000  0.19632000  1.0
  H  H22  1  0.32513000  0.69372000  0.83432000  1.0
  H  H23  1  0.67488000  0.30628000  0.16568000  1.0
  H  H24  1  0.41483000  0.45149000  0.04307000  1.0
  H  H25  1  0.58517000  0.54851000  0.95693000  1.0
  H  H26  1  0.36715000  0.54502000  0.14981000  1.0
  H  H27  1  0.63285000  0.45498000  0.85019000  1.0
  H  H28  1  0.17126000  0.49158000  0.96684000  1.0
  H  H29  1  0.82874000  0.50841000  0.03316000  1.0
  H  H30  1  0.10448000  0.55903000  0.07408000  1.0
  H  H31  1  0.89552000  0.44097000  0.92592000  1.0
  H  H32  1  0.33393000  0.78105000  0.08470000  1.0
  H  H33  1  0.66607000  0.21895000  0.91530000  1.0
  H  H34  1  0.37359000  0.72055000  0.96956000  1.0
  H  H35  1  0.62641000  0.27945000  0.03044000  1.0
  H  H36  1  0.79083000  0.85254000  0.06443000  1.0
  H  H37  1  0.20917000  0.14746000  0.93557000  1.0
  H  H38  1  0.71358000  0.95646000  0.13756000  1.0
  H  H39  1  0.28642000  0.04354000  0.86244000  1.0
  C  C40  1  0.11716000  0.73670000  0.25353000  1.0
  C  C41  1  0.88285000  0.26330000  0.74647000  1.0
  C  C42  1  0.09910000  0.61299000  0.30716000  1.0
  C  C43  1  0.90090000  0.38702000  0.69284000  1.0
  C  C44  1  0.00518000  0.61706000  0.38211000  1.0
  C  C45  1  0.99482000  0.38294000  0.61789000  1.0
  C  C46  1  0.93265000  0.74425000  0.40392000  1.0
  C  C47  1  0.06735000  0.25575000  0.59608000  1.0
  C  C48  1  0.83116000  0.76247000  0.47743000  1.0
  C  C49  1  0.16884000  0.23752000  0.52257000  1.0
  C  C50  1  0.76321000  0.89279000  0.49567000  1.0
  C  C51  1  0.23680000  0.10721000  0.50433000  1.0
  C  C52  1  0.79776000  0.01903000  0.44213000  1.0
  C  C53  1  0.20225000  0.98097000  0.55787000  1.0
  C  C54  1  0.74104000  0.15638000  0.46048000  1.0
  C  C55  1  0.25897000  0.84362000  0.53952000  1.0
  C  C56  1  0.78335000  0.27062000  0.40410000  1.0
  C  C57  1  0.21665000  0.72938000  0.59590000  1.0
  C  C58  1  0.87624000  0.24463000  0.32849000  1.0
  C  C59  1  0.12376000  0.75537000  0.67151000  1.0
  C  C60  1  0.89342000  0.00250000  0.36555000  1.0
  C  C61  1  0.10658000  0.99750000  0.63445000  1.0
  C  C62  1  0.95868000  0.86487000  0.34566000  1.0
  C  C63  1  0.04132000  0.13513000  0.65434000  1.0
  C  C64  1  0.66631000  0.73823000  0.59193000  1.0
  C  C65  1  0.33369000  0.26176000  0.40807000  1.0
  C  C66  1  0.56491000  0.65744000  0.65571000  1.0
  C  C67  1  0.43509000  0.34256000  0.34430000  1.0
  C  C68  1  0.53296000  0.49768000  0.63858000  1.0
  C  C69  1  0.46704000  0.50232000  0.36142000  1.0
  C  C70  1  0.43316000  0.40814000  0.69188000  1.0
  C  C71  1  0.56684000  0.59186000  0.30812000  1.0
  C  C72  1  0.35657000  0.47904000  0.76233000  1.0
  C  C73  1  0.64343000  0.52097000  0.23768000  1.0
  C  C74  1  0.38601000  0.63698000  0.78057000  1.0
  C  C75  1  0.61399000  0.36302000  0.21944000  1.0
  C  C76  1  0.49108000  0.72737000  0.73007000  1.0
  C  C77  1  0.50892000  0.27263000  0.26993000  1.0
  C  C78  1  0.23404000  0.32568000  0.11300000  1.0
  C  C79  1  0.76596000  0.67432000  0.88699000  1.0
  C  C80  1  0.31908000  0.47413000  0.08657000  1.0
  C  C81  1  0.68092000  0.52587000  0.91343000  1.0
  C  C82  1  0.20901000  0.55632000  0.03417000  1.0
  C  C83  1  0.79099000  0.44368000  0.96583000  1.0
  C  C84  1  0.28171000  0.71929000  0.01941000  1.0
  C  C85  1  0.71829000  0.28071000  0.98059000  1.0
  C  C86  1  0.15780000  0.80253000  0.98537000  1.0
  C  C87  1  0.84220000  0.19747000  0.01463000  1.0
  S  S88  1  0.52827000  0.92869000  0.77088000  1.0
  S  S89  1  0.47173000  0.07130000  0.22912000  1.0
  N  N90  1  0.04716000  0.85687000  0.27082000  1.0
  N  N91  1  0.95283000  0.14313000  0.72918000  1.0
  N  N92  1  0.92925000  0.11461000  0.30887000  1.0
  N  N93  1  0.07075000  0.88539000  0.69113000  1.0
  N  N94  1  0.76930000  0.66594000  0.54004000  1.0
  N  N95  1  0.23070000  0.33406000  0.45996000  1.0
  N  N96  1  0.66282000  0.87610000  0.56614000  1.0
  N  N97  1  0.33718000  0.12389000  0.43386000  1.0
  O  O98  1  0.69845000  0.95970000  0.78605000  1.0
  O  O99  1  0.30155000  0.04030000  0.21395000  1.0
  O  O100  1  0.47268000  0.01609000  0.70155000  1.0
  O  O101  1  0.52732000  0.98391000  0.29845000  1.0
  O  O102  1  0.44969000  0.94101000  0.85887000  1.0
  O  O103  1  0.55031000  0.05899000  0.14113000  1.0
  O  O104  1  0.21613000  0.20732000  0.05435000  1.0
  O  O105  1  0.78387000  0.79268000  0.94565000  1.0
  O  O106  1  0.17449000  0.31898000  0.19250000  1.0
  O  O107  1  0.82551000  0.68102000  0.80750000  1.0
  O  O108  1  0.09366000  0.88175000  0.04629000  1.0
  O  O109  1  0.90633000  0.11825000  0.95371000  1.0
  O  O110  1  0.11585000  0.78617000  0.90000000  1.0
  O  O111  1  0.88415000  0.21383000  0.10000000  1.0
  O  O112  1  0.80421000  0.90380000  0.12891000  1.0
  O  O113  1  0.19579000  0.09619000  0.87109000  1.0
