# generated using pymatgen
data_ZnH16C18(N3Cl)2
_symmetry_space_group_name_H-M   'P 1'
_cell_length_a   8.11558000
_cell_length_b   10.01350000
_cell_length_c   12.79690000
_cell_angle_alpha   77.55620000
_cell_angle_beta   74.50140000
_cell_angle_gamma   70.19510000
_symmetry_Int_Tables_number   1
_chemical_formula_structural   ZnH16C18(N3Cl)2
_chemical_formula_sum   'Zn2 H32 C36 N12 Cl4'
_cell_volume   933.85885998
_cell_formula_units_Z   2
loop_
 _symmetry_equiv_pos_site_id
 _symmetry_equiv_pos_as_xyz
  1  'x, y, z'
loop_
 _atom_site_type_symbol
 _atom_site_label
 _atom_site_symmetry_multiplicity
 _atom_site_fract_x
 _atom_site_fract_y
 _atom_site_fract_z
 _atom_site_occupancy
  Zn  Zn0  1  0.63208000  0.74200000  0.71941000  1.0
  Zn  Zn1  1  0.36792000  0.25800000  0.28059000  1.0
  H  H2  1  0.58038000  0.70314000  0.50603000  1.0
  H  H3  1  0.41962000  0.29685000  0.49398000  1.0
  H  H4  1  0.91792000  0.27928000  0.44162000  1.0
  H  H5  1  0.08208000  0.72072000  0.55838000  1.0
  H  H6  1  0.98525000  0.23778000  0.62590000  1.0
  H  H7  1  0.01475000  0.76222000  0.37409000  1.0
  H  H8  1  0.84531000  0.43685000  0.74468000  1.0
  H  H9  1  0.15469000  0.56315000  0.25532000  1.0
  H  H10  1  0.89973000  0.35772000  0.25202000  1.0
  H  H11  1  0.10027000  0.64228000  0.74798000  1.0
  H  H12  1  0.73029000  0.52798000  0.08798000  1.0
  H  H13  1  0.26970000  0.47202000  0.91202000  1.0
  H  H14  1  0.33234000  0.80395000  0.19609000  1.0
  H  H15  1  0.66766000  0.19605000  0.80391000  1.0
  H  H16  1  0.49612000  0.75985000  0.07347000  1.0
  H  H17  1  0.50388000  0.24015000  0.92654000  1.0
  H  H18  1  0.46434000  0.00383000  0.10903000  1.0
  H  H19  1  0.53566000  0.99617000  0.89098000  1.0
  H  H20  1  0.51438000  0.93036000  0.24144000  1.0
  H  H21  1  0.48562000  0.06964000  0.75856000  1.0
  H  H22  1  0.84131000  0.76181000  0.24594000  1.0
  H  H23  1  0.15869000  0.23819000  0.75406000  1.0
  H  H24  1  0.15575000  0.71775000  0.08805000  1.0
  H  H25  1  0.84425000  0.28225000  0.91195000  1.0
  H  H26  1  0.84442000  0.96093000  0.78988000  1.0
  H  H27  1  0.15558000  0.03907000  0.21012000  1.0
  H  H28  1  0.03649000  0.99108000  0.60345000  1.0
  H  H29  1  0.96351000  0.00892000  0.39655000  1.0
  H  H30  1  0.37016000  0.91002000  0.58233000  1.0
  H  H31  1  0.62984000  0.08998000  0.41767000  1.0
  H  H32  1  0.33010000  0.76218000  0.91369000  1.0
  H  H33  1  0.66990000  0.23781000  0.08631000  1.0
  C  C34  1  0.66799000  0.59786000  0.53102000  1.0
  C  C35  1  0.33201000  0.40214000  0.46898000  1.0
  C  C36  1  0.73945000  0.49478000  0.45912000  1.0
  C  C37  1  0.26055000  0.50522000  0.54088000  1.0
  C  C38  1  0.85545000  0.36270000  0.49459000  1.0
  C  C39  1  0.14456000  0.63730000  0.50541000  1.0
  C  C40  1  0.89403000  0.33925000  0.59780000  1.0
  C  C41  1  0.10597000  0.66075000  0.40219000  1.0
  C  C42  1  0.81763000  0.44729000  0.66397000  1.0
  C  C43  1  0.18237000  0.55271000  0.33603000  1.0
  C  C44  1  0.70014000  0.52910000  0.34987000  1.0
  C  C45  1  0.29986000  0.47089000  0.65013000  1.0
  C  C46  1  0.78791000  0.45489000  0.25811000  1.0
  C  C47  1  0.21209000  0.54511000  0.74189000  1.0
  C  C48  1  0.70577000  0.53802000  0.17406000  1.0
  C  C49  1  0.29423000  0.46199000  0.82594000  1.0
  C  C50  1  0.47529000  0.78095000  0.15742000  1.0
  C  C51  1  0.52471000  0.21905000  0.84259000  1.0
  C  C52  1  0.53856000  0.90903000  0.15723000  1.0
  C  C53  1  0.46144000  0.09097000  0.84277000  1.0
  C  C54  1  0.86630000  0.79902000  0.15878000  1.0
  C  C55  1  0.13370000  0.20099000  0.84122000  1.0
  C  C56  1  0.02101000  0.77881000  0.07807000  1.0
  C  C57  1  0.97899000  0.22119000  0.92193000  1.0
  C  C58  1  0.96313000  0.85177000  0.98016000  1.0
  C  C59  1  0.03687000  0.14823000  0.01984000  1.0
  C  C60  1  0.06959000  0.86616000  0.86927000  1.0
  C  C61  1  0.93041000  0.13384000  0.13073000  1.0
  C  C62  1  0.98946000  0.92803000  0.77862000  1.0
  C  C63  1  0.01054000  0.07197000  0.22138000  1.0
  C  C64  1  0.09619000  0.94385000  0.67467000  1.0
  C  C65  1  0.90381000  0.05615000  0.32533000  1.0
  C  C66  1  0.28156000  0.89570000  0.66185000  1.0
  C  C67  1  0.71844000  0.10430000  0.33815000  1.0
  C  C68  1  0.25713000  0.81583000  0.84856000  1.0
  C  C69  1  0.74287000  0.18417000  0.15144000  1.0
  N  N70  1  0.70681000  0.57485000  0.63017000  1.0
  N  N71  1  0.29319000  0.42515000  0.36983000  1.0
  N  N72  1  0.57160000  0.65028000  0.32359000  1.0
  N  N73  1  0.42840000  0.34971000  0.67641000  1.0
  N  N74  1  0.57671000  0.65229000  0.21714000  1.0
  N  N75  1  0.42329000  0.34770000  0.78286000  1.0
  N  N76  1  0.72849000  0.88043000  0.10898000  1.0
  N  N77  1  0.27151000  0.11957000  0.89102000  1.0
  N  N78  1  0.78394000  0.91315000  0.00018000  1.0
  N  N79  1  0.21606000  0.08685000  0.99982000  1.0
  N  N80  1  0.35947000  0.82994000  0.74770000  1.0
  N  N81  1  0.64053000  0.17006000  0.25230000  1.0
  Cl  Cl82  1  0.73215000  0.91316000  0.60072000  1.0
  Cl  Cl83  1  0.26785000  0.08684000  0.39928000  1.0
  Cl  Cl84  1  0.71014000  0.65001000  0.88011000  1.0
  Cl  Cl85  1  0.28985000  0.34999000  0.11989000  1.0
