# generated using pymatgen
data_LaH12C21NO6
_symmetry_space_group_name_H-M   'P 1'
_cell_length_a   13.02370000
_cell_length_b   14.74750000
_cell_length_c   14.74740000
_cell_angle_alpha   111.72600000
_cell_angle_beta   107.11400000
_cell_angle_gamma   107.11400000
_symmetry_Int_Tables_number   1
_chemical_formula_structural   LaH12C21NO6
_chemical_formula_sum   'La3 H36 C63 N3 O18'
_cell_volume   2240.47949543
_cell_formula_units_Z   3
loop_
 _symmetry_equiv_pos_site_id
 _symmetry_equiv_pos_as_xyz
  1  'x, y, z'
loop_
 _atom_site_type_symbol
 _atom_site_label
 _atom_site_symmetry_multiplicity
 _atom_site_fract_x
 _atom_site_fract_y
 _atom_site_fract_z
 _atom_site_occupancy
  La  La0  1  0.82355000  0.32354000  0.64711000  1.0
  La  La1  1  0.17645000  0.35289000  0.67646000  1.0
  La  La2  1  0.50000000  0.32354000  0.67646000  1.0
  H  H3  1  0.65485000  0.47969000  0.30087000  1.0
  H  H4  1  0.35392000  0.69919000  0.17882000  1.0
  H  H5  1  0.17527000  0.82122000  0.52043000  1.0
  H  H6  1  0.64608000  0.82118000  0.30081000  1.0
  H  H7  1  0.82473000  0.47957000  0.17878000  1.0
  H  H8  1  0.34515000  0.69913000  0.52031000  1.0
  H  H9  1  0.64167000  0.37928000  0.40321000  1.0
  H  H10  1  0.23846000  0.59681000  0.97605000  1.0
  H  H11  1  0.26251000  0.02398000  0.62072000  1.0
  H  H12  1  0.76153000  0.02395000  0.40319000  1.0
  H  H13  1  0.73749000  0.37928000  0.97602000  1.0
  H  H14  1  0.35833000  0.59679000  0.62073000  1.0
  H  H15  1  0.66850000  0.65484000  0.66666667  1.0
  H  H16  1  0.00184000  0.33338000  0.98817000  1.0
  H  H17  1  0.01369000  0.01176000  0.34514000  1.0
  H  H18  1  0.99816000  0.01183000  0.66666667  1.0
  H  H19  1  0.98631000  0.65486000  0.98824000  1.0
  H  H20  1  0.33150000  0.33333333  0.34516000  1.0
  H  H21  1  0.68825000  0.75873000  0.56925000  1.0
  H  H22  1  0.11916000  0.43078000  0.18949000  1.0
  H  H23  1  0.92969000  0.81044000  0.24136000  1.0
  H  H24  1  0.88084000  0.81051000  0.56922000  1.0
  H  H25  1  0.07032000  0.75864000  0.18956000  1.0
  H  H26  1  0.31175000  0.43075000  0.24127000  1.0
  H  H27  1  0.45556000  0.53825000  0.24237000  1.0
  H  H28  1  0.21326000  0.75761000  0.29598000  1.0
  H  H29  1  0.91726000  0.70404000  0.46168000  1.0
  H  H30  1  0.78674000  0.70402000  0.24239000  1.0
  H  H31  1  0.08275000  0.53832000  0.29596000  1.0
  H  H32  1  0.54444000  0.75763000  0.46175000  1.0
  H  H33  1  0.35153000  0.43939000  0.03783000  1.0
  H  H34  1  0.31372000  0.96214000  0.40153000  1.0
  H  H35  1  0.91203000  0.59836000  0.56056000  1.0
  H  H36  1  0.68628000  0.59847000  0.03785000  1.0
  H  H37  1  0.08797000  0.43944000  0.40164000  1.0
  H  H38  1  0.64847000  0.96217000  0.56061000  1.0
  C  C39  1  0.67349000  0.62689000  0.42774000  1.0
  C  C40  1  0.24581000  0.57230000  0.19915000  1.0
  C  C41  1  0.04675000  0.80083000  0.37317000  1.0
  C  C42  1  0.75420000  0.80085000  0.42770000  1.0
  C  C43  1  0.95325000  0.62683000  0.19917000  1.0
  C  C44  1  0.32651000  0.57226000  0.37311000  1.0
  C  C45  1  0.65816000  0.51849000  0.38118000  1.0
  C  C46  1  0.27693000  0.61888000  0.13729000  1.0
  C  C47  1  0.13982000  0.86270000  0.48157000  1.0
  C  C48  1  0.72307000  0.86271000  0.38112000  1.0
  C  C49  1  0.86018000  0.51843000  0.13730000  1.0
  C  C50  1  0.34184000  0.61882000  0.48151000  1.0
  C  C51  1  0.65076000  0.46217000  0.43838000  1.0
  C  C52  1  0.21236000  0.56167000  0.02377000  1.0
  C  C53  1  0.18874000  0.97624000  0.53782000  1.0
  C  C54  1  0.78764000  0.97623000  0.43833000  1.0
  C  C55  1  0.81126000  0.46218000  0.02377000  1.0
  C  C56  1  0.34924000  0.56162000  0.53783000  1.0
  C  C57  1  0.65610000  0.51128000  0.54232000  1.0
  C  C58  1  0.11371000  0.45775000  0.96894000  1.0
  C  C59  1  0.14495000  0.03109000  0.48872000  1.0
  C  C60  1  0.88629000  0.03106000  0.54225000  1.0
  C  C61  1  0.85505000  0.51128000  0.96891000  1.0
  C  C62  1  0.34390000  0.45768000  0.48872000  1.0
  C  C63  1  0.66784000  0.61800000  0.58733000  1.0
  C  C64  1  0.08051000  0.41275000  0.03068000  1.0
  C  C65  1  0.04995000  0.96930000  0.38201000  1.0
  C  C66  1  0.91949000  0.96931000  0.58724000  1.0
  C  C67  1  0.95005000  0.61799000  0.03070000  1.0
  C  C68  1  0.33216000  0.41267000  0.38200000  1.0
  C  C69  1  0.67723000  0.67538000  0.53165000  1.0
  C  C70  1  0.14570000  0.46837000  0.14373000  1.0
  C  C71  1  0.00205000  0.85625000  0.32467000  1.0
  C  C72  1  0.85430000  0.85627000  0.53163000  1.0
  C  C73  1  0.99795000  0.67534000  0.14375000  1.0
  C  C74  1  0.32277000  0.46835000  0.32462000  1.0
  C  C75  1  0.64397000  0.45209000  0.60359000  1.0
  C  C76  1  0.04036000  0.39642000  0.84850000  1.0
  C  C77  1  0.19197000  0.15153000  0.54791000  1.0
  C  C78  1  0.95964000  0.15150000  0.60358000  1.0
  C  C79  1  0.80803000  0.45210000  0.84847000  1.0
  C  C80  1  0.35603000  0.39642000  0.54792000  1.0
  C  C81  1  0.62723000  0.62724000  0.25455000  1.0
  C  C82  1  0.37277000  0.74545000  0.37276000  1.0
  C  C83  1  0.00000000  0.62724000  0.37276000  1.0
  C  C84  1  0.50494000  0.55152000  0.19682000  1.0
  C  C85  1  0.30821000  0.80317000  0.35473000  1.0
  C  C86  1  0.95340000  0.64524000  0.44846000  1.0
  C  C87  1  0.69179000  0.64526000  0.19683000  1.0
  C  C88  1  0.04660000  0.55154000  0.35476000  1.0
  C  C89  1  0.49506000  0.80318000  0.44848000  1.0
  C  C90  1  0.44756000  0.49578000  0.08293000  1.0
  C  C91  1  0.36467000  0.91706000  0.41283000  1.0
  C  C92  1  0.95172000  0.58709000  0.50420000  1.0
  C  C93  1  0.63533000  0.58717000  0.08294000  1.0
  C  C94  1  0.04828000  0.49579000  0.41290000  1.0
  C  C95  1  0.55244000  0.91707000  0.50422000  1.0
  C  C96  1  0.51244000  0.51250000  0.02491000  1.0
  C  C97  1  0.48756000  0.97509000  0.48750000  1.0
  C  C98  1  0.00000000  0.51245000  0.48755000  1.0
  C  C99  1  0.45129000  0.45134000  0.90258000  1.0
  C  C100  1  0.54871000  0.09742000  0.54866000  1.0
  C  C101  1  0.00000000  0.45128000  0.54872000  1.0
  N  N102  1  0.68566000  0.68571000  0.37140000  1.0
  N  N103  1  0.31434000  0.62860000  0.31429000  1.0
  N  N104  1  0.00000000  0.68567000  0.31433000  1.0
  O  O105  1  0.62152000  0.49101000  0.68436000  1.0
  O  O106  1  0.93717000  0.31560000  0.80662000  1.0
  O  O107  1  0.13060000  0.19338000  0.50898000  1.0
  O  O108  1  0.06283000  0.19338000  0.68440000  1.0
  O  O109  1  0.86940000  0.49102000  0.80662000  1.0
  O  O110  1  0.37849000  0.31565000  0.50899000  1.0
  O  O111  1  0.65045000  0.36056000  0.57223000  1.0
  O  O112  1  0.07816000  0.42772000  0.78828000  1.0
  O  O113  1  0.28993000  0.21175000  0.63948000  1.0
  O  O114  1  0.92184000  0.21172000  0.57228000  1.0
  O  O115  1  0.71008000  0.36052000  0.78826000  1.0
  O  O116  1  0.34955000  0.42777000  0.63944000  1.0
  O  O117  1  0.51290000  0.42480000  0.85398000  1.0
  O  O118  1  0.65891000  0.14600000  0.57071000  1.0
  O  O119  1  0.08806000  0.42911000  0.57512000  1.0
  O  O120  1  0.34109000  0.42929000  0.85400000  1.0
  O  O121  1  0.91194000  0.42488000  0.57089000  1.0
  O  O122  1  0.48710000  0.14602000  0.57520000  1.0
