# generated using pymatgen
data_ZnH20C32(NO)4
_symmetry_space_group_name_H-M   'P 1'
_cell_length_a   8.27151000
_cell_length_b   10.71070000
_cell_length_c   14.26320000
_cell_angle_alpha   97.66580000
_cell_angle_beta   91.98350000
_cell_angle_gamma   98.48640000
_symmetry_Int_Tables_number   1
_chemical_formula_structural   ZnH20C32(NO)4
_chemical_formula_sum   'Zn2 H40 C64 N8 O8'
_cell_volume   1236.72235928
_cell_formula_units_Z   2
loop_
 _symmetry_equiv_pos_site_id
 _symmetry_equiv_pos_as_xyz
  1  'x, y, z'
loop_
 _atom_site_type_symbol
 _atom_site_label
 _atom_site_symmetry_multiplicity
 _atom_site_fract_x
 _atom_site_fract_y
 _atom_site_fract_z
 _atom_site_occupancy
  Zn  Zn0  1  0.77376000  0.28896000  0.65327000  1.0
  Zn  Zn1  1  0.22624000  0.71104000  0.34673000  1.0
  H  H2  1  0.49396000  0.18404000  0.78265000  1.0
  H  H3  1  0.50604000  0.81596000  0.21735000  1.0
  H  H4  1  0.20347000  0.07046000  0.75908000  1.0
  H  H5  1  0.79653000  0.92954000  0.24092000  1.0
  H  H6  1  0.07853000  0.01291000  0.59390000  1.0
  H  H7  1  0.92147000  0.98709000  0.40611000  1.0
  H  H8  1  0.24871000  0.06332000  0.45770000  1.0
  H  H9  1  0.75129000  0.93668000  0.54230000  1.0
  H  H10  1  0.40126000  0.13810000  0.35398000  1.0
  H  H11  1  0.59874000  0.86190000  0.64602000  1.0
  H  H12  1  0.89759000  0.30302000  0.30647000  1.0
  H  H13  1  0.10241000  0.69697000  0.69353000  1.0
  H  H14  1  0.12767000  0.37597000  0.37146000  1.0
  H  H15  1  0.87233000  0.62403000  0.62854000  1.0
  H  H16  1  0.39234000  0.45028000  0.45997000  1.0
  H  H17  1  0.60766000  0.54972000  0.54002000  1.0
  H  H18  1  0.41054000  0.45743000  0.63905000  1.0
  H  H19  1  0.58946000  0.54257000  0.36095000  1.0
  H  H20  1  0.14878000  0.39427000  0.71856000  1.0
  H  H21  1  0.85122000  0.60573000  0.28144000  1.0
  H  H22  1  0.80176000  0.34819000  0.18201000  1.0
  H  H23  1  0.19824000  0.65181000  0.81799000  1.0
  H  H24  1  0.38979000  0.05951000  0.21373000  1.0
  H  H25  1  0.61020000  0.94048000  0.78626000  1.0
  H  H26  1  0.32500000  0.04512000  0.04042000  1.0
  H  H27  1  0.67500000  0.95488000  0.95958000  1.0
  H  H28  1  0.51097000  0.17907000  0.94530000  1.0
  H  H29  1  0.48904000  0.82093000  0.05470000  1.0
  H  H30  1  0.92237000  0.60185000  0.95651000  1.0
  H  H31  1  0.07763000  0.39815000  0.04349000  1.0
  H  H32  1  0.78399000  0.61338000  0.10838000  1.0
  H  H33  1  0.21601000  0.38662000  0.89162000  1.0
  H  H34  1  0.47087000  0.43023000  0.80411000  1.0
  H  H35  1  0.52913000  0.56977000  0.19589000  1.0
  H  H36  1  0.92158000  0.86846000  0.75402000  1.0
  H  H37  1  0.07842000  0.13154000  0.24598000  1.0
  H  H38  1  0.99858000  0.76392000  0.88935000  1.0
  H  H39  1  0.00142000  0.23608000  0.11064000  1.0
  H  H40  1  0.92185000  0.22109000  0.93735000  1.0
  H  H41  1  0.07815000  0.77891000  0.06265000  1.0
  C  C42  1  0.43368000  0.15593000  0.71210000  1.0
  C  C43  1  0.56632000  0.84407000  0.28789000  1.0
  C  C44  1  0.27285000  0.09347000  0.69854000  1.0
  C  C45  1  0.72715000  0.90653000  0.30146000  1.0
  C  C46  1  0.20464000  0.06087000  0.60603000  1.0
  C  C47  1  0.79536000  0.93913000  0.39397000  1.0
  C  C48  1  0.29839000  0.09118000  0.53049000  1.0
  C  C49  1  0.70161000  0.90882000  0.46951000  1.0
  C  C50  1  0.45863000  0.15517000  0.55021000  1.0
  C  C51  1  0.54137000  0.84483000  0.44979000  1.0
  C  C52  1  0.57005000  0.19387000  0.47604000  1.0
  C  C53  1  0.42995000  0.80613000  0.52396000  1.0
  C  C54  1  0.52587000  0.17966000  0.37945000  1.0
  C  C55  1  0.47412000  0.82034000  0.62055000  1.0
  C  C56  1  0.64346000  0.21911000  0.31588000  1.0
  C  C57  1  0.35654000  0.78088000  0.68412000  1.0
  C  C58  1  0.80274000  0.27091000  0.35289000  1.0
  C  C59  1  0.19725000  0.72909000  0.64712000  1.0
  C  C60  1  0.83758000  0.28333000  0.45038000  1.0
  C  C61  1  0.16241000  0.71667000  0.54962000  1.0
  C  C62  1  0.00057000  0.33633000  0.49765000  1.0
  C  C63  1  0.99943000  0.66367000  0.50235000  1.0
  C  C64  1  0.13713000  0.37549000  0.44785000  1.0
  C  C65  1  0.86287000  0.62452000  0.55215000  1.0
  C  C66  1  0.28585000  0.41994000  0.49876000  1.0
  C  C67  1  0.71415000  0.58006000  0.50124000  1.0
  C  C68  1  0.29528000  0.42546000  0.59716000  1.0
  C  C69  1  0.70472000  0.57453000  0.40284000  1.0
  C  C70  1  0.15180000  0.38843000  0.64171000  1.0
  C  C71  1  0.84820000  0.61157000  0.35829000  1.0
  C  C72  1  0.69583000  0.27812000  0.15363000  1.0
  C  C73  1  0.30417000  0.72188000  0.84637000  1.0
  C  C74  1  0.60165000  0.20548000  0.21346000  1.0
  C  C75  1  0.39835000  0.79451000  0.78654000  1.0
  C  C76  1  0.46596000  0.11944000  0.17128000  1.0
  C  C77  1  0.53404000  0.88055000  0.82872000  1.0
  C  C78  1  0.43009000  0.11052000  0.07458000  1.0
  C  C79  1  0.56991000  0.88948000  0.92542000  1.0
  C  C80  1  0.53376000  0.18544000  0.02187000  1.0
  C  C81  1  0.46624000  0.81456000  0.97813000  1.0
  C  C82  1  0.78658000  0.51724000  0.77920000  1.0
  C  C83  1  0.21343000  0.48276000  0.22080000  1.0
  C  C84  1  0.70224000  0.51899000  0.87085000  1.0
  C  C85  1  0.29776000  0.48101000  0.12916000  1.0
  C  C86  1  0.79142000  0.56971000  0.95779000  1.0
  C  C87  1  0.20858000  0.43028000  0.04221000  1.0
  C  C88  1  0.71442000  0.57451000  0.04179000  1.0
  C  C89  1  0.28557000  0.42549000  0.95821000  1.0
  C  C90  1  0.53757000  0.47034000  0.87122000  1.0
  C  C91  1  0.46243000  0.52966000  0.12878000  1.0
  C  C92  1  0.54503000  0.52729000  0.04368000  1.0
  C  C93  1  0.45497000  0.47271000  0.95632000  1.0
  C  C94  1  0.86731000  0.10994000  0.75426000  1.0
  C  C95  1  0.13270000  0.89006000  0.24574000  1.0
  C  C96  1  0.92111000  0.05217000  0.83787000  1.0
  C  C97  1  0.07889000  0.94784000  0.16214000  1.0
  C  C98  1  0.94327000  0.92213000  0.82495000  1.0
  C  C99  1  0.05673000  0.07787000  0.17505000  1.0
  C  C100  1  0.98653000  0.86448000  0.90056000  1.0
  C  C101  1  0.01347000  0.13552000  0.09944000  1.0
  C  C102  1  0.01093000  0.93411000  0.99323000  1.0
  C  C103  1  0.98907000  0.06589000  0.00677000  1.0
  C  C104  1  0.94363000  0.12246000  0.92747000  1.0
  C  C105  1  0.05637000  0.87754000  0.07254000  1.0
  N  N106  1  0.52356000  0.18614000  0.63993000  1.0
  N  N107  1  0.47644000  0.81386000  0.36007000  1.0
  N  N108  1  0.72234000  0.24627000  0.50901000  1.0
  N  N109  1  0.27766000  0.75373000  0.49099000  1.0
  N  N110  1  0.00878000  0.34486000  0.59314000  1.0
  N  N111  1  0.99122000  0.65514000  0.40685000  1.0
  N  N112  1  0.66502000  0.26729000  0.05994000  1.0
  N  N113  1  0.33499000  0.73271000  0.94006000  1.0
  O  O114  1  0.70219000  0.45352000  0.70438000  1.0
  O  O115  1  0.29781000  0.54648000  0.29562000  1.0
  O  O116  1  0.92929000  0.57578000  0.77773000  1.0
  O  O117  1  0.07072000  0.42422000  0.22228000  1.0
  O  O118  1  0.86026000  0.23075000  0.76872000  1.0
  O  O119  1  0.13974000  0.76925000  0.23128000  1.0
  O  O120  1  0.83042000  0.04025000  0.67574000  1.0
  O  O121  1  0.16958000  0.95975000  0.32426000  1.0
