# generated using pymatgen
data_AlAgH16C28(NO)4
_symmetry_space_group_name_H-M   'P 1'
_cell_length_a   6.89946000
_cell_length_b   6.90014000
_cell_length_c   13.93100000
_cell_angle_alpha   75.78600000
_cell_angle_beta   75.72500000
_cell_angle_gamma   89.93720000
_symmetry_Int_Tables_number   1
_chemical_formula_structural   AlAgH16C28(NO)4
_chemical_formula_sum   'Al1 Ag1 H16 C28 N4 O4'
_cell_volume   621.81264225
_cell_formula_units_Z   1
loop_
 _symmetry_equiv_pos_site_id
 _symmetry_equiv_pos_as_xyz
  1  'x, y, z'
loop_
 _atom_site_type_symbol
 _atom_site_label
 _atom_site_symmetry_multiplicity
 _atom_site_fract_x
 _atom_site_fract_y
 _atom_site_fract_z
 _atom_site_occupancy
  Al  Al0  1  0.50081000  0.49934000  0.99997000  1.0
  Ag  Ag1  1  0.74817000  0.25001000  0.50021000  1.0
  H  H2  1  0.06456000  0.27832000  0.97605000  1.0
  H  H3  1  0.95976000  0.74233000  0.97627000  1.0
  H  H4  1  0.25745000  0.93547000  0.02398000  1.0
  H  H5  1  0.72235000  0.03984000  0.02369000  1.0
  H  H6  1  0.85782000  0.30023000  0.85103000  1.0
  H  H7  1  0.29111000  0.84522000  0.85183000  1.0
  H  H8  1  0.15339000  0.14255000  0.14880000  1.0
  H  H9  1  0.69960000  0.70854000  0.14844000  1.0
  H  H10  1  0.39278000  0.46678000  0.60160000  1.0
  H  H11  1  0.00499000  0.93574000  0.60177000  1.0
  H  H12  1  0.06525000  0.60747000  0.39834000  1.0
  H  H13  1  0.53370000  0.99488000  0.39824000  1.0
  H  H14  1  0.59771000  0.43939000  0.72749000  1.0
  H  H15  1  0.67467000  0.83577000  0.72706000  1.0
  H  H16  1  0.16463000  0.40230000  0.27255000  1.0
  H  H17  1  0.56158000  0.32525000  0.27274000  1.0
  C  C18  1  0.34522000  0.35417000  0.85977000  1.0
  C  C19  1  0.79515000  0.78499000  0.85967000  1.0
  C  C20  1  0.21481000  0.65485000  0.14026000  1.0
  C  C21  1  0.64607000  0.20460000  0.14020000  1.0
  C  C22  1  0.13546000  0.31537000  0.89419000  1.0
  C  C23  1  0.97051000  0.78846000  0.89440000  1.0
  C  C24  1  0.21127000  0.86468000  0.10580000  1.0
  C  C25  1  0.68488000  0.02915000  0.10561000  1.0
  C  C26  1  0.02006000  0.32980000  0.82453000  1.0
  C  C27  1  0.15539000  0.84388000  0.82501000  1.0
  C  C28  1  0.15549000  0.98027000  0.17540000  1.0
  C  C29  1  0.67020000  0.84431000  0.17507000  1.0
  C  C30  1  0.11243000  0.38406000  0.71857000  1.0
  C  C31  1  0.16871000  0.89753000  0.71902000  1.0
  C  C32  1  0.10221000  0.88798000  0.28135000  1.0
  C  C33  1  0.61591000  0.83116000  0.28109000  1.0
  C  C34  1  0.32201000  0.42375000  0.68359000  1.0
  C  C35  1  0.99406000  0.89450000  0.68377000  1.0
  C  C36  1  0.10568000  0.67829000  0.31637000  1.0
  C  C37  1  0.57660000  0.00581000  0.31624000  1.0
  C  C38  1  0.43615000  0.40798000  0.75369000  1.0
  C  C39  1  0.81003000  0.83957000  0.75356000  1.0
  C  C40  1  0.16049000  0.56397000  0.24633000  1.0
  C  C41  1  0.59256000  0.18987000  0.24637000  1.0
  C  C42  1  0.99653000  0.39728000  0.64707000  1.0
  C  C43  1  0.35565000  0.95614000  0.64768000  1.0
  C  C44  1  0.04373000  0.00400000  0.35280000  1.0
  C  C45  1  0.60258000  0.64417000  0.35252000  1.0
  N  N46  1  0.90009000  0.40804000  0.58782000  1.0
  N  N47  1  0.51075000  0.00506000  0.58835000  1.0
  N  N48  1  0.99504000  0.10048000  0.41207000  1.0
  N  N49  1  0.59173000  0.48905000  0.41189000  1.0
  O  O50  1  0.45947000  0.33909000  0.92594000  1.0
  O  O51  1  0.61499000  0.73302000  0.92555000  1.0
  O  O52  1  0.26686000  0.54045000  0.07419000  1.0
  O  O53  1  0.66091000  0.38480000  0.07421000  1.0
