# generated using pymatgen
data_CdH8C5S2N4O
_symmetry_space_group_name_H-M   'P 1'
_cell_length_a   8.22375000
_cell_length_b   8.22379000
_cell_length_c   14.87010000
_cell_angle_alpha   89.99940000
_cell_angle_beta   89.99900000
_cell_angle_gamma   82.53040000
_symmetry_Int_Tables_number   1
_chemical_formula_structural   CdH8C5S2N4O
_chemical_formula_sum   'Cd4 H32 C20 S8 N16 O4'
_cell_volume   997.13656161
_cell_formula_units_Z   4
loop_
 _symmetry_equiv_pos_site_id
 _symmetry_equiv_pos_as_xyz
  1  'x, y, z'
loop_
 _atom_site_type_symbol
 _atom_site_label
 _atom_site_symmetry_multiplicity
 _atom_site_fract_x
 _atom_site_fract_y
 _atom_site_fract_z
 _atom_site_occupancy
  Cd  Cd0  1  0.28225000  0.97049000  0.81896000  1.0
  Cd  Cd1  1  0.97049000  0.28223000  0.18105000  1.0
  Cd  Cd2  1  0.47049000  0.78223000  0.31896000  1.0
  Cd  Cd3  1  0.78224000  0.47049000  0.68104000  1.0
  H  H4  1  0.19782000  0.05677000  0.03069000  1.0
  H  H5  1  0.05678000  0.19782000  0.96932000  1.0
  H  H6  1  0.55676000  0.69782000  0.53069000  1.0
  H  H7  1  0.69782000  0.55677000  0.46931000  1.0
  H  H8  1  0.37349000  0.36288000  0.83710000  1.0
  H  H9  1  0.36288000  0.37349000  0.16290000  1.0
  H  H10  1  0.86288000  0.87348000  0.33710000  1.0
  H  H11  1  0.87347000  0.86288000  0.66289000  1.0
  H  H12  1  0.15788000  0.37352000  0.85684000  1.0
  H  H13  1  0.37352000  0.15788000  0.14316000  1.0
  H  H14  1  0.87352000  0.65788000  0.35684000  1.0
  H  H15  1  0.65787000  0.87352000  0.64316000  1.0
  H  H16  1  0.48534000  0.04194000  0.00483000  1.0
  H  H17  1  0.04193000  0.48533000  0.99518000  1.0
  H  H18  1  0.54193000  0.98533000  0.50482000  1.0
  H  H19  1  0.98533000  0.54193000  0.49518000  1.0
  H  H20  1  0.56248000  0.17036000  0.92205000  1.0
  H  H21  1  0.17035000  0.56248000  0.07795000  1.0
  H  H22  1  0.67035000  0.06248000  0.42204000  1.0
  H  H23  1  0.06247000  0.67036000  0.57795000  1.0
  H  H24  1  0.46184000  0.54780000  0.05157000  1.0
  H  H25  1  0.54778000  0.46185000  0.94843000  1.0
  H  H26  1  0.04779000  0.96185000  0.55156000  1.0
  H  H27  1  0.96184000  0.04779000  0.44843000  1.0
  H  H28  1  0.23616000  0.69416000  0.93827000  1.0
  H  H29  1  0.69416000  0.23617000  0.06172000  1.0
  H  H30  1  0.19416000  0.73616000  0.43828000  1.0
  H  H31  1  0.73617000  0.19416000  0.56172000  1.0
  H  H32  1  0.07807000  0.82363000  0.93020000  1.0
  H  H33  1  0.82362000  0.07808000  0.06980000  1.0
  H  H34  1  0.32362000  0.57808000  0.43020000  1.0
  H  H35  1  0.57808000  0.32363000  0.56980000  1.0
  C  C36  1  0.87546000  0.12544000  0.80224000  1.0
  C  C37  1  0.12543000  0.87545000  0.19778000  1.0
  C  C38  1  0.62542000  0.37545000  0.30222000  1.0
  C  C39  1  0.37547000  0.62542000  0.69778000  1.0
  C  C40  1  0.66431000  0.75591000  0.84055000  1.0
  C  C41  1  0.75592000  0.66425000  0.15944000  1.0
  C  C42  1  0.25591000  0.16428000  0.34056000  1.0
  C  C43  1  0.16427000  0.25593000  0.65944000  1.0
  C  C44  1  0.17872000  0.17873000  0.00001000  1.0
  C  C45  1  0.67872000  0.67873000  0.49999000  1.0
  C  C46  1  0.27933000  0.35470000  0.88863000  1.0
  C  C47  1  0.35469000  0.27934000  0.11136000  1.0
  C  C48  1  0.85470000  0.77933000  0.38863000  1.0
  C  C49  1  0.77933000  0.85470000  0.61136000  1.0
  C  C50  1  0.46767000  0.16380000  0.97331000  1.0
  C  C51  1  0.16378000  0.46767000  0.02670000  1.0
  C  C52  1  0.66378000  0.96767000  0.47330000  1.0
  C  C53  1  0.96767000  0.66379000  0.52670000  1.0
  C  C54  1  0.45347000  0.45345000  0.00000000  1.0
  C  C55  1  0.95346000  0.95346000  0.49999000  1.0
  S  S56  1  0.69430000  0.20785000  0.77010000  1.0
  S  S57  1  0.20786000  0.69429000  0.22990000  1.0
  S  S58  1  0.70785000  0.19429000  0.27009000  1.0
  S  S59  1  0.19430000  0.70787000  0.72990000  1.0
  S  S60  1  0.83912000  0.63636000  0.83386000  1.0
  S  S61  1  0.63634000  0.83911000  0.16613000  1.0
  S  S62  1  0.13634000  0.33911000  0.33386000  1.0
  S  S63  1  0.33912000  0.13633000  0.66614000  1.0
  N  N64  1  0.00598000  0.06225000  0.82571000  1.0
  N  N65  1  0.06224000  0.00597000  0.17431000  1.0
  N  N66  1  0.56223000  0.50597000  0.32570000  1.0
  N  N67  1  0.50598000  0.56223000  0.67430000  1.0
  N  N68  1  0.54032000  0.84545000  0.84656000  1.0
  N  N69  1  0.84548000  0.54027000  0.15344000  1.0
  N  N70  1  0.34547000  0.04028000  0.34657000  1.0
  N  N71  1  0.04028000  0.34548000  0.65344000  1.0
  N  N72  1  0.30459000  0.18803000  0.92948000  1.0
  N  N73  1  0.18802000  0.30460000  0.07051000  1.0
  N  N74  1  0.68801000  0.80460000  0.42948000  1.0
  N  N75  1  0.80460000  0.68803000  0.57051000  1.0
  N  N76  1  0.28963000  0.48178000  0.95741000  1.0
  N  N77  1  0.48177000  0.28966000  0.04259000  1.0
  N  N78  1  0.98177000  0.78966000  0.45741000  1.0
  N  N79  1  0.78965000  0.98177000  0.54259000  1.0
  O  O80  1  0.19446000  0.81429000  0.94543000  1.0
  O  O81  1  0.81431000  0.19443000  0.05458000  1.0
  O  O82  1  0.31431000  0.69443000  0.44543000  1.0
  O  O83  1  0.69447000  0.31429000  0.55457000  1.0
