# generated using pymatgen
data_KH12C10SN2O
_symmetry_space_group_name_H-M   'P 1'
_cell_length_a   6.38044000
_cell_length_b   11.94230000
_cell_length_c   14.91490000
_cell_angle_alpha   96.79360000
_cell_angle_beta   90.00000000
_cell_angle_gamma   90.00000000
_symmetry_Int_Tables_number   1
_chemical_formula_structural   KH12C10SN2O
_chemical_formula_sum   'K4 H48 C40 S4 N8 O4'
_cell_volume   1128.49307035
_cell_formula_units_Z   4
loop_
 _symmetry_equiv_pos_site_id
 _symmetry_equiv_pos_as_xyz
  1  'x, y, z'
loop_
 _atom_site_type_symbol
 _atom_site_label
 _atom_site_symmetry_multiplicity
 _atom_site_fract_x
 _atom_site_fract_y
 _atom_site_fract_z
 _atom_site_occupancy
  K  K0  1  0.95629000  0.00002000  0.75000000  1.0
  K  K1  1  0.04371000  0.00000000  0.25000000  1.0
  K  K2  1  0.00000000  0.99996000  0.49999000  1.0
  K  K3  1  0.00000000  0.00001000  0.00000000  1.0
  H  H4  1  0.77829000  0.33184000  0.62479000  1.0
  H  H5  1  0.77827000  0.66813000  0.87522000  1.0
  H  H6  1  0.22170000  0.66816000  0.37521000  1.0
  H  H7  1  0.22174000  0.33185000  0.12478000  1.0
  H  H8  1  0.51345000  0.48536000  0.65050000  1.0
  H  H9  1  0.51342000  0.51461000  0.84949000  1.0
  H  H10  1  0.48652000  0.51462000  0.34950000  1.0
  H  H11  1  0.48658000  0.48537000  0.15050000  1.0
  H  H12  1  0.13992000  0.44189000  0.67445000  1.0
  H  H13  1  0.13988000  0.55810000  0.82555000  1.0
  H  H14  1  0.86007000  0.55809000  0.32555000  1.0
  H  H15  1  0.86012000  0.44189000  0.17444000  1.0
  H  H16  1  0.02110000  0.24144000  0.67295000  1.0
  H  H17  1  0.02109000  0.75856000  0.82707000  1.0
  H  H18  1  0.97889000  0.75854000  0.32704000  1.0
  H  H19  1  0.97893000  0.24144000  0.17294000  1.0
  H  H20  1  0.23934000  0.77533000  0.65887000  1.0
  H  H21  1  0.23935000  0.22468000  0.84114000  1.0
  H  H22  1  0.76065000  0.22468000  0.34112000  1.0
  H  H23  1  0.76065000  0.77534000  0.15885000  1.0
  H  H24  1  0.23967000  0.79948000  0.54243000  1.0
  H  H25  1  0.23967000  0.20052000  0.95757000  1.0
  H  H26  1  0.76031000  0.20052000  0.45756000  1.0
  H  H27  1  0.76035000  0.79948000  0.04242000  1.0
  H  H28  1  0.22121000  0.58259000  0.58843000  1.0
  H  H29  1  0.22119000  0.41741000  0.91159000  1.0
  H  H30  1  0.77878000  0.41741000  0.41157000  1.0
  H  H31  1  0.77879000  0.58260000  0.08841000  1.0
  H  H32  1  0.07427000  0.62137000  0.49565000  1.0
  H  H33  1  0.07424000  0.37862000  0.00436000  1.0
  H  H34  1  0.92571000  0.37863000  0.50435000  1.0
  H  H35  1  0.92576000  0.62138000  0.99564000  1.0
  H  H36  1  0.91388000  0.61835000  0.68951000  1.0
  H  H37  1  0.91387000  0.38165000  0.81050000  1.0
  H  H38  1  0.08611000  0.38167000  0.31050000  1.0
  H  H39  1  0.08610000  0.61836000  0.18951000  1.0
  H  H40  1  0.79678000  0.55423000  0.58756000  1.0
  H  H41  1  0.79676000  0.44576000  0.91245000  1.0
  H  H42  1  0.20321000  0.44577000  0.41245000  1.0
  H  H43  1  0.20322000  0.55424000  0.08757000  1.0
  H  H44  1  0.69948000  0.73482000  0.54151000  1.0
  H  H45  1  0.69948000  0.26516000  0.95849000  1.0
  H  H46  1  0.30051000  0.26518000  0.45849000  1.0
  H  H47  1  0.30053000  0.73483000  0.04151000  1.0
  H  H48  1  0.67277000  0.76605000  0.66169000  1.0
  H  H49  1  0.67278000  0.23394000  0.83831000  1.0
  H  H50  1  0.32721000  0.23396000  0.33830000  1.0
  H  H51  1  0.32721000  0.76605000  0.16170000  1.0
  C  C52  1  0.55199000  0.19874000  0.63642000  1.0
  C  C53  1  0.55199000  0.80126000  0.86359000  1.0
  C  C54  1  0.44803000  0.80127000  0.36358000  1.0
  C  C55  1  0.44802000  0.19874000  0.13641000  1.0
  C  C56  1  0.61438000  0.31187000  0.63557000  1.0
  C  C57  1  0.61437000  0.68813000  0.86444000  1.0
  C  C58  1  0.38562000  0.68814000  0.36443000  1.0
  C  C59  1  0.38565000  0.31187000  0.13556000  1.0
  C  C60  1  0.46445000  0.39776000  0.64916000  1.0
  C  C61  1  0.46449000  0.60224000  0.85085000  1.0
  C  C62  1  0.53550000  0.60224000  0.35084000  1.0
  C  C63  1  0.53556000  0.39776000  0.14915000  1.0
  C  C64  1  0.25269000  0.37320000  0.66279000  1.0
  C  C65  1  0.25266000  0.62681000  0.83721000  1.0
  C  C66  1  0.74731000  0.62681000  0.33721000  1.0
  C  C67  1  0.74734000  0.37320000  0.16278000  1.0
  C  C68  1  0.18516000  0.26181000  0.66258000  1.0
  C  C69  1  0.18517000  0.73820000  0.83744000  1.0
  C  C70  1  0.81483000  0.73819000  0.33742000  1.0
  C  C71  1  0.81486000  0.26180000  0.16257000  1.0
  C  C72  1  0.33305000  0.17406000  0.64949000  1.0
  C  C73  1  0.33307000  0.82593000  0.85052000  1.0
  C  C74  1  0.66694000  0.82593000  0.35050000  1.0
  C  C75  1  0.66698000  0.17406000  0.14949000  1.0
  C  C76  1  0.15098000  0.76257000  0.59495000  1.0
  C  C77  1  0.15098000  0.23743000  0.90505000  1.0
  C  C78  1  0.84901000  0.23744000  0.40504000  1.0
  C  C79  1  0.84902000  0.76257000  0.09494000  1.0
  C  C80  1  0.09765000  0.63875000  0.56892000  1.0
  C  C81  1  0.09763000  0.36126000  0.93109000  1.0
  C  C82  1  0.90234000  0.36126000  0.43109000  1.0
  C  C83  1  0.90236000  0.63875000  0.06891000  1.0
  C  C84  1  0.88900000  0.62662000  0.61763000  1.0
  C  C85  1  0.88898000  0.37337000  0.88237000  1.0
  C  C86  1  0.11100000  0.37338000  0.38237000  1.0
  C  C87  1  0.11100000  0.62663000  0.11764000  1.0
  C  C88  1  0.78219000  0.73817000  0.60667000  1.0
  C  C89  1  0.78219000  0.26183000  0.89333000  1.0
  C  C90  1  0.21779000  0.26184000  0.39333000  1.0
  C  C91  1  0.21781000  0.73818000  0.10667000  1.0
  S  S92  1  0.51974000  0.99718000  0.64107000  1.0
  S  S93  1  0.51979000  0.00280000  0.85894000  1.0
  S  S94  1  0.48025000  0.00282000  0.35893000  1.0
  S  S95  1  0.48027000  0.99719000  0.14107000  1.0
  N  N96  1  0.67696000  0.10453000  0.62443000  1.0
  N  N97  1  0.67694000  0.89545000  0.87558000  1.0
  N  N98  1  0.32307000  0.89547000  0.37557000  1.0
  N  N99  1  0.32307000  0.10453000  0.12443000  1.0
  N  N100  1  0.28944000  0.06112000  0.64660000  1.0
  N  N101  1  0.28943000  0.93886000  0.85340000  1.0
  N  N102  1  0.71060000  0.93886000  0.35339000  1.0
  N  N103  1  0.71058000  0.06113000  0.14660000  1.0
  O  O104  1  0.95040000  0.82146000  0.60838000  1.0
  O  O105  1  0.95042000  0.17854000  0.89162000  1.0
  O  O106  1  0.04958000  0.17855000  0.39162000  1.0
  O  O107  1  0.04960000  0.82146000  0.10837000  1.0
