# generated using pymatgen
data_Mn3H56C66(N4O11)2
_symmetry_space_group_name_H-M   'P 1'
_cell_length_a   11.11870000
_cell_length_b   16.90080000
_cell_length_c   18.65690000
_cell_angle_alpha   116.12700000
_cell_angle_beta   89.99980000
_cell_angle_gamma   89.99990000
_symmetry_Int_Tables_number   1
_chemical_formula_structural   Mn3H56C66(N4O11)2
_chemical_formula_sum   'Mn6 H112 C132 N16 O44'
_cell_volume   3147.67664295
_cell_formula_units_Z   2
loop_
 _symmetry_equiv_pos_site_id
 _symmetry_equiv_pos_as_xyz
  1  'x, y, z'
loop_
 _atom_site_type_symbol
 _atom_site_label
 _atom_site_symmetry_multiplicity
 _atom_site_fract_x
 _atom_site_fract_y
 _atom_site_fract_z
 _atom_site_occupancy
  Mn  Mn0  1  0.29975000  0.62444000  0.17869000  1.0
  Mn  Mn1  1  0.79974000  0.87557000  0.32131000  1.0
  Mn  Mn2  1  0.70023000  0.37557000  0.82131000  1.0
  Mn  Mn3  1  0.20024000  0.12443000  0.67869000  1.0
  Mn  Mn4  1  0.49999000  0.50000000  0.00000000  1.0
  Mn  Mn5  1  0.00001000  0.00000000  0.50000000  1.0
  H  H6  1  0.68338000  0.50275000  0.32280000  1.0
  H  H7  1  0.18338000  0.99725000  0.17720000  1.0
  H  H8  1  0.31663000  0.49725000  0.67720000  1.0
  H  H9  1  0.81663000  0.00275000  0.82280000  1.0
  H  H10  1  0.52483000  0.31365000  0.39178000  1.0
  H  H11  1  0.02483000  0.18635000  0.10822000  1.0
  H  H12  1  0.47517000  0.68636000  0.60823000  1.0
  H  H13  1  0.97517000  0.81364000  0.89177000  1.0
  H  H14  1  0.29838000  0.45988000  0.30431000  1.0
  H  H15  1  0.79838000  0.04012000  0.19569000  1.0
  H  H16  1  0.70162000  0.54012000  0.69569000  1.0
  H  H17  1  0.20163000  0.95988000  0.80432000  1.0
  H  H18  1  0.83162000  0.24284000  0.31065000  1.0
  H  H19  1  0.33162000  0.25716000  0.18935000  1.0
  H  H20  1  0.16838000  0.75716000  0.68935000  1.0
  H  H21  1  0.66839000  0.74284000  0.81066000  1.0
  H  H22  1  0.90935000  0.15434000  0.37828000  1.0
  H  H23  1  0.40936000  0.34566000  0.12173000  1.0
  H  H24  1  0.09066000  0.84566000  0.62172000  1.0
  H  H25  1  0.59067000  0.65434000  0.87829000  1.0
  H  H26  1  0.74719000  0.33983000  0.59941000  1.0
  H  H27  1  0.24720000  0.16017000  0.90060000  1.0
  H  H28  1  0.25282000  0.66016000  0.40059000  1.0
  H  H29  1  0.75283000  0.83984000  0.09941000  1.0
  H  H30  1  0.67685000  0.42940000  0.53243000  1.0
  H  H31  1  0.17684000  0.07061000  0.96757000  1.0
  H  H32  1  0.32316000  0.57060000  0.46756000  1.0
  H  H33  1  0.82316000  0.92940000  0.03243000  1.0
  H  H34  1  0.37031000  0.38179000  0.50426000  1.0
  H  H35  1  0.87030000  0.11820000  0.99574000  1.0
  H  H36  1  0.62969000  0.61821000  0.49574000  1.0
  H  H37  1  0.12969000  0.88179000  0.00426000  1.0
  H  H38  1  0.33496000  0.28802000  0.57276000  1.0
  H  H39  1  0.83495000  0.21198000  0.92723000  1.0
  H  H40  1  0.66505000  0.71198000  0.42724000  1.0
  H  H41  1  0.16504000  0.78802000  0.07276000  1.0
  H  H42  1  0.15833000  0.09447000  0.35783000  1.0
  H  H43  1  0.65832000  0.40553000  0.14216000  1.0
  H  H44  1  0.84168000  0.90553000  0.64216000  1.0
  H  H45  1  0.34167000  0.59447000  0.85784000  1.0
  H  H46  1  0.20362000  0.18600000  0.29099000  1.0
  H  H47  1  0.70361000  0.31400000  0.20900000  1.0
  H  H48  1  0.79639000  0.81401000  0.70900000  1.0
  H  H49  1  0.29639000  0.68599000  0.79100000  1.0
  H  H50  1  0.25815000  0.82064000  0.18254000  1.0
  H  H51  1  0.75813000  0.67936000  0.31746000  1.0
  H  H52  1  0.74187000  0.17937000  0.81746000  1.0
  H  H53  1  0.24188000  0.32064000  0.68254000  1.0
  H  H54  1  0.32456000  0.97642000  0.31078000  1.0
  H  H55  1  0.82457000  0.52359000  0.18923000  1.0
  H  H56  1  0.67544000  0.02359000  0.68923000  1.0
  H  H57  1  0.17544000  0.47641000  0.81077000  1.0
  H  H58  1  0.43107000  0.75725000  0.35090000  1.0
  H  H59  1  0.93106000  0.74276000  0.14911000  1.0
  H  H60  1  0.56893000  0.24275000  0.64911000  1.0
  H  H61  1  0.06893000  0.25725000  0.85089000  1.0
  H  H62  1  0.47153000  0.84263000  0.46997000  1.0
  H  H63  1  0.97152000  0.65737000  0.03003000  1.0
  H  H64  1  0.52847000  0.15736000  0.53003000  1.0
  H  H65  1  0.02847000  0.34264000  0.96996000  1.0
  H  H66  1  0.43099000  0.05862000  0.40636000  1.0
  H  H67  1  0.93099000  0.44138000  0.09364000  1.0
  H  H68  1  0.56901000  0.94138000  0.59365000  1.0
  H  H69  1  0.06901000  0.55862000  0.90635000  1.0
  H  H70  1  0.12862000  0.69282000  0.30582000  1.0
  H  H71  1  0.62862000  0.80718000  0.19418000  1.0
  H  H72  1  0.87137000  0.30718000  0.69418000  1.0
  H  H73  1  0.37138000  0.19282000  0.80582000  1.0
  H  H74  1  0.31274000  0.44539000  0.08433000  1.0
  H  H75  1  0.81274000  0.05461000  0.41567000  1.0
  H  H76  1  0.68725000  0.55461000  0.91567000  1.0
  H  H77  1  0.18725000  0.94539000  0.58433000  1.0
  H  H78  1  0.05798000  0.65221000  0.22498000  1.0
  H  H79  1  0.55797000  0.84779000  0.27502000  1.0
  H  H80  1  0.94201000  0.34777000  0.77502000  1.0
  H  H81  1  0.44201000  0.15223000  0.72498000  1.0
  H  H82  1  0.24592000  0.46499000  0.16597000  1.0
  H  H83  1  0.74593000  0.03501000  0.33402000  1.0
  H  H84  1  0.75407000  0.53501000  0.83403000  1.0
  H  H85  1  0.25407000  0.96500000  0.66597000  1.0
  H  H86  1  0.53427000  0.64541000  0.12576000  1.0
  H  H87  1  0.03427000  0.85459000  0.37423000  1.0
  H  H88  1  0.46571000  0.35459000  0.87424000  1.0
  H  H89  1  0.96571000  0.14541000  0.62576000  1.0
  H  H90  1  0.52911000  0.57650000  0.16928000  1.0
  H  H91  1  0.02911000  0.92350000  0.33071000  1.0
  H  H92  1  0.47088000  0.42350000  0.83071000  1.0
  H  H93  1  0.97088000  0.07650000  0.66929000  1.0
  H  H94  1  0.17079000  0.03197000  0.41441000  1.0
  H  H95  1  0.67078000  0.46803000  0.08559000  1.0
  H  H96  1  0.82922000  0.96803000  0.58558000  1.0
  H  H97  1  0.32920000  0.53197000  0.91442000  1.0
  H  H98  1  0.07072000  0.44233000  0.16400000  1.0
  H  H99  1  0.57071000  0.05768000  0.33600000  1.0
  H  H100  1  0.92925000  0.55766000  0.83599000  1.0
  H  H101  1  0.42925000  0.94234000  0.66401000  1.0
  H  H102  1  0.05488000  0.55787000  0.32396000  1.0
  H  H103  1  0.55487000  0.94214000  0.17605000  1.0
  H  H104  1  0.94509000  0.44213000  0.67603000  1.0
  H  H105  1  0.44509000  0.05787000  0.82397000  1.0
  H  H106  1  0.01601000  0.29528000  0.29314000  1.0
  H  H107  1  0.51600000  0.20472000  0.20685000  1.0
  H  H108  1  0.98400000  0.70472000  0.70686000  1.0
  H  H109  1  0.48401000  0.79528000  0.79314000  1.0
  H  H110  1  0.08394000  0.35034000  0.42102000  1.0
  H  H111  1  0.58394000  0.14966000  0.07898000  1.0
  H  H112  1  0.91607000  0.64966000  0.57897000  1.0
  H  H113  1  0.41608000  0.85033000  0.92102000  1.0
  H  H114  1  0.06014000  0.40635000  0.56582000  1.0
  H  H115  1  0.56013000  0.09365000  0.93418000  1.0
  H  H116  1  0.93987000  0.59365000  0.43417000  1.0
  H  H117  1  0.43988000  0.90634000  0.06582000  1.0
  C  C118  1  0.47770000  0.54555000  0.26765000  1.0
  C  C119  1  0.97770000  0.95445000  0.23235000  1.0
  C  C120  1  0.52231000  0.45444000  0.73234000  1.0
  C  C121  1  0.02231000  0.04556000  0.76766000  1.0
  C  C122  1  0.48940000  0.48882000  0.31048000  1.0
  C  C123  1  0.98940000  0.01119000  0.18952000  1.0
  C  C124  1  0.51061000  0.51119000  0.68952000  1.0
  C  C125  1  0.01061000  0.98881000  0.81048000  1.0
  C  C126  1  0.60322000  0.47191000  0.33267000  1.0
  C  C127  1  0.10322000  0.02809000  0.16733000  1.0
  C  C128  1  0.39679000  0.52809000  0.66733000  1.0
  C  C129  1  0.89679000  0.97191000  0.83267000  1.0
  C  C130  1  0.61366000  0.41166000  0.36493000  1.0
  C  C131  1  0.11365000  0.08834000  0.13507000  1.0
  C  C132  1  0.38635000  0.58834000  0.63507000  1.0
  C  C133  1  0.88635000  0.91166000  0.86493000  1.0
  C  C134  1  0.51395000  0.36667000  0.37412000  1.0
  C  C135  1  0.01395000  0.13334000  0.12589000  1.0
  C  C136  1  0.48605000  0.63334000  0.62588000  1.0
  C  C137  1  0.98605000  0.86666000  0.87411000  1.0
  C  C138  1  0.40112000  0.38515000  0.35174000  1.0
  C  C139  1  0.90112000  0.11485000  0.14826000  1.0
  C  C140  1  0.59888000  0.61486000  0.64826000  1.0
  C  C141  1  0.09889000  0.88514000  0.85174000  1.0
  C  C142  1  0.38726000  0.44731000  0.32173000  1.0
  C  C143  1  0.88725000  0.05270000  0.17827000  1.0
  C  C144  1  0.61275000  0.55269000  0.67826000  1.0
  C  C145  1  0.11275000  0.94730000  0.82174000  1.0
  C  C146  1  0.75317000  0.34152000  0.41819000  1.0
  C  C147  1  0.25318000  0.15848000  0.08181000  1.0
  C  C148  1  0.24683000  0.65848000  0.58181000  1.0
  C  C149  1  0.74683000  0.84152000  0.91819000  1.0
  C  C150  1  0.81579000  0.26346000  0.37398000  1.0
  C  C151  1  0.31580000  0.23654000  0.12601000  1.0
  C  C152  1  0.18421000  0.73654000  0.62601000  1.0
  C  C153  1  0.68421000  0.76346000  0.87399000  1.0
  C  C154  1  0.85661000  0.21368000  0.41167000  1.0
  C  C155  1  0.35662000  0.28631000  0.08833000  1.0
  C  C156  1  0.14340000  0.78631000  0.58833000  1.0
  C  C157  1  0.64341000  0.71368000  0.91168000  1.0
  C  C158  1  0.83386000  0.24058000  0.49326000  1.0
  C  C159  1  0.33387000  0.25942000  0.00674000  1.0
  C  C160  1  0.16615000  0.75942000  0.50673000  1.0
  C  C161  1  0.66616000  0.74058000  0.99327000  1.0
  C  C162  1  0.76747000  0.31809000  0.53626000  1.0
  C  C163  1  0.26747000  0.18191000  0.96374000  1.0
  C  C164  1  0.23254000  0.68190000  0.46373000  1.0
  C  C165  1  0.73254000  0.81810000  0.03627000  1.0
  C  C166  1  0.72663000  0.36857000  0.49882000  1.0
  C  C167  1  0.22663000  0.13144000  0.00119000  1.0
  C  C168  1  0.27337000  0.63143000  0.50118000  1.0
  C  C169  1  0.77337000  0.86857000  0.99882000  1.0
  C  C170  1  0.88182000  0.18620000  0.53164000  1.0
  C  C171  1  0.38182000  0.31380000  0.96836000  1.0
  C  C172  1  0.11819000  0.81380000  0.46836000  1.0
  C  C173  1  0.61820000  0.68620000  0.03165000  1.0
  C  C174  1  0.29129000  0.28816000  0.39253000  1.0
  C  C175  1  0.79128000  0.21184000  0.10747000  1.0
  C  C176  1  0.70872000  0.71185000  0.60747000  1.0
  C  C177  1  0.20872000  0.78815000  0.89253000  1.0
  C  C178  1  0.32706000  0.31778000  0.47244000  1.0
  C  C179  1  0.82705000  0.18222000  0.02755000  1.0
  C  C180  1  0.67295000  0.68223000  0.52756000  1.0
  C  C181  1  0.17295000  0.81777000  0.97244000  1.0
  C  C182  1  0.30581000  0.26554000  0.51109000  1.0
  C  C183  1  0.80581000  0.23446000  0.98891000  1.0
  C  C184  1  0.69419000  0.73446000  0.48891000  1.0
  C  C185  1  0.19419000  0.76554000  0.01109000  1.0
  C  C186  1  0.24586000  0.18242000  0.47222000  1.0
  C  C187  1  0.74585000  0.31758000  0.02777000  1.0
  C  C188  1  0.75415000  0.81758000  0.52778000  1.0
  C  C189  1  0.25414000  0.68242000  0.97223000  1.0
  C  C190  1  0.20848000  0.15548000  0.39143000  1.0
  C  C191  1  0.70846000  0.34451000  0.10857000  1.0
  C  C192  1  0.79154000  0.84452000  0.60857000  1.0
  C  C193  1  0.29153000  0.65548000  0.89143000  1.0
  C  C194  1  0.23207000  0.20733000  0.35263000  1.0
  C  C195  1  0.73206000  0.29267000  0.14736000  1.0
  C  C196  1  0.76793000  0.79267000  0.64737000  1.0
  C  C197  1  0.26793000  0.70732000  0.85263000  1.0
  C  C198  1  0.22782000  0.13012000  0.51360000  1.0
  C  C199  1  0.72782000  0.36988000  0.98640000  1.0
  C  C200  1  0.77218000  0.86988000  0.48640000  1.0
  C  C201  1  0.27217000  0.63012000  0.01360000  1.0
  C  C202  1  0.30392000  0.83130000  0.23722000  1.0
  C  C203  1  0.80391000  0.66870000  0.26278000  1.0
  C  C204  1  0.69609000  0.16870000  0.76278000  1.0
  C  C205  1  0.19609000  0.33130000  0.73722000  1.0
  C  C206  1  0.33568000  0.90875000  0.30072000  1.0
  C  C207  1  0.83568000  0.59125000  0.19928000  1.0
  C  C208  1  0.66432000  0.09125000  0.69928000  1.0
  C  C209  1  0.16433000  0.40875000  0.80072000  1.0
  C  C210  1  0.39301000  0.79528000  0.32253000  1.0
  C  C211  1  0.89300000  0.70472000  0.17747000  1.0
  C  C212  1  0.60700000  0.20471000  0.67747000  1.0
  C  C213  1  0.10700000  0.29528000  0.82253000  1.0
  C  C214  1  0.44511000  0.94353000  0.42904000  1.0
  C  C215  1  0.94510000  0.55647000  0.07096000  1.0
  C  C216  1  0.55491000  0.05647000  0.57096000  1.0
  C  C217  1  0.05490000  0.44353000  0.92904000  1.0
  C  C218  1  0.48365000  0.91133000  0.48232000  1.0
  C  C219  1  0.98365000  0.58867000  0.01768000  1.0
  C  C220  1  0.51636000  0.08867000  0.51769000  1.0
  C  C221  1  0.01635000  0.41133000  0.98231000  1.0
  C  C222  1  0.46077000  0.03239000  0.44704000  1.0
  C  C223  1  0.96077000  0.46761000  0.05296000  1.0
  C  C224  1  0.53924000  0.96761000  0.55297000  1.0
  C  C225  1  0.03924000  0.53239000  0.94703000  1.0
  C  C226  1  0.05660000  0.42792000  0.21444000  1.0
  C  C227  1  0.55658000  0.07208000  0.28556000  1.0
  C  C228  1  0.94337000  0.57208000  0.78555000  1.0
  C  C229  1  0.44337000  0.92792000  0.71445000  1.0
  C  C230  1  0.04712000  0.48687000  0.29373000  1.0
  C  C231  1  0.54711000  0.01313000  0.20627000  1.0
  C  C232  1  0.95284000  0.51312000  0.70626000  1.0
  C  C233  1  0.45285000  0.98687000  0.79374000  1.0
  C  C234  1  0.02907000  0.34941000  0.27763000  1.0
  C  C235  1  0.52905000  0.15059000  0.22237000  1.0
  C  C236  1  0.97093000  0.65059000  0.72237000  1.0
  C  C237  1  0.47094000  0.84941000  0.77763000  1.0
  C  C238  1  0.01424000  0.46822000  0.41769000  1.0
  C  C239  1  0.51425000  0.03178000  0.08231000  1.0
  C  C240  1  0.98575000  0.53179000  0.58231000  1.0
  C  C241  1  0.48576000  0.96821000  0.91769000  1.0
  C  C242  1  0.04585000  0.41552000  0.45518000  1.0
  C  C243  1  0.54585000  0.08448000  0.04482000  1.0
  C  C244  1  0.95415000  0.58448000  0.54482000  1.0
  C  C245  1  0.45415000  0.91552000  0.95518000  1.0
  C  C246  1  0.03211000  0.44727000  0.53720000  1.0
  C  C247  1  0.53212000  0.05273000  0.96280000  1.0
  C  C248  1  0.96789000  0.55273000  0.46279000  1.0
  C  C249  1  0.46790000  0.94726000  0.03720000  1.0
  N  N250  1  0.34041000  0.76138000  0.25138000  1.0
  N  N251  1  0.84039000  0.73862000  0.24862000  1.0
  N  N252  1  0.65959000  0.23862000  0.74862000  1.0
  N  N253  1  0.15960000  0.26138000  0.75138000  1.0
  N  N254  1  0.39270000  0.88546000  0.35504000  1.0
  N  N255  1  0.89270000  0.61454000  0.14496000  1.0
  N  N256  1  0.60731000  0.11453000  0.64496000  1.0
  N  N257  1  0.10730000  0.38547000  0.85504000  1.0
  N  N258  1  0.02926000  0.43609000  0.33422000  1.0
  N  N259  1  0.52926000  0.06391000  0.16577000  1.0
  N  N260  1  0.97072000  0.56391000  0.66577000  1.0
  N  N261  1  0.47073000  0.93609000  0.83423000  1.0
  N  N262  1  0.04498000  0.34246000  0.20493000  1.0
  N  N263  1  0.54497000  0.15755000  0.29507000  1.0
  N  N264  1  0.95501000  0.65753000  0.79507000  1.0
  N  N265  1  0.45501000  0.84246000  0.70493000  1.0
  O  O266  1  0.38039000  0.58751000  0.27346000  1.0
  O  O267  1  0.88038000  0.91249000  0.22654000  1.0
  O  O268  1  0.61962000  0.41249000  0.72654000  1.0
  O  O269  1  0.11962000  0.08751000  0.77346000  1.0
  O  O270  1  0.56801000  0.54518000  0.22448000  1.0
  O  O271  1  0.06801000  0.95482000  0.27552000  1.0
  O  O272  1  0.43199000  0.45482000  0.77552000  1.0
  O  O273  1  0.93199000  0.04518000  0.72448000  1.0
  O  O274  1  0.29828000  0.34018000  0.35198000  1.0
  O  O275  1  0.79828000  0.15982000  0.14801000  1.0
  O  O276  1  0.70172000  0.65983000  0.64802000  1.0
  O  O277  1  0.20172000  0.84017000  0.85198000  1.0
  O  O278  1  0.72955000  0.39482000  0.38072000  1.0
  O  O279  1  0.22955000  0.10518000  0.11928000  1.0
  O  O280  1  0.27045000  0.60518000  0.61928000  1.0
  O  O281  1  0.77046000  0.89482000  0.88072000  1.0
  O  O282  1  0.25321000  0.15125000  0.58637000  1.0
  O  O283  1  0.75320000  0.34874000  0.91363000  1.0
  O  O284  1  0.74678000  0.84874000  0.41362000  1.0
  O  O285  1  0.24679000  0.65126000  0.08638000  1.0
  O  O286  1  0.17473000  0.04605000  0.47122000  1.0
  O  O287  1  0.67472000  0.45395000  0.02877000  1.0
  O  O288  1  0.82528000  0.95395000  0.52877000  1.0
  O  O289  1  0.32526000  0.54605000  0.97123000  1.0
  O  O290  1  0.89395000  0.21811000  0.60697000  1.0
  O  O291  1  0.39394000  0.28189000  0.89303000  1.0
  O  O292  1  0.10607000  0.78189000  0.39302000  1.0
  O  O293  1  0.60608000  0.71811000  0.10698000  1.0
  O  O294  1  0.91097000  0.10574000  0.48453000  1.0
  O  O295  1  0.41097000  0.39426000  0.01547000  1.0
  O  O296  1  0.08904000  0.89426000  0.51547000  1.0
  O  O297  1  0.58904000  0.60575000  0.98453000  1.0
  O  O298  1  0.13068000  0.64442000  0.25019000  1.0
  O  O299  1  0.63067000  0.85558000  0.24981000  1.0
  O  O300  1  0.86931000  0.35557000  0.74982000  1.0
  O  O301  1  0.36932000  0.14443000  0.75019000  1.0
  O  O302  1  0.25353000  0.48544000  0.12480000  1.0
  O  O303  1  0.75353000  0.01456000  0.37520000  1.0
  O  O304  1  0.74646000  0.51456000  0.87520000  1.0
  O  O305  1  0.24646000  0.98544000  0.62480000  1.0
  O  O306  1  0.49019000  0.59252000  0.12503000  1.0
  O  O307  1  0.99019000  0.90748000  0.37497000  1.0
  O  O308  1  0.50979000  0.40748000  0.87497000  1.0
  O  O309  1  0.00979000  0.09252000  0.62503000  1.0
