# generated using pymatgen
data_ZnH12(C3O)4
_symmetry_space_group_name_H-M   'P 1'
_cell_length_a   15.84550000
_cell_length_b   17.56690000
_cell_length_c   17.56700000
_cell_angle_alpha   111.37600000
_cell_angle_beta   107.49500000
_cell_angle_gamma   107.49500000
_symmetry_Int_Tables_number   1
_chemical_formula_structural   ZnH12(C3O)4
_chemical_formula_sum   'Zn12 H144 C144 O48'
_cell_volume   3851.91807057
_cell_formula_units_Z   12
loop_
 _symmetry_equiv_pos_site_id
 _symmetry_equiv_pos_as_xyz
  1  'x, y, z'
loop_
 _atom_site_type_symbol
 _atom_site_label
 _atom_site_symmetry_multiplicity
 _atom_site_fract_x
 _atom_site_fract_y
 _atom_site_fract_z
 _atom_site_occupancy
  Zn  Zn0  1  0.62651000  0.62810000  0.25235000  1.0
  Zn  Zn1  1  0.37421000  0.74768000  0.37583000  1.0
  Zn  Zn2  1  0.99832000  0.62423000  0.37181000  1.0
  Zn  Zn3  1  0.50168000  0.62819000  0.37576000  1.0
  Zn  Zn4  1  0.87349000  0.74764000  0.37190000  1.0
  Zn  Zn5  1  0.12579000  0.62417000  0.25231000  1.0
  Zn  Zn6  1  0.37349000  0.37190000  0.74764000  1.0
  Zn  Zn7  1  0.62579000  0.25232000  0.62417000  1.0
  Zn  Zn8  1  0.00168000  0.37576000  0.62819000  1.0
  Zn  Zn9  1  0.49832000  0.37181000  0.62424000  1.0
  Zn  Zn10  1  0.12651000  0.25236000  0.62810000  1.0
  Zn  Zn11  1  0.87421000  0.37583000  0.74768000  1.0
  H  H12  1  0.21662000  0.43506000  0.15007000  1.0
  H  H13  1  0.06649000  0.84984000  0.28491000  1.0
  H  H14  1  0.78159000  0.71499000  0.56488000  1.0
  H  H15  1  0.71841000  0.43512000  0.28501000  1.0
  H  H16  1  0.28338000  0.84993000  0.56494000  1.0
  H  H17  1  0.43351000  0.71509000  0.15016000  1.0
  H  H18  1  0.78338000  0.56494000  0.84993000  1.0
  H  H19  1  0.93351000  0.15016000  0.71509000  1.0
  H  H20  1  0.21841000  0.28501000  0.43512000  1.0
  H  H21  1  0.28159000  0.56488000  0.71499000  1.0
  H  H22  1  0.71662000  0.15007000  0.43506000  1.0
  H  H23  1  0.56649000  0.28491000  0.84984000  1.0
  H  H24  1  0.38560000  0.46668000  0.00349000  1.0
  H  H25  1  0.38203000  0.99647000  0.46316000  1.0
  H  H26  1  0.91901000  0.53684000  0.53334000  1.0
  H  H27  1  0.58099000  0.46666000  0.46316000  1.0
  H  H28  1  0.11440000  0.99651000  0.53333000  1.0
  H  H29  1  0.11797000  0.53684000  0.00353000  1.0
  H  H30  1  0.61440000  0.53332000  0.99651000  1.0
  H  H31  1  0.61797000  0.00353000  0.53684000  1.0
  H  H32  1  0.08099000  0.46316000  0.46666000  1.0
  H  H33  1  0.41901000  0.53334000  0.53684000  1.0
  H  H34  1  0.88560000  0.00349000  0.46668000  1.0
  H  H35  1  0.88203000  0.46316000  0.99647000  1.0
  H  H36  1  0.07089000  0.28693000  0.85266000  1.0
  H  H37  1  0.21810000  0.14725000  0.43418000  1.0
  H  H38  1  0.78410000  0.56586000  0.71315000  1.0
  H  H39  1  0.71590000  0.28685000  0.43414000  1.0
  H  H40  1  0.42911000  0.14734000  0.71307000  1.0
  H  H41  1  0.28190000  0.56582000  0.85275000  1.0
  H  H42  1  0.92910000  0.71307000  0.14734000  1.0
  H  H43  1  0.78190000  0.85275000  0.56582000  1.0
  H  H44  1  0.21590000  0.43414000  0.28685000  1.0
  H  H45  1  0.28410000  0.71315000  0.56586000  1.0
  H  H46  1  0.57089000  0.85266000  0.28693000  1.0
  H  H47  1  0.71810000  0.43418000  0.14725000  1.0
  H  H48  1  0.05604000  0.42356000  0.11981000  1.0
  H  H49  1  0.93617000  0.88018000  0.30374000  1.0
  H  H50  1  0.63249000  0.69627000  0.57644000  1.0
  H  H51  1  0.86751000  0.42356000  0.30373000  1.0
  H  H52  1  0.44396000  0.88019000  0.57644000  1.0
  H  H53  1  0.56383000  0.69626000  0.11982000  1.0
  H  H54  1  0.94396000  0.57644000  0.88019000  1.0
  H  H55  1  0.06383000  0.11982000  0.69626000  1.0
  H  H56  1  0.36751000  0.30373000  0.42356000  1.0
  H  H57  1  0.13249000  0.57644000  0.69627000  1.0
  H  H58  1  0.55604000  0.11981000  0.42356000  1.0
  H  H59  1  0.43617000  0.30374000  0.88018000  1.0
  H  H60  1  0.08234000  0.34016000  0.14231000  1.0
  H  H61  1  0.93995000  0.85767000  0.19783000  1.0
  H  H62  1  0.74217000  0.80218000  0.65983000  1.0
  H  H63  1  0.75783000  0.34017000  0.19782000  1.0
  H  H64  1  0.41766000  0.85769000  0.65984000  1.0
  H  H65  1  0.56005000  0.80217000  0.14233000  1.0
  H  H66  1  0.91766000  0.65984000  0.85769000  1.0
  H  H67  1  0.06005000  0.14233000  0.80217000  1.0
  H  H68  1  0.25783000  0.19782000  0.34017000  1.0
  H  H69  1  0.24217000  0.65983000  0.80218000  1.0
  H  H70  1  0.58234000  0.14231000  0.34016000  1.0
  H  H71  1  0.43995000  0.19783000  0.85767000  1.0
  H  H72  1  0.95726000  0.31721000  0.08489000  1.0
  H  H73  1  0.87226000  0.91507000  0.23229000  1.0
  H  H74  1  0.64004000  0.76771000  0.68279000  1.0
  H  H75  1  0.85996000  0.31721000  0.23229000  1.0
  H  H76  1  0.54274000  0.91511000  0.68279000  1.0
  H  H77  1  0.62774000  0.76771000  0.08493000  1.0
  H  H78  1  0.04274000  0.68279000  0.91511000  1.0
  H  H79  1  0.12774000  0.08493000  0.76771000  1.0
  H  H80  1  0.35996000  0.23229000  0.31721000  1.0
  H  H81  1  0.14004000  0.68279000  0.76771000  1.0
  H  H82  1  0.45726000  0.08489000  0.31721000  1.0
  H  H83  1  0.37226000  0.23229000  0.91507000  1.0
  H  H84  1  0.05588000  0.19330000  0.00815000  1.0
  H  H85  1  0.04763000  0.99184000  0.18512000  1.0
  H  H86  1  0.86256000  0.81492000  0.80672000  1.0
  H  H87  1  0.63744000  0.19328000  0.18508000  1.0
  H  H88  1  0.44412000  0.99185000  0.80670000  1.0
  H  H89  1  0.45237000  0.81488000  0.00816000  1.0
  H  H90  1  0.94412000  0.80670000  0.99185000  1.0
  H  H91  1  0.95237000  0.00816000  0.81488000  1.0
  H  H92  1  0.13744000  0.18508000  0.19328000  1.0
  H  H93  1  0.36256000  0.80672000  0.81492000  1.0
  H  H94  1  0.55588000  0.00815000  0.19330000  1.0
  H  H95  1  0.54763000  0.18512000  0.99184000  1.0
  H  H96  1  0.99080000  0.16782000  0.89296000  1.0
  H  H97  1  0.09774000  0.10702000  0.27484000  1.0
  H  H98  1  0.82297000  0.72521000  0.83220000  1.0
  H  H99  1  0.67703000  0.16780000  0.27479000  1.0
  H  H100  1  0.50920000  0.10704000  0.83218000  1.0
  H  H101  1  0.40226000  0.72516000  0.89298000  1.0
  H  H102  1  0.00920000  0.83218000  0.10704000  1.0
  H  H103  1  0.90226000  0.89298000  0.72516000  1.0
  H  H104  1  0.17703000  0.27479000  0.16781000  1.0
  H  H105  1  0.32297000  0.83220000  0.72521000  1.0
  H  H106  1  0.49080000  0.89296000  0.16782000  1.0
  H  H107  1  0.59774000  0.27484000  0.10702000  1.0
  H  H108  1  0.92793000  0.16834000  0.96139000  1.0
  H  H109  1  0.96644000  0.03862000  0.20693000  1.0
  H  H110  1  0.75955000  0.79310000  0.83167000  1.0
  H  H111  1  0.74045000  0.16833000  0.20690000  1.0
  H  H112  1  0.57207000  0.03861000  0.83166000  1.0
  H  H113  1  0.53356000  0.79308000  0.96138000  1.0
  H  H114  1  0.07207000  0.83166000  0.03861000  1.0
  H  H115  1  0.03356000  0.96138000  0.79308000  1.0
  H  H116  1  0.24045000  0.20690000  0.16833000  1.0
  H  H117  1  0.25955000  0.83167000  0.79310000  1.0
  H  H118  1  0.42793000  0.96139000  0.16834000  1.0
  H  H119  1  0.46644000  0.20692000  0.03862000  1.0
  H  H120  1  0.87846000  0.28499000  0.93036000  1.0
  H  H121  1  0.94807000  0.06970000  0.35464000  1.0
  H  H122  1  0.59349000  0.64537000  0.71503000  1.0
  H  H123  1  0.90651000  0.28498000  0.35463000  1.0
  H  H124  1  0.62154000  0.06964000  0.71501000  1.0
  H  H125  1  0.55193000  0.64536000  0.93030000  1.0
  H  H126  1  0.12154000  0.71501000  0.06964000  1.0
  H  H127  1  0.05193000  0.93030000  0.64536000  1.0
  H  H128  1  0.40651000  0.35463000  0.28498000  1.0
  H  H129  1  0.09349000  0.71502000  0.64537000  1.0
  H  H130  1  0.37846000  0.93036000  0.28499000  1.0
  H  H131  1  0.44806000  0.35464000  0.06970000  1.0
  H  H132  1  0.93797000  0.27796000  0.85908000  1.0
  H  H133  1  0.07884000  0.14093000  0.41885000  1.0
  H  H134  1  0.66004000  0.58113000  0.72203000  1.0
  H  H135  1  0.83996000  0.27797000  0.41887000  1.0
  H  H136  1  0.56203000  0.14092000  0.72204000  1.0
  H  H137  1  0.42116000  0.58115000  0.85907000  1.0
  H  H138  1  0.06203000  0.72204000  0.14092000  1.0
  H  H139  1  0.92116000  0.85907000  0.58115000  1.0
  H  H140  1  0.33996000  0.41887000  0.27797000  1.0
  H  H141  1  0.16004000  0.72203000  0.58113000  1.0
  H  H142  1  0.43797000  0.85908000  0.27796000  1.0
  H  H143  1  0.57884000  0.41885000  0.14093000  1.0
  H  H144  1  0.97158000  0.38686000  0.94986000  1.0
  H  H145  1  0.02168000  0.05019000  0.43700000  1.0
  H  H146  1  0.58477000  0.56302000  0.61316000  1.0
  H  H147  1  0.91523000  0.38684000  0.43698000  1.0
  H  H148  1  0.52842000  0.05014000  0.61315000  1.0
  H  H149  1  0.47832000  0.56300000  0.94981000  1.0
  H  H150  1  0.02842000  0.61315000  0.05014000  1.0
  H  H151  1  0.97832000  0.94981000  0.56300000  1.0
  H  H152  1  0.41523000  0.43698000  0.38684000  1.0
  H  H153  1  0.08477000  0.61316000  0.56302000  1.0
  H  H154  1  0.47158000  0.94986000  0.38685000  1.0
  H  H155  1  0.52168000  0.43700000  0.05019000  1.0
  C  C156  1  0.13068000  0.35210000  0.00130000  1.0
  C  C157  1  0.12927000  0.99863000  0.35073000  1.0
  C  C158  1  0.77866000  0.64927000  0.64794000  1.0
  C  C159  1  0.72134000  0.35206000  0.35073000  1.0
  C  C160  1  0.36932000  0.99870000  0.64790000  1.0
  C  C161  1  0.37073000  0.64927000  0.00137000  1.0
  C  C162  1  0.86932000  0.64789000  0.99870000  1.0
  C  C163  1  0.87073000  0.00137000  0.64927000  1.0
  C  C164  1  0.22134000  0.35073000  0.35206000  1.0
  C  C165  1  0.27866000  0.64794000  0.64927000  1.0
  C  C166  1  0.63068000  0.00130000  0.35211000  1.0
  C  C167  1  0.62927000  0.35073000  0.99863000  1.0
  C  C168  1  0.21832000  0.41484000  0.08440000  1.0
  C  C169  1  0.13383000  0.91552000  0.33036000  1.0
  C  C170  1  0.80354000  0.66959000  0.58517000  1.0
  C  C171  1  0.69646000  0.41483000  0.33041000  1.0
  C  C172  1  0.28168000  0.91560000  0.58516000  1.0
  C  C173  1  0.36617000  0.66964000  0.08448000  1.0
  C  C174  1  0.78168000  0.58516000  0.91560000  1.0
  C  C175  1  0.86617000  0.08448000  0.66964000  1.0
  C  C176  1  0.19646000  0.33041000  0.41483000  1.0
  C  C177  1  0.30354000  0.58517000  0.66959000  1.0
  C  C178  1  0.71832000  0.08440000  0.41484000  1.0
  C  C179  1  0.63383000  0.33036000  0.91552000  1.0
  C  C180  1  0.30998000  0.45618000  0.08559000  1.0
  C  C181  1  0.22433000  0.91436000  0.37055000  1.0
  C  C182  1  0.85385000  0.62940000  0.54383000  1.0
  C  C183  1  0.64615000  0.45617000  0.37059000  1.0
  C  C184  1  0.19001000  0.91441000  0.54382000  1.0
  C  C185  1  0.27568000  0.62945000  0.08564000  1.0
  C  C186  1  0.69001000  0.54382000  0.91441000  1.0
  C  C187  1  0.77567000  0.08564000  0.62945000  1.0
  C  C188  1  0.14615000  0.37060000  0.45617000  1.0
  C  C189  1  0.35386000  0.54383000  0.62941000  1.0
  C  C190  1  0.80999000  0.08559000  0.45619000  1.0
  C  C191  1  0.72432000  0.37055000  0.91436000  1.0
  C  C192  1  0.31511000  0.43416000  0.00288000  1.0
  C  C193  1  0.31215000  0.99707000  0.43123000  1.0
  C  C194  1  0.88107000  0.56877000  0.56590000  1.0
  C  C195  1  0.61893000  0.43410000  0.43123000  1.0
  C  C196  1  0.18489000  0.99712000  0.56584000  1.0
  C  C197  1  0.18785000  0.56876000  0.00293000  1.0
  C  C198  1  0.68489000  0.56584000  0.99712000  1.0
  C  C199  1  0.68785000  0.00293000  0.56876000  1.0
  C  C200  1  0.11893000  0.43123000  0.43410000  1.0
  C  C201  1  0.38107000  0.56590000  0.56877000  1.0
  C  C202  1  0.81511000  0.00288000  0.43416000  1.0
  C  C203  1  0.81215000  0.43124000  0.99707000  1.0
  C  C204  1  0.22846000  0.37247000  0.91926000  1.0
  C  C205  1  0.30909000  0.08067000  0.45313000  1.0
  C  C206  1  0.85616000  0.54691000  0.62764000  1.0
  C  C207  1  0.64384000  0.37236000  0.45309000  1.0
  C  C208  1  0.27154000  0.08074000  0.62753000  1.0
  C  C209  1  0.19091000  0.54687000  0.91933000  1.0
  C  C210  1  0.77154000  0.62753000  0.08074000  1.0
  C  C211  1  0.69091000  0.91933000  0.54687000  1.0
  C  C212  1  0.14384000  0.45309000  0.37236000  1.0
  C  C213  1  0.35616000  0.62764000  0.54692000  1.0
  C  C214  1  0.72846000  0.91926000  0.37247000  1.0
  C  C215  1  0.80909000  0.45313000  0.08067000  1.0
  C  C216  1  0.13743000  0.33254000  0.91905000  1.0
  C  C217  1  0.21827000  0.08087000  0.41340000  1.0
  C  C218  1  0.80505000  0.58664000  0.66755000  1.0
  C  C219  1  0.69495000  0.33245000  0.41336000  1.0
  C  C220  1  0.36257000  0.08095000  0.66746000  1.0
  C  C221  1  0.28173000  0.58660000  0.91913000  1.0
  C  C222  1  0.86257000  0.66746000  0.08095000  1.0
  C  C223  1  0.78173000  0.91913000  0.58660000  1.0
  C  C224  1  0.19495000  0.41336000  0.33245000  1.0
  C  C225  1  0.30505000  0.66755000  0.58664000  1.0
  C  C226  1  0.63743000  0.91905000  0.33254000  1.0
  C  C227  1  0.71827000  0.41340000  0.08087000  1.0
  C  C228  1  0.02947000  0.30564000  0.99748000  1.0
  C  C229  1  0.03189000  0.00249000  0.30811000  1.0
  C  C230  1  0.72386000  0.69189000  0.69437000  1.0
  C  C231  1  0.77614000  0.30563000  0.30811000  1.0
  C  C232  1  0.47053000  0.00252000  0.69437000  1.0
  C  C233  1  0.46811000  0.69189000  0.99751000  1.0
  C  C234  1  0.97053000  0.69436000  0.00252000  1.0
  C  C235  1  0.96811000  0.99751000  0.69189000  1.0
  C  C236  1  0.27614000  0.30811000  0.30563000  1.0
  C  C237  1  0.22386000  0.69437000  0.69189000  1.0
  C  C238  1  0.52947000  0.99748000  0.30564000  1.0
  C  C239  1  0.53189000  0.30811000  0.00249000  1.0
  C  C240  1  0.03233000  0.34956000  0.09186000  1.0
  C  C241  1  0.94038000  0.90812000  0.25767000  1.0
  C  C242  1  0.68278000  0.74233000  0.65044000  1.0
  C  C243  1  0.81722000  0.34956000  0.25767000  1.0
  C  C244  1  0.46767000  0.90813000  0.65044000  1.0
  C  C245  1  0.55962000  0.74233000  0.09188000  1.0
  C  C246  1  0.96767000  0.65044000  0.90813000  1.0
  C  C247  1  0.05962000  0.09188000  0.74233000  1.0
  C  C248  1  0.31722000  0.25767000  0.34956000  1.0
  C  C249  1  0.18278000  0.65044000  0.74233000  1.0
  C  C250  1  0.53233000  0.09187000  0.34956000  1.0
  C  C251  1  0.44038000  0.25767000  0.90812000  1.0
  C  C252  1  0.99963000  0.20265000  0.96305000  1.0
  C  C253  1  0.03648000  0.03694000  0.23957000  1.0
  C  C254  1  0.79696000  0.76045000  0.79736000  1.0
  C  C255  1  0.70304000  0.20264000  0.23955000  1.0
  C  C256  1  0.50037000  0.03695000  0.79735000  1.0
  C  C257  1  0.46352000  0.76043000  0.96306000  1.0
  C  C258  1  0.00037000  0.79735000  0.03695000  1.0
  C  C259  1  0.96353000  0.96306000  0.76043000  1.0
  C  C260  1  0.20304000  0.23955000  0.20264000  1.0
  C  C261  1  0.29696000  0.79736000  0.76045000  1.0
  C  C262  1  0.49963000  0.96305000  0.20265000  1.0
  C  C263  1  0.53647000  0.23957000  0.03694000  1.0
  C  C264  1  0.95008000  0.31439000  0.93005000  1.0
  C  C265  1  0.01999000  0.06997000  0.38433000  1.0
  C  C266  1  0.63573000  0.61568000  0.68562000  1.0
  C  C267  1  0.86427000  0.31438000  0.38432000  1.0
  C  C268  1  0.54992000  0.06995000  0.68561000  1.0
  C  C269  1  0.48002000  0.61567000  0.93003000  1.0
  C  C270  1  0.04992000  0.68561000  0.06995000  1.0
  C  C271  1  0.98002000  0.93003000  0.61567000  1.0
  C  C272  1  0.36427000  0.38432000  0.31438000  1.0
  C  C273  1  0.13573000  0.68562000  0.61568000  1.0
  C  C274  1  0.45008000  0.93005000  0.31439000  1.0
  C  C275  1  0.51998000  0.38433000  0.06997000  1.0
  C  C276  1  0.40245000  0.52641000  0.17417000  1.0
  C  C277  1  0.22827000  0.82580000  0.35220000  1.0
  C  C278  1  0.87608000  0.64772000  0.47358000  1.0
  C  C279  1  0.62392000  0.52642000  0.35228000  1.0
  C  C280  1  0.09755000  0.82583000  0.47358000  1.0
  C  C281  1  0.27173000  0.64780000  0.17420000  1.0
  C  C282  1  0.59755000  0.47359000  0.82583000  1.0
  C  C283  1  0.77173000  0.17420000  0.64780000  1.0
  C  C284  1  0.12392000  0.35228000  0.52642000  1.0
  C  C285  1  0.37608000  0.47358000  0.64772000  1.0
  C  C286  1  0.90245000  0.17417000  0.52642000  1.0
  C  C287  1  0.72827000  0.35220000  0.82580000  1.0
  C  C288  1  0.23391000  0.35269000  0.83110000  1.0
  C  C289  1  0.40270000  0.16886000  0.52147000  1.0
  C  C290  1  0.88136000  0.47851000  0.64741000  1.0
  C  C291  1  0.61864000  0.35259000  0.52149000  1.0
  C  C292  1  0.26610000  0.16891000  0.64732000  1.0
  C  C293  1  0.09730000  0.47853000  0.83114000  1.0
  C  C294  1  0.76609000  0.64731000  0.16890000  1.0
  C  C295  1  0.59731000  0.83114000  0.47853000  1.0
  C  C296  1  0.11864000  0.52149000  0.35259000  1.0
  C  C297  1  0.38136000  0.64741000  0.47851000  1.0
  C  C298  1  0.73390000  0.83109000  0.35268000  1.0
  C  C299  1  0.90270000  0.52147000  0.16886000  1.0
  O  O300  1  0.48173000  0.56168000  0.16885000  1.0
  O  O301  1  0.31289000  0.83115000  0.39277000  1.0
  O  O302  1  0.92011000  0.60715000  0.43834000  1.0
  O  O303  1  0.57989000  0.56166000  0.39285000  1.0
  O  O304  1  0.01827000  0.83114000  0.43832000  1.0
  O  O305  1  0.18712000  0.60723000  0.16885000  1.0
  O  O306  1  0.51827000  0.43832000  0.83114000  1.0
  O  O307  1  0.68711000  0.16885000  0.60722000  1.0
  O  O308  1  0.07989000  0.39285000  0.56166000  1.0
  O  O309  1  0.42011000  0.43834000  0.60715000  1.0
  O  O310  1  0.98173000  0.16886000  0.56168000  1.0
  O  O311  1  0.81288000  0.39277000  0.83115000  1.0
  O  O312  1  0.39511000  0.54689000  0.24899000  1.0
  O  O313  1  0.14612000  0.75097000  0.29786000  1.0
  O  O314  1  0.84823000  0.70205000  0.45310000  1.0
  O  O315  1  0.65177000  0.54690000  0.29795000  1.0
  O  O316  1  0.10489000  0.75101000  0.45311000  1.0
  O  O317  1  0.35389000  0.70214000  0.24903000  1.0
  O  O318  1  0.60489000  0.45311000  0.75101000  1.0
  O  O319  1  0.85388000  0.24903000  0.70214000  1.0
  O  O320  1  0.15177000  0.29795000  0.54690000  1.0
  O  O321  1  0.34823000  0.45310000  0.70205000  1.0
  O  O322  1  0.89511000  0.24899000  0.54689000  1.0
  O  O323  1  0.64611000  0.29786000  0.75097000  1.0
  O  O324  1  0.32031000  0.38718000  0.83726000  1.0
  O  O325  1  0.48296000  0.16271000  0.54974000  1.0
  O  O326  1  0.93326000  0.45015000  0.61292000  1.0
  O  O327  1  0.56674000  0.38708000  0.54985000  1.0
  O  O328  1  0.17970000  0.16275000  0.61282000  1.0
  O  O329  1  0.01704000  0.45025000  0.83729000  1.0
  O  O330  1  0.67969000  0.61282000  0.16274000  1.0
  O  O331  1  0.51704000  0.83728000  0.45025000  1.0
  O  O332  1  0.06674000  0.54985000  0.38708000  1.0
  O  O333  1  0.43326000  0.61293000  0.45015000  1.0
  O  O334  1  0.82030000  0.83725000  0.38718000  1.0
  O  O335  1  0.98296000  0.54975000  0.16271000  1.0
  O  O336  1  0.15156000  0.30337000  0.75644000  1.0
  O  O337  1  0.39496000  0.24350000  0.54684000  1.0
  O  O338  1  0.84827000  0.45316000  0.69669000  1.0
  O  O339  1  0.65173000  0.30331000  0.54684000  1.0
  O  O340  1  0.34845000  0.24356000  0.69664000  1.0
  O  O341  1  0.10504000  0.45316000  0.75650000  1.0
  O  O342  1  0.84844000  0.69663000  0.24356000  1.0
  O  O343  1  0.60504000  0.75650000  0.45316000  1.0
  O  O344  1  0.15173000  0.54684000  0.30330000  1.0
  O  O345  1  0.34826000  0.69669000  0.45316000  1.0
  O  O346  1  0.65155000  0.75644000  0.30336000  1.0
  O  O347  1  0.89496000  0.54684000  0.24350000  1.0
