# generated using pymatgen
data_ZnH12(C9N5)2
_symmetry_space_group_name_H-M   'P 1'
_cell_length_a   7.25183000
_cell_length_b   15.92076260
_cell_length_c   16.33250000
_cell_angle_alpha   89.99966994
_cell_angle_beta   89.99950000
_cell_angle_gamma   79.83845692
_symmetry_Int_Tables_number   1
_chemical_formula_structural   ZnH12(C9N5)2
_chemical_formula_sum   'Zn4 H48 C72 N40'
_cell_volume   1856.08524513
_cell_formula_units_Z   4
loop_
 _symmetry_equiv_pos_site_id
 _symmetry_equiv_pos_as_xyz
  1  'x, y, z'
loop_
 _atom_site_type_symbol
 _atom_site_label
 _atom_site_symmetry_multiplicity
 _atom_site_fract_x
 _atom_site_fract_y
 _atom_site_fract_z
 _atom_site_occupancy
  Zn  Zn0  1  0.95707000  0.29765000  0.51869000  1.0
  Zn  Zn1  1  0.54292000  0.20235000  0.01870000  1.0
  Zn  Zn2  1  0.04291000  0.70236000  0.48130000  1.0
  Zn  Zn3  1  0.45709000  0.79764000  0.98131000  1.0
  H  H4  1  0.37023000  0.24964000  0.55099000  1.0
  H  H5  1  0.12975000  0.25036000  0.05098000  1.0
  H  H6  1  0.62971000  0.75035000  0.44902000  1.0
  H  H7  1  0.87027000  0.74964000  0.94901000  1.0
  H  H8  1  0.61256000  0.12577000  0.54529000  1.0
  H  H9  1  0.88743000  0.37422000  0.04528000  1.0
  H  H10  1  0.38738000  0.87422000  0.45473000  1.0
  H  H11  1  0.11260000  0.62577000  0.95471000  1.0
  H  H12  1  0.19546000  0.98240000  0.45594000  1.0
  H  H13  1  0.30454000  0.51760000  0.95596000  1.0
  H  H14  1  0.80450000  0.01761000  0.54403000  1.0
  H  H15  1  0.69551000  0.48239000  0.04406000  1.0
  H  H16  1  0.96549000  0.11654000  0.46423000  1.0
  H  H17  1  0.53450000  0.38346000  0.96424000  1.0
  H  H18  1  0.03446000  0.88347000  0.53575000  1.0
  H  H19  1  0.46554000  0.61653000  0.03577000  1.0
  H  H20  1  0.08238000  0.40621000  0.38988000  1.0
  H  H21  1  0.41765000  0.09378000  0.88988000  1.0
  H  H22  1  0.91759000  0.59382000  0.61013000  1.0
  H  H23  1  0.58239000  0.90619000  0.11012000  1.0
  H  H24  1  0.34328000  0.48573000  0.37398000  1.0
  H  H25  1  0.15674000  0.01426000  0.87398000  1.0
  H  H26  1  0.65668000  0.51430000  0.62602000  1.0
  H  H27  1  0.84329000  0.98571000  0.12602000  1.0
  H  H28  1  0.42929000  0.46175000  0.63640000  1.0
  H  H29  1  0.07066000  0.03827000  0.13640000  1.0
  H  H30  1  0.57073000  0.53824000  0.36359000  1.0
  H  H31  1  0.92930000  0.96174000  0.86359000  1.0
  H  H32  1  0.16483000  0.38364000  0.64088000  1.0
  H  H33  1  0.33516000  0.11636000  0.14088000  1.0
  H  H34  1  0.83519000  0.61635000  0.35911000  1.0
  H  H35  1  0.66483000  0.88364000  0.85911000  1.0
  H  H36  1  0.45951000  0.14389000  0.35207000  1.0
  H  H37  1  0.04048000  0.35612000  0.85207000  1.0
  H  H38  1  0.54050000  0.85612000  0.64792000  1.0
  H  H39  1  0.95952000  0.64388000  0.14793000  1.0
  H  H40  1  0.31466000  0.39454000  0.24741000  1.0
  H  H41  1  0.18536000  0.10546000  0.74743000  1.0
  H  H42  1  0.68533000  0.60547000  0.75258000  1.0
  H  H43  1  0.81466000  0.89454000  0.25258000  1.0
  H  H44  1  0.01605000  0.35767000  0.19500000  1.0
  H  H45  1  0.48393000  0.14234000  0.69501000  1.0
  H  H46  1  0.98393000  0.64233000  0.80500000  1.0
  H  H47  1  0.51610000  0.85766000  0.30500000  1.0
  H  H48  1  0.16418000  0.10571000  0.29625000  1.0
  H  H49  1  0.33580000  0.39430000  0.79624000  1.0
  H  H50  1  0.83583000  0.89429000  0.70376000  1.0
  H  H51  1  0.66420000  0.60571000  0.20376000  1.0
  C  C52  1  0.33394000  0.18938000  0.53106000  1.0
  C  C53  1  0.16605000  0.31061000  0.03106000  1.0
  C  C54  1  0.66601000  0.81061000  0.46894000  1.0
  C  C55  1  0.83397000  0.68938000  0.96893000  1.0
  C  C56  1  0.47263000  0.11730000  0.52738000  1.0
  C  C57  1  0.02736000  0.38270000  0.02738000  1.0
  C  C58  1  0.52731000  0.88270000  0.47263000  1.0
  C  C59  1  0.97267000  0.61730000  0.97262000  1.0
  C  C60  1  0.42828000  0.03931000  0.50183000  1.0
  C  C61  1  0.07172000  0.46068000  0.00183000  1.0
  C  C62  1  0.57167000  0.96068000  0.49817000  1.0
  C  C63  1  0.92832000  0.53931000  0.99817000  1.0
  C  C64  1  0.24090000  0.03962000  0.47879000  1.0
  C  C65  1  0.25910000  0.46038000  0.97880000  1.0
  C  C66  1  0.75906000  0.96038000  0.52120000  1.0
  C  C67  1  0.74094000  0.53961000  0.02121000  1.0
  C  C68  1  0.11022000  0.11433000  0.48366000  1.0
  C  C69  1  0.38977000  0.38567000  0.98367000  1.0
  C  C70  1  0.88974000  0.88567000  0.51633000  1.0
  C  C71  1  0.61026000  0.61433000  0.01635000  1.0
  C  C72  1  0.16648000  0.41874000  0.44235000  1.0
  C  C73  1  0.33353000  0.08125000  0.94235000  1.0
  C  C74  1  0.83349000  0.58128000  0.55765000  1.0
  C  C75  1  0.66649000  0.91873000  0.05765000  1.0
  C  C76  1  0.31358000  0.46325000  0.43451000  1.0
  C  C77  1  0.18643000  0.03674000  0.93451000  1.0
  C  C78  1  0.68640000  0.53677000  0.56550000  1.0
  C  C79  1  0.81358000  0.96324000  0.06549000  1.0
  C  C80  1  0.41883000  0.47791000  0.50344000  1.0
  C  C81  1  0.08116000  0.02210000  0.00344000  1.0
  C  C82  1  0.58116000  0.52210000  0.49656000  1.0
  C  C83  1  0.91884000  0.97789000  0.99656000  1.0
  C  C84  1  0.36115000  0.44991000  0.57937000  1.0
  C  C85  1  0.13882000  0.05010000  0.07937000  1.0
  C  C86  1  0.63885000  0.55009000  0.42063000  1.0
  C  C87  1  0.86117000  0.94990000  0.92063000  1.0
  C  C88  1  0.21279000  0.40594000  0.58286000  1.0
  C  C89  1  0.28719000  0.09407000  0.08286000  1.0
  C  C90  1  0.78721000  0.59406000  0.41714000  1.0
  C  C91  1  0.71280000  0.90593000  0.91714000  1.0
  C  C92  1  0.57077000  0.29648000  0.34113000  1.0
  C  C93  1  0.92923000  0.20352000  0.84114000  1.0
  C  C94  1  0.42923000  0.70353000  0.65886000  1.0
  C  C95  1  0.07078000  0.79648000  0.15887000  1.0
  C  C96  1  0.40454000  0.27193000  0.30467000  1.0
  C  C97  1  0.09545000  0.22808000  0.80468000  1.0
  C  C98  1  0.59545000  0.72808000  0.69532000  1.0
  C  C99  1  0.90456000  0.77192000  0.19532000  1.0
  C  C100  1  0.36064000  0.19061000  0.31824000  1.0
  C  C101  1  0.13934000  0.30940000  0.81824000  1.0
  C  C102  1  0.63936000  0.80940000  0.68176000  1.0
  C  C103  1  0.86066000  0.69060000  0.18176000  1.0
  C  C104  1  0.28097000  0.33132000  0.25807000  1.0
  C  C105  1  0.21903000  0.16869000  0.75808000  1.0
  C  C106  1  0.71902000  0.66869000  0.74193000  1.0
  C  C107  1  0.78098000  0.83131000  0.24193000  1.0
  C  C108  1  0.90555000  0.20472000  0.20443000  1.0
  C  C109  1  0.59444000  0.29529000  0.70443000  1.0
  C  C110  1  0.09446000  0.79527000  0.79558000  1.0
  C  C111  1  0.40557000  0.70472000  0.29558000  1.0
  C  C112  1  0.07176000  0.22905000  0.24125000  1.0
  C  C113  1  0.42823000  0.27096000  0.74126000  1.0
  C  C114  1  0.92824000  0.77095000  0.75874000  1.0
  C  C115  1  0.57179000  0.72904000  0.25875000  1.0
  C  C116  1  0.11566000  0.31045000  0.22790000  1.0
  C  C117  1  0.38434000  0.18955000  0.72791000  1.0
  C  C118  1  0.88433000  0.68955000  0.77210000  1.0
  C  C119  1  0.61568000  0.81045000  0.27210000  1.0
  C  C120  1  0.19661000  0.16935000  0.28696000  1.0
  C  C121  1  0.30339000  0.33065000  0.78696000  1.0
  C  C122  1  0.80340000  0.83065000  0.71304000  1.0
  C  C123  1  0.69663000  0.66935000  0.21305000  1.0
  N  N124  1  0.15485000  0.18842000  0.51056000  1.0
  N  N125  1  0.34514000  0.31157000  0.01056000  1.0
  N  N126  1  0.84511000  0.81157000  0.48943000  1.0
  N  N127  1  0.65489000  0.68842000  0.98944000  1.0
  N  N128  1  0.11918000  0.38857000  0.51514000  1.0
  N  N129  1  0.38083000  0.11142000  0.01514000  1.0
  N  N130  1  0.88081000  0.61144000  0.48487000  1.0
  N  N131  1  0.61919000  0.88856000  0.98486000  1.0
  N  N132  1  0.79514000  0.30534000  0.42077000  1.0
  N  N133  1  0.70485000  0.19466000  0.92078000  1.0
  N  N134  1  0.20485000  0.69468000  0.57922000  1.0
  N  N135  1  0.29517000  0.80533000  0.07923000  1.0
  N  N136  1  0.78718000  0.36861000  0.36629000  1.0
  N  N137  1  0.71281000  0.13139000  0.86630000  1.0
  N  N138  1  0.21281000  0.63140000  0.63370000  1.0
  N  N139  1  0.28720000  0.86861000  0.13370000  1.0
  N  N140  1  0.64630000  0.36446000  0.31573000  1.0
  N  N141  1  0.85370000  0.13554000  0.81574000  1.0
  N  N142  1  0.35369000  0.63555000  0.68425000  1.0
  N  N143  1  0.14632000  0.86446000  0.18426000  1.0
  N  N144  1  0.66183000  0.25849000  0.40693000  1.0
  N  N145  1  0.83816000  0.24152000  0.90693000  1.0
  N  N146  1  0.33817000  0.74153000  0.59307000  1.0
  N  N147  1  0.16185000  0.75848000  0.09308000  1.0
  N  N148  1  0.68529000  0.19612000  0.12228000  1.0
  N  N149  1  0.81470000  0.30388000  0.62227000  1.0
  N  N150  1  0.31473000  0.80386000  0.87772000  1.0
  N  N151  1  0.18528000  0.69613000  0.37772000  1.0
  N  N152  1  0.69014000  0.13264000  0.17642000  1.0
  N  N153  1  0.80986000  0.36736000  0.67641000  1.0
  N  N154  1  0.30987000  0.86735000  0.82359000  1.0
  N  N155  1  0.19015000  0.63264000  0.32359000  1.0
  N  N156  1  0.82834000  0.13682000  0.22868000  1.0
  N  N157  1  0.67166000  0.36318000  0.72868000  1.0
  N  N158  1  0.17166000  0.86317000  0.77133000  1.0
  N  N159  1  0.32836000  0.63682000  0.27132000  1.0
  N  N160  1  0.81795000  0.24283000  0.13792000  1.0
  N  N161  1  0.68203000  0.25718000  0.63792000  1.0
  N  N162  1  0.18206000  0.75716000  0.86208000  1.0
  N  N163  1  0.31795000  0.74283000  0.36209000  1.0
