# generated using pymatgen
data_CuH18C10(NO4)2
_symmetry_space_group_name_H-M   'P 1'
_cell_length_a   7.79773000
_cell_length_b   8.73166000
_cell_length_c   11.12340000
_cell_angle_alpha   106.47100000
_cell_angle_beta   89.99970000
_cell_angle_gamma   89.99960000
_symmetry_Int_Tables_number   1
_chemical_formula_structural   CuH18C10(NO4)2
_chemical_formula_sum   'Cu2 H36 C20 N4 O16'
_cell_volume   726.28082975
_cell_formula_units_Z   2
loop_
 _symmetry_equiv_pos_site_id
 _symmetry_equiv_pos_as_xyz
  1  'x, y, z'
loop_
 _atom_site_type_symbol
 _atom_site_label
 _atom_site_symmetry_multiplicity
 _atom_site_fract_x
 _atom_site_fract_y
 _atom_site_fract_z
 _atom_site_occupancy
  Cu  Cu0  1  0.00000000  0.00000000  0.00000000  1.0
  Cu  Cu1  1  0.50000000  0.50000000  0.50000000  1.0
  H  H2  1  0.88914000  0.61992000  0.83986000  1.0
  H  H3  1  0.61086000  0.11992000  0.33985000  1.0
  H  H4  1  0.11085000  0.38009000  0.16015000  1.0
  H  H5  1  0.38914000  0.88008000  0.66015000  1.0
  H  H6  1  0.58205000  0.45020000  0.06498000  1.0
  H  H7  1  0.91795000  0.95020000  0.56497000  1.0
  H  H8  1  0.41795000  0.54980000  0.93503000  1.0
  H  H9  1  0.08205000  0.04980000  0.43503000  1.0
  H  H10  1  0.74636000  0.58785000  0.13842000  1.0
  H  H11  1  0.75364000  0.08785000  0.63841000  1.0
  H  H12  1  0.25364000  0.41215000  0.86158000  1.0
  H  H13  1  0.24636000  0.91215000  0.36159000  1.0
  H  H14  1  0.78801000  0.37707000  0.08847000  1.0
  H  H15  1  0.71199000  0.87708000  0.58847000  1.0
  H  H16  1  0.21199000  0.62293000  0.91153000  1.0
  H  H17  1  0.28801000  0.12292000  0.41153000  1.0
  H  H18  1  0.62305000  0.31302000  0.82806000  1.0
  H  H19  1  0.87694000  0.81302000  0.32806000  1.0
  H  H20  1  0.37695000  0.68698000  0.17194000  1.0
  H  H21  1  0.12306000  0.18698000  0.67194000  1.0
  H  H22  1  0.83999000  0.25532000  0.84762000  1.0
  H  H23  1  0.66000000  0.75532000  0.34762000  1.0
  H  H24  1  0.16001000  0.74468000  0.15238000  1.0
  H  H25  1  0.34001000  0.24467000  0.65238000  1.0
  H  H26  1  0.79149000  0.38486000  0.75211000  1.0
  H  H27  1  0.70850000  0.88486000  0.25211000  1.0
  H  H28  1  0.20851000  0.61514000  0.24789000  1.0
  H  H29  1  0.29150000  0.11514000  0.74789000  1.0
  H  H30  1  0.18650000  0.11507000  0.19051000  1.0
  H  H31  1  0.31350000  0.61506000  0.69052000  1.0
  H  H32  1  0.81350000  0.88494000  0.80949000  1.0
  H  H33  1  0.68650000  0.38494000  0.30948000  1.0
  H  H34  1  0.99318000  0.15907000  0.22940000  1.0
  H  H35  1  0.50683000  0.65908000  0.72940000  1.0
  H  H36  1  0.00683000  0.84092000  0.77060000  1.0
  H  H37  1  0.49317000  0.34093000  0.27059000  1.0
  C  C38  1  0.62354000  0.04263000  0.02772000  1.0
  C  C39  1  0.87645000  0.54264000  0.52772000  1.0
  C  C40  1  0.37646000  0.95737000  0.97229000  1.0
  C  C41  1  0.12355000  0.45737000  0.47228000  1.0
  C  C42  1  0.55010000  0.92013000  0.91886000  1.0
  C  C43  1  0.94990000  0.42013000  0.41886000  1.0
  C  C44  1  0.44990000  0.07987000  0.08114000  1.0
  C  C45  1  0.05010000  0.57988000  0.58115000  1.0
  C  C46  1  0.85035000  0.62676000  0.93690000  1.0
  C  C47  1  0.64965000  0.12677000  0.43689000  1.0
  C  C48  1  0.14964000  0.37324000  0.06311000  1.0
  C  C49  1  0.35035000  0.87323000  0.56311000  1.0
  C  C50  1  0.72013000  0.47585000  0.06655000  1.0
  C  C51  1  0.77986000  0.97586000  0.56655000  1.0
  C  C52  1  0.27987000  0.52415000  0.93345000  1.0
  C  C53  1  0.22014000  0.02414000  0.43345000  1.0
  C  C54  1  0.75737000  0.35309000  0.83760000  1.0
  C  C55  1  0.74262000  0.85309000  0.33760000  1.0
  C  C56  1  0.24263000  0.64691000  0.16240000  1.0
  C  C57  1  0.25738000  0.14690000  0.66240000  1.0
  N  N58  1  0.77581000  0.49168000  0.94611000  1.0
  N  N59  1  0.72418000  0.99168000  0.44610000  1.0
  N  N60  1  0.22419000  0.50832000  0.05390000  1.0
  N  N61  1  0.27582000  0.00832000  0.55390000  1.0
  O  O62  1  0.76929000  0.09693000  0.06401000  1.0
  O  O63  1  0.73071000  0.59693000  0.56402000  1.0
  O  O64  1  0.23071000  0.90307000  0.93598000  1.0
  O  O65  1  0.26929000  0.40307000  0.43598000  1.0
  O  O66  1  0.61139000  0.82708000  0.82077000  1.0
  O  O67  1  0.88861000  0.32708000  0.32077000  1.0
  O  O68  1  0.38861000  0.17292000  0.17923000  1.0
  O  O69  1  0.11139000  0.67292000  0.67923000  1.0
  O  O70  1  0.87545000  0.74858000  0.02616000  1.0
  O  O71  1  0.62455000  0.24858000  0.52615000  1.0
  O  O72  1  0.12454000  0.25143000  0.97385000  1.0
  O  O73  1  0.37545000  0.75141000  0.47385000  1.0
  O  O74  1  0.06788000  0.06921000  0.18261000  1.0
  O  O75  1  0.43213000  0.56921000  0.68262000  1.0
  O  O76  1  0.93213000  0.93079000  0.81739000  1.0
  O  O77  1  0.56788000  0.43079000  0.31738000  1.0
