# generated using pymatgen
data_CoH12C16(NO2)2
_symmetry_space_group_name_H-M   'P 1'
_cell_length_a   12.17400000
_cell_length_b   12.28050000
_cell_length_c   13.70900000
_cell_angle_alpha   89.99970000
_cell_angle_beta   90.00010000
_cell_angle_gamma   90.00000000
_symmetry_Int_Tables_number   1
_chemical_formula_structural   CoH12C16(NO2)2
_chemical_formula_sum   'Co4 H48 C64 N8 O16'
_cell_volume   2049.53398113
_cell_formula_units_Z   4
loop_
 _symmetry_equiv_pos_site_id
 _symmetry_equiv_pos_as_xyz
  1  'x, y, z'
loop_
 _atom_site_type_symbol
 _atom_site_label
 _atom_site_symmetry_multiplicity
 _atom_site_fract_x
 _atom_site_fract_y
 _atom_site_fract_z
 _atom_site_occupancy
  Co  Co0  1  0.19078000  0.25000000  0.50000000  1.0
  Co  Co1  1  0.30922000  0.25000000  0.00000000  1.0
  Co  Co2  1  0.80922000  0.75000000  0.50000000  1.0
  Co  Co3  1  0.69078000  0.75000000  0.00000000  1.0
  H  H4  1  0.46566000  0.51958000  0.57956000  1.0
  H  H5  1  0.46565000  0.98042000  0.42044000  1.0
  H  H6  1  0.03435000  0.98042000  0.07957000  1.0
  H  H7  1  0.03435000  0.51958000  0.92044000  1.0
  H  H8  1  0.53435000  0.48042000  0.42044000  1.0
  H  H9  1  0.53435000  0.01958000  0.57957000  1.0
  H  H10  1  0.96565000  0.01958000  0.92043000  1.0
  H  H11  1  0.96565000  0.48042000  0.07957000  1.0
  H  H12  1  0.33487000  0.42585000  0.75401000  1.0
  H  H13  1  0.33487000  0.07414000  0.24598000  1.0
  H  H14  1  0.16513000  0.07414000  0.25402000  1.0
  H  H15  1  0.16513000  0.42585000  0.74599000  1.0
  H  H16  1  0.66513000  0.57414000  0.24598000  1.0
  H  H17  1  0.66513000  0.92585000  0.75402000  1.0
  H  H18  1  0.83487000  0.92585000  0.74598000  1.0
  H  H19  1  0.83487000  0.57415000  0.25402000  1.0
  H  H20  1  0.36056000  0.51329000  0.90808000  1.0
  H  H21  1  0.36057000  0.98671000  0.09192000  1.0
  H  H22  1  0.13944000  0.98671000  0.40808000  1.0
  H  H23  1  0.13943000  0.51329000  0.59192000  1.0
  H  H24  1  0.63944000  0.48671000  0.09192000  1.0
  H  H25  1  0.63944000  0.01329000  0.90808000  1.0
  H  H26  1  0.86057000  0.01329000  0.59192000  1.0
  H  H27  1  0.86057000  0.48671000  0.40808000  1.0
  H  H28  1  0.47604000  0.62744000  0.01889000  1.0
  H  H29  1  0.47604000  0.87256000  0.98112000  1.0
  H  H30  1  0.02396000  0.87256000  0.51888000  1.0
  H  H31  1  0.02396000  0.62744000  0.48111000  1.0
  H  H32  1  0.52397000  0.37256000  0.98112000  1.0
  H  H33  1  0.52396000  0.12743000  0.01888000  1.0
  H  H34  1  0.97604000  0.12744000  0.48111000  1.0
  H  H35  1  0.97604000  0.37256000  0.51889000  1.0
  H  H36  1  0.68517000  0.71231000  0.79354000  1.0
  H  H37  1  0.68517000  0.78769000  0.20646000  1.0
  H  H38  1  0.81482000  0.78770000  0.29354000  1.0
  H  H39  1  0.81483000  0.71231000  0.70646000  1.0
  H  H40  1  0.31483000  0.28769000  0.20646000  1.0
  H  H41  1  0.31483000  0.21230000  0.79354000  1.0
  H  H42  1  0.18517000  0.21231000  0.70646000  1.0
  H  H43  1  0.18517000  0.28770000  0.29354000  1.0
  H  H44  1  0.58008000  0.60390000  0.67245000  1.0
  H  H45  1  0.58008000  0.89610000  0.32755000  1.0
  H  H46  1  0.91992000  0.89610000  0.17245000  1.0
  H  H47  1  0.91992000  0.60390000  0.82754000  1.0
  H  H48  1  0.41992000  0.39610000  0.32754000  1.0
  H  H49  1  0.41992000  0.10390000  0.67245000  1.0
  H  H50  1  0.08008000  0.10390000  0.82755000  1.0
  H  H51  1  0.08008000  0.39610000  0.17245000  1.0
  C  C52  1  0.33672000  0.39872000  0.55755000  1.0
  C  C53  1  0.33671000  0.10128000  0.44245000  1.0
  C  C54  1  0.16329000  0.10128000  0.05755000  1.0
  C  C55  1  0.16329000  0.39872000  0.94246000  1.0
  C  C56  1  0.66329000  0.60128000  0.44245000  1.0
  C  C57  1  0.66329000  0.89872000  0.55755000  1.0
  C  C58  1  0.83671000  0.89872000  0.94245000  1.0
  C  C59  1  0.83671000  0.60128000  0.05755000  1.0
  C  C60  1  0.40529000  0.47079000  0.61917000  1.0
  C  C61  1  0.40529000  0.02922000  0.38083000  1.0
  C  C62  1  0.09471000  0.02921000  0.11918000  1.0
  C  C63  1  0.09471000  0.47079000  0.88083000  1.0
  C  C64  1  0.59471000  0.52922000  0.38082000  1.0
  C  C65  1  0.59471000  0.97078000  0.61918000  1.0
  C  C66  1  0.90529000  0.97078000  0.88083000  1.0
  C  C67  1  0.90529000  0.52922000  0.11918000  1.0
  C  C68  1  0.39565000  0.47666000  0.71709000  1.0
  C  C69  1  0.39565000  0.02334000  0.28291000  1.0
  C  C70  1  0.10435000  0.02334000  0.21709000  1.0
  C  C71  1  0.10435000  0.47666000  0.78291000  1.0
  C  C72  1  0.60435000  0.52334000  0.28291000  1.0
  C  C73  1  0.60435000  0.97666000  0.71709000  1.0
  C  C74  1  0.89565000  0.97666000  0.78291000  1.0
  C  C75  1  0.89565000  0.52334000  0.21709000  1.0
  C  C76  1  0.46079000  0.54659000  0.78059000  1.0
  C  C77  1  0.46079000  0.95340000  0.21941000  1.0
  C  C78  1  0.03921000  0.95340000  0.28059000  1.0
  C  C79  1  0.03921000  0.54659000  0.71941000  1.0
  C  C80  1  0.53921000  0.45340000  0.21941000  1.0
  C  C81  1  0.53921000  0.04660000  0.78059000  1.0
  C  C82  1  0.96079000  0.04659000  0.71941000  1.0
  C  C83  1  0.96079000  0.45341000  0.28059000  1.0
  C  C84  1  0.43208000  0.55635000  0.87972000  1.0
  C  C85  1  0.43208000  0.94365000  0.12028000  1.0
  C  C86  1  0.06792000  0.94364000  0.37972000  1.0
  C  C87  1  0.06792000  0.55635000  0.62028000  1.0
  C  C88  1  0.56793000  0.44365000  0.12028000  1.0
  C  C89  1  0.56793000  0.05635000  0.87972000  1.0
  C  C90  1  0.93208000  0.05635000  0.62028000  1.0
  C  C91  1  0.93208000  0.44365000  0.37972000  1.0
  C  C92  1  0.49599000  0.61930000  0.94167000  1.0
  C  C93  1  0.49599000  0.88070000  0.05833000  1.0
  C  C94  1  0.00401000  0.88070000  0.44167000  1.0
  C  C95  1  0.00401000  0.61930000  0.55833000  1.0
  C  C96  1  0.50401000  0.38070000  0.05833000  1.0
  C  C97  1  0.50401000  0.11930000  0.94167000  1.0
  C  C98  1  0.99599000  0.11930000  0.55833000  1.0
  C  C99  1  0.99599000  0.38070000  0.44167000  1.0
  C  C100  1  0.61306000  0.66586000  0.81497000  1.0
  C  C101  1  0.61306000  0.83414000  0.18503000  1.0
  C  C102  1  0.88694000  0.83413000  0.31497000  1.0
  C  C103  1  0.88694000  0.66586000  0.68502000  1.0
  C  C104  1  0.38694000  0.33414000  0.18502000  1.0
  C  C105  1  0.38694000  0.16586000  0.81498000  1.0
  C  C106  1  0.11306000  0.16586000  0.68503000  1.0
  C  C107  1  0.11306000  0.33414000  0.31498000  1.0
  C  C108  1  0.55312000  0.60572000  0.74834000  1.0
  C  C109  1  0.55311000  0.89427000  0.25166000  1.0
  C  C110  1  0.94688000  0.89428000  0.24834000  1.0
  C  C111  1  0.94688000  0.60572000  0.75165000  1.0
  C  C112  1  0.44689000  0.39428000  0.25165000  1.0
  C  C113  1  0.44689000  0.10573000  0.74834000  1.0
  C  C114  1  0.05311000  0.10572000  0.75166000  1.0
  C  C115  1  0.05311000  0.39428000  0.24834000  1.0
  N  N116  1  0.58714000  0.67161000  0.91091000  1.0
  N  N117  1  0.58714000  0.82839000  0.08909000  1.0
  N  N118  1  0.91285000  0.82839000  0.41091000  1.0
  N  N119  1  0.91285000  0.67161000  0.58909000  1.0
  N  N120  1  0.41286000  0.32839000  0.08909000  1.0
  N  N121  1  0.41286000  0.17161000  0.91091000  1.0
  N  N122  1  0.08714000  0.17161000  0.58909000  1.0
  N  N123  1  0.08714000  0.32839000  0.41091000  1.0
  O  O124  1  0.25872000  0.34261000  0.59954000  1.0
  O  O125  1  0.25872000  0.15739000  0.40046000  1.0
  O  O126  1  0.24128000  0.15739000  0.09954000  1.0
  O  O127  1  0.24128000  0.34262000  0.90047000  1.0
  O  O128  1  0.74128000  0.65739000  0.40046000  1.0
  O  O129  1  0.74128000  0.84261000  0.59954000  1.0
  O  O130  1  0.75872000  0.84261000  0.90046000  1.0
  O  O131  1  0.75872000  0.65739000  0.09954000  1.0
  O  O132  1  0.35355000  0.39314000  0.46729000  1.0
  O  O133  1  0.35355000  0.10687000  0.53271000  1.0
  O  O134  1  0.14644000  0.10686000  0.96729000  1.0
  O  O135  1  0.14645000  0.39314000  0.03272000  1.0
  O  O136  1  0.64645000  0.60686000  0.53270000  1.0
  O  O137  1  0.64645000  0.89314000  0.46729000  1.0
  O  O138  1  0.85355000  0.89314000  0.03270000  1.0
  O  O139  1  0.85355000  0.60686000  0.96730000  1.0
