# generated using pymatgen
data_Li2H8C5NO5
_symmetry_space_group_name_H-M   'P 1'
_cell_length_a   5.41940000
_cell_length_b   8.23665870
_cell_length_c   8.42393000
_cell_angle_alpha   87.97033567
_cell_angle_beta   86.50560000
_cell_angle_gamma   73.50248608
_symmetry_Int_Tables_number   1
_chemical_formula_structural   Li2H8C5NO5
_chemical_formula_sum   'Li4 H16 C10 N2 O10'
_cell_volume   359.81031481
_cell_formula_units_Z   2
loop_
 _symmetry_equiv_pos_site_id
 _symmetry_equiv_pos_as_xyz
  1  'x, y, z'
loop_
 _atom_site_type_symbol
 _atom_site_label
 _atom_site_symmetry_multiplicity
 _atom_site_fract_x
 _atom_site_fract_y
 _atom_site_fract_z
 _atom_site_occupancy
  Li  Li0  1  0.69940000  0.41627000  0.64446000  1.0
  Li  Li1  1  0.30054000  0.58375000  0.35553000  1.0
  Li  Li2  1  0.29781000  0.80866000  0.59021000  1.0
  Li  Li3  1  0.70220000  0.19134000  0.40978000  1.0
  H  H4  1  0.76856000  0.71922000  0.62266000  1.0
  H  H5  1  0.23144000  0.28078000  0.37735000  1.0
  H  H6  1  0.77062000  0.86208000  0.50069000  1.0
  H  H7  1  0.22942000  0.13791000  0.49930000  1.0
  H  H8  1  0.15344000  0.33040000  0.91350000  1.0
  H  H9  1  0.84658000  0.66955000  0.08652000  1.0
  H  H10  1  0.29530000  0.22552000  0.73650000  1.0
  H  H11  1  0.70472000  0.77449000  0.26350000  1.0
  H  H12  1  0.58331000  0.04860000  0.87781000  1.0
  H  H13  1  0.41671000  0.95142000  0.12218000  1.0
  H  H14  1  0.80727000  0.11299000  0.98450000  1.0
  H  H15  1  0.19274000  0.88702000  0.01548000  1.0
  H  H16  1  0.75280000  0.37002000  0.04362000  1.0
  H  H17  1  0.24725000  0.62997000  0.95638000  1.0
  H  H18  1  0.43943000  0.35896000  0.10603000  1.0
  H  H19  1  0.56057000  0.64102000  0.89399000  1.0
  C  C20  1  0.29098000  0.33288000  0.81147000  1.0
  C  C21  1  0.70896000  0.66712000  0.18854000  1.0
  C  C22  1  0.70554000  0.13562000  0.87325000  1.0
  C  C23  1  0.29455000  0.86433000  0.12672000  1.0
  C  C24  1  0.90420000  0.07805000  0.73538000  1.0
  C  C25  1  0.09578000  0.92199000  0.26463000  1.0
  C  C26  1  0.55207000  0.40400000  0.00915000  1.0
  C  C27  1  0.44791000  0.59607000  0.99085000  1.0
  C  C28  1  0.17902000  0.48972000  0.70795000  1.0
  C  C29  1  0.82091000  0.51028000  0.29208000  1.0
  N  N30  1  0.55180000  0.31436000  0.86051000  1.0
  N  N31  1  0.44819000  0.68559000  0.13946000  1.0
  O  O32  1  0.33407000  0.56042000  0.63348000  1.0
  O  O33  1  0.66586000  0.43960000  0.36653000  1.0
  O  O34  1  0.93661000  0.53526000  0.69818000  1.0
  O  O35  1  0.06338000  0.46472000  0.30187000  1.0
  O  O36  1  0.07814000  0.94127000  0.75346000  1.0
  O  O37  1  0.92187000  0.05878000  0.24652000  1.0
  O  O38  1  0.88384000  0.17317000  0.60949000  1.0
  O  O39  1  0.11615000  0.82683000  0.39051000  1.0
  O  O40  1  0.64960000  0.82004000  0.57076000  1.0
  O  O41  1  0.35043000  0.17995000  0.42922000  1.0
