# generated using pymatgen
data_BaH9C5N3O7
_symmetry_space_group_name_H-M   'P 1'
_cell_length_a   6.70582000
_cell_length_b   7.64042000
_cell_length_c   10.70820000
_cell_angle_alpha   74.12870000
_cell_angle_beta   79.67520000
_cell_angle_gamma   72.72760000
_symmetry_Int_Tables_number   1
_chemical_formula_structural   BaH9C5N3O7
_chemical_formula_sum   'Ba2 H18 C10 N6 O14'
_cell_volume   501.04627569
_cell_formula_units_Z   2
loop_
 _symmetry_equiv_pos_site_id
 _symmetry_equiv_pos_as_xyz
  1  'x, y, z'
loop_
 _atom_site_type_symbol
 _atom_site_label
 _atom_site_symmetry_multiplicity
 _atom_site_fract_x
 _atom_site_fract_y
 _atom_site_fract_z
 _atom_site_occupancy
  Ba  Ba0  1  0.24023000  0.42492000  0.15358000  1.0
  Ba  Ba1  1  0.75977000  0.57508000  0.84642000  1.0
  H  H2  1  0.84190000  0.18521000  0.28943000  1.0
  H  H3  1  0.15810000  0.81479000  0.71057000  1.0
  H  H4  1  0.86049000  0.67706000  0.39971000  1.0
  H  H5  1  0.13951000  0.32294000  0.60029000  1.0
  H  H6  1  0.76935000  0.89119000  0.45314000  1.0
  H  H7  1  0.23065000  0.10881000  0.54686000  1.0
  H  H8  1  0.58793000  0.39370000  0.39185000  1.0
  H  H9  1  0.41207000  0.60631000  0.60815000  1.0
  H  H10  1  0.76928000  0.72482000  0.09805000  1.0
  H  H11  1  0.23073000  0.27518000  0.90195000  1.0
  H  H12  1  0.51064000  0.00555000  0.23987000  1.0
  H  H13  1  0.48936000  0.99445000  0.76013000  1.0
  H  H14  1  0.42351000  0.58929000  0.35516000  1.0
  H  H15  1  0.57648000  0.41071000  0.64484000  1.0
  H  H16  1  0.71127000  0.54377000  0.18645000  1.0
  H  H17  1  0.28873000  0.45623000  0.81355000  1.0
  H  H18  1  0.35622000  0.95371000  0.36602000  1.0
  H  H19  1  0.64378000  0.04629000  0.63398000  1.0
  C  C20  1  0.31053000  0.90346000  0.98803000  1.0
  C  C21  1  0.68947000  0.09654000  0.01197000  1.0
  C  C22  1  0.16788000  0.94355000  0.10677000  1.0
  C  C23  1  0.83211000  0.05645000  0.89322000  1.0
  C  C24  1  0.94954000  0.08327000  0.23930000  1.0
  C  C25  1  0.05046000  0.91673000  0.76069000  1.0
  C  C26  1  0.90809000  0.79557000  0.41344000  1.0
  C  C27  1  0.09191000  0.20443000  0.58656000  1.0
  C  C28  1  0.07310000  0.71543000  0.51128000  1.0
  C  C29  1  0.92690000  0.28457000  0.48872000  1.0
  N  N30  1  0.12369000  0.80403000  0.20446000  1.0
  N  N31  1  0.87631000  0.19597000  0.79554000  1.0
  N  N32  1  0.06407000  0.11917000  0.12493000  1.0
  N  N33  1  0.93593000  0.88083000  0.87507000  1.0
  N  N34  1  0.98469000  0.89598000  0.28798000  1.0
  N  N35  1  0.01531000  0.10402000  0.71202000  1.0
  O  O36  1  0.38882000  0.73126000  0.98482000  1.0
  O  O37  1  0.61118000  0.26874000  0.01518000  1.0
  O  O38  1  0.33959000  0.04429000  0.89822000  1.0
  O  O39  1  0.66041000  0.95571000  0.10178000  1.0
  O  O40  1  0.01357000  0.62193000  0.62039000  1.0
  O  O41  1  0.98643000  0.37807000  0.37961000  1.0
  O  O42  1  0.50821000  0.48166000  0.31878000  1.0
  O  O43  1  0.49179000  0.51834000  0.68122000  1.0
  O  O44  1  0.25563000  0.74515000  0.47847000  1.0
  O  O45  1  0.74437000  0.25485000  0.52153000  1.0
  O  O46  1  0.81018000  0.58452000  0.11094000  1.0
  O  O47  1  0.18982000  0.41548000  0.88906000  1.0
  O  O48  1  0.41830000  0.05584000  0.31331000  1.0
  O  O49  1  0.58169000  0.94416000  0.68669000  1.0
