# generated using pymatgen
data_CoH15C17Br(NO)4
_symmetry_space_group_name_H-M   'P 1'
_cell_length_a   7.74383000
_cell_length_b   11.36940000
_cell_length_c   11.36930000
_cell_angle_alpha   71.33970000
_cell_angle_beta   72.48130000
_cell_angle_gamma   72.48090000
_symmetry_Int_Tables_number   1
_chemical_formula_structural   CoH15C17Br(NO)4
_chemical_formula_sum   'Co2 H30 C34 Br2 N8 O8'
_cell_volume   880.85777206
_cell_formula_units_Z   2
loop_
 _symmetry_equiv_pos_site_id
 _symmetry_equiv_pos_as_xyz
  1  'x, y, z'
loop_
 _atom_site_type_symbol
 _atom_site_label
 _atom_site_symmetry_multiplicity
 _atom_site_fract_x
 _atom_site_fract_y
 _atom_site_fract_z
 _atom_site_occupancy
  Co  Co0  1  0.62229000  0.37688000  0.03247000  1.0
  Co  Co1  1  0.37770000  0.96753000  0.62313000  1.0
  H  H2  1  0.58806000  0.77532000  0.97375000  1.0
  H  H3  1  0.41195000  0.02625000  0.22467000  1.0
  H  H4  1  0.49999000  0.62065000  0.37935000  1.0
  H  H5  1  0.82874000  0.90181000  0.34403000  1.0
  H  H6  1  0.17126000  0.65597000  0.09820000  1.0
  H  H7  1  0.00000000  0.05864000  0.94135000  1.0
  H  H8  1  0.21211000  0.50080000  0.98105000  1.0
  H  H9  1  0.78789000  0.01894000  0.49921000  1.0
  H  H10  1  0.90981000  0.40567000  0.15256000  1.0
  H  H11  1  0.09019000  0.84743000  0.59433000  1.0
  H  H12  1  0.40537000  0.20192000  0.27745000  1.0
  H  H13  1  0.59463000  0.72255000  0.79809000  1.0
  H  H14  1  0.10643000  0.12837000  0.40392000  1.0
  H  H15  1  0.89358000  0.59608000  0.87163000  1.0
  H  H16  1  0.90130000  0.19920000  0.34208000  1.0
  H  H17  1  0.09870000  0.65792000  0.80081000  1.0
  H  H18  1  0.06036000  0.32751000  0.47429000  1.0
  H  H19  1  0.93964000  0.52571000  0.67249000  1.0
  H  H20  1  0.85905000  0.39544000  0.41065000  1.0
  H  H21  1  0.14095000  0.58934000  0.60456000  1.0
  H  H22  1  0.70870000  0.22051000  0.56613000  1.0
  H  H23  1  0.29130000  0.43386000  0.77949000  1.0
  H  H24  1  0.90650000  0.15694000  0.63432000  1.0
  H  H25  1  0.09350000  0.36567000  0.84306000  1.0
  H  H26  1  0.62567000  0.50749000  0.54488000  1.0
  H  H27  1  0.37433000  0.45511000  0.49251000  1.0
  H  H28  1  0.50334000  0.58385000  0.76793000  1.0
  H  H29  1  0.49667000  0.23206000  0.41616000  1.0
  H  H30  1  0.81586000  0.20351000  0.84233000  1.0
  H  H31  1  0.18414000  0.15767000  0.79649000  1.0
  C  C32  1  0.50001000  0.91092000  0.08908000  1.0
  C  C33  1  0.55050000  0.78933000  0.06917000  1.0
  C  C34  1  0.44950000  0.93083000  0.21067000  1.0
  C  C35  1  0.54950000  0.68378000  0.17505000  1.0
  C  C36  1  0.45050000  0.82495000  0.31623000  1.0
  C  C37  1  0.49999000  0.70258000  0.29742000  1.0
  C  C38  1  0.59610000  0.55068000  0.15991000  1.0
  C  C39  1  0.40390000  0.84009000  0.44933000  1.0
  C  C40  1  0.00000000  0.76882000  0.23118000  1.0
  C  C41  1  0.90439000  0.88871000  0.24987000  1.0
  C  C42  1  0.09561000  0.75013000  0.11130000  1.0
  C  C43  1  0.90497000  0.99432000  0.14418000  1.0
  C  C44  1  0.09502000  0.85582000  0.00569000  1.0
  C  C45  1  0.00000000  0.97687000  0.02313000  1.0
  C  C46  1  0.79716000  0.12367000  0.16341000  1.0
  C  C47  1  0.20284000  0.83659000  0.87634000  1.0
  C  C48  1  0.20693000  0.42350000  0.06685000  1.0
  C  C49  1  0.79307000  0.93314000  0.57650000  1.0
  C  C50  1  0.05710000  0.37914000  0.15048000  1.0
  C  C51  1  0.94290000  0.84952000  0.62086000  1.0
  C  C52  1  0.31304000  0.27062000  0.21940000  1.0
  C  C53  1  0.68696000  0.78060000  0.72938000  1.0
  C  C54  1  0.01622000  0.21909000  0.36493000  1.0
  C  C55  1  0.98378000  0.63507000  0.78091000  1.0
  C  C56  1  0.94284000  0.30528000  0.45690000  1.0
  C  C57  1  0.05716000  0.54310000  0.69472000  1.0
  C  C58  1  0.82512000  0.24479000  0.58270000  1.0
  C  C59  1  0.17488000  0.41729000  0.75521000  1.0
  C  C60  1  0.64719000  0.45549000  0.63915000  1.0
  C  C61  1  0.35281000  0.36085000  0.54451000  1.0
  C  C62  1  0.59011000  0.49359000  0.75070000  1.0
  C  C63  1  0.40990000  0.24929000  0.50641000  1.0
  C  C64  1  0.75011000  0.29700000  0.79268000  1.0
  C  C65  1  0.24989000  0.20732000  0.70299000  1.0
  Br  Br66  1  0.50000000  0.05516000  0.94485000  1.0
  Br  Br67  1  0.00001000  0.62511000  0.37488000  1.0
  N  N68  1  0.36599000  0.35483000  0.11098000  1.0
  N  N69  1  0.63401000  0.88901000  0.64517000  1.0
  N  N70  1  0.12697000  0.28241000  0.24585000  1.0
  N  N71  1  0.87304000  0.75415000  0.71759000  1.0
  N  N72  1  0.74764000  0.33067000  0.66749000  1.0
  N  N73  1  0.25236000  0.33251000  0.66932000  1.0
  N  N74  1  0.65642000  0.39386000  0.84591000  1.0
  N  N75  1  0.34358000  0.15409000  0.60614000  1.0
  O  O76  1  0.64106000  0.53970000  0.04252000  1.0
  O  O77  1  0.35893000  0.95749000  0.46031000  1.0
  O  O78  1  0.59113000  0.45763000  0.25517000  1.0
  O  O79  1  0.40886000  0.74484000  0.54237000  1.0
  O  O80  1  0.80270000  0.21582000  0.05954000  1.0
  O  O81  1  0.19730000  0.94046000  0.78418000  1.0
  O  O82  1  0.70921000  0.13536000  0.27258000  1.0
  O  O83  1  0.29078000  0.72742000  0.86464000  1.0
