# generated using pymatgen
data_MnH16C12(IO2)4
_symmetry_space_group_name_H-M   'P 1'
_cell_length_a   8.48498000
_cell_length_b   13.01760000
_cell_length_c   21.91450000
_cell_angle_alpha   91.16690000
_cell_angle_beta   89.99650000
_cell_angle_gamma   89.99510000
_symmetry_Int_Tables_number   1
_chemical_formula_structural   MnH16C12(IO2)4
_chemical_formula_sum   'Mn4 H64 C48 I16 O32'
_cell_volume   2420.04384265
_cell_formula_units_Z   4
loop_
 _symmetry_equiv_pos_site_id
 _symmetry_equiv_pos_as_xyz
  1  'x, y, z'
loop_
 _atom_site_type_symbol
 _atom_site_label
 _atom_site_symmetry_multiplicity
 _atom_site_fract_x
 _atom_site_fract_y
 _atom_site_fract_z
 _atom_site_occupancy
  Mn  Mn0  1  0.50000000  0.00000000  0.50000000  1.0
  Mn  Mn1  1  0.99998000  0.50000000  0.00000000  1.0
  Mn  Mn2  1  0.50002000  0.00000000  0.00000000  1.0
  Mn  Mn3  1  0.00000000  0.49999000  0.50000000  1.0
  H  H4  1  0.85797000  0.91364000  0.46160000  1.0
  H  H5  1  0.35789000  0.58638000  0.03841000  1.0
  H  H6  1  0.14203000  0.08636000  0.53840000  1.0
  H  H7  1  0.64206000  0.41364000  0.96159000  1.0
  H  H8  1  0.94887000  0.02376000  0.42860000  1.0
  H  H9  1  0.44879000  0.47623000  0.07141000  1.0
  H  H10  1  0.05113000  0.97623000  0.57140000  1.0
  H  H11  1  0.55117000  0.52379000  0.92859000  1.0
  H  H12  1  0.77344000  0.97055000  0.39586000  1.0
  H  H13  1  0.27330000  0.52945000  0.10414000  1.0
  H  H14  1  0.22656000  0.02945000  0.60414000  1.0
  H  H15  1  0.72665000  0.47057000  0.89586000  1.0
  H  H16  1  0.53302000  0.80844000  0.58180000  1.0
  H  H17  1  0.03307000  0.69155000  0.91820000  1.0
  H  H18  1  0.46695000  0.19154000  0.41820000  1.0
  H  H19  1  0.96692000  0.30846000  0.08181000  1.0
  H  H20  1  0.59947000  0.69785000  0.53933000  1.0
  H  H21  1  0.09946000  0.80213000  0.96067000  1.0
  H  H22  1  0.40051000  0.30214000  0.46066000  1.0
  H  H23  1  0.90053000  0.19787000  0.03934000  1.0
  H  H24  1  0.39957000  0.74337000  0.53070000  1.0
  H  H25  1  0.89957000  0.75662000  0.96928000  1.0
  H  H26  1  0.60041000  0.25661000  0.46929000  1.0
  H  H27  1  0.10042000  0.24339000  0.03072000  1.0
  H  H28  1  0.77515000  0.94723000  0.09364000  1.0
  H  H29  1  0.27513000  0.55274000  0.40635000  1.0
  H  H30  1  0.22488000  0.05277000  0.90635000  1.0
  H  H31  1  0.72489000  0.44725000  0.59365000  1.0
  H  H32  1  0.94748000  0.01730000  0.07255000  1.0
  H  H33  1  0.44742000  0.48262000  0.42743000  1.0
  H  H34  1  0.05256000  0.98269000  0.92744000  1.0
  H  H35  1  0.55259000  0.51736000  0.57257000  1.0
  H  H36  1  0.87615000  0.91372000  0.02468000  1.0
  H  H37  1  0.37616000  0.58623000  0.47530000  1.0
  H  H38  1  0.12388000  0.08627000  0.97531000  1.0
  H  H39  1  0.62387000  0.41376000  0.52470000  1.0
  H  H40  1  0.38908000  0.76084000  0.95608000  1.0
  H  H41  1  0.88906000  0.73917000  0.54393000  1.0
  H  H42  1  0.61094000  0.23917000  0.04391000  1.0
  H  H43  1  0.11094000  0.26082000  0.45608000  1.0
  H  H44  1  0.48087000  0.74820000  0.02909000  1.0
  H  H45  1  0.98075000  0.75180000  0.47090000  1.0
  H  H46  1  0.51915000  0.25182000  0.97091000  1.0
  H  H47  1  0.01924000  0.24818000  0.52911000  1.0
  H  H48  1  0.56798000  0.68675000  0.96353000  1.0
  H  H49  1  0.06796000  0.81324000  0.53643000  1.0
  H  H50  1  0.43204000  0.31326000  0.03646000  1.0
  H  H51  1  0.93203000  0.18675000  0.46357000  1.0
  H  H52  1  0.78166000  0.06521000  0.51775000  1.0
  H  H53  1  0.28166000  0.43484000  0.98224000  1.0
  H  H54  1  0.21834000  0.93478000  0.48226000  1.0
  H  H55  1  0.71831000  0.56518000  0.01776000  1.0
  H  H56  1  0.55954000  0.80329000  0.45126000  1.0
  H  H57  1  0.05949000  0.69669000  0.04874000  1.0
  H  H58  1  0.44044000  0.19670000  0.54874000  1.0
  H  H59  1  0.94049000  0.30331000  0.95127000  1.0
  H  H60  1  0.78310000  0.06974000  0.98366000  1.0
  H  H61  1  0.28306000  0.43024000  0.51633000  1.0
  H  H62  1  0.21694000  0.93025000  0.01632000  1.0
  H  H63  1  0.71696000  0.56977000  0.48368000  1.0
  H  H64  1  0.63180000  0.84917000  0.92971000  1.0
  H  H65  1  0.13178000  0.65079000  0.57024000  1.0
  H  H66  1  0.36822000  0.15084000  0.07028000  1.0
  H  H67  1  0.86822000  0.34919000  0.42976000  1.0
  C  C68  1  0.67946000  0.04845000  0.61813000  1.0
  C  C69  1  0.17946000  0.45157000  0.88186000  1.0
  C  C70  1  0.32052000  0.95154000  0.38187000  1.0
  C  C71  1  0.82051000  0.54844000  0.11814000  1.0
  C  C72  1  0.67621000  0.05412000  0.68716000  1.0
  C  C73  1  0.17616000  0.44590000  0.81283000  1.0
  C  C74  1  0.32378000  0.94589000  0.31284000  1.0
  C  C75  1  0.82384000  0.55410000  0.18716000  1.0
  C  C76  1  0.60519000  0.13820000  0.71751000  1.0
  C  C77  1  0.10518000  0.36182000  0.78250000  1.0
  C  C78  1  0.39480000  0.86181000  0.28249000  1.0
  C  C79  1  0.89483000  0.63819000  0.21750000  1.0
  C  C80  1  0.60453000  0.14441000  0.78155000  1.0
  C  C81  1  0.10453000  0.35559000  0.71847000  1.0
  C  C82  1  0.39546000  0.85560000  0.21845000  1.0
  C  C83  1  0.89549000  0.64441000  0.28154000  1.0
  C  C84  1  0.67356000  0.06545000  0.81532000  1.0
  C  C85  1  0.17354000  0.43452000  0.68468000  1.0
  C  C86  1  0.32643000  0.93456000  0.18467000  1.0
  C  C87  1  0.82649000  0.56546000  0.31533000  1.0
  C  C88  1  0.73959000  0.98008000  0.78483000  1.0
  C  C89  1  0.23951000  0.51992000  0.71517000  1.0
  C  C90  1  0.26043000  0.01993000  0.21518000  1.0
  C  C91  1  0.76054000  0.48006000  0.28484000  1.0
  C  C92  1  0.74279000  0.97464000  0.72091000  1.0
  C  C93  1  0.24274000  0.52536000  0.77907000  1.0
  C  C94  1  0.25721000  0.02537000  0.27909000  1.0
  C  C95  1  0.75728000  0.47463000  0.22093000  1.0
  C  C96  1  0.67334000  0.07071000  0.88444000  1.0
  C  C97  1  0.17334000  0.42928000  0.61556000  1.0
  C  C98  1  0.32665000  0.92930000  0.11557000  1.0
  C  C99  1  0.82667000  0.57072000  0.38445000  1.0
  C  C100  1  0.83592000  0.98659000  0.43879000  1.0
  C  C101  1  0.33582000  0.51341000  0.06121000  1.0
  C  C102  1  0.16408000  0.01341000  0.56121000  1.0
  C  C103  1  0.66413000  0.48661000  0.93879000  1.0
  C  C104  1  0.52303000  0.76584000  0.53832000  1.0
  C  C105  1  0.02302000  0.73415000  0.96167000  1.0
  C  C106  1  0.47694000  0.23414000  0.46167000  1.0
  C  C107  1  0.97696000  0.26585000  0.03834000  1.0
  C  C108  1  0.84165000  0.97785000  0.05518000  1.0
  C  C109  1  0.34163000  0.52212000  0.44480000  1.0
  C  C110  1  0.15839000  0.02215000  0.94481000  1.0
  C  C111  1  0.65839000  0.47788000  0.55520000  1.0
  C  C112  1  0.50239000  0.75437000  0.98001000  1.0
  C  C113  1  0.00234000  0.74562000  0.51997000  1.0
  C  C114  1  0.49763000  0.24565000  0.01998000  1.0
  C  C115  1  0.99765000  0.25437000  0.48003000  1.0
  I  I116  1  0.49814000  0.25418000  0.66522000  1.0
  I  I117  1  0.99814000  0.24583000  0.83480000  1.0
  I  I118  1  0.50189000  0.74583000  0.33477000  1.0
  I  I119  1  0.00187000  0.75416000  0.16521000  1.0
  I  I120  1  0.49769000  0.26738000  0.83018000  1.0
  I  I121  1  0.99771000  0.23260000  0.66984000  1.0
  I  I122  1  0.50231000  0.73263000  0.16982000  1.0
  I  I123  1  0.00227000  0.76740000  0.33017000  1.0
  I  I124  1  0.82754000  0.85721000  0.83662000  1.0
  I  I125  1  0.32742000  0.64278000  0.66334000  1.0
  I  I126  1  0.17251000  0.14283000  0.16339000  1.0
  I  I127  1  0.67263000  0.35720000  0.33666000  1.0
  I  I128  1  0.84497000  0.84891000  0.67338000  1.0
  I  I129  1  0.34496000  0.65110000  0.82659000  1.0
  I  I130  1  0.15508000  0.15111000  0.32663000  1.0
  I  I131  1  0.65503000  0.34890000  0.17341000  1.0
  O  O132  1  0.55928000  0.00666000  0.59306000  1.0
  O  O133  1  0.05923000  0.49330000  0.90695000  1.0
  O  O134  1  0.44070000  0.99333000  0.40694000  1.0
  O  O135  1  0.94072000  0.50670000  0.09305000  1.0
  O  O136  1  0.79858000  0.08475000  0.59141000  1.0
  O  O137  1  0.29863000  0.41534000  0.90858000  1.0
  O  O138  1  0.20141000  0.91524000  0.40859000  1.0
  O  O139  1  0.70135000  0.58469000  0.09143000  1.0
  O  O140  1  0.54801000  0.03811000  0.90954000  1.0
  O  O141  1  0.04801000  0.46192000  0.59045000  1.0
  O  O142  1  0.45198000  0.96190000  0.09046000  1.0
  O  O143  1  0.95199000  0.53806000  0.40955000  1.0
  O  O144  1  0.79581000  0.10355000  0.91149000  1.0
  O  O145  1  0.29581000  0.39642000  0.58850000  1.0
  O  O146  1  0.20419000  0.89645000  0.08851000  1.0
  O  O147  1  0.70422000  0.60359000  0.41150000  1.0
  O  O148  1  0.73668000  0.05306000  0.47541000  1.0
  O  O149  1  0.23667000  0.44699000  0.02457000  1.0
  O  O150  1  0.26332000  0.94694000  0.52459000  1.0
  O  O151  1  0.76330000  0.55303000  0.97543000  1.0
  O  O152  1  0.57536000  0.83508000  0.49188000  1.0
  O  O153  1  0.07532000  0.66489000  0.00812000  1.0
  O  O154  1  0.42461000  0.16491000  0.50812000  1.0
  O  O155  1  0.92465000  0.33511000  0.99189000  1.0
  O  O156  1  0.73948000  0.04850000  0.02442000  1.0
  O  O157  1  0.23943000  0.45150000  0.47557000  1.0
  O  O158  1  0.26056000  0.95150000  0.97557000  1.0
  O  O159  1  0.76058000  0.54850000  0.52443000  1.0
  O  O160  1  0.59656000  0.84569000  0.97237000  1.0
  O  O161  1  0.09651000  0.65428000  0.52759000  1.0
  O  O162  1  0.40347000  0.15431000  0.02762000  1.0
  O  O163  1  0.90348000  0.34570000  0.47241000  1.0
