# generated using pymatgen
data_CaH11C9SNO6
_symmetry_space_group_name_H-M   'P 1'
_cell_length_a   10.16190000
_cell_length_b   10.31370000
_cell_length_c   11.48020000
_cell_angle_alpha   89.99990000
_cell_angle_beta   89.99990000
_cell_angle_gamma   94.62740000
_symmetry_Int_Tables_number   1
_chemical_formula_structural   CaH11C9SNO6
_chemical_formula_sum   'Ca4 H44 C36 S4 N4 O24'
_cell_volume   1199.28094192
_cell_formula_units_Z   4
loop_
 _symmetry_equiv_pos_site_id
 _symmetry_equiv_pos_as_xyz
  1  'x, y, z'
loop_
 _atom_site_type_symbol
 _atom_site_label
 _atom_site_symmetry_multiplicity
 _atom_site_fract_x
 _atom_site_fract_y
 _atom_site_fract_z
 _atom_site_occupancy
  Ca  Ca0  1  0.68200000  0.15357000  0.91205000  1.0
  Ca  Ca1  1  0.31800000  0.34643000  0.41206000  1.0
  Ca  Ca2  1  0.31800000  0.84643000  0.08794000  1.0
  Ca  Ca3  1  0.68200000  0.65357000  0.58794000  1.0
  H  H4  1  0.89147000  0.09195000  0.17568000  1.0
  H  H5  1  0.10853000  0.40805000  0.67568000  1.0
  H  H6  1  0.10853000  0.90805000  0.82432000  1.0
  H  H7  1  0.89147000  0.59195000  0.32432000  1.0
  H  H8  1  0.06162000  0.13372000  0.22108000  1.0
  H  H9  1  0.93838000  0.36628000  0.72109000  1.0
  H  H10  1  0.93838000  0.86628000  0.77891000  1.0
  H  H11  1  0.06162000  0.63372000  0.27891000  1.0
  H  H12  1  0.02825000  0.02029000  0.10476000  1.0
  H  H13  1  0.97175000  0.47971000  0.60476000  1.0
  H  H14  1  0.97175000  0.97971000  0.89524000  1.0
  H  H15  1  0.02825000  0.52029000  0.39524000  1.0
  H  H16  1  0.93893000  0.44678000  0.08976000  1.0
  H  H17  1  0.06107000  0.05322000  0.58977000  1.0
  H  H18  1  0.06107000  0.55322000  0.91023000  1.0
  H  H19  1  0.93893000  0.94678000  0.41024000  1.0
  H  H20  1  0.02675000  0.37902000  0.20825000  1.0
  H  H21  1  0.97325000  0.12098000  0.70825000  1.0
  H  H22  1  0.97325000  0.62098000  0.79175000  1.0
  H  H23  1  0.02675000  0.87902000  0.29175000  1.0
  H  H24  1  0.85638000  0.32166000  0.17932000  1.0
  H  H25  1  0.14362000  0.17834000  0.67932000  1.0
  H  H26  1  0.14362000  0.67834000  0.82068000  1.0
  H  H27  1  0.85638000  0.82166000  0.32068000  1.0
  H  H28  1  0.57066000  0.28862000  0.18022000  1.0
  H  H29  1  0.42934000  0.21138000  0.68022000  1.0
  H  H30  1  0.42934000  0.71137000  0.81978000  1.0
  H  H31  1  0.57066000  0.78863000  0.31978000  1.0
  H  H32  1  0.68145000  0.70102000  0.18241000  1.0
  H  H33  1  0.31855000  0.79898000  0.68241000  1.0
  H  H34  1  0.31855000  0.29898000  0.81759000  1.0
  H  H35  1  0.68145000  0.20102000  0.31759000  1.0
  H  H36  1  0.71666000  0.68576000  0.96617000  1.0
  H  H37  1  0.28334000  0.81424000  0.46617000  1.0
  H  H38  1  0.28334000  0.31424000  0.03383000  1.0
  H  H39  1  0.71666000  0.18576000  0.53383000  1.0
  H  H40  1  0.69029000  0.87802000  0.85625000  1.0
  H  H41  1  0.30971000  0.62198000  0.35625000  1.0
  H  H42  1  0.30970000  0.12198000  0.14375000  1.0
  H  H43  1  0.69029000  0.37802000  0.64375000  1.0
  H  H44  1  0.63289000  0.89116000  0.98844000  1.0
  H  H45  1  0.36711000  0.60884000  0.48844000  1.0
  H  H46  1  0.36711000  0.10884000  0.01156000  1.0
  H  H47  1  0.63289000  0.39116000  0.51156000  1.0
  C  C48  1  0.99505000  0.10644000  0.14818000  1.0
  C  C49  1  0.00495000  0.39356000  0.64819000  1.0
  C  C50  1  0.00495000  0.89356000  0.85181000  1.0
  C  C51  1  0.99505000  0.60644000  0.35181000  1.0
  C  C52  1  0.95082000  0.35889000  0.14121000  1.0
  C  C53  1  0.04918000  0.14111000  0.64121000  1.0
  C  C54  1  0.04918000  0.64111000  0.85879000  1.0
  C  C55  1  0.95082000  0.85889000  0.35879000  1.0
  C  C56  1  0.60619000  0.37837000  0.13640000  1.0
  C  C57  1  0.39381000  0.12162000  0.63640000  1.0
  C  C58  1  0.39381000  0.62162000  0.86360000  1.0
  C  C59  1  0.60619000  0.87838000  0.36360000  1.0
  C  C60  1  0.67248000  0.47852000  0.96426000  1.0
  C  C61  1  0.32752000  0.02148000  0.46426000  1.0
  C  C62  1  0.32752000  0.52148000  0.03574000  1.0
  C  C63  1  0.67249000  0.97852000  0.53574000  1.0
  C  C64  1  0.66766000  0.60800000  0.13751000  1.0
  C  C65  1  0.33234000  0.89199000  0.63750000  1.0
  C  C66  1  0.33234000  0.39199000  0.86249000  1.0
  C  C67  1  0.66766000  0.10801000  0.36249000  1.0
  C  C68  1  0.68797000  0.60009000  0.01813000  1.0
  C  C69  1  0.31203000  0.89990000  0.51813000  1.0
  C  C70  1  0.31203000  0.39990000  0.98187000  1.0
  C  C71  1  0.68797000  0.10010000  0.48187000  1.0
  C  C72  1  0.62519000  0.49522000  0.19880000  1.0
  C  C73  1  0.37481000  0.00478000  0.69880000  1.0
  C  C74  1  0.37481000  0.50478000  0.80120000  1.0
  C  C75  1  0.62519000  0.99522000  0.30120000  1.0
  C  C76  1  0.60468000  0.49812000  0.32847000  1.0
  C  C77  1  0.39532000  0.00188000  0.82847000  1.0
  C  C78  1  0.39532000  0.50188000  0.67153000  1.0
  C  C79  1  0.60468000  0.99812000  0.17153000  1.0
  C  C80  1  0.69879000  0.46613000  0.83507000  1.0
  C  C81  1  0.30121000  0.03387000  0.33507000  1.0
  C  C82  1  0.30121000  0.53387000  0.16493000  1.0
  C  C83  1  0.69879000  0.96613000  0.66494000  1.0
  S  S84  1  0.01052000  0.23819000  0.04552000  1.0
  S  S85  1  0.98948000  0.26181000  0.54552000  1.0
  S  S86  1  0.98948000  0.76181000  0.95448000  1.0
  S  S87  1  0.01052000  0.73819000  0.45448000  1.0
  N  N88  1  0.63352000  0.36846000  0.02263000  1.0
  N  N89  1  0.36648000  0.13153000  0.52263000  1.0
  N  N90  1  0.36647000  0.63153000  0.97737000  1.0
  N  N91  1  0.63352000  0.86847000  0.47737000  1.0
  O  O92  1  0.90597000  0.20888000  0.95215000  1.0
  O  O93  1  0.09403000  0.29112000  0.45215000  1.0
  O  O94  1  0.09403000  0.79112000  0.04785000  1.0
  O  O95  1  0.90597000  0.70888000  0.54785000  1.0
  O  O96  1  0.54339000  0.39787000  0.37551000  1.0
  O  O97  1  0.45661000  0.10213000  0.87551000  1.0
  O  O98  1  0.45661000  0.60213000  0.62449000  1.0
  O  O99  1  0.54339000  0.89787000  0.12449000  1.0
  O  O100  1  0.65217000  0.59771000  0.38280000  1.0
  O  O101  1  0.34783000  0.90229000  0.88281000  1.0
  O  O102  1  0.34783000  0.40229000  0.61720000  1.0
  O  O103  1  0.65217000  0.09771000  0.11720000  1.0
  O  O104  1  0.72544000  0.57053000  0.77900000  1.0
  O  O105  1  0.27456000  0.92947000  0.27900000  1.0
  O  O106  1  0.27456000  0.42947000  0.22100000  1.0
  O  O107  1  0.72544000  0.07053000  0.72100000  1.0
  O  O108  1  0.69173000  0.35115000  0.79250000  1.0
  O  O109  1  0.30827000  0.14884000  0.29250000  1.0
  O  O110  1  0.30827000  0.64885000  0.20750000  1.0
  O  O111  1  0.69173000  0.85116000  0.70750000  1.0
  O  O112  1  0.70405000  0.92082000  0.93364000  1.0
  O  O113  1  0.29596000  0.57917000  0.43364000  1.0
  O  O114  1  0.29595000  0.07917000  0.06636000  1.0
  O  O115  1  0.70405000  0.42083000  0.56636000  1.0
