# generated using pymatgen
data_ZnH8C6(BrN)2
_symmetry_space_group_name_H-M   'P 1'
_cell_length_a   6.14020000
_cell_length_b   10.35340000
_cell_length_c   14.24040000
_cell_angle_alpha   90.00030000
_cell_angle_beta   90.00010000
_cell_angle_gamma   89.99960000
_symmetry_Int_Tables_number   1
_chemical_formula_structural   ZnH8C6(BrN)2
_chemical_formula_sum   'Zn4 H32 C24 Br8 N8'
_cell_volume   905.28994947
_cell_formula_units_Z   4
loop_
 _symmetry_equiv_pos_site_id
 _symmetry_equiv_pos_as_xyz
  1  'x, y, z'
loop_
 _atom_site_type_symbol
 _atom_site_label
 _atom_site_symmetry_multiplicity
 _atom_site_fract_x
 _atom_site_fract_y
 _atom_site_fract_z
 _atom_site_occupancy
  Zn  Zn0  1  0.61812000  0.25001000  0.50337000  1.0
  Zn  Zn1  1  0.88188000  0.75000000  0.00337000  1.0
  Zn  Zn2  1  0.38190000  0.75000000  0.49663000  1.0
  Zn  Zn3  1  0.11810000  0.25000000  0.99663000  1.0
  H  H4  1  0.90480000  0.37326000  0.63694000  1.0
  H  H5  1  0.59520000  0.62673000  0.13694000  1.0
  H  H6  1  0.09518000  0.87326000  0.36307000  1.0
  H  H7  1  0.40481000  0.12674000  0.86307000  1.0
  H  H8  1  0.09521000  0.62675000  0.36306000  1.0
  H  H9  1  0.40479000  0.37326000  0.86306000  1.0
  H  H10  1  0.90479000  0.12674000  0.63694000  1.0
  H  H11  1  0.59520000  0.87326000  0.13694000  1.0
  H  H12  1  0.81854000  0.52220000  0.27578000  1.0
  H  H13  1  0.68148000  0.47779000  0.77578000  1.0
  H  H14  1  0.18148000  0.02220000  0.72422000  1.0
  H  H15  1  0.31852000  0.97781000  0.22421000  1.0
  H  H16  1  0.18149000  0.47780000  0.72422000  1.0
  H  H17  1  0.31853000  0.52220000  0.22421000  1.0
  H  H18  1  0.81852000  0.97780000  0.27578000  1.0
  H  H19  1  0.68147000  0.02220000  0.77577000  1.0
  H  H20  1  0.60792000  0.43541000  0.33530000  1.0
  H  H21  1  0.89210000  0.56458000  0.83530000  1.0
  H  H22  1  0.39210000  0.93541000  0.66469000  1.0
  H  H23  1  0.10792000  0.06458000  0.16470000  1.0
  H  H24  1  0.39210000  0.56459000  0.66470000  1.0
  H  H25  1  0.10790000  0.43541000  0.16470000  1.0
  H  H26  1  0.60790000  0.06458000  0.33530000  1.0
  H  H27  1  0.89210000  0.93541000  0.83529000  1.0
  H  H28  1  0.84583000  0.35389000  0.29763000  1.0
  H  H29  1  0.65419000  0.64610000  0.79762000  1.0
  H  H30  1  0.15418000  0.85388000  0.70238000  1.0
  H  H31  1  0.34581000  0.14611000  0.20237000  1.0
  H  H32  1  0.15419000  0.64611000  0.70238000  1.0
  H  H33  1  0.34581000  0.35389000  0.20238000  1.0
  H  H34  1  0.84581000  0.14610000  0.29763000  1.0
  H  H35  1  0.65416000  0.85388000  0.79762000  1.0
  C  C36  1  0.94902000  0.42997000  0.57523000  1.0
  C  C37  1  0.55100000  0.57002000  0.07523000  1.0
  C  C38  1  0.05098000  0.92997000  0.42477000  1.0
  C  C39  1  0.44904000  0.07003000  0.92476000  1.0
  C  C40  1  0.05101000  0.57003000  0.42478000  1.0
  C  C41  1  0.44900000  0.42997000  0.92477000  1.0
  C  C42  1  0.94900000  0.07003000  0.57523000  1.0
  C  C43  1  0.55099000  0.92998000  0.07522000  1.0
  C  C44  1  0.89184000  0.47385000  0.41780000  1.0
  C  C45  1  0.60816000  0.52615000  0.91780000  1.0
  C  C46  1  0.10816000  0.97385000  0.58219000  1.0
  C  C47  1  0.39184000  0.02617000  0.08220000  1.0
  C  C48  1  0.10815000  0.52615000  0.58219000  1.0
  C  C49  1  0.39183000  0.47384000  0.08220000  1.0
  C  C50  1  0.89182000  0.02616000  0.41781000  1.0
  C  C51  1  0.60812000  0.97387000  0.91781000  1.0
  C  C52  1  0.78452000  0.44544000  0.32665000  1.0
  C  C53  1  0.71549000  0.55455000  0.82665000  1.0
  C  C54  1  0.21548000  0.94545000  0.67334000  1.0
  C  C55  1  0.28449000  0.05457000  0.17336000  1.0
  C  C56  1  0.21549000  0.55455000  0.67335000  1.0
  C  C57  1  0.28451000  0.44544000  0.17334000  1.0
  C  C58  1  0.78449000  0.05456000  0.32665000  1.0
  C  C59  1  0.71546000  0.94545000  0.82667000  1.0
  Br  Br60  1  0.31991000  0.25002000  0.39859000  1.0
  Br  Br61  1  0.18009000  0.75000000  0.89859000  1.0
  Br  Br62  1  0.68009000  0.75000000  0.60142000  1.0
  Br  Br63  1  0.81992000  0.25000000  0.10142000  1.0
  Br  Br64  1  0.49987000  0.25001000  0.66296000  1.0
  Br  Br65  1  0.00014000  0.75000000  0.16296000  1.0
  Br  Br66  1  0.50014000  0.75001000  0.33704000  1.0
  Br  Br67  1  0.99986000  0.25000000  0.83704000  1.0
  N  N68  1  0.84215000  0.40427000  0.49529000  1.0
  N  N69  1  0.65786000  0.59572000  0.99529000  1.0
  N  N70  1  0.15786000  0.90427000  0.50471000  1.0
  N  N71  1  0.34215000  0.09573000  0.00470000  1.0
  N  N72  1  0.15787000  0.59573000  0.50472000  1.0
  N  N73  1  0.34214000  0.40426000  0.00471000  1.0
  N  N74  1  0.84214000  0.09573000  0.49529000  1.0
  N  N75  1  0.65788000  0.90427000  0.99528000  1.0
