# generated using pymatgen
data_Ag2H14C8S(N5O2)2
_symmetry_space_group_name_H-M   'P 1'
_cell_length_a   8.32909000
_cell_length_b   15.58920000
_cell_length_c   15.58920000
_cell_angle_alpha   112.43900000
_cell_angle_beta   101.60700000
_cell_angle_gamma   101.60800000
_symmetry_Int_Tables_number   1
_chemical_formula_structural   Ag2H14C8S(N5O2)2
_chemical_formula_sum   'Ag8 H56 C32 S4 N40 O16'
_cell_volume   1744.10895250
_cell_formula_units_Z   4
loop_
 _symmetry_equiv_pos_site_id
 _symmetry_equiv_pos_as_xyz
  1  'x, y, z'
loop_
 _atom_site_type_symbol
 _atom_site_label
 _atom_site_symmetry_multiplicity
 _atom_site_fract_x
 _atom_site_fract_y
 _atom_site_fract_z
 _atom_site_occupancy
  Ag  Ag0  1  0.04993000  0.81455000  0.19751000  1.0
  Ag  Ag1  1  0.45007000  0.80249000  0.18545000  1.0
  Ag  Ag2  1  0.95007000  0.18545000  0.80249000  1.0
  Ag  Ag3  1  0.54994000  0.19751000  0.81455000  1.0
  Ag  Ag4  1  0.83478000  0.16585000  0.40023000  1.0
  Ag  Ag5  1  0.66523000  0.59977000  0.83414000  1.0
  Ag  Ag6  1  0.16522000  0.83415000  0.59977000  1.0
  Ag  Ag7  1  0.33477000  0.40023000  0.16585000  1.0
  H  H8  1  0.83053000  0.22468000  0.25814000  1.0
  H  H9  1  0.66946000  0.74186000  0.77532000  1.0
  H  H10  1  0.16947000  0.77533000  0.74186000  1.0
  H  H11  1  0.33054000  0.25814000  0.22468000  1.0
  H  H12  1  0.90406000  0.21991000  0.15900000  1.0
  H  H13  1  0.59593000  0.84100000  0.78009000  1.0
  H  H14  1  0.09594000  0.78009000  0.84100000  1.0
  H  H15  1  0.40407000  0.15900000  0.21991000  1.0
  H  H16  1  0.06382000  0.85558000  0.04657000  1.0
  H  H17  1  0.43618000  0.95343000  0.14442000  1.0
  H  H18  1  0.93617000  0.14442000  0.95343000  1.0
  H  H19  1  0.56383000  0.04657000  0.85558000  1.0
  H  H20  1  0.03902000  0.93185000  0.98856000  1.0
  H  H21  1  0.46098000  0.01145000  0.06815000  1.0
  H  H22  1  0.96098000  0.06816000  0.01144000  1.0
  H  H23  1  0.53902000  0.98856000  0.93185000  1.0
  H  H24  1  0.29415000  0.91295000  0.49261000  1.0
  H  H25  1  0.20584000  0.50738000  0.08705000  1.0
  H  H26  1  0.70585000  0.08705000  0.50738000  1.0
  H  H27  1  0.79416000  0.49261000  0.91295000  1.0
  H  H28  1  0.22190000  0.91466000  0.37982000  1.0
  H  H29  1  0.27810000  0.62018000  0.08534000  1.0
  H  H30  1  0.77810000  0.08533000  0.62018000  1.0
  H  H31  1  0.72190000  0.37982000  0.91467000  1.0
  H  H32  1  0.93189000  0.60771000  0.10665000  1.0
  H  H33  1  0.56811000  0.89335000  0.39229000  1.0
  H  H34  1  0.06811000  0.39229000  0.89334000  1.0
  H  H35  1  0.43189000  0.10665000  0.60771000  1.0
  H  H36  1  0.85781000  0.50623000  0.12788000  1.0
  H  H37  1  0.64218000  0.87213000  0.49377000  1.0
  H  H38  1  0.14218000  0.49377000  0.87212000  1.0
  H  H39  1  0.35783000  0.12787000  0.50623000  1.0
  H  H40  1  0.86342000  0.88174000  0.30866000  1.0
  H  H41  1  0.63659000  0.69134000  0.11825000  1.0
  H  H42  1  0.13659000  0.11826000  0.69134000  1.0
  H  H43  1  0.36341000  0.30866000  0.88175000  1.0
  H  H44  1  0.77709000  0.97958000  0.35995000  1.0
  H  H45  1  0.72292000  0.64005000  0.02042000  1.0
  H  H46  1  0.22291000  0.02042000  0.64005000  1.0
  H  H47  1  0.27708000  0.35995000  0.97958000  1.0
  H  H48  1  0.00349000  0.99818000  0.39820000  1.0
  H  H49  1  0.49652000  0.60180000  0.00181000  1.0
  H  H50  1  0.99652000  0.00181000  0.60181000  1.0
  H  H51  1  0.50348000  0.39820000  0.99819000  1.0
  H  H52  1  0.95963000  0.64115000  0.52891000  1.0
  H  H53  1  0.54034000  0.47110000  0.35886000  1.0
  H  H54  1  0.04038000  0.35884000  0.47109000  1.0
  H  H55  1  0.45966000  0.52890000  0.64114000  1.0
  H  H56  1  0.92211000  0.52431000  0.42937000  1.0
  H  H57  1  0.57785000  0.57064000  0.47570000  1.0
  H  H58  1  0.07790000  0.47569000  0.57063000  1.0
  H  H59  1  0.42215000  0.42936000  0.52430000  1.0
  H  H60  1  0.13615000  0.59872000  0.50621000  1.0
  H  H61  1  0.36382000  0.49380000  0.40129000  1.0
  H  H62  1  0.86386000  0.40127000  0.49379000  1.0
  H  H63  1  0.63619000  0.50620000  0.59872000  1.0
  C  C64  1  0.90737000  0.99178000  0.25884000  1.0
  C  C65  1  0.59263000  0.74116000  0.00821000  1.0
  C  C66  1  0.09262000  0.00821000  0.74117000  1.0
  C  C67  1  0.40736000  0.25883000  0.99179000  1.0
  C  C68  1  0.90069000  0.10397000  0.19597000  1.0
  C  C69  1  0.59931000  0.80403000  0.89602000  1.0
  C  C70  1  0.09932000  0.89603000  0.80404000  1.0
  C  C71  1  0.40068000  0.19597000  0.10397000  1.0
  C  C72  1  0.97584000  0.96778000  0.11709000  1.0
  C  C73  1  0.52416000  0.88291000  0.03222000  1.0
  C  C74  1  0.02417000  0.03223000  0.88292000  1.0
  C  C75  1  0.47584000  0.11709000  0.96778000  1.0
  C  C76  1  0.88524000  0.96052000  0.33577000  1.0
  C  C77  1  0.61476000  0.66424000  0.03948000  1.0
  C  C78  1  0.11476000  0.03948000  0.66424000  1.0
  C  C79  1  0.38523000  0.33576000  0.96052000  1.0
  C  C80  1  0.12347000  0.78425000  0.38339000  1.0
  C  C81  1  0.37651000  0.61661000  0.21575000  1.0
  C  C82  1  0.87652000  0.21575000  0.61661000  1.0
  C  C83  1  0.62349000  0.38339000  0.78425000  1.0
  C  C84  1  0.97041000  0.63586000  0.25049000  1.0
  C  C85  1  0.52956000  0.74951000  0.36414000  1.0
  C  C86  1  0.02958000  0.36414000  0.74951000  1.0
  C  C87  1  0.47043000  0.25048000  0.63586000  1.0
  C  C88  1  0.02325000  0.64626000  0.40397000  1.0
  C  C89  1  0.47671000  0.59604000  0.35374000  1.0
  C  C90  1  0.97675000  0.35374000  0.59603000  1.0
  C  C91  1  0.52329000  0.40396000  0.64625000  1.0
  C  C92  1  0.00811000  0.59925000  0.47082000  1.0
  C  C93  1  0.49186000  0.52919000  0.40076000  1.0
  C  C94  1  0.99190000  0.40075000  0.52918000  1.0
  C  C95  1  0.50814000  0.47082000  0.59924000  1.0
  S  S96  1  0.42147000  0.03514000  0.33031000  1.0
  S  S97  1  0.07853000  0.66969000  0.96486000  1.0
  S  S98  1  0.57852000  0.96486000  0.66969000  1.0
  S  S99  1  0.92147000  0.33031000  0.03514000  1.0
  N  N100  1  0.95442000  0.93531000  0.18578000  1.0
  N  N101  1  0.54559000  0.81422000  0.06469000  1.0
  N  N102  1  0.04559000  0.06469000  0.81423000  1.0
  N  N103  1  0.45441000  0.18578000  0.93531000  1.0
  N  N104  1  0.88014000  0.07684000  0.26811000  1.0
  N  N105  1  0.61986000  0.73189000  0.92316000  1.0
  N  N106  1  0.11986000  0.92317000  0.73189000  1.0
  N  N107  1  0.38013000  0.26811000  0.07684000  1.0
  N  N108  1  0.94576000  0.05068000  0.11997000  1.0
  N  N109  1  0.55424000  0.88004000  0.94932000  1.0
  N  N110  1  0.05424000  0.94932000  0.88004000  1.0
  N  N111  1  0.44576000  0.11996000  0.05068000  1.0
  N  N112  1  0.87533000  0.18845000  0.20363000  1.0
  N  N113  1  0.62468000  0.79637000  0.81155000  1.0
  N  N114  1  0.12468000  0.81156000  0.79638000  1.0
  N  N115  1  0.37532000  0.20363000  0.18845000  1.0
  N  N116  1  0.02542000  0.91395000  0.04479000  1.0
  N  N117  1  0.47459000  0.95521000  0.08606000  1.0
  N  N118  1  0.97458000  0.08606000  0.95521000  1.0
  N  N119  1  0.52542000  0.04479000  0.91394000  1.0
  N  N120  1  0.10949000  0.74278000  0.44591000  1.0
  N  N121  1  0.39049000  0.55409000  0.25723000  1.0
  N  N122  1  0.89049000  0.25722000  0.55408000  1.0
  N  N123  1  0.60951000  0.44591000  0.74277000  1.0
  N  N124  1  0.05038000  0.73314000  0.28540000  1.0
  N  N125  1  0.44960000  0.71460000  0.26686000  1.0
  N  N126  1  0.94961000  0.26686000  0.71460000  1.0
  N  N127  1  0.55039000  0.28540000  0.73314000  1.0
  N  N128  1  0.95380000  0.59042000  0.30913000  1.0
  N  N129  1  0.54617000  0.69087000  0.40958000  1.0
  N  N130  1  0.04619000  0.40957000  0.69086000  1.0
  N  N131  1  0.45383000  0.30913000  0.59042000  1.0
  N  N132  1  0.21094000  0.87838000  0.42191000  1.0
  N  N133  1  0.28906000  0.57809000  0.12162000  1.0
  N  N134  1  0.78906000  0.12162000  0.57809000  1.0
  N  N135  1  0.71094000  0.42191000  0.87838000  1.0
  N  N136  1  0.90475000  0.58122000  0.15482000  1.0
  N  N137  1  0.59524000  0.84519000  0.41878000  1.0
  N  N138  1  0.09524000  0.41878000  0.84517000  1.0
  N  N139  1  0.40477000  0.15482000  0.58123000  1.0
  O  O140  1  0.34537000  0.94451000  0.23468000  1.0
  O  O141  1  0.15464000  0.76532000  0.05548000  1.0
  O  O142  1  0.65463000  0.05548000  0.76532000  1.0
  O  O143  1  0.84536000  0.23468000  0.94451000  1.0
  O  O144  1  0.56112000  0.01778000  0.39347000  1.0
  O  O145  1  0.93888000  0.60652000  0.98222000  1.0
  O  O146  1  0.43888000  0.98221000  0.60652000  1.0
  O  O147  1  0.06110000  0.39348000  0.01777000  1.0
  O  O148  1  0.49631000  0.11951000  0.31269000  1.0
  O  O149  1  0.00368000  0.68730000  0.88049000  1.0
  O  O150  1  0.50369000  0.88048000  0.68730000  1.0
  O  O151  1  0.99632000  0.31270000  0.11951000  1.0
  O  O152  1  0.28476000  0.05039000  0.37722000  1.0
  O  O153  1  0.21524000  0.62278000  0.94960000  1.0
  O  O154  1  0.71524000  0.94961000  0.62278000  1.0
  O  O155  1  0.78475000  0.37722000  0.05038000  1.0
