# generated using pymatgen
data_ZnH12C17N3O4
_symmetry_space_group_name_H-M   'P 1'
_cell_length_a   8.64771000
_cell_length_b   9.75903000
_cell_length_c   11.66330000
_cell_angle_alpha   101.85400000
_cell_angle_beta   101.75100000
_cell_angle_gamma   115.36200000
_symmetry_Int_Tables_number   1
_chemical_formula_structural   ZnH12C17N3O4
_chemical_formula_sum   'Zn2 H24 C34 N6 O8'
_cell_volume   821.77030112
_cell_formula_units_Z   2
loop_
 _symmetry_equiv_pos_site_id
 _symmetry_equiv_pos_as_xyz
  1  'x, y, z'
loop_
 _atom_site_type_symbol
 _atom_site_label
 _atom_site_symmetry_multiplicity
 _atom_site_fract_x
 _atom_site_fract_y
 _atom_site_fract_z
 _atom_site_occupancy
  Zn  Zn0  1  0.25742000  0.37210000  0.49656000  1.0
  Zn  Zn1  1  0.74258000  0.62790000  0.50344000  1.0
  H  H2  1  0.87562000  0.34476000  0.32993000  1.0
  H  H3  1  0.12438000  0.65523000  0.67007000  1.0
  H  H4  1  0.68933000  0.84573000  0.25663000  1.0
  H  H5  1  0.31067000  0.15427000  0.74337000  1.0
  H  H6  1  0.40762000  0.82801000  0.22962000  1.0
  H  H7  1  0.59238000  0.17198000  0.77038000  1.0
  H  H8  1  0.10712000  0.76361000  0.09533000  1.0
  H  H9  1  0.89287000  0.23638000  0.90467000  1.0
  H  H10  1  0.35772000  0.19747000  0.00680000  1.0
  H  H11  1  0.64228000  0.80253000  0.99320000  1.0
  H  H12  1  0.65853000  0.26031000  0.13796000  1.0
  H  H13  1  0.34147000  0.73969000  0.86204000  1.0
  H  H14  1  0.92595000  0.81804000  0.94385000  1.0
  H  H15  1  0.07404000  0.18196000  0.05615000  1.0
  H  H16  1  0.03208000  0.96299000  0.87566000  1.0
  H  H17  1  0.96791000  0.03701000  0.12434000  1.0
  H  H18  1  0.20020000  0.48884000  0.94732000  1.0
  H  H19  1  0.79980000  0.51116000  0.05268000  1.0
  H  H20  1  0.62408000  0.45145000  0.83078000  1.0
  H  H21  1  0.37593000  0.54855000  0.16922000  1.0
  H  H22  1  0.18844000  0.76497000  0.42618000  1.0
  H  H23  1  0.81157000  0.23503000  0.57382000  1.0
  H  H24  1  0.76672000  0.97020000  0.58980000  1.0
  H  H25  1  0.23328000  0.02980000  0.41020000  1.0
  C  C26  1  0.87206000  0.23109000  0.32726000  1.0
  C  C27  1  0.12794000  0.76890000  0.67274000  1.0
  C  C28  1  0.77754000  0.97482000  0.29000000  1.0
  C  C29  1  0.22246000  0.02518000  0.71000000  1.0
  C  C30  1  0.55044000  0.04691000  0.19038000  1.0
  C  C31  1  0.44956000  0.95308000  0.80962000  1.0
  C  C32  1  0.39668000  0.90674000  0.17829000  1.0
  C  C33  1  0.60332000  0.09326000  0.82171000  1.0
  C  C34  1  0.22802000  0.87174000  0.10314000  1.0
  C  C35  1  0.77197000  0.12826000  0.89686000  1.0
  C  C36  1  0.21111000  0.97521000  0.04050000  1.0
  C  C37  1  0.78889000  0.02478000  0.95951000  1.0
  C  C38  1  0.36806000  0.11536000  0.05479000  1.0
  C  C39  1  0.63193000  0.88464000  0.94521000  1.0
  C  C40  1  0.53750000  0.15178000  0.12860000  1.0
  C  C41  1  0.46250000  0.84821000  0.87140000  1.0
  C  C42  1  0.02914000  0.94378000  0.96514000  1.0
  C  C43  1  0.97085000  0.05622000  0.03486000  1.0
  C  C44  1  0.29673000  0.43133000  0.74436000  1.0
  C  C45  1  0.70327000  0.56867000  0.25564000  1.0
  C  C46  1  0.40070000  0.46439000  0.87632000  1.0
  C  C47  1  0.59931000  0.53562000  0.12368000  1.0
  C  C48  1  0.33140000  0.49343000  0.97168000  1.0
  C  C49  1  0.66860000  0.50658000  0.02831000  1.0
  C  C50  1  0.57044000  0.47154000  0.90565000  1.0
  C  C51  1  0.42957000  0.52847000  0.09435000  1.0
  C  C52  1  0.32417000  0.86887000  0.45891000  1.0
  C  C53  1  0.67583000  0.13113000  0.54109000  1.0
  C  C54  1  0.47445000  0.85236000  0.50996000  1.0
  C  C55  1  0.52555000  0.14764000  0.49004000  1.0
  C  C56  1  0.65051000  0.98380000  0.55067000  1.0
  C  C57  1  0.34949000  0.01620000  0.44933000  1.0
  C  C58  1  0.44697000  0.69558000  0.52336000  1.0
  C  C59  1  0.55303000  0.30442000  0.47665000  1.0
  N  N60  1  0.00641000  0.21155000  0.38429000  1.0
  N  N61  1  0.99359000  0.78845000  0.61571000  1.0
  N  N62  1  0.94814000  0.05007000  0.36105000  1.0
  N  N63  1  0.05186000  0.94993000  0.63895000  1.0
  N  N64  1  0.72408000  0.08289000  0.26555000  1.0
  N  N65  1  0.27592000  0.91710000  0.73445000  1.0
  O  O66  1  0.34836000  0.36648000  0.66193000  1.0
  O  O67  1  0.65164000  0.63353000  0.33807000  1.0
  O  O68  1  0.17371000  0.46684000  0.72071000  1.0
  O  O69  1  0.82629000  0.53316000  0.27929000  1.0
  O  O70  1  0.28442000  0.57756000  0.47896000  1.0
  O  O71  1  0.71558000  0.42244000  0.52103000  1.0
  O  O72  1  0.58227000  0.68571000  0.58031000  1.0
  O  O73  1  0.41773000  0.31430000  0.41969000  1.0
