# generated using pymatgen
data_Zn2H7C21S5N2ClO13
_symmetry_space_group_name_H-M   'P 1'
_cell_length_a   11.46310000
_cell_length_b   12.75950000
_cell_length_c   23.92690000
_cell_angle_alpha   90.24200000
_cell_angle_beta   91.44440000
_cell_angle_gamma   90.53350000
_symmetry_Int_Tables_number   1
_chemical_formula_structural   Zn2H7C21S5N2ClO13
_chemical_formula_sum   'Zn4 H14 C42 S10 N4 Cl2 O26'
_cell_volume   3498.33189014
_cell_formula_units_Z   2
loop_
 _symmetry_equiv_pos_site_id
 _symmetry_equiv_pos_as_xyz
  1  'x, y, z'
loop_
 _atom_site_type_symbol
 _atom_site_label
 _atom_site_symmetry_multiplicity
 _atom_site_fract_x
 _atom_site_fract_y
 _atom_site_fract_z
 _atom_site_occupancy
  Zn  Zn0  1  0.61818000  0.49857000  0.50079000  1.0
  Zn  Zn1  1  0.37690000  0.49965000  0.50202000  1.0
  Zn  Zn2  1  0.38154000  0.49427000  0.02851000  1.0
  Zn  Zn3  1  0.62362000  0.50071000  0.04033000  1.0
  H  H4  1  0.75442000  0.42671000  0.21537000  1.0
  H  H5  1  0.75974000  0.56619000  0.21635000  1.0
  H  H6  1  0.76369000  0.56490000  0.32209000  1.0
  H  H7  1  0.75740000  0.42532000  0.32134000  1.0
  H  H8  1  0.88902000  0.67083000  0.58460000  1.0
  H  H9  1  0.10691000  0.33945000  0.41113000  1.0
  H  H10  1  0.75982000  0.91921000  0.49602000  1.0
  H  H11  1  0.24099000  0.07872000  0.50356000  1.0
  H  H12  1  0.24472000  0.49627000  0.72808000  1.0
  H  H13  1  0.77299000  0.49395000  0.80927000  1.0
  H  H14  1  0.11064000  0.66736000  0.94939000  1.0
  H  H15  1  0.89813000  0.33045000  0.12127000  1.0
  H  H16  1  0.23842000  0.91483000  0.03738000  1.0
  H  H17  1  0.75813000  0.08023000  0.03530000  1.0
  C  C18  1  0.50030000  0.29454000  0.50057000  1.0
  C  C19  1  0.50049000  0.50107000  0.39167000  1.0
  C  C20  1  0.49808000  0.70407000  0.50146000  1.0
  C  C21  1  0.49171000  0.50030000  0.61074000  1.0
  C  C22  1  0.49707000  0.29267000  0.03482000  1.0
  C  C23  1  0.49414000  0.49958000  0.14356000  1.0
  C  C24  1  0.49759000  0.70209000  0.03511000  1.0
  C  C25  1  0.52099000  0.49874000  0.92558000  1.0
  C  C26  1  0.87274000  0.55646000  0.53284000  1.0
  C  C27  1  0.12263000  0.43913000  0.47103000  1.0
  C  C28  1  0.00279000  0.45956000  0.48119000  1.0
  C  C29  1  0.99254000  0.53793000  0.52169000  1.0
  C  C30  1  0.59747000  0.88802000  0.50007000  1.0
  C  C31  1  0.40350000  0.11039000  0.50140000  1.0
  C  C32  1  0.50255000  0.81924000  0.50135000  1.0
  C  C33  1  0.49820000  0.17944000  0.50029000  1.0
  C  C34  1  0.43999000  0.00432000  0.50126000  1.0
  C  C35  1  0.56125000  0.99423000  0.50003000  1.0
  C  C36  1  0.48617000  0.50318000  0.20621000  1.0
  C  C37  1  0.48961000  0.50361000  0.32884000  1.0
  C  C38  1  0.58835000  0.50048000  0.23895000  1.0
  C  C39  1  0.38378000  0.50933000  0.29663000  1.0
  C  C40  1  0.58998000  0.50023000  0.29719000  1.0
  C  C41  1  0.38220000  0.50879000  0.23715000  1.0
  C  C42  1  0.72004000  0.49698000  0.23563000  1.0
  C  C43  1  0.72206000  0.49638000  0.30173000  1.0
  C  C44  1  0.40544000  0.50109000  0.70973000  1.0
  C  C45  1  0.61185000  0.49935000  0.82675000  1.0
  C  C46  1  0.49624000  0.50086000  0.67215000  1.0
  C  C47  1  0.52083000  0.49964000  0.86415000  1.0
  C  C48  1  0.56976000  0.49975000  0.77034000  1.0
  C  C49  1  0.44791000  0.50044000  0.76598000  1.0
  C  C50  1  0.12625000  0.55101000  0.99921000  1.0
  C  C51  1  0.87926000  0.44156000  0.06848000  1.0
  C  C52  1  0.99822000  0.45772000  0.05432000  1.0
  C  C53  1  0.00722000  0.53497000  0.01338000  1.0
  C  C54  1  0.40061000  0.88503000  0.03500000  1.0
  C  C55  1  0.59580000  0.10989000  0.03695000  1.0
  C  C56  1  0.49510000  0.81724000  0.03542000  1.0
  C  C57  1  0.50125000  0.17759000  0.03588000  1.0
  C  C58  1  0.55896000  0.00324000  0.03657000  1.0
  C  C59  1  0.43754000  0.99164000  0.03540000  1.0
  S  S60  1  0.86681000  0.41429000  0.46018000  1.0
  S  S61  1  0.12861000  0.57987000  0.54457000  1.0
  S  S62  1  0.36928000  0.88454000  0.50245000  1.0
  S  S63  1  0.63167000  0.11432000  0.49899000  1.0
  S  S64  1  0.63344000  0.49983000  0.70573000  1.0
  S  S65  1  0.38380000  0.50062000  0.83038000  1.0
  S  S66  1  0.13411000  0.41047000  0.07206000  1.0
  S  S67  1  0.87097000  0.58024000  0.99463000  1.0
  S  S68  1  0.62896000  0.88412000  0.03678000  1.0
  S  S69  1  0.36743000  0.11062000  0.03414000  1.0
  N  N70  1  0.79952000  0.49662000  0.50277000  1.0
  N  N71  1  0.19577000  0.49848000  0.50148000  1.0
  N  N72  1  0.19997000  0.49025000  0.02745000  1.0
  N  N73  1  0.80534000  0.50180000  0.04007000  1.0
  Cl  Cl74  1  0.25066000  0.51952000  0.32834000  1.0
  Cl  Cl75  1  0.24800000  0.51838000  0.20323000  1.0
  O  O76  1  0.60111000  0.33836000  0.49745000  1.0
  O  O77  1  0.40307000  0.34074000  0.50408000  1.0
  O  O78  1  0.40736000  0.50207000  0.41923000  1.0
  O  O79  1  0.60380000  0.49768000  0.41250000  1.0
  O  O80  1  0.39642000  0.66229000  0.50340000  1.0
  O  O81  1  0.59489000  0.65612000  0.49944000  1.0
  O  O82  1  0.58957000  0.49491000  0.58641000  1.0
  O  O83  1  0.39113000  0.50511000  0.58704000  1.0
  O  O84  1  0.39538000  0.33237000  0.02898000  1.0
  O  O85  1  0.59350000  0.34262000  0.03968000  1.0
  O  O86  1  0.59681000  0.51082000  0.12489000  1.0
  O  O87  1  0.40190000  0.48446000  0.11415000  1.0
  O  O88  1  0.59897000  0.66058000  0.03494000  1.0
  O  O89  1  0.40001000  0.65383000  0.03510000  1.0
  O  O90  1  0.41900000  0.49718000  0.94646000  1.0
  O  O91  1  0.61777000  0.49941000  0.95267000  1.0
  O  O92  1  0.82851000  0.62382000  0.56963000  1.0
  O  O93  1  0.16711000  0.36836000  0.43629000  1.0
  O  O94  1  0.71086000  0.85680000  0.49915000  1.0
  O  O95  1  0.29017000  0.14132000  0.50226000  1.0
  O  O96  1  0.29019000  0.50168000  0.69432000  1.0
  O  O97  1  0.72679000  0.49898000  0.84278000  1.0
  O  O98  1  0.16926000  0.61680000  0.96118000  1.0
  O  O99  1  0.83667000  0.37536000  0.10645000  1.0
  O  O100  1  0.28680000  0.85283000  0.03400000  1.0
  O  O101  1  0.70956000  0.14224000  0.03795000  1.0
