# generated using pymatgen
data_ZnH18C20N2O5
_symmetry_space_group_name_H-M   'P 1'
_cell_length_a   8.17861000
_cell_length_b   11.25044972
_cell_length_c   11.29100000
_cell_angle_alpha   110.35352220
_cell_angle_beta   94.10240000
_cell_angle_gamma   110.44997939
_symmetry_Int_Tables_number   1
_chemical_formula_structural   ZnH18C20N2O5
_chemical_formula_sum   'Zn2 H36 C40 N4 O10'
_cell_volume   890.35381778
_cell_formula_units_Z   2
loop_
 _symmetry_equiv_pos_site_id
 _symmetry_equiv_pos_as_xyz
  1  'x, y, z'
loop_
 _atom_site_type_symbol
 _atom_site_label
 _atom_site_symmetry_multiplicity
 _atom_site_fract_x
 _atom_site_fract_y
 _atom_site_fract_z
 _atom_site_occupancy
  Zn  Zn0  1  0.58511000  0.18431000  0.74741000  1.0
  Zn  Zn1  1  0.41489000  0.81569000  0.25259000  1.0
  H  H2  1  0.68597000  0.54672000  0.96998000  1.0
  H  H3  1  0.31402000  0.45328000  0.03001000  1.0
  H  H4  1  0.87939000  0.70452000  0.02954000  1.0
  H  H5  1  0.12060000  0.29548000  0.97046000  1.0
  H  H6  1  0.43088000  0.50648000  0.80324000  1.0
  H  H7  1  0.56912000  0.49352000  0.19675000  1.0
  H  H8  1  0.35857000  0.54922000  0.60917000  1.0
  H  H9  1  0.64144000  0.45078000  0.39082000  1.0
  H  H10  1  0.56884000  0.75132000  0.57647000  1.0
  H  H11  1  0.43118000  0.24869000  0.42353000  1.0
  H  H12  1  0.91674000  0.87484000  0.93983000  1.0
  H  H13  1  0.08326000  0.12516000  0.06017000  1.0
  H  H14  1  0.92197000  0.91842000  0.64539000  1.0
  H  H15  1  0.07804000  0.08159000  0.35461000  1.0
  H  H16  1  0.00301000  0.00873000  0.81574000  1.0
  H  H17  1  0.99700000  0.99128000  0.18427000  1.0
  H  H18  1  0.61484000  0.36174000  0.60002000  1.0
  H  H19  1  0.38516000  0.63826000  0.39997000  1.0
  H  H20  1  0.82643000  0.58229000  0.59617000  1.0
  H  H21  1  0.17357000  0.41771000  0.40383000  1.0
  H  H22  1  0.20247000  0.60463000  0.90090000  1.0
  H  H23  1  0.79753000  0.39537000  0.09911000  1.0
  H  H24  1  0.97626000  0.37869000  0.88568000  1.0
  H  H25  1  0.02374000  0.62131000  0.11433000  1.0
  H  H26  1  0.31221000  0.89950000  0.54553000  1.0
  H  H27  1  0.68779000  0.10050000  0.45448000  1.0
  H  H28  1  0.09896000  0.67673000  0.54007000  1.0
  H  H29  1  0.90105000  0.32327000  0.45993000  1.0
  H  H30  1  0.24490000  0.85260000  0.95891000  1.0
  H  H31  1  0.75509000  0.14740000  0.04110000  1.0
  H  H32  1  0.44727000  0.07125000  0.94640000  1.0
  H  H33  1  0.55272000  0.92875000  0.05360000  1.0
  H  H34  1  0.34617000  0.09119000  0.51437000  1.0
  H  H35  1  0.65384000  0.90881000  0.48563000  1.0
  H  H36  1  0.31916000  0.19503000  0.65268000  1.0
  H  H37  1  0.68084000  0.80497000  0.34732000  1.0
  C  C38  1  0.66079000  0.71263000  0.11848000  1.0
  C  C39  1  0.33919000  0.28736000  0.88151000  1.0
  C  C40  1  0.73312000  0.65948000  0.99870000  1.0
  C  C41  1  0.26687000  0.34052000  0.00130000  1.0
  C  C42  1  0.67870000  0.68868000  0.88534000  1.0
  C  C43  1  0.32130000  0.31132000  0.11466000  1.0
  C  C44  1  0.52056000  0.59794000  0.79202000  1.0
  C  C45  1  0.47944000  0.40206000  0.20797000  1.0
  C  C46  1  0.48094000  0.62149000  0.68218000  1.0
  C  C47  1  0.51907000  0.37851000  0.31781000  1.0
  C  C48  1  0.59782000  0.73506000  0.66393000  1.0
  C  C49  1  0.40219000  0.26494000  0.33607000  1.0
  C  C50  1  0.75479000  0.82921000  0.75773000  1.0
  C  C51  1  0.24521000  0.17079000  0.24227000  1.0
  C  C52  1  0.79226000  0.80488000  0.86797000  1.0
  C  C53  1  0.20775000  0.19512000  0.13203000  1.0
  C  C54  1  0.88207000  0.95276000  0.73808000  1.0
  C  C55  1  0.11794000  0.04725000  0.26192000  1.0
  C  C56  1  0.79297000  0.05092000  0.73755000  1.0
  C  C57  1  0.20703000  0.94908000  0.26245000  1.0
  C  C58  1  0.74821000  0.41791000  0.66216000  1.0
  C  C59  1  0.25179000  0.58209000  0.33784000  1.0
  C  C60  1  0.86752000  0.53960000  0.66016000  1.0
  C  C61  1  0.13248000  0.46039000  0.33984000  1.0
  C  C62  1  0.03354000  0.61191000  0.74761000  1.0
  C  C63  1  0.96646000  0.38809000  0.25239000  1.0
  C  C64  1  0.07424000  0.55421000  0.83183000  1.0
  C  C65  1  0.92576000  0.44579000  0.16817000  1.0
  C  C66  1  0.94903000  0.42914000  0.82468000  1.0
  C  C67  1  0.05097000  0.57086000  0.17532000  1.0
  C  C68  1  0.29327000  0.88561000  0.63515000  1.0
  C  C69  1  0.70673000  0.11439000  0.36486000  1.0
  C  C70  1  0.17391000  0.76130000  0.63277000  1.0
  C  C71  1  0.82608000  0.23869000  0.36723000  1.0
  C  C72  1  0.15695000  0.74438000  0.74914000  1.0
  C  C73  1  0.84305000  0.25562000  0.25086000  1.0
  C  C74  1  0.25786000  0.85741000  0.86489000  1.0
  C  C75  1  0.74213000  0.14259000  0.13511000  1.0
  C  C76  1  0.37053000  0.97961000  0.85866000  1.0
  C  C77  1  0.62947000  0.02039000  0.14135000  1.0
  N  N78  1  0.78769000  0.36238000  0.74254000  1.0
  N  N79  1  0.21231000  0.63762000  0.25746000  1.0
  N  N80  1  0.39059000  0.99359000  0.74635000  1.0
  N  N81  1  0.60941000  0.00641000  0.25365000  1.0
  O  O82  1  0.76310000  0.75555000  0.22725000  1.0
  O  O83  1  0.23689000  0.24444000  0.77275000  1.0
  O  O84  1  0.50047000  0.70646000  0.09998000  1.0
  O  O85  1  0.49952000  0.29354000  0.90002000  1.0
  O  O86  1  0.71449000  0.03988000  0.62949000  1.0
  O  O87  1  0.28551000  0.96012000  0.37052000  1.0
  O  O88  1  0.78802000  0.13712000  0.84461000  1.0
  O  O89  1  0.21199000  0.86289000  0.15540000  1.0
  O  O90  1  0.40711000  0.17544000  0.59675000  1.0
  O  O91  1  0.59288000  0.82455000  0.40325000  1.0
