# generated using pymatgen
data_NiH8C4(NO3)2
_symmetry_space_group_name_H-M   'P 1'
_cell_length_a   7.36712000
_cell_length_b   7.93847000
_cell_length_c   8.23217000
_cell_angle_alpha   89.99920000
_cell_angle_beta   63.77100000
_cell_angle_gamma   89.99880000
_symmetry_Int_Tables_number   1
_chemical_formula_structural   NiH8C4(NO3)2
_chemical_formula_sum   'Ni2 H16 C8 N4 O12'
_cell_volume   431.87510285
_cell_formula_units_Z   2
loop_
 _symmetry_equiv_pos_site_id
 _symmetry_equiv_pos_as_xyz
  1  'x, y, z'
loop_
 _atom_site_type_symbol
 _atom_site_label
 _atom_site_symmetry_multiplicity
 _atom_site_fract_x
 _atom_site_fract_y
 _atom_site_fract_z
 _atom_site_occupancy
  Ni  Ni0  1  0.00000000  0.50000000  0.00000000  1.0
  Ni  Ni1  1  0.50000000  0.00000000  0.50000000  1.0
  H  H2  1  0.47133000  0.55069000  0.85707000  1.0
  H  H3  1  0.02867000  0.05069000  0.64292000  1.0
  H  H4  1  0.52867000  0.44931000  0.14293000  1.0
  H  H5  1  0.97133000  0.94931000  0.35707000  1.0
  H  H6  1  0.61662000  0.63535000  0.63506000  1.0
  H  H7  1  0.88338000  0.13535000  0.86493000  1.0
  H  H8  1  0.38338000  0.36465000  0.36494000  1.0
  H  H9  1  0.11662000  0.86465000  0.13507000  1.0
  H  H10  1  0.72091000  0.77146000  0.17833000  1.0
  H  H11  1  0.77910000  0.27146000  0.32167000  1.0
  H  H12  1  0.27910000  0.22854000  0.82167000  1.0
  H  H13  1  0.22090000  0.72854000  0.67833000  1.0
  H  H14  1  0.91341000  0.62337000  0.67552000  1.0
  H  H15  1  0.58659000  0.12336000  0.82447000  1.0
  H  H16  1  0.08659000  0.37664000  0.32448000  1.0
  H  H17  1  0.41341000  0.87664000  0.17553000  1.0
  C  C18  1  0.76856000  0.58480000  0.78786000  1.0
  C  C19  1  0.73145000  0.08479000  0.71214000  1.0
  C  C20  1  0.23144000  0.41520000  0.21214000  1.0
  C  C21  1  0.26855000  0.91521000  0.28786000  1.0
  C  C22  1  0.71302000  0.69650000  0.29437000  1.0
  C  C23  1  0.78698000  0.19651000  0.20562000  1.0
  C  C24  1  0.28698000  0.30351000  0.70563000  1.0
  C  C25  1  0.21302000  0.80349000  0.79437000  1.0
  N  N26  1  0.60847000  0.58754000  0.75535000  1.0
  N  N27  1  0.89153000  0.08754000  0.74464000  1.0
  N  N28  1  0.39153000  0.41246000  0.24465000  1.0
  N  N29  1  0.10847000  0.91246000  0.25536000  1.0
  O  O30  1  0.81616000  0.56241000  0.26334000  1.0
  O  O31  1  0.68383000  0.06243000  0.23665000  1.0
  O  O32  1  0.18384000  0.43759000  0.73666000  1.0
  O  O33  1  0.31617000  0.93758000  0.76335000  1.0
  O  O34  1  0.60274000  0.75178000  0.45326000  1.0
  O  O35  1  0.89725000  0.25178000  0.04673000  1.0
  O  O36  1  0.39725000  0.24822000  0.54674000  1.0
  O  O37  1  0.10275000  0.74822000  0.95326000  1.0
  O  O38  1  0.76093000  0.53982000  0.93813000  1.0
  O  O39  1  0.73907000  0.03981000  0.56186000  1.0
  O  O40  1  0.23907000  0.46018000  0.06187000  1.0
  O  O41  1  0.26093000  0.96018000  0.43814000  1.0
