# generated using pymatgen
data_ZnH12C14N2O5
_symmetry_space_group_name_H-M   'P 1'
_cell_length_a   8.65171000
_cell_length_b   11.11650000
_cell_length_c   16.10080000
_cell_angle_alpha   100.75800000
_cell_angle_beta   90.00000000
_cell_angle_gamma   90.00000000
_symmetry_Int_Tables_number   1
_chemical_formula_structural   ZnH12C14N2O5
_chemical_formula_sum   'Zn4 H48 C56 N8 O20'
_cell_volume   1521.30606665
_cell_formula_units_Z   4
loop_
 _symmetry_equiv_pos_site_id
 _symmetry_equiv_pos_as_xyz
  1  'x, y, z'
loop_
 _atom_site_type_symbol
 _atom_site_label
 _atom_site_symmetry_multiplicity
 _atom_site_fract_x
 _atom_site_fract_y
 _atom_site_fract_z
 _atom_site_occupancy
  Zn  Zn0  1  0.08919000  0.80869000  0.49721000  1.0
  Zn  Zn1  1  0.58918000  0.69132000  0.00279000  1.0
  Zn  Zn2  1  0.91081000  0.19132000  0.50279000  1.0
  Zn  Zn3  1  0.41081000  0.30869000  0.99722000  1.0
  H  H4  1  0.59981000  0.26422000  0.46369000  1.0
  H  H5  1  0.09981000  0.23578000  0.03632000  1.0
  H  H6  1  0.40018000  0.73577000  0.53631000  1.0
  H  H7  1  0.90018000  0.76422000  0.96368000  1.0
  H  H8  1  0.92485000  0.95471000  0.59550000  1.0
  H  H9  1  0.42485000  0.54529000  0.90450000  1.0
  H  H10  1  0.07516000  0.04529000  0.40450000  1.0
  H  H11  1  0.57516000  0.45471000  0.09551000  1.0
  H  H12  1  0.83464000  0.93022000  0.51032000  1.0
  H  H13  1  0.33463000  0.56978000  0.98967000  1.0
  H  H14  1  0.16536000  0.06978000  0.48968000  1.0
  H  H15  1  0.66536000  0.43022000  0.01033000  1.0
  H  H16  1  0.43578000  0.10683000  0.49351000  1.0
  H  H17  1  0.93577000  0.39316000  0.00650000  1.0
  H  H18  1  0.56422000  0.89317000  0.50651000  1.0
  H  H19  1  0.06420000  0.60684000  0.99350000  1.0
  H  H20  1  0.34100000  0.09729000  0.75477000  1.0
  H  H21  1  0.84099000  0.40272000  0.74524000  1.0
  H  H22  1  0.65900000  0.90272000  0.24524000  1.0
  H  H23  1  0.15900000  0.59729000  0.25476000  1.0
  H  H24  1  0.56499000  0.41139000  0.69005000  1.0
  H  H25  1  0.06499000  0.08860000  0.80994000  1.0
  H  H26  1  0.43502000  0.58861000  0.30995000  1.0
  H  H27  1  0.93501000  0.91140000  0.19005000  1.0
  H  H28  1  0.76186000  0.41153000  0.59793000  1.0
  H  H29  1  0.26186000  0.08846000  0.90207000  1.0
  H  H30  1  0.23814000  0.58847000  0.40207000  1.0
  H  H31  1  0.73812000  0.91153000  0.09792000  1.0
  H  H32  1  0.62392000  0.50918000  0.56179000  1.0
  H  H33  1  0.12393000  0.99082000  0.93822000  1.0
  H  H34  1  0.37607000  0.49081000  0.43821000  1.0
  H  H35  1  0.87606000  0.00919000  0.06179000  1.0
  H  H36  1  0.69397000  0.59961000  0.44670000  1.0
  H  H37  1  0.19398000  0.90040000  0.05331000  1.0
  H  H38  1  0.30601000  0.40039000  0.55330000  1.0
  H  H39  1  0.80601000  0.09961000  0.94669000  1.0
  H  H40  1  0.84821000  0.59629000  0.31425000  1.0
  H  H41  1  0.34822000  0.90371000  0.18576000  1.0
  H  H42  1  0.15180000  0.40371000  0.68576000  1.0
  H  H43  1  0.65179000  0.09628000  0.81423000  1.0
  H  H44  1  0.03057000  0.41910000  0.26644000  1.0
  H  H45  1  0.53057000  0.08091000  0.23357000  1.0
  H  H46  1  0.96945000  0.58091000  0.73357000  1.0
  H  H47  1  0.46945000  0.91908000  0.76641000  1.0
  H  H48  1  0.05591000  0.26021000  0.35728000  1.0
  H  H49  1  0.55591000  0.23981000  0.14272000  1.0
  H  H50  1  0.94411000  0.73981000  0.64272000  1.0
  H  H51  1  0.44411000  0.76018000  0.85726000  1.0
  C  C52  1  0.51863000  0.26330000  0.58339000  1.0
  C  C53  1  0.01864000  0.23670000  0.91661000  1.0
  C  C54  1  0.48136000  0.73671000  0.41661000  1.0
  C  C55  1  0.98135000  0.76329000  0.08339000  1.0
  C  C56  1  0.44435000  0.14904000  0.56010000  1.0
  C  C57  1  0.94435000  0.35095000  0.93991000  1.0
  C  C58  1  0.55565000  0.85096000  0.43991000  1.0
  C  C59  1  0.05565000  0.64905000  0.06009000  1.0
  C  C60  1  0.38412000  0.08882000  0.62151000  1.0
  C  C61  1  0.88412000  0.41117000  0.87849000  1.0
  C  C62  1  0.61588000  0.91118000  0.37849000  1.0
  C  C63  1  0.11587000  0.58883000  0.12150000  1.0
  C  C64  1  0.39038000  0.14325000  0.70709000  1.0
  C  C65  1  0.89038000  0.35675000  0.79292000  1.0
  C  C66  1  0.60962000  0.85675000  0.29291000  1.0
  C  C67  1  0.10961000  0.64325000  0.20708000  1.0
  C  C68  1  0.45347000  0.26025000  0.72996000  1.0
  C  C69  1  0.95346000  0.23975000  0.77005000  1.0
  C  C70  1  0.54654000  0.73975000  0.27005000  1.0
  C  C71  1  0.04654000  0.76026000  0.22995000  1.0
  C  C72  1  0.51781000  0.32005000  0.66897000  1.0
  C  C73  1  0.01781000  0.17994000  0.83103000  1.0
  C  C74  1  0.48218000  0.67995000  0.33103000  1.0
  C  C75  1  0.98218000  0.82006000  0.16897000  1.0
  C  C76  1  0.68855000  0.42274000  0.54366000  1.0
  C  C77  1  0.18856000  0.07725000  0.95634000  1.0
  C  C78  1  0.31145000  0.57726000  0.45635000  1.0
  C  C79  1  0.81145000  0.92274000  0.04366000  1.0
  C  C80  1  0.78974000  0.43075000  0.46897000  1.0
  C  C81  1  0.28974000  0.06926000  0.03104000  1.0
  C  C82  1  0.21026000  0.56925000  0.53103000  1.0
  C  C83  1  0.71026000  0.93074000  0.96896000  1.0
  C  C84  1  0.77516000  0.52591000  0.42422000  1.0
  C  C85  1  0.27517000  0.97409000  0.07579000  1.0
  C  C86  1  0.22484000  0.47410000  0.57579000  1.0
  C  C87  1  0.72484000  0.02590000  0.92420000  1.0
  C  C88  1  0.86123000  0.52360000  0.35066000  1.0
  C  C89  1  0.36123000  0.97642000  0.14935000  1.0
  C  C90  1  0.13877000  0.47641000  0.64934000  1.0
  C  C91  1  0.63877000  0.02357000  0.85065000  1.0
  C  C92  1  0.96291000  0.42654000  0.32445000  1.0
  C  C93  1  0.46290000  0.07348000  0.17556000  1.0
  C  C94  1  0.03710000  0.57347000  0.67555000  1.0
  C  C95  1  0.53710000  0.92651000  0.82444000  1.0
  C  C96  1  0.97587000  0.33664000  0.37371000  1.0
  C  C97  1  0.47588000  0.16338000  0.12629000  1.0
  C  C98  1  0.02415000  0.66337000  0.62629000  1.0
  C  C99  1  0.52412000  0.83661000  0.87371000  1.0
  C  C100  1  0.31391000  0.96432000  0.59610000  1.0
  C  C101  1  0.81391000  0.53568000  0.90390000  1.0
  C  C102  1  0.68609000  0.03568000  0.40390000  1.0
  C  C103  1  0.18609000  0.46433000  0.09610000  1.0
  C  C104  1  0.45029000  0.32550000  0.82006000  1.0
  C  C105  1  0.95027000  0.17449000  0.67994000  1.0
  C  C106  1  0.54972000  0.67448000  0.17994000  1.0
  C  C107  1  0.04972000  0.82551000  0.32006000  1.0
  N  N108  1  0.58426000  0.31854000  0.52178000  1.0
  N  N109  1  0.08426000  0.18146000  0.97823000  1.0
  N  N110  1  0.41575000  0.68146000  0.47823000  1.0
  N  N111  1  0.91573000  0.81854000  0.02177000  1.0
  N  N112  1  0.89085000  0.33789000  0.44416000  1.0
  N  N113  1  0.39085000  0.16212000  0.05584000  1.0
  N  N114  1  0.10915000  0.66211000  0.55584000  1.0
  N  N115  1  0.60915000  0.83788000  0.94415000  1.0
  O  O116  1  0.23142000  0.94977000  0.52677000  1.0
  O  O117  1  0.73142000  0.55023000  0.97323000  1.0
  O  O118  1  0.76858000  0.05023000  0.47323000  1.0
  O  O119  1  0.26858000  0.44977000  0.02677000  1.0
  O  O120  1  0.33758000  0.88183000  0.63749000  1.0
  O  O121  1  0.83761000  0.61818000  0.86253000  1.0
  O  O122  1  0.66241000  0.11818000  0.36252000  1.0
  O  O123  1  0.16242000  0.38183000  0.13748000  1.0
  O  O124  1  0.41935000  0.25762000  0.87517000  1.0
  O  O125  1  0.91935000  0.24239000  0.62483000  1.0
  O  O126  1  0.58064000  0.74238000  0.12483000  1.0
  O  O127  1  0.08065000  0.75763000  0.37516000  1.0
  O  O128  1  0.47778000  0.43846000  0.83559000  1.0
  O  O129  1  0.97775000  0.06152000  0.66441000  1.0
  O  O130  1  0.52226000  0.56151000  0.16441000  1.0
  O  O131  1  0.02224000  0.93847000  0.33559000  1.0
  O  O132  1  0.89225000  0.88405000  0.54856000  1.0
  O  O133  1  0.39225000  0.61594000  0.95143000  1.0
  O  O134  1  0.10775000  0.11594000  0.45143000  1.0
  O  O135  1  0.60774000  0.38406000  0.04857000  1.0
