# generated using pymatgen
data_Zn4H25C52NO17
_symmetry_space_group_name_H-M   'P 1'
_cell_length_a   15.30950000
_cell_length_b   15.59500000
_cell_length_c   17.96440000
_cell_angle_alpha   70.07030000
_cell_angle_beta   89.55640000
_cell_angle_gamma   67.99980000
_symmetry_Int_Tables_number   1
_chemical_formula_structural   Zn4H25C52NO17
_chemical_formula_sum   'Zn4 H25 C52 N1 O17'
_cell_volume   3702.98710359
_cell_formula_units_Z   1
loop_
 _symmetry_equiv_pos_site_id
 _symmetry_equiv_pos_as_xyz
  1  'x, y, z'
loop_
 _atom_site_type_symbol
 _atom_site_label
 _atom_site_symmetry_multiplicity
 _atom_site_fract_x
 _atom_site_fract_y
 _atom_site_fract_z
 _atom_site_occupancy
  Zn  Zn0  1  0.42957000  0.57507000  0.56707000  1.0
  Zn  Zn1  1  0.54988000  0.57453000  0.41899000  1.0
  Zn  Zn2  1  0.40569000  0.47144000  0.44825000  1.0
  Zn  Zn3  1  0.60282000  0.37614000  0.56803000  1.0
  H  H4  1  0.79155000  0.34183000  0.04399000  1.0
  H  H5  1  0.57938000  0.46483000  0.19665000  1.0
  H  H6  1  0.30485000  0.67739000  0.19838000  1.0
  H  H7  1  0.30721000  0.70526000  0.92736000  1.0
  H  H8  1  0.80977000  0.28151000  0.93066000  1.0
  H  H9  1  0.74804000  0.30071000  0.79536000  1.0
  H  H10  1  0.48538000  0.52807000  0.80004000  1.0
  H  H11  1  0.41151000  0.61082000  0.85408000  1.0
  H  H12  1  0.26759000  0.72764000  0.05093000  1.0
  H  H13  1  0.88298000  0.27742000  0.48527000  1.0
  H  H14  1  0.19339000  0.28044000  0.51842000  1.0
  H  H15  1  0.82868000  0.56408000  0.49347000  1.0
  H  H16  1  0.11523000  0.72672000  0.54153000  1.0
  H  H17  1  0.87657000  0.65451000  0.51190000  1.0
  H  H18  1  0.94050000  0.76768000  0.53360000  1.0
  H  H19  1  0.38292000  0.89761000  0.30781000  1.0
  H  H20  1  0.36401000  0.20958000  0.30920000  1.0
  H  H21  1  0.35390000  0.07642000  0.27238000  1.0
  H  H22  1  0.48388000  0.83533000  0.54978000  1.0
  H  H23  1  0.59443000  0.10468000  0.66957000  1.0
  H  H24  1  0.54082000  0.87639000  0.62145000  1.0
  H  H25  1  0.60854000  0.92929000  0.71261000  1.0
  H  H26  1  0.41719000  0.26660000  0.40441000  1.0
  H  H27  1  0.31208000  0.33513000  0.54083000  1.0
  H  H28  1  0.66731000  0.49474000  0.14289000  1.0
  C  C29  1  0.74208000  0.44654000  0.48617000  1.0
  C  C30  1  0.24981000  0.57369000  0.52042000  1.0
  C  C31  1  0.45065000  0.75135000  0.45378000  1.0
  C  C32  1  0.50778000  0.25375000  0.53766000  1.0
  C  C33  1  0.46639000  0.54096000  0.29204000  1.0
  C  C34  1  0.57557000  0.43317000  0.70848000  1.0
  C  C35  1  0.61253000  0.41721000  0.79051000  1.0
  C  C36  1  0.44697000  0.57081000  0.20354000  1.0
  C  C37  1  0.73831000  0.33537000  0.90226000  1.0
  C  C38  1  0.70470000  0.34577000  0.82743000  1.0
  C  C39  1  0.55589000  0.47497000  0.83063000  1.0
  C  C40  1  0.58765000  0.46492000  0.90767000  1.0
  C  C41  1  0.68174000  0.39438000  0.94390000  1.0
  C  C42  1  0.52859000  0.52195000  0.95156000  1.0
  C  C43  1  0.56217000  0.50626000  0.03073000  1.0
  C  C44  1  0.66159000  0.44476000  0.05931000  1.0
  C  C45  1  0.71742000  0.38867000  0.01861000  1.0
  C  C46  1  0.43586000  0.59545000  0.91577000  1.0
  C  C47  1  0.37718000  0.64813000  0.95647000  1.0
  C  C48  1  0.40372000  0.62617000  0.03864000  1.0
  C  C49  1  0.49625000  0.55295000  0.07764000  1.0
  C  C50  1  0.33706000  0.67180000  0.08267000  1.0
  C  C51  1  0.35718000  0.64436000  0.16403000  1.0
  C  C52  1  0.51469000  0.52657000  0.16157000  1.0
  C  C53  1  0.00486000  0.31246000  0.49059000  1.0
  C  C54  1  0.84559000  0.42417000  0.48937000  1.0
  C  C55  1  0.08716000  0.67408000  0.53607000  1.0
  C  C56  1  0.98897000  0.69728000  0.53058000  1.0
  C  C57  1  0.95327000  0.63282000  0.51870000  1.0
  C  C58  1  0.01426000  0.54018000  0.51574000  1.0
  C  C59  1  0.11420000  0.51469000  0.52551000  1.0
  C  C60  1  0.97815000  0.47112000  0.50350000  1.0
  C  C61  1  0.04415000  0.37834000  0.50072000  1.0
  C  C62  1  0.14313000  0.35284000  0.51583000  1.0
  C  C63  1  0.17654000  0.41599000  0.53183000  1.0
  C  C64  1  0.88029000  0.49295000  0.49456000  1.0
  C  C65  1  0.90891000  0.33216000  0.48895000  1.0
  C  C66  1  0.14930000  0.58528000  0.53117000  1.0
  C  C67  1  0.38410000  0.02297000  0.33290000  1.0
  C  C68  1  0.43425000  0.85776000  0.43179000  1.0
  C  C69  1  0.56252000  0.08114000  0.63036000  1.0
  C  C70  1  0.57077000  0.98287000  0.65404000  1.0
  C  C71  1  0.53214000  0.95361000  0.60245000  1.0
  C  C72  1  0.48418000  0.02076000  0.52565000  1.0
  C  C73  1  0.47296000  0.12231000  0.50167000  1.0
  C  C74  1  0.45003000  0.98792000  0.46947000  1.0
  C  C75  1  0.40950000  0.05642000  0.39015000  1.0
  C  C76  1  0.39735000  0.15738000  0.36944000  1.0
  C  C77  1  0.42711000  0.18925000  0.42251000  1.0
  C  C78  1  0.45761000  0.88959000  0.48926000  1.0
  C  C79  1  0.39901000  0.92464000  0.35226000  1.0
  C  C80  1  0.51317000  0.15084000  0.55621000  1.0
  N  N81  1  0.06479000  0.21815000  0.48196000  1.0
  O  O82  1  0.49668000  0.49744000  0.50272000  1.0
  O  O83  1  0.71832000  0.37277000  0.51574000  1.0
  O  O84  1  0.29667000  0.58676000  0.57102000  1.0
  O  O85  1  0.47343000  0.71522000  0.39877000  1.0
  O  O86  1  0.43188000  0.32712000  0.49530000  1.0
  O  O87  1  0.53875000  0.54834000  0.31964000  1.0
  O  O88  1  0.62703000  0.37368000  0.67562000  1.0
  O  O89  1  0.40659000  0.51273000  0.33216000  1.0
  O  O90  1  0.49551000  0.50535000  0.67686000  1.0
  O  O91  1  0.44217000  0.70422000  0.52531000  1.0
  O  O92  1  0.57869000  0.26122000  0.56711000  1.0
  O  O93  1  0.68466000  0.53790000  0.45441000  1.0
  O  O94  1  0.27787000  0.55829000  0.45729000  1.0
  O  O95  1  0.13913000  0.21281000  0.45164000  1.0
  O  O96  1  0.03651000  0.14960000  0.50391000  1.0
  O  O97  1  0.26937000  0.38733000  0.55846000  1.0
  O  O98  1  0.70670000  0.43998000  0.12704000  1.0
