# generated using pymatgen
data_HgH8C7SBrN5
_symmetry_space_group_name_H-M   'P 1'
_cell_length_a   7.48035000
_cell_length_b   8.56344000
_cell_length_c   16.84410000
_cell_angle_alpha   98.99640000
_cell_angle_beta   89.99970000
_cell_angle_gamma   89.99970000
_symmetry_Int_Tables_number   1
_chemical_formula_structural   HgH8C7SBrN5
_chemical_formula_sum   'Hg4 H32 C28 S4 Br4 N20'
_cell_volume   1065.71784274
_cell_formula_units_Z   4
loop_
 _symmetry_equiv_pos_site_id
 _symmetry_equiv_pos_as_xyz
  1  'x, y, z'
loop_
 _atom_site_type_symbol
 _atom_site_label
 _atom_site_symmetry_multiplicity
 _atom_site_fract_x
 _atom_site_fract_y
 _atom_site_fract_z
 _atom_site_occupancy
  Hg  Hg0  1  0.34715000  0.75449000  0.81933000  1.0
  Hg  Hg1  1  0.84714000  0.74550000  0.68067000  1.0
  Hg  Hg2  1  0.65287000  0.24550000  0.18067000  1.0
  Hg  Hg3  1  0.15286000  0.25450000  0.31933000  1.0
  H  H4  1  0.69136000  0.26716000  0.75820000  1.0
  H  H5  1  0.19137000  0.23283000  0.74180000  1.0
  H  H6  1  0.30864000  0.73283000  0.24180000  1.0
  H  H7  1  0.80863000  0.76717000  0.25820000  1.0
  H  H8  1  0.77043000  0.11378000  0.68755000  1.0
  H  H9  1  0.27044000  0.38622000  0.81244000  1.0
  H  H10  1  0.22957000  0.88622000  0.31245000  1.0
  H  H11  1  0.72957000  0.61378000  0.18756000  1.0
  H  H12  1  0.44077000  0.30186000  0.93057000  1.0
  H  H13  1  0.94076000  0.19813000  0.56944000  1.0
  H  H14  1  0.55924000  0.69813000  0.06943000  1.0
  H  H15  1  0.05923000  0.80187000  0.43057000  1.0
  H  H16  1  0.35897000  0.29180000  0.02595000  1.0
  H  H17  1  0.85897000  0.20819000  0.47405000  1.0
  H  H18  1  0.64104000  0.70819000  0.97405000  1.0
  H  H19  1  0.14102000  0.79182000  0.52595000  1.0
  H  H20  1  0.15819000  0.61091000  0.98448000  1.0
  H  H21  1  0.65820000  0.88909000  0.51552000  1.0
  H  H22  1  0.84182000  0.38909000  0.01552000  1.0
  H  H23  1  0.34180000  0.11092000  0.48448000  1.0
  H  H24  1  0.02184000  0.70918000  0.12027000  1.0
  H  H25  1  0.52185000  0.79082000  0.37974000  1.0
  H  H26  1  0.97817000  0.29082000  0.87973000  1.0
  H  H27  1  0.47815000  0.20918000  0.62027000  1.0
  H  H28  1  0.03996000  0.99764000  0.17356000  1.0
  H  H29  1  0.53995000  0.50236000  0.32644000  1.0
  H  H30  1  0.96004000  0.00236000  0.82643000  1.0
  H  H31  1  0.46004000  0.49764000  0.67356000  1.0
  H  H32  1  0.18823000  0.17862000  0.09176000  1.0
  H  H33  1  0.68823000  0.32137000  0.40825000  1.0
  H  H34  1  0.81176000  0.82138000  0.90824000  1.0
  H  H35  1  0.31176000  0.67863000  0.59176000  1.0
  C  C36  1  0.16168000  0.73607000  0.01050000  1.0
  C  C37  1  0.66169000  0.76393000  0.48950000  1.0
  C  C38  1  0.83833000  0.26393000  0.98950000  1.0
  C  C39  1  0.33832000  0.23608000  0.51050000  1.0
  C  C40  1  0.08733000  0.79007000  0.08565000  1.0
  C  C41  1  0.58734000  0.70993000  0.41435000  1.0
  C  C42  1  0.91267000  0.20993000  0.91434000  1.0
  C  C43  1  0.41266000  0.29008000  0.58565000  1.0
  C  C44  1  0.09749000  0.95126000  0.11506000  1.0
  C  C45  1  0.59749000  0.54874000  0.38494000  1.0
  C  C46  1  0.90251000  0.04874000  0.88493000  1.0
  C  C47  1  0.40250000  0.45127000  0.61507000  1.0
  C  C48  1  0.18053000  0.05236000  0.06917000  1.0
  C  C49  1  0.68052000  0.44764000  0.43084000  1.0
  C  C50  1  0.81947000  0.94764000  0.93083000  1.0
  C  C51  1  0.31946000  0.55236000  0.56917000  1.0
  C  C52  1  0.25088000  0.98844000  0.99388000  1.0
  C  C53  1  0.75088000  0.51155000  0.50613000  1.0
  C  C54  1  0.74912000  0.01155000  0.00612000  1.0
  C  C55  1  0.24912000  0.48845000  0.49388000  1.0
  C  C56  1  0.33985000  0.08803000  0.94110000  1.0
  C  C57  1  0.83984000  0.41196000  0.55890000  1.0
  C  C58  1  0.66015000  0.91197000  0.05890000  1.0
  C  C59  1  0.16015000  0.58804000  0.44110000  1.0
  C  C60  1  0.56669000  0.05830000  0.76038000  1.0
  C  C61  1  0.06670000  0.44169000  0.73962000  1.0
  C  C62  1  0.43331000  0.94169000  0.23962000  1.0
  C  C63  1  0.93331000  0.55831000  0.26038000  1.0
  S  S64  1  0.53844000  0.86573000  0.70603000  1.0
  S  S65  1  0.03845000  0.63426000  0.79397000  1.0
  S  S66  1  0.46156000  0.13427000  0.29397000  1.0
  S  S67  1  0.96156000  0.36573000  0.20603000  1.0
  Br  Br68  1  0.57431000  0.52480000  0.85161000  1.0
  Br  Br69  1  0.07427000  0.97522000  0.64840000  1.0
  Br  Br70  1  0.42573000  0.47521000  0.14839000  1.0
  Br  Br71  1  0.92571000  0.02480000  0.35161000  1.0
  N  N72  1  0.24122000  0.83232000  0.96621000  1.0
  N  N73  1  0.74122000  0.66767000  0.53379000  1.0
  N  N74  1  0.75879000  0.16767000  0.03379000  1.0
  N  N75  1  0.25878000  0.33234000  0.46621000  1.0
  N  N76  1  0.39362000  0.02063000  0.86905000  1.0
  N  N77  1  0.89363000  0.47936000  0.63096000  1.0
  N  N78  1  0.60637000  0.97937000  0.13095000  1.0
  N  N79  1  0.10637000  0.52063000  0.36905000  1.0
  N  N80  1  0.48960000  0.11634000  0.82838000  1.0
  N  N81  1  0.98961000  0.38365000  0.67162000  1.0
  N  N82  1  0.51040000  0.88365000  0.17162000  1.0
  N  N83  1  0.01040000  0.61635000  0.32838000  1.0
  N  N84  1  0.66843000  0.15928000  0.72430000  1.0
  N  N85  1  0.16845000  0.34071000  0.77570000  1.0
  N  N86  1  0.33156000  0.84071000  0.27570000  1.0
  N  N87  1  0.83156000  0.65929000  0.22430000  1.0
  N  N88  1  0.36312000  0.24396000  0.96656000  1.0
  N  N89  1  0.86312000  0.25603000  0.53344000  1.0
  N  N90  1  0.63688000  0.75603000  0.03343000  1.0
  N  N91  1  0.13688000  0.74397000  0.46656000  1.0
