# generated using pymatgen
data_Zn4H6C24S4O17F2
_symmetry_space_group_name_H-M   'P 1'
_cell_length_a   19.67680000
_cell_length_b   19.75300000
_cell_length_c   33.39170000
_cell_angle_alpha   78.94670000
_cell_angle_beta   79.17090000
_cell_angle_gamma   63.95120000
_symmetry_Int_Tables_number   1
_chemical_formula_structural   Zn4H6C24S4O17F2
_chemical_formula_sum   'Zn16 H24 C96 S16 O68 F8'
_cell_volume   11364.48630277
_cell_formula_units_Z   4
loop_
 _symmetry_equiv_pos_site_id
 _symmetry_equiv_pos_as_xyz
  1  'x, y, z'
loop_
 _atom_site_type_symbol
 _atom_site_label
 _atom_site_symmetry_multiplicity
 _atom_site_fract_x
 _atom_site_fract_y
 _atom_site_fract_z
 _atom_site_occupancy
  Zn  Zn0  1  0.05603000  0.40081000  0.47840000  1.0
  Zn  Zn1  1  0.98434000  0.48339000  0.56050000  1.0
  Zn  Zn2  1  0.05887000  0.56114000  0.48230000  1.0
  Zn  Zn3  1  0.90040000  0.55522000  0.47954000  1.0
  Zn  Zn4  1  0.69388000  0.34904000  0.27170000  1.0
  Zn  Zn5  1  0.69070000  0.18829000  0.26678000  1.0
  Zn  Zn6  1  0.76879000  0.26650000  0.18994000  1.0
  Zn  Zn7  1  0.84840000  0.19455000  0.27178000  1.0
  Zn  Zn8  1  0.26591000  0.76639000  0.68950000  1.0
  Zn  Zn9  1  0.34968000  0.69596000  0.77115000  1.0
  Zn  Zn10  1  0.19271000  0.84887000  0.77098000  1.0
  Zn  Zn11  1  0.19125000  0.68865000  0.76772000  1.0
  Zn  Zn12  1  0.55901000  0.06192000  0.98323000  1.0
  Zn  Zn13  1  0.40144000  0.05414000  0.97749000  1.0
  Zn  Zn14  1  0.55719000  0.90109000  0.97901000  1.0
  Zn  Zn15  1  0.48104000  0.98371000  0.06004000  1.0
  H  H16  1  0.74858000  0.45252000  0.35036000  1.0
  H  H17  1  0.00108000  0.29817000  0.39974000  1.0
  H  H18  1  0.20061000  0.70042000  0.59927000  1.0
  H  H19  1  0.04941000  0.54971000  0.65068000  1.0
  H  H20  1  0.65074000  0.15122000  0.04943000  1.0
  H  H21  1  0.59932000  0.09873000  0.20051000  1.0
  H  H22  1  0.29929000  0.00010000  0.89977000  1.0
  H  H23  1  0.45111000  0.74909000  0.84999000  1.0
  H  H24  1  0.32737000  0.54021000  0.39781000  1.0
  H  H25  1  0.42241000  0.20963000  0.35233000  1.0
  H  H26  1  0.75448000  0.54088000  0.68446000  1.0
  H  H27  1  0.49563000  0.70893000  0.56580000  1.0
  H  H28  1  0.04135000  0.25408000  0.68384000  1.0
  H  H29  1  0.20880000  0.99573000  0.56605000  1.0
  H  H30  1  0.74387000  0.81690000  0.38735000  1.0
  H  H31  1  0.00539000  0.93285000  0.36266000  1.0
  H  H32  1  0.70854000  0.49580000  0.06619000  1.0
  H  H33  1  0.54126000  0.75427000  0.18411000  1.0
  H  H34  1  0.14905000  0.07628000  0.21942000  1.0
  H  H35  1  0.10054000  0.17409000  0.03056000  1.0
  H  H36  1  0.50666000  0.43248000  0.86274000  1.0
  H  H37  1  0.24425000  0.31782000  0.88723000  1.0
  H  H38  1  0.92216000  0.70979000  0.85225000  1.0
  H  H39  1  0.82797000  0.04049000  0.89758000  1.0
  C  C40  1  0.06160000  0.31650000  0.56192000  1.0
  C  C41  1  0.06923000  0.57013000  0.56856000  1.0
  C  C42  1  0.18377000  0.44018000  0.43850000  1.0
  C  C43  1  0.93625000  0.68405000  0.43878000  1.0
  C  C44  1  0.93089000  0.43065000  0.43130000  1.0
  C  C45  1  0.81689000  0.56085000  0.56258000  1.0
  C  C46  1  0.56606000  0.30958000  0.31122000  1.0
  C  C47  1  0.68230000  0.18017000  0.18069000  1.0
  C  C48  1  0.68964000  0.43331000  0.18814000  1.0
  C  C49  1  0.93523000  0.18794000  0.18949000  1.0
  C  C50  1  0.81847000  0.31975000  0.31911000  1.0
  C  C51  1  0.81285000  0.06550000  0.31141000  1.0
  C  C52  1  0.43316000  0.68949000  0.68773000  1.0
  C  C53  1  0.31799000  0.82034000  0.81870000  1.0
  C  C54  1  0.18834000  0.93326000  0.68786000  1.0
  C  C55  1  0.06577000  0.80961000  0.81133000  1.0
  C  C56  1  0.18074000  0.67996000  0.68144000  1.0
  C  C57  1  0.31428000  0.56617000  0.81137000  1.0
  C  C58  1  0.43690000  0.18413000  0.93841000  1.0
  C  C59  1  0.43265000  0.92905000  0.93084000  1.0
  C  C60  1  0.68409000  0.94094000  0.93896000  1.0
  C  C61  1  0.56066000  0.81681000  0.06220000  1.0
  C  C62  1  0.56780000  0.06975000  0.06928000  1.0
  C  C63  1  0.31465000  0.06198000  0.06012000  1.0
  C  C64  1  0.90085000  0.40374000  0.40242000  1.0
  C  C65  1  0.84877000  0.34695000  0.34773000  1.0
  C  C66  1  0.82950000  0.44587000  0.38767000  1.0
  C  C67  1  0.92017000  0.30484000  0.36243000  1.0
  C  C68  1  0.80413000  0.41832000  0.36110000  1.0
  C  C69  1  0.94552000  0.33238000  0.38901000  1.0
  C  C70  1  0.09858000  0.59908000  0.59671000  1.0
  C  C71  1  0.15137000  0.65109000  0.65324000  1.0
  C  C72  1  0.14168000  0.64195000  0.58324000  1.0
  C  C73  1  0.10831000  0.60820000  0.66666667  1.0
  C  C74  1  0.16739000  0.66733000  0.61070000  1.0
  C  C75  1  0.08259000  0.58283000  0.63924000  1.0
  C  C76  1  0.30489000  0.45445000  0.40072000  1.0
  C  C77  1  0.44503000  0.29533000  0.34922000  1.0
  C  C78  1  0.25832000  0.41579000  0.41388000  1.0
  C  C79  1  0.49162000  0.33392000  0.33600000  1.0
  C  C80  1  0.37697000  0.33947000  0.37287000  1.0
  C  C81  1  0.37304000  0.41026000  0.37712000  1.0
  C  C82  1  0.72577000  0.57594000  0.63016000  1.0
  C  C83  1  0.52422000  0.67387000  0.62013000  1.0
  C  C84  1  0.74279000  0.58519000  0.58752000  1.0
  C  C85  1  0.50725000  0.66479000  0.66278000  1.0
  C  C86  1  0.60412000  0.64136000  0.60831000  1.0
  C  C87  1  0.64589000  0.60843000  0.64196000  1.0
  C  C88  1  0.07640000  0.22539000  0.62966000  1.0
  C  C89  1  0.17383000  0.02439000  0.62023000  1.0
  C  C90  1  0.08574000  0.24243000  0.58698000  1.0
  C  C91  1  0.16442000  0.00738000  0.66288000  1.0
  C  C92  1  0.14162000  0.10407000  0.60821000  1.0
  C  C93  1  0.10867000  0.14571000  0.64170000  1.0
  C  C94  1  0.84255000  0.80120000  0.39724000  1.0
  C  C95  1  0.90659000  0.94843000  0.35296000  1.0
  C  C96  1  0.91113000  0.75822000  0.41393000  1.0
  C  C97  1  0.83796000  0.99131000  0.33626000  1.0
  C  C98  1  0.90819000  0.87887000  0.37514000  1.0
  C  C99  1  0.84122000  0.87053000  0.37492000  1.0
  C  C100  1  0.65367000  0.15262000  0.15140000  1.0
  C  C101  1  0.59650000  0.09724000  0.09855000  1.0
  C  C102  1  0.66694000  0.16641000  0.10834000  1.0
  C  C103  1  0.58314000  0.08350000  0.14161000  1.0
  C  C104  1  0.63925000  0.13950000  0.08261000  1.0
  C  C105  1  0.61086000  0.11041000  0.16733000  1.0
  C  C106  1  0.67403000  0.52453000  0.12040000  1.0
  C  C107  1  0.57576000  0.72554000  0.12992000  1.0
  C  C108  1  0.66477000  0.50741000  0.16307000  1.0
  C  C109  1  0.58515000  0.74271000  0.08725000  1.0
  C  C110  1  0.60832000  0.64582000  0.14189000  1.0
  C  C111  1  0.64151000  0.60425000  0.10840000  1.0
  C  C112  1  0.08211000  0.12380000  0.17780000  1.0
  C  C113  1  0.16779000  0.12623000  0.07198000  1.0
  C  C114  1  0.00966000  0.16292000  0.16493000  1.0
  C  C115  1  0.24026000  0.08721000  0.08476000  1.0
  C  C116  1  0.11020000  0.13955000  0.10604000  1.0
  C  C117  1  0.13979000  0.11053000  0.14375000  1.0
  C  C118  1  0.34575000  0.84967000  0.84753000  1.0
  C  C119  1  0.40470000  0.89954000  0.90219000  1.0
  C  C120  1  0.30432000  0.92054000  0.86235000  1.0
  C  C121  1  0.44606000  0.82865000  0.88740000  1.0
  C  C122  1  0.33288000  0.94489000  0.88893000  1.0
  C  C123  1  0.41752000  0.80430000  0.86083000  1.0
  C  C124  1  0.40782000  0.44868000  0.85289000  1.0
  C  C125  1  0.34326000  0.30165000  0.89689000  1.0
  C  C126  1  0.33938000  0.49184000  0.83610000  1.0
  C  C127  1  0.41175000  0.25850000  0.91368000  1.0
  C  C128  1  0.34196000  0.37113000  0.87473000  1.0
  C  C129  1  0.40899000  0.37929000  0.87509000  1.0
  C  C130  1  0.94475000  0.79550000  0.84936000  1.0
  C  C131  1  0.80502000  0.95500000  0.90069000  1.0
  C  C132  1  0.99139000  0.83402000  0.83608000  1.0
  C  C133  1  0.75833000  0.91656000  0.91405000  1.0
  C  C134  1  0.87297000  0.91064000  0.87705000  1.0
  C  C135  1  0.87668000  0.83986000  0.87295000  1.0
  S  S136  1  0.29793000  0.32592000  0.39755000  1.0
  S  S137  1  0.45212000  0.42374000  0.35241000  1.0
  S  S138  1  0.66151000  0.63322000  0.56203000  1.0
  S  S139  1  0.58855000  0.61672000  0.68825000  1.0
  S  S140  1  0.13369000  0.16136000  0.56182000  1.0
  S  S141  1  0.11650000  0.08840000  0.68808000  1.0
  S  S142  1  0.97354000  0.80240000  0.40236000  1.0
  S  S143  1  0.77580000  0.94691000  0.34770000  1.0
  S  S144  1  0.61632000  0.58844000  0.18826000  1.0
  S  S145  1  0.63359000  0.66171000  0.06203000  1.0
  S  S146  1  0.01211000  0.18327000  0.11156000  1.0
  S  S147  1  0.23789000  0.06689000  0.13816000  1.0
  S  S148  1  0.27685000  0.44778000  0.84745000  1.0
  S  S149  1  0.47411000  0.30274000  0.90240000  1.0
  S  S150  1  0.95206000  0.92399000  0.85227000  1.0
  S  S151  1  0.79754000  0.82663000  0.89778000  1.0
  O  O152  1  0.00045000  0.49915000  0.50010000  1.0
  O  O153  1  0.07787000  0.31542000  0.52286000  1.0
  O  O154  1  0.03212000  0.53107000  0.58595000  1.0
  O  O155  1  0.15512000  0.50647000  0.44950000  1.0
  O  O156  1  0.02691000  0.37496000  0.58087000  1.0
  O  O157  1  0.15404000  0.39201000  0.44667000  1.0
  O  O158  1  0.08349000  0.58670000  0.53018000  1.0
  O  O159  1  0.00352000  0.65739000  0.44946000  1.0
  O  O160  1  0.88796000  0.49483000  0.44342000  1.0
  O  O161  1  0.88990000  0.65270000  0.44764000  1.0
  O  O162  1  0.99730000  0.38626000  0.44127000  1.0
  O  O163  1  0.87593000  0.52615000  0.58144000  1.0
  O  O164  1  0.81520000  0.57712000  0.52354000  1.0
  O  O165  1  0.74916000  0.25040000  0.25027000  1.0
  O  O166  1  0.59592000  0.35765000  0.30337000  1.0
  O  O167  1  0.66525000  0.16256000  0.21888000  1.0
  O  O168  1  0.72608000  0.37484000  0.16929000  1.0
  O  O169  1  0.59441000  0.24363000  0.29977000  1.0
  O  O170  1  0.67227000  0.43434000  0.22717000  1.0
  O  O171  1  0.72076000  0.21832000  0.16520000  1.0
  O  O172  1  0.87739000  0.22348000  0.16924000  1.0
  O  O173  1  0.86072000  0.25471000  0.30793000  1.0
  O  O174  1  0.93414000  0.17253000  0.22840000  1.0
  O  O175  1  0.75259000  0.36454000  0.30853000  1.0
  O  O176  1  0.74629000  0.09174000  0.29979000  1.0
  O  O177  1  0.85873000  0.09732000  0.30350000  1.0
  O  O178  1  0.25023000  0.75008000  0.74990000  1.0
  O  O179  1  0.37427000  0.72378000  0.66875000  1.0
  O  O180  1  0.36352000  0.75537000  0.80773000  1.0
  O  O181  1  0.17137000  0.93435000  0.72688000  1.0
  O  O182  1  0.43469000  0.67400000  0.72681000  1.0
  O  O183  1  0.22337000  0.87477000  0.66894000  1.0
  O  O184  1  0.25223000  0.86208000  0.80772000  1.0
  O  O185  1  0.09504000  0.85815000  0.80280000  1.0
  O  O186  1  0.16635000  0.66345000  0.71981000  1.0
  O  O187  1  0.09483000  0.74310000  0.80054000  1.0
  O  O188  1  0.21797000  0.71891000  0.66406000  1.0
  O  O189  1  0.36017000  0.59807000  0.80298000  1.0
  O  O190  1  0.24729000  0.59245000  0.80038000  1.0
  O  O191  1  0.50006000  0.00030000  0.99971000  1.0
  O  O192  1  0.50322000  0.15835000  0.95025000  1.0
  O  O193  1  0.38778000  0.99478000  0.94098000  1.0
  O  O194  1  0.65467000  0.89253000  0.94722000  1.0
  O  O195  1  0.39150000  0.15177000  0.94594000  1.0
  O  O196  1  0.65543000  0.00710000  0.95018000  1.0
  O  O197  1  0.49781000  0.88685000  0.94250000  1.0
  O  O198  1  0.57883000  0.81569000  0.02323000  1.0
  O  O199  1  0.52912000  0.03180000  0.08477000  1.0
  O  O200  1  0.52378000  0.87540000  0.08094000  1.0
  O  O201  1  0.58496000  0.08722000  0.03109000  1.0
  O  O202  1  0.31577000  0.07649000  0.02117000  1.0
  O  O203  1  0.37242000  0.02700000  0.08044000  1.0
  O  O204  1  0.28626000  0.52496000  0.40970000  1.0
  O  O205  1  0.46348000  0.22482000  0.34022000  1.0
  O  O206  1  0.77954000  0.54034000  0.65634000  1.0
  O  O207  1  0.47053000  0.70937000  0.59390000  1.0
  O  O208  1  0.04091000  0.27897000  0.65565000  1.0
  O  O209  1  0.20928000  0.97081000  0.59424000  1.0
  O  O210  1  0.78544000  0.77850000  0.40209000  1.0
  O  O211  1  0.96349000  0.97137000  0.34819000  1.0
  O  O212  1  0.70965000  0.47098000  0.09441000  1.0
  O  O213  1  0.54007000  0.77909000  0.15590000  1.0
  O  O214  1  0.09438000  0.10196000  0.21777000  1.0
  O  O215  1  0.15525000  0.14809000  0.03202000  1.0
  O  O216  1  0.46501000  0.47125000  0.84819000  1.0
  O  O217  1  0.28617000  0.27896000  0.90155000  1.0
  O  O218  1  0.96335000  0.72495000  0.84044000  1.0
  O  O219  1  0.78672000  0.02553000  0.90960000  1.0
  F  F220  1  0.78228000  0.51548000  0.39881000  1.0
  F  F221  1  0.96745000  0.23530000  0.35126000  1.0
  F  F222  1  0.16007000  0.66027000  0.54271000  1.0
  F  F223  1  0.08996000  0.58978000  0.70722000  1.0
  F  F224  1  0.70754000  0.20679000  0.09005000  1.0
  F  F225  1  0.54244000  0.04322000  0.15989000  1.0
  F  F226  1  0.23448000  0.96837000  0.85121000  1.0
  F  F227  1  0.51595000  0.78088000  0.89853000  1.0
