# generated using pymatgen
data_CdH30C30N4O5
_symmetry_space_group_name_H-M   'P 1'
_cell_length_a   9.29971000
_cell_length_b   12.43000000
_cell_length_c   12.67300000
_cell_angle_alpha   90.39020000
_cell_angle_beta   105.29200000
_cell_angle_gamma   100.96100000
_symmetry_Int_Tables_number   1
_chemical_formula_structural   CdH30C30N4O5
_chemical_formula_sum   'Cd2 H60 C60 N8 O10'
_cell_volume   1384.78267627
_cell_formula_units_Z   2
loop_
 _symmetry_equiv_pos_site_id
 _symmetry_equiv_pos_as_xyz
  1  'x, y, z'
loop_
 _atom_site_type_symbol
 _atom_site_label
 _atom_site_symmetry_multiplicity
 _atom_site_fract_x
 _atom_site_fract_y
 _atom_site_fract_z
 _atom_site_occupancy
  Cd  Cd0  1  0.75267000  0.42412000  0.12774000  1.0
  Cd  Cd1  1  0.24733000  0.57588000  0.87227000  1.0
  H  H2  1  0.63550000  0.49339000  0.90941000  1.0
  H  H3  1  0.36450000  0.50661000  0.09059000  1.0
  H  H4  1  0.82014000  0.53808000  0.93552000  1.0
  H  H5  1  0.17986000  0.46192000  0.06448000  1.0
  H  H6  1  0.80928000  0.58765000  0.33945000  1.0
  H  H7  1  0.19072000  0.41235000  0.66054000  1.0
  H  H8  1  0.96594000  0.76764000  0.42951000  1.0
  H  H9  1  0.03405000  0.23236000  0.57049000  1.0
  H  H10  1  0.21837000  0.77321000  0.18830000  1.0
  H  H11  1  0.78163000  0.22679000  0.81169000  1.0
  H  H12  1  0.04589000  0.59863000  0.10366000  1.0
  H  H13  1  0.95411000  0.40137000  0.89634000  1.0
  H  H14  1  0.32135000  0.89659000  0.36067000  1.0
  H  H15  1  0.67865000  0.10341000  0.63933000  1.0
  H  H16  1  0.16454000  0.96055000  0.31233000  1.0
  H  H17  1  0.83546000  0.03945000  0.68767000  1.0
  H  H18  1  0.39272000  0.86856000  0.56584000  1.0
  H  H19  1  0.60728000  0.13144000  0.43416000  1.0
  H  H20  1  0.22301000  0.76558000  0.52859000  1.0
  H  H21  1  0.77699000  0.23442000  0.47141000  1.0
  H  H22  1  0.11127000  0.84999000  0.65396000  1.0
  H  H23  1  0.88873000  0.15001000  0.34604000  1.0
  H  H24  1  0.28875000  0.82066000  0.72558000  1.0
  H  H25  1  0.71125000  0.17934000  0.27442000  1.0
  H  H26  1  0.28715000  0.14701000  0.65072000  1.0
  H  H27  1  0.71285000  0.85299000  0.34928000  1.0
  H  H28  1  0.10815000  0.05350000  0.61019000  1.0
  H  H29  1  0.89185000  0.94650000  0.38981000  1.0
  H  H30  1  0.20194000  0.08920000  0.45018000  1.0
  H  H31  1  0.79805000  0.91080000  0.54982000  1.0
  H  H32  1  0.38238000  0.05791000  0.51666000  1.0
  H  H33  1  0.61762000  0.94210000  0.48334000  1.0
  H  H34  1  0.26941000  0.93585000  0.85439000  1.0
  H  H35  1  0.73060000  0.06415000  0.14561000  1.0
  H  H36  1  0.13779000  0.01802000  0.79239000  1.0
  H  H37  1  0.86221000  0.98198000  0.20762000  1.0
  H  H38  1  0.37485000  0.34922000  0.00797000  1.0
  H  H39  1  0.62515000  0.65079000  0.99203000  1.0
  H  H40  1  0.18980000  0.19852000  0.88478000  1.0
  H  H41  1  0.81020000  0.80149000  0.11522000  1.0
  H  H42  1  0.56612000  0.04265000  0.88473000  1.0
  H  H43  1  0.43389000  0.95735000  0.11528000  1.0
  H  H44  1  0.73627000  0.19975000  0.00932000  1.0
  H  H45  1  0.26373000  0.80025000  0.99068000  1.0
  H  H46  1  0.98415000  0.11410000  0.06640000  1.0
  H  H47  1  0.01585000  0.88590000  0.93360000  1.0
  H  H48  1  0.17819000  0.99671000  0.10038000  1.0
  H  H49  1  0.82181000  0.00328000  0.89962000  1.0
  H  H50  1  0.43273000  0.06491000  0.23653000  1.0
  H  H51  1  0.56727000  0.93509000  0.76347000  1.0
  H  H52  1  0.48779000  0.24871000  0.32943000  1.0
  H  H53  1  0.51222000  0.75129000  0.67057000  1.0
  H  H54  1  0.10445000  0.36252000  0.37013000  1.0
  H  H55  1  0.89556000  0.63748000  0.62987000  1.0
  H  H56  1  0.16398000  0.54049000  0.47856000  1.0
  H  H57  1  0.83602000  0.45950000  0.52144000  1.0
  H  H58  1  0.39760000  0.67720000  0.47931000  1.0
  H  H59  1  0.60239000  0.32280000  0.52069000  1.0
  H  H60  1  0.57179000  0.63463000  0.37383000  1.0
  H  H61  1  0.42820000  0.36537000  0.62617000  1.0
  C  C62  1  0.89849000  0.63334000  0.30674000  1.0
  C  C63  1  0.10151000  0.36666000  0.69326000  1.0
  C  C64  1  0.98678000  0.73260000  0.35724000  1.0
  C  C65  1  0.01322000  0.26740000  0.64276000  1.0
  C  C66  1  0.10403000  0.78687000  0.31522000  1.0
  C  C67  1  0.89597000  0.21313000  0.68478000  1.0
  C  C68  1  0.12586000  0.73689000  0.22294000  1.0
  C  C69  1  0.87414000  0.26311000  0.77706000  1.0
  C  C70  1  0.03102000  0.63837000  0.17575000  1.0
  C  C71  1  0.96898000  0.36163000  0.82425000  1.0
  C  C72  1  0.20290000  0.89556000  0.36495000  1.0
  C  C73  1  0.79710000  0.10444000  0.63505000  1.0
  C  C74  1  0.26778000  0.85242000  0.55580000  1.0
  C  C75  1  0.73222000  0.14758000  0.44420000  1.0
  C  C76  1  0.23573000  0.87335000  0.66437000  1.0
  C  C77  1  0.76427000  0.12665000  0.33563000  1.0
  C  C78  1  0.23254000  0.06161000  0.62144000  1.0
  C  C79  1  0.76746000  0.93839000  0.37856000  1.0
  C  C80  1  0.25858000  0.03708000  0.51080000  1.0
  C  C81  1  0.74142000  0.96292000  0.48920000  1.0
  C  C82  1  0.25794000  0.00907000  0.80688000  1.0
  C  C83  1  0.74206000  0.99093000  0.19312000  1.0
  C  C84  1  0.41313000  0.27947000  0.97963000  1.0
  C  C85  1  0.58688000  0.72054000  0.02037000  1.0
  C  C86  1  0.31038000  0.19516000  0.91010000  1.0
  C  C87  1  0.68962000  0.80484000  0.08990000  1.0
  C  C88  1  0.36278000  0.10696000  0.87504000  1.0
  C  C89  1  0.63722000  0.89304000  0.12496000  1.0
  C  C90  1  0.51949000  0.10936000  0.90994000  1.0
  C  C91  1  0.48051000  0.89064000  0.09006000  1.0
  C  C92  1  0.61413000  0.19602000  0.97901000  1.0
  C  C93  1  0.38588000  0.80398000  0.02099000  1.0
  C  C94  1  0.00773000  0.31697000  0.14922000  1.0
  C  C95  1  0.99227000  0.68303000  0.85078000  1.0
  C  C96  1  0.12745000  0.24794000  0.17655000  1.0
  C  C97  1  0.87255000  0.75206000  0.82344000  1.0
  C  C98  1  0.09567000  0.14344000  0.12367000  1.0
  C  C99  1  0.90433000  0.85656000  0.87633000  1.0
  C  C100  1  0.20472000  0.07764000  0.14298000  1.0
  C  C101  1  0.79528000  0.92236000  0.85701000  1.0
  C  C102  1  0.34633000  0.11561000  0.21753000  1.0
  C  C103  1  0.65367000  0.88439000  0.78246000  1.0
  C  C104  1  0.37778000  0.21908000  0.27102000  1.0
  C  C105  1  0.62222000  0.78092000  0.72898000  1.0
  C  C106  1  0.27044000  0.28728000  0.25156000  1.0
  C  C107  1  0.72956000  0.71272000  0.74844000  1.0
  C  C108  1  0.30650000  0.39572000  0.31279000  1.0
  C  C109  1  0.69350000  0.60428000  0.68721000  1.0
  C  C110  1  0.20749000  0.42228000  0.37137000  1.0
  C  C111  1  0.79251000  0.57772000  0.62863000  1.0
  C  C112  1  0.23968000  0.52236000  0.43121000  1.0
  C  C113  1  0.76031000  0.47763000  0.56879000  1.0
  C  C114  1  0.37096000  0.59906000  0.43204000  1.0
  C  C115  1  0.62903000  0.40094000  0.56796000  1.0
  C  C116  1  0.46942000  0.57470000  0.37373000  1.0
  C  C117  1  0.53057000  0.42531000  0.62628000  1.0
  C  C118  1  0.43965000  0.47318000  0.31535000  1.0
  C  C119  1  0.56035000  0.52682000  0.68465000  1.0
  C  C120  1  0.55124000  0.45299000  0.25389000  1.0
  C  C121  1  0.44875000  0.54701000  0.74611000  1.0
  N  N122  1  0.91848000  0.58685000  0.21686000  1.0
  N  N123  1  0.08152000  0.41315000  0.78314000  1.0
  N  N124  1  0.19505000  0.92201000  0.47457000  1.0
  N  N125  1  0.80495000  0.07799000  0.52543000  1.0
  N  N126  1  0.29446000  0.98841000  0.70407000  1.0
  N  N127  1  0.70554000  0.01159000  0.29593000  1.0
  N  N128  1  0.56246000  0.27943000  0.01501000  1.0
  N  N129  1  0.43754000  0.72057000  0.98499000  1.0
  O  O130  1  0.88806000  0.28551000  0.18101000  1.0
  O  O131  1  0.11194000  0.71449000  0.81899000  1.0
  O  O132  1  0.02731000  0.40065000  0.09449000  1.0
  O  O133  1  0.97269000  0.59935000  0.90551000  1.0
  O  O134  1  0.65921000  0.40593000  0.29845000  1.0
  O  O135  1  0.34079000  0.59408000  0.70155000  1.0
  O  O136  1  0.53474000  0.48962000  0.15781000  1.0
  O  O137  1  0.46526000  0.51039000  0.84220000  1.0
  O  O138  1  0.73708000  0.48942000  0.95934000  1.0
  O  O139  1  0.26292000  0.51058000  0.04066000  1.0
