# generated using pymatgen
data_FeH2(CO2)2
_symmetry_space_group_name_H-M   'P 1'
_cell_length_a   9.74507000
_cell_length_b   11.43310000
_cell_length_c   14.38390000
_cell_angle_alpha   91.20360000
_cell_angle_beta   89.99850000
_cell_angle_gamma   89.99720000
_symmetry_Int_Tables_number   1
_chemical_formula_structural   FeH2(CO2)2
_chemical_formula_sum   'Fe12 H24 C24 O48'
_cell_volume   1602.24818646
_cell_formula_units_Z   12
loop_
 _symmetry_equiv_pos_site_id
 _symmetry_equiv_pos_as_xyz
  1  'x, y, z'
loop_
 _atom_site_type_symbol
 _atom_site_label
 _atom_site_symmetry_multiplicity
 _atom_site_fract_x
 _atom_site_fract_y
 _atom_site_fract_z
 _atom_site_occupancy
  Fe  Fe0  1  0.91890000  0.75063000  0.64132000  1.0
  Fe  Fe1  1  0.41890000  0.74940000  0.85867000  1.0
  Fe  Fe2  1  0.08111000  0.24936000  0.35868000  1.0
  Fe  Fe3  1  0.58110000  0.25059000  0.14133000  1.0
  Fe  Fe4  1  0.60680000  0.76272000  0.68950000  1.0
  Fe  Fe5  1  0.10680000  0.73732000  0.81050000  1.0
  Fe  Fe6  1  0.39320000  0.23730000  0.31050000  1.0
  Fe  Fe7  1  0.89318000  0.26266000  0.18950000  1.0
  Fe  Fe8  1  0.99998000  0.50001000  0.50000000  1.0
  Fe  Fe9  1  0.50001000  0.00001000  0.00000000  1.0
  Fe  Fe10  1  0.00001000  0.99999000  0.50000000  1.0
  Fe  Fe11  1  0.50001000  0.50000000  0.00000000  1.0
  H  H12  1  0.17473000  0.69059000  0.42518000  1.0
  H  H13  1  0.67477000  0.80937000  0.07479000  1.0
  H  H14  1  0.82525000  0.30939000  0.57480000  1.0
  H  H15  1  0.32522000  0.19063000  0.92522000  1.0
  H  H16  1  0.70217000  0.99692000  0.49706000  1.0
  H  H17  1  0.20218000  0.50312000  0.00291000  1.0
  H  H18  1  0.29786000  0.00309000  0.50293000  1.0
  H  H19  1  0.79785000  0.49687000  0.99709000  1.0
  H  H20  1  0.73989000  0.87027000  0.88093000  1.0
  H  H21  1  0.23991000  0.62978000  0.61906000  1.0
  H  H22  1  0.26013000  0.12975000  0.11908000  1.0
  H  H23  1  0.76008000  0.37021000  0.38093000  1.0
  H  H24  1  0.59407000  0.55676000  0.53960000  1.0
  H  H25  1  0.09407000  0.94334000  0.96037000  1.0
  H  H26  1  0.40590000  0.44328000  0.46038000  1.0
  H  H27  1  0.90595000  0.05665000  0.03963000  1.0
  H  H28  1  0.20543000  0.98723000  0.74545000  1.0
  H  H29  1  0.70548000  0.51279000  0.75456000  1.0
  H  H30  1  0.79457000  0.01278000  0.25456000  1.0
  H  H31  1  0.29453000  0.48722000  0.24544000  1.0
  H  H32  1  0.04725000  0.46016000  0.77750000  1.0
  H  H33  1  0.54728000  0.03987000  0.72249000  1.0
  H  H34  1  0.95272000  0.53981000  0.22250000  1.0
  H  H35  1  0.45275000  0.96014000  0.27752000  1.0
  C  C36  1  0.10818000  0.74509000  0.47049000  1.0
  C  C37  1  0.60822000  0.75488000  0.02948000  1.0
  C  C38  1  0.89180000  0.25491000  0.52949000  1.0
  C  C39  1  0.39177000  0.24513000  0.97052000  1.0
  C  C40  1  0.71829000  0.92761000  0.54813000  1.0
  C  C41  1  0.21831000  0.57245000  0.95188000  1.0
  C  C42  1  0.28171000  0.07240000  0.45187000  1.0
  C  C43  1  0.78170000  0.42755000  0.04813000  1.0
  C  C44  1  0.82364000  0.83458000  0.83744000  1.0
  C  C45  1  0.32365000  0.66548000  0.66256000  1.0
  C  C46  1  0.17636000  0.16543000  0.16256000  1.0
  C  C47  1  0.67634000  0.33451000  0.33744000  1.0
  C  C48  1  0.70543000  0.57265000  0.54748000  1.0
  C  C49  1  0.20541000  0.92739000  0.95248000  1.0
  C  C50  1  0.29455000  0.42737000  0.45250000  1.0
  C  C51  1  0.79460000  0.07258000  0.04753000  1.0
  C  C52  1  0.13515000  0.95585000  0.68986000  1.0
  C  C53  1  0.63517000  0.54417000  0.81013000  1.0
  C  C54  1  0.86486000  0.04413000  0.31014000  1.0
  C  C55  1  0.36484000  0.45583000  0.18987000  1.0
  C  C56  1  0.01569000  0.50679000  0.71436000  1.0
  C  C57  1  0.51569000  0.99324000  0.78562000  1.0
  C  C58  1  0.98430000  0.49320000  0.28563000  1.0
  C  C59  1  0.48431000  0.00677000  0.21438000  1.0
  O  O60  1  0.03128000  0.68877000  0.52754000  1.0
  O  O61  1  0.53130000  0.81122000  0.97246000  1.0
  O  O62  1  0.96871000  0.31125000  0.47246000  1.0
  O  O63  1  0.46868000  0.18878000  0.02754000  1.0
  O  O64  1  0.11394000  0.85387000  0.46338000  1.0
  O  O65  1  0.61399000  0.64611000  0.03663000  1.0
  O  O66  1  0.88606000  0.14612000  0.53662000  1.0
  O  O67  1  0.38600000  0.35390000  0.96337000  1.0
  O  O68  1  0.84314000  0.89518000  0.56126000  1.0
  O  O69  1  0.34317000  0.60482000  0.93873000  1.0
  O  O70  1  0.15685000  0.10481000  0.43876000  1.0
  O  O71  1  0.65684000  0.39517000  0.06126000  1.0
  O  O72  1  0.61464000  0.88780000  0.58876000  1.0
  O  O73  1  0.11466000  0.61225000  0.91123000  1.0
  O  O74  1  0.38536000  0.11222000  0.41123000  1.0
  O  O75  1  0.88536000  0.38774000  0.08877000  1.0
  O  O76  1  0.79776000  0.81827000  0.75017000  1.0
  O  O77  1  0.29778000  0.68176000  0.74983000  1.0
  O  O78  1  0.20224000  0.18173000  0.24983000  1.0
  O  O79  1  0.70222000  0.31822000  0.25017000  1.0
  O  O80  1  0.93636000  0.81363000  0.87588000  1.0
  O  O81  1  0.43637000  0.68642000  0.62411000  1.0
  O  O82  1  0.06364000  0.18636000  0.12412000  1.0
  O  O83  1  0.56362000  0.31360000  0.37589000  1.0
  O  O84  1  0.73920000  0.65192000  0.60775000  1.0
  O  O85  1  0.23919000  0.84813000  0.89221000  1.0
  O  O86  1  0.26080000  0.34809000  0.39223000  1.0
  O  O87  1  0.76081000  0.15184000  0.10781000  1.0
  O  O88  1  0.78755000  0.51304000  0.49859000  1.0
  O  O89  1  0.28755000  0.98695000  0.00140000  1.0
  O  O90  1  0.21240000  0.48694000  0.50140000  1.0
  O  O91  1  0.71248000  0.01303000  0.99860000  1.0
  O  O92  1  0.08875000  0.85089000  0.69852000  1.0
  O  O93  1  0.58876000  0.64915000  0.80148000  1.0
  O  O94  1  0.91125000  0.14911000  0.30149000  1.0
  O  O95  1  0.41124000  0.35085000  0.19851000  1.0
  O  O96  1  0.10796000  0.02278000  0.62484000  1.0
  O  O97  1  0.60799000  0.47724000  0.87514000  1.0
  O  O98  1  0.89207000  0.97722000  0.37517000  1.0
  O  O99  1  0.39205000  0.52275000  0.12487000  1.0
  O  O100  1  0.99410000  0.61730000  0.72547000  1.0
  O  O101  1  0.49409000  0.88274000  0.77451000  1.0
  O  O102  1  0.00590000  0.38269000  0.27453000  1.0
  O  O103  1  0.50591000  0.11728000  0.22550000  1.0
  O  O104  1  0.00392000  0.44992000  0.63920000  1.0
  O  O105  1  0.50394000  0.05012000  0.86078000  1.0
  O  O106  1  0.99603000  0.55008000  0.36079000  1.0
  O  O107  1  0.49607000  0.94992000  0.13922000  1.0
