# generated using pymatgen
data_ZnH14C24N5O8
_symmetry_space_group_name_H-M   'P 1'
_cell_length_a   17.15110000
_cell_length_b   17.81090000
_cell_length_c   19.23770000
_cell_angle_alpha   85.96740000
_cell_angle_beta   89.97960000
_cell_angle_gamma   89.94560000
_symmetry_Int_Tables_number   1
_chemical_formula_structural   ZnH14C24N5O8
_chemical_formula_sum   'Zn2 H28 C48 N10 O16'
_cell_volume   5862.11343911
_cell_formula_units_Z   2
loop_
 _symmetry_equiv_pos_site_id
 _symmetry_equiv_pos_as_xyz
  1  'x, y, z'
loop_
 _atom_site_type_symbol
 _atom_site_label
 _atom_site_symmetry_multiplicity
 _atom_site_fract_x
 _atom_site_fract_y
 _atom_site_fract_z
 _atom_site_occupancy
  Zn  Zn0  1  0.58433000  0.50175000  0.49772000  1.0
  Zn  Zn1  1  0.41448000  0.50305000  0.49862000  1.0
  H  H2  1  0.62125000  0.49180000  0.27987000  1.0
  H  H3  1  0.37471000  0.87300000  0.54856000  1.0
  H  H4  1  0.62572000  0.87977000  0.54439000  1.0
  H  H5  1  0.37543000  0.12327000  0.51628000  1.0
  H  H6  1  0.86716000  0.54988000  0.39059000  1.0
  H  H7  1  0.13037000  0.45594000  0.60437000  1.0
  H  H8  1  0.86868000  0.45376000  0.60354000  1.0
  H  H9  1  0.13228000  0.54620000  0.38958000  1.0
  H  H10  1  0.69420000  0.23168000  0.50742000  1.0
  H  H11  1  0.64765000  0.31903000  0.49006000  1.0
  H  H12  1  0.31227000  0.75978000  0.53603000  1.0
  H  H13  1  0.36977000  0.50121000  0.72368000  1.0
  H  H14  1  0.36211000  0.67670000  0.51857000  1.0
  H  H15  1  0.69452000  0.76800000  0.53718000  1.0
  H  H16  1  0.64826000  0.68081000  0.52461000  1.0
  H  H17  1  0.31290000  0.23825000  0.49997000  1.0
  H  H18  1  0.36232000  0.32421000  0.49264000  1.0
  H  H19  1  0.64743000  0.64434000  0.35064000  1.0
  H  H20  1  0.34612000  0.35994000  0.65086000  1.0
  H  H21  1  0.64880000  0.36033000  0.64710000  1.0
  H  H22  1  0.34962000  0.64377000  0.34931000  1.0
  H  H23  1  0.62045000  0.49290000  0.71843000  1.0
  H  H24  1  0.37050000  0.48348000  0.27732000  1.0
  H  H25  1  0.62423000  0.47047000  0.15337000  1.0
  H  H26  1  0.37292000  0.48437000  0.85319000  1.0
  H  H27  1  0.62386000  0.47770000  0.84787000  1.0
  H  H28  1  0.37328000  0.46280000  0.15058000  1.0
  H  H29  1  0.62646000  0.11832000  0.52196000  1.0
  C  C30  1  0.50614000  0.64784000  0.51227000  1.0
  C  C31  1  0.15976000  0.47564000  0.55637000  1.0
  C  C32  1  0.83932000  0.47456000  0.55586000  1.0
  C  C33  1  0.16079000  0.52653000  0.43802000  1.0
  C  C34  1  0.75739000  0.53006000  0.44209000  1.0
  C  C35  1  0.24087000  0.47416000  0.55398000  1.0
  C  C36  1  0.75827000  0.47294000  0.55312000  1.0
  C  C37  1  0.24180000  0.52859000  0.44189000  1.0
  C  C38  1  0.88180000  0.50161000  0.49689000  1.0
  C  C39  1  0.11732000  0.50105000  0.49687000  1.0
  C  C40  1  0.96401000  0.50148000  0.49652000  1.0
  C  C41  1  0.50590000  0.35502000  0.49411000  1.0
  C  C42  1  0.03513000  0.50117000  0.49648000  1.0
  C  C43  1  0.49381000  0.50285000  0.36273000  1.0
  C  C44  1  0.49273000  0.49583000  0.63454000  1.0
  C  C45  1  0.56709000  0.48571000  0.25140000  1.0
  C  C46  1  0.42521000  0.49526000  0.75095000  1.0
  C  C47  1  0.56634000  0.49068000  0.74798000  1.0
  C  C48  1  0.42584000  0.48094000  0.24993000  1.0
  C  C49  1  0.56887000  0.47391000  0.18075000  1.0
  C  C50  1  0.42691000  0.48636000  0.82328000  1.0
  C  C51  1  0.56841000  0.48250000  0.82032000  1.0
  C  C52  1  0.50431000  0.27203000  0.49746000  1.0
  C  C53  1  0.42729000  0.46946000  0.17926000  1.0
  C  C54  1  0.49888000  0.46601000  0.14389000  1.0
  C  C55  1  0.49850000  0.47796000  0.85860000  1.0
  C  C56  1  0.49564000  0.48981000  0.28653000  1.0
  C  C57  1  0.49478000  0.49489000  0.71257000  1.0
  C  C58  1  0.49981000  0.46266000  0.93446000  1.0
  C  C59  1  0.50006000  0.45562000  0.06901000  1.0
  C  C60  1  0.57230000  0.15030000  0.51684000  1.0
  C  C61  1  0.43038000  0.84403000  0.54460000  1.0
  C  C62  1  0.57171000  0.84778000  0.54250000  1.0
  C  C63  1  0.50416000  0.72770000  0.52761000  1.0
  C  C64  1  0.43093000  0.15311000  0.51364000  1.0
  C  C65  1  0.57515000  0.22872000  0.50219000  1.0
  C  C66  1  0.43140000  0.76628000  0.53600000  1.0
  C  C67  1  0.57486000  0.77007000  0.53377000  1.0
  C  C68  1  0.43168000  0.23163000  0.50011000  1.0
  C  C69  1  0.71811000  0.56625000  0.37817000  1.0
  C  C70  1  0.27741000  0.43849000  0.61951000  1.0
  C  C71  1  0.72026000  0.43729000  0.61785000  1.0
  C  C72  1  0.28001000  0.56504000  0.37754000  1.0
  C  C73  1  0.50070000  0.11264000  0.52329000  1.0
  C  C74  1  0.49999000  0.88512000  0.54555000  1.0
  C  C75  1  0.49905000  0.03338000  0.53678000  1.0
  C  C76  1  0.49850000  0.96478000  0.54474000  1.0
  C  C77  1  0.83844000  0.52873000  0.43848000  1.0
  N  N78  1  0.43154000  0.44416000  0.03635000  1.0
  N  N79  1  0.36197000  0.26766000  0.48761000  1.0
  N  N80  1  0.56945000  0.45509000  0.96746000  1.0
  N  N81  1  0.43140000  0.44755000  0.96786000  1.0
  N  N82  1  0.56962000  0.45132000  0.03604000  1.0
  N  N83  1  0.71574000  0.50140000  0.49782000  1.0
  N  N84  1  0.28349000  0.50164000  0.49832000  1.0
  N  N85  1  0.64650000  0.26173000  0.49197000  1.0
  N  N86  1  0.36179000  0.72894000  0.53693000  1.0
  N  N87  1  0.64632000  0.73738000  0.52910000  1.0
  O  O88  1  0.57213000  0.61289000  0.51340000  1.0
  O  O89  1  0.67594000  0.62661000  0.39285000  1.0
  O  O90  1  0.26020000  0.45825000  0.67694000  1.0
  O  O91  1  0.32193000  0.37891000  0.60687000  1.0
  O  O92  1  0.73428000  0.45856000  0.67541000  1.0
  O  O93  1  0.67688000  0.37742000  0.60446000  1.0
  O  O94  1  0.26546000  0.54583000  0.31940000  1.0
  O  O95  1  0.32329000  0.62475000  0.39225000  1.0
  O  O96  1  0.44164000  0.39070000  0.50228000  1.0
  O  O97  1  0.57158000  0.38968000  0.48550000  1.0
  O  O98  1  0.44215000  0.61518000  0.49674000  1.0
  O  O99  1  0.55845000  0.51629000  0.39218000  1.0
  O  O100  1  0.42635000  0.50455000  0.60500000  1.0
  O  O101  1  0.55720000  0.48560000  0.60354000  1.0
  O  O102  1  0.42730000  0.50000000  0.39271000  1.0
  O  O103  1  0.73028000  0.54510000  0.32025000  1.0
