# generated using pymatgen
data_ZnP2H18C18(NO3)2
_symmetry_space_group_name_H-M   'P 1'
_cell_length_a   9.20443000
_cell_length_b   9.84358000
_cell_length_c   12.13020000
_cell_angle_alpha   88.31580000
_cell_angle_beta   79.00290000
_cell_angle_gamma   65.50160000
_symmetry_Int_Tables_number   1
_chemical_formula_structural   ZnP2H18C18(NO3)2
_chemical_formula_sum   'Zn2 P4 H36 C36 N4 O12'
_cell_volume   980.22022540
_cell_formula_units_Z   2
loop_
 _symmetry_equiv_pos_site_id
 _symmetry_equiv_pos_as_xyz
  1  'x, y, z'
loop_
 _atom_site_type_symbol
 _atom_site_label
 _atom_site_symmetry_multiplicity
 _atom_site_fract_x
 _atom_site_fract_y
 _atom_site_fract_z
 _atom_site_occupancy
  Zn  Zn0  1  0.32552000  0.41328000  0.15607000  1.0
  Zn  Zn1  1  0.67449000  0.58672000  0.84392000  1.0
  P  P2  1  0.32201000  0.70812000  0.02431000  1.0
  P  P3  1  0.67799000  0.29188000  0.97568000  1.0
  P  P4  1  0.33655000  0.52149000  0.39786000  1.0
  P  P5  1  0.66345000  0.47850000  0.60214000  1.0
  H  H6  1  0.36955000  0.67224000  0.19408000  1.0
  H  H7  1  0.63045000  0.32776000  0.80592000  1.0
  H  H8  1  0.41906000  0.64172000  0.51036000  1.0
  H  H9  1  0.58095000  0.35827000  0.48964000  1.0
  H  H10  1  0.38759000  0.99079000  0.94253000  1.0
  H  H11  1  0.61241000  0.00921000  0.05747000  1.0
  H  H12  1  0.34291000  0.99410000  0.09004000  1.0
  H  H13  1  0.65708000  0.00590000  0.90996000  1.0
  H  H14  1  0.26348000  0.16380000  0.01979000  1.0
  H  H15  1  0.73652000  0.83620000  0.98021000  1.0
  H  H16  1  0.00642000  0.74781000  0.00011000  1.0
  H  H17  1  0.99358000  0.25219000  0.99989000  1.0
  H  H18  1  0.73508000  0.69810000  0.47715000  1.0
  H  H19  1  0.26492000  0.30190000  0.52285000  1.0
  H  H20  1  0.85962000  0.85295000  0.39520000  1.0
  H  H21  1  0.14039000  0.14704000  0.60480000  1.0
  H  H22  1  0.02296000  0.74083000  0.28616000  1.0
  H  H23  1  0.97704000  0.25916000  0.71384000  1.0
  H  H24  1  0.06522000  0.81163000  0.40206000  1.0
  H  H25  1  0.93478000  0.18837000  0.59794000  1.0
  H  H26  1  0.59387000  0.14445000  0.25009000  1.0
  H  H27  1  0.40613000  0.85555000  0.74991000  1.0
  H  H28  1  0.61555000  0.90941000  0.34893000  1.0
  H  H29  1  0.38445000  0.09059000  0.65107000  1.0
  H  H30  1  0.36311000  0.86103000  0.40041000  1.0
  H  H31  1  0.63688000  0.13898000  0.59959000  1.0
  H  H32  1  0.10447000  0.04663000  0.35457000  1.0
  H  H33  1  0.89553000  0.95337000  0.64543000  1.0
  H  H34  1  0.89094000  0.22648000  0.32869000  1.0
  H  H35  1  0.10906000  0.77353000  0.67131000  1.0
  H  H36  1  0.66007000  0.42180000  0.25851000  1.0
  H  H37  1  0.33993000  0.57820000  0.74149000  1.0
  H  H38  1  0.70720000  0.62047000  0.14213000  1.0
  H  H39  1  0.29280000  0.37954000  0.85786000  1.0
  H  H40  1  0.99321000  0.60857000  0.10000000  1.0
  H  H41  1  0.00678000  0.39144000  0.90001000  1.0
  C  C42  1  0.29126000  0.04415000  0.01658000  1.0
  C  C43  1  0.70874000  0.95585000  0.98342000  1.0
  C  C44  1  0.14269000  0.01902000  0.01050000  1.0
  C  C45  1  0.85730000  0.98097000  0.98950000  1.0
  C  C46  1  0.14252000  0.87569000  0.01324000  1.0
  C  C47  1  0.85748000  0.12431000  0.98675000  1.0
  C  C48  1  0.00157000  0.86019000  0.00172000  1.0
  C  C49  1  0.99843000  0.13981000  0.99828000  1.0
  C  C50  1  0.85317000  0.61131000  0.48597000  1.0
  C  C51  1  0.14683000  0.38869000  0.51403000  1.0
  C  C52  1  0.98476000  0.76600000  0.37762000  1.0
  C  C53  1  0.01525000  0.23400000  0.62238000  1.0
  C  C54  1  0.99525000  0.62866000  0.43999000  1.0
  C  C55  1  0.00475000  0.37134000  0.56001000  1.0
  C  C56  1  0.14449000  0.51375000  0.45498000  1.0
  C  C57  1  0.85551000  0.48624000  0.54503000  1.0
  C  C58  1  0.48895000  0.11806000  0.27630000  1.0
  C  C59  1  0.51105000  0.88194000  0.72369000  1.0
  C  C60  1  0.49932000  0.98887000  0.33109000  1.0
  C  C61  1  0.50068000  0.01112000  0.66891000  1.0
  C  C62  1  0.35943000  0.96266000  0.36032000  1.0
  C  C63  1  0.64057000  0.03734000  0.63968000  1.0
  C  C64  1  0.21407000  0.06669000  0.33462000  1.0
  C  C65  1  0.78593000  0.93331000  0.66538000  1.0
  C  C66  1  0.21235000  0.19445000  0.28018000  1.0
  C  C67  1  0.78765000  0.80555000  0.71982000  1.0
  C  C68  1  0.06562000  0.31018000  0.24667000  1.0
  C  C69  1  0.93438000  0.68983000  0.75333000  1.0
  C  C70  1  0.91075000  0.31091000  0.27589000  1.0
  C  C71  1  0.08925000  0.68910000  0.72411000  1.0
  C  C72  1  0.78035000  0.42216000  0.23811000  1.0
  C  C73  1  0.21964000  0.57785000  0.76189000  1.0
  C  C74  1  0.80639000  0.53271000  0.17381000  1.0
  C  C75  1  0.19361000  0.46730000  0.82619000  1.0
  C  C76  1  0.96322000  0.52624000  0.14914000  1.0
  C  C77  1  0.03677000  0.47377000  0.85086000  1.0
  N  N78  1  0.34893000  0.21752000  0.25156000  1.0
  N  N79  1  0.65107000  0.78249000  0.74844000  1.0
  N  N80  1  0.08972000  0.41736000  0.18350000  1.0
  N  N81  1  0.91027000  0.58265000  0.81650000  1.0
  O  O82  1  0.44469000  0.69928000  0.91840000  1.0
  O  O83  1  0.55532000  0.30072000  0.08160000  1.0
  O  O84  1  0.38839000  0.73571000  0.13045000  1.0
  O  O85  1  0.61161000  0.26429000  0.86955000  1.0
  O  O86  1  0.27096000  0.57915000  0.04365000  1.0
  O  O87  1  0.72904000  0.42085000  0.95635000  1.0
  O  O88  1  0.47366000  0.37724000  0.42042000  1.0
  O  O89  1  0.52635000  0.62276000  0.57959000  1.0
  O  O90  1  0.33311000  0.66401000  0.45567000  1.0
  O  O91  1  0.66689000  0.33599000  0.54433000  1.0
  O  O92  1  0.34015000  0.54957000  0.27205000  1.0
  O  O93  1  0.65985000  0.45042000  0.72795000  1.0
