# generated using pymatgen
data_AgH4C6NO2
_symmetry_space_group_name_H-M   'P 1'
_cell_length_a   3.58454000
_cell_length_b   7.78653000
_cell_length_c   20.15700000
_cell_angle_alpha   90.00060000
_cell_angle_beta   89.99880000
_cell_angle_gamma   89.99990000
_symmetry_Int_Tables_number   1
_chemical_formula_structural   AgH4C6NO2
_chemical_formula_sum   'Ag4 H16 C24 N4 O8'
_cell_volume   562.60461190
_cell_formula_units_Z   4
loop_
 _symmetry_equiv_pos_site_id
 _symmetry_equiv_pos_as_xyz
  1  'x, y, z'
loop_
 _atom_site_type_symbol
 _atom_site_label
 _atom_site_symmetry_multiplicity
 _atom_site_fract_x
 _atom_site_fract_y
 _atom_site_fract_z
 _atom_site_occupancy
  Ag  Ag0  1  0.12571000  0.81176000  0.05115000  1.0
  Ag  Ag1  1  0.37425000  0.18825000  0.55115000  1.0
  Ag  Ag2  1  0.62573000  0.68824000  0.94885000  1.0
  Ag  Ag3  1  0.87427000  0.31177000  0.44885000  1.0
  H  H4  1  0.94897000  0.31675000  0.96399000  1.0
  H  H5  1  0.55102000  0.68326000  0.46399000  1.0
  H  H6  1  0.44895000  0.18325000  0.03600000  1.0
  H  H7  1  0.05104000  0.81676000  0.53601000  1.0
  H  H8  1  0.39769000  0.10740000  0.78370000  1.0
  H  H9  1  0.10231000  0.89258000  0.28370000  1.0
  H  H10  1  0.89767000  0.39259000  0.21630000  1.0
  H  H11  1  0.60234000  0.60741000  0.71630000  1.0
  H  H12  1  0.30751000  0.39587000  0.73070000  1.0
  H  H13  1  0.19250000  0.60412000  0.23070000  1.0
  H  H14  1  0.80750000  0.10412000  0.26930000  1.0
  H  H15  1  0.69251000  0.89588000  0.76930000  1.0
  H  H16  1  0.07177000  0.63883000  0.80257000  1.0
  H  H17  1  0.42827000  0.36116000  0.30258000  1.0
  H  H18  1  0.57173000  0.86116000  0.19742000  1.0
  H  H19  1  0.92823000  0.13884000  0.69743000  1.0
  C  C20  1  0.03702000  0.33013000  0.91263000  1.0
  C  C21  1  0.46299000  0.66987000  0.41263000  1.0
  C  C22  1  0.53697000  0.16987000  0.08737000  1.0
  C  C23  1  0.96301000  0.83014000  0.58737000  1.0
  C  C24  1  0.18513000  0.18997000  0.87809000  1.0
  C  C25  1  0.31488000  0.81003000  0.37808000  1.0
  C  C26  1  0.68509000  0.31003000  0.12192000  1.0
  C  C27  1  0.81489000  0.68997000  0.62192000  1.0
  C  C28  1  0.23740000  0.02116000  0.91332000  1.0
  C  C29  1  0.26262000  0.97884000  0.41332000  1.0
  C  C30  1  0.73734000  0.47883000  0.08667000  1.0
  C  C31  1  0.76264000  0.52117000  0.58668000  1.0
  C  C32  1  0.28485000  0.21432000  0.81186000  1.0
  C  C33  1  0.21517000  0.78568000  0.31186000  1.0
  C  C34  1  0.78483000  0.28568000  0.18813000  1.0
  C  C35  1  0.71517000  0.71433000  0.68814000  1.0
  C  C36  1  0.23678000  0.37512000  0.78281000  1.0
  C  C37  1  0.26323000  0.62487000  0.28281000  1.0
  C  C38  1  0.73674000  0.12487000  0.21719000  1.0
  C  C39  1  0.76323000  0.87514000  0.71720000  1.0
  C  C40  1  0.09950000  0.50865000  0.82185000  1.0
  C  C41  1  0.40054000  0.49134000  0.32186000  1.0
  C  C42  1  0.59945000  0.99134000  0.17814000  1.0
  C  C43  1  0.90052000  0.00867000  0.67814000  1.0
  N  N44  1  0.99757000  0.48674000  0.88559000  1.0
  N  N45  1  0.50243000  0.51325000  0.38559000  1.0
  N  N46  1  0.49755000  0.01324000  0.11441000  1.0
  N  N47  1  0.00243000  0.98676000  0.61441000  1.0
  O  O48  1  0.09754000  0.01400000  0.97118000  1.0
  O  O49  1  0.40245000  0.98601000  0.47118000  1.0
  O  O50  1  0.59754000  0.48600000  0.02882000  1.0
  O  O51  1  0.90247000  0.51400000  0.52882000  1.0
  O  O52  1  0.41784000  0.90353000  0.88332000  1.0
  O  O53  1  0.08218000  0.09647000  0.38332000  1.0
  O  O54  1  0.91781000  0.59648000  0.11668000  1.0
  O  O55  1  0.58217000  0.40353000  0.61668000  1.0
