# generated using pymatgen
data_Zn3H8C16(NO7)2
_symmetry_space_group_name_H-M   'P 1'
_cell_length_a   6.21393000
_cell_length_b   8.88555000
_cell_length_c   8.88549000
_cell_angle_alpha   70.49650000
_cell_angle_beta   88.07250000
_cell_angle_gamma   88.07340000
_symmetry_Int_Tables_number   1
_chemical_formula_structural   Zn3H8C16(NO7)2
_chemical_formula_sum   'Zn3 H8 C16 N2 O14'
_cell_volume   462.06250341
_cell_formula_units_Z   1
loop_
 _symmetry_equiv_pos_site_id
 _symmetry_equiv_pos_as_xyz
  1  'x, y, z'
loop_
 _atom_site_type_symbol
 _atom_site_label
 _atom_site_symmetry_multiplicity
 _atom_site_fract_x
 _atom_site_fract_y
 _atom_site_fract_z
 _atom_site_occupancy
  Zn  Zn0  1  0.50001000  0.14532000  0.85468000  1.0
  Zn  Zn1  1  0.49999000  0.85468000  0.14532000  1.0
  Zn  Zn2  1  0.00000000  0.00000000  0.00000000  1.0
  H  H3  1  0.29487000  0.11692000  0.11692000  1.0
  H  H4  1  0.70512000  0.88308000  0.88308000  1.0
  H  H5  1  0.77176000  0.09641000  0.51766000  1.0
  H  H6  1  0.77175000  0.51763000  0.09643000  1.0
  H  H7  1  0.22825000  0.90358000  0.48235000  1.0
  H  H8  1  0.22824000  0.48237000  0.90357000  1.0
  H  H9  1  0.28471000  0.43116000  0.43117000  1.0
  H  H10  1  0.71529000  0.56883000  0.56883000  1.0
  C  C11  1  0.14582000  0.16079000  0.64619000  1.0
  C  C12  1  0.14580000  0.64619000  0.16079000  1.0
  C  C13  1  0.85420000  0.83921000  0.35380000  1.0
  C  C14  1  0.85419000  0.35382000  0.83921000  1.0
  C  C15  1  0.04112000  0.25324000  0.49129000  1.0
  C  C16  1  0.04110000  0.49129000  0.25324000  1.0
  C  C17  1  0.95889000  0.74677000  0.50871000  1.0
  C  C18  1  0.95889000  0.50871000  0.74676000  1.0
  C  C19  1  0.84966000  0.20546000  0.44491000  1.0
  C  C20  1  0.84966000  0.44490000  0.20548000  1.0
  C  C21  1  0.15034000  0.79454000  0.55509000  1.0
  C  C22  1  0.15033000  0.55511000  0.79453000  1.0
  C  C23  1  0.76037000  0.30139000  0.30142000  1.0
  C  C24  1  0.23962000  0.69860000  0.69859000  1.0
  C  C25  1  0.13602000  0.39425000  0.39425000  1.0
  C  C26  1  0.86398000  0.60576000  0.60575000  1.0
  N  N27  1  0.56695000  0.24740000  0.24741000  1.0
  N  N28  1  0.43305000  0.75261000  0.75259000  1.0
  O  O29  1  0.31087000  0.04946000  0.04945000  1.0
  O  O30  1  0.68913000  0.95054000  0.95054000  1.0
  O  O31  1  0.33226000  0.20988000  0.66279000  1.0
  O  O32  1  0.33225000  0.66279000  0.20988000  1.0
  O  O33  1  0.66775000  0.79012000  0.33720000  1.0
  O  O34  1  0.66775000  0.33721000  0.79012000  1.0
  O  O35  1  0.04653000  0.04808000  0.74752000  1.0
  O  O36  1  0.04651000  0.74752000  0.04809000  1.0
  O  O37  1  0.95349000  0.95191000  0.25248000  1.0
  O  O38  1  0.95347000  0.25248000  0.95191000  1.0
  O  O39  1  0.48947000  0.11830000  0.33167000  1.0
  O  O40  1  0.48946000  0.33166000  0.11834000  1.0
  O  O41  1  0.51053000  0.88169000  0.66833000  1.0
  O  O42  1  0.51054000  0.66834000  0.88166000  1.0
