# generated using pymatgen
data_CdH12C16O5
_symmetry_space_group_name_H-M   'P 1'
_cell_length_a   4.97717000
_cell_length_b   8.49430000
_cell_length_c   15.94290000
_cell_angle_alpha   99.78480000
_cell_angle_beta   94.11800000
_cell_angle_gamma   92.79170000
_symmetry_Int_Tables_number   1
_chemical_formula_structural   CdH12C16O5
_chemical_formula_sum   'Cd2 H24 C32 O10'
_cell_volume   661.23399093
_cell_formula_units_Z   2
loop_
 _symmetry_equiv_pos_site_id
 _symmetry_equiv_pos_as_xyz
  1  'x, y, z'
loop_
 _atom_site_type_symbol
 _atom_site_label
 _atom_site_symmetry_multiplicity
 _atom_site_fract_x
 _atom_site_fract_y
 _atom_site_fract_z
 _atom_site_occupancy
  Cd  Cd0  1  0.11856000  0.24201000  0.01283000  1.0
  Cd  Cd1  1  0.88138000  0.75801000  0.98718000  1.0
  H  H2  1  0.64352000  0.35533000  0.97189000  1.0
  H  H3  1  0.56054000  0.16473000  0.95762000  1.0
  H  H4  1  0.35643000  0.64470000  0.02811000  1.0
  H  H5  1  0.43941000  0.83531000  0.04238000  1.0
  H  H6  1  0.42731000  0.90205000  0.19080000  1.0
  H  H7  1  0.50898000  0.58766000  0.80753000  1.0
  H  H8  1  0.57261000  0.09799000  0.80919000  1.0
  H  H9  1  0.49111000  0.41236000  0.19245000  1.0
  H  H10  1  0.32116000  0.88506000  0.33683000  1.0
  H  H11  1  0.37800000  0.61325000  0.65897000  1.0
  H  H12  1  0.67872000  0.11497000  0.66316000  1.0
  H  H13  1  0.62213000  0.38674000  0.34101000  1.0
  H  H14  1  0.03467000  0.18876000  0.43534000  1.0
  H  H15  1  0.03587000  0.32764000  0.57535000  1.0
  H  H16  1  0.96527000  0.81120000  0.56467000  1.0
  H  H17  1  0.96426000  0.67231000  0.42466000  1.0
  H  H18  1  0.13264000  0.20893000  0.28743000  1.0
  H  H19  1  0.15717000  0.29739000  0.72514000  1.0
  H  H20  1  0.86734000  0.79105000  0.71258000  1.0
  H  H21  1  0.84293000  0.70261000  0.27487000  1.0
  H  H22  1  0.77040000  0.09118000  0.53432000  1.0
  H  H23  1  0.74950000  0.41270000  0.47046000  1.0
  H  H24  1  0.22949000  0.90879000  0.46567000  1.0
  H  H25  1  0.25061000  0.58726000  0.52953000  1.0
  C  C26  1  0.86127000  0.06335000  0.14030000  1.0
  C  C27  1  0.89835000  0.41483000  0.86524000  1.0
  C  C28  1  0.13864000  0.93666000  0.85970000  1.0
  C  C29  1  0.10168000  0.58519000  0.13477000  1.0
  C  C30  1  0.78854000  0.05635000  0.22900000  1.0
  C  C31  1  0.83961000  0.43981000  0.77585000  1.0
  C  C32  1  0.21141000  0.94365000  0.77100000  1.0
  C  C33  1  0.16045000  0.56023000  0.22415000  1.0
  C  C34  1  0.55983000  0.96547000  0.24441000  1.0
  C  C35  1  0.62210000  0.53011000  0.75609000  1.0
  C  C36  1  0.44009000  0.03453000  0.75559000  1.0
  C  C37  1  0.37795000  0.46990000  0.24389000  1.0
  C  C38  1  0.49974000  0.95686000  0.32725000  1.0
  C  C39  1  0.54864000  0.54322000  0.67219000  1.0
  C  C40  1  0.50015000  0.04317000  0.67276000  1.0
  C  C41  1  0.45147000  0.45675000  0.32778000  1.0
  C  C42  1  0.66708000  0.03766000  0.39836000  1.0
  C  C43  1  0.69149000  0.46720000  0.60489000  1.0
  C  C44  1  0.33284000  0.96233000  0.60165000  1.0
  C  C45  1  0.30868000  0.53277000  0.39511000  1.0
  C  C46  1  0.89757000  0.12757000  0.38196000  1.0
  C  C47  1  0.91706000  0.38296000  0.62611000  1.0
  C  C48  1  0.10236000  0.87242000  0.61804000  1.0
  C  C49  1  0.08308000  0.61700000  0.37390000  1.0
  C  C50  1  0.95542000  0.13823000  0.29903000  1.0
  C  C51  1  0.98828000  0.36726000  0.71003000  1.0
  C  C52  1  0.04450000  0.86176000  0.70097000  1.0
  C  C53  1  0.01178000  0.63270000  0.28999000  1.0
  C  C54  1  0.61216000  0.03319000  0.48650000  1.0
  C  C55  1  0.61285000  0.46936000  0.51549000  1.0
  C  C56  1  0.38774000  0.96680000  0.51349000  1.0
  C  C57  1  0.38727000  0.53060000  0.48451000  1.0
  O  O58  1  0.06799000  0.15479000  0.13338000  1.0
  O  O59  1  0.05971000  0.30919000  0.87960000  1.0
  O  O60  1  0.93200000  0.84523000  0.86663000  1.0
  O  O61  1  0.94030000  0.69082000  0.12042000  1.0
  O  O62  1  0.72065000  0.97980000  0.07659000  1.0
  O  O63  1  0.76848000  0.49495000  0.92389000  1.0
  O  O64  1  0.27933000  0.02022000  0.92342000  1.0
  O  O65  1  0.23152000  0.50507000  0.07610000  1.0
  O  O66  1  0.61751000  0.26048000  0.00143000  1.0
  O  O67  1  0.38246000  0.73955000  0.99857000  1.0
