# generated using pymatgen
data_AlH8C14N2O7
_symmetry_space_group_name_H-M   'P 1'
_cell_length_a   6.66044000
_cell_length_b   11.13110000
_cell_length_c   17.68910000
_cell_angle_alpha   85.56690000
_cell_angle_beta   80.92100000
_cell_angle_gamma   72.73980000
_symmetry_Int_Tables_number   1
_chemical_formula_structural   AlH8C14N2O7
_chemical_formula_sum   'Al2 H16 C28 N4 O14'
_cell_volume   1236.04113841
_cell_formula_units_Z   2
loop_
 _symmetry_equiv_pos_site_id
 _symmetry_equiv_pos_as_xyz
  1  'x, y, z'
loop_
 _atom_site_type_symbol
 _atom_site_label
 _atom_site_symmetry_multiplicity
 _atom_site_fract_x
 _atom_site_fract_y
 _atom_site_fract_z
 _atom_site_occupancy
  Al  Al0  1  0.49095000  0.50789000  0.50416000  1.0
  Al  Al1  1  0.99439000  0.50450000  0.50305000  1.0
  H  H2  1  0.29738000  0.35693000  0.55029000  1.0
  H  H3  1  0.69111000  0.65629000  0.46168000  1.0
  H  H4  1  0.61279000  0.56278000  0.27684000  1.0
  H  H5  1  0.70880000  0.55718000  0.13407000  1.0
  H  H6  1  0.15440000  0.43986000  0.12070000  1.0
  H  H7  1  0.90917000  0.44377000  0.88475000  1.0
  H  H8  1  0.31973000  0.56684000  0.72833000  1.0
  H  H9  1  0.23700000  0.56039000  0.87126000  1.0
  H  H10  1  0.18551000  0.23838000  0.38896000  1.0
  H  H11  1  0.50116000  0.11970000  0.30568000  1.0
  H  H12  1  0.40295000  0.76926000  0.39827000  1.0
  H  H13  1  0.60940000  0.88422000  0.30944000  1.0
  H  H14  1  0.96957000  0.45391000  0.32371000  1.0
  H  H15  1  0.92324000  0.42355000  0.23343000  1.0
  H  H16  1  0.07146000  0.46191000  0.68002000  1.0
  H  H17  1  0.15327000  0.41962000  0.77000000  1.0
  C  C18  1  0.85184000  0.28085000  0.49224000  1.0
  C  C19  1  0.69091000  0.50661000  0.64175000  1.0
  C  C20  1  0.13260000  0.73210000  0.51032000  1.0
  C  C21  1  0.29533000  0.50660000  0.36386000  1.0
  C  C22  1  0.33658000  0.50170000  0.27987000  1.0
  C  C23  1  0.51673000  0.53367000  0.24148000  1.0
  C  C24  1  0.57045000  0.53057000  0.16286000  1.0
  C  C25  1  0.43759000  0.49588000  0.11839000  1.0
  C  C26  1  0.25635000  0.46572000  0.15516000  1.0
  C  C27  1  0.20094000  0.46750000  0.23557000  1.0
  C  C28  1  0.48584000  0.49427000  0.03753000  1.0
  C  C29  1  0.52668000  0.49527000  0.96777000  1.0
  C  C30  1  0.57031000  0.49896000  0.88671000  1.0
  C  C31  1  0.77994000  0.47035000  0.85022000  1.0
  C  C32  1  0.82959000  0.47479000  0.76953000  1.0
  C  C33  1  0.65681000  0.50772000  0.72570000  1.0
  C  C34  1  0.44686000  0.53807000  0.76365000  1.0
  C  C35  1  0.40023000  0.53437000  0.84254000  1.0
  C  C36  1  0.92069000  0.13958000  0.49188000  1.0
  C  C37  1  0.11070000  0.07294000  0.44498000  1.0
  C  C38  1  0.80464000  0.07299000  0.54040000  1.0
  C  C39  1  0.23241000  0.13614000  0.39228000  1.0
  C  C40  1  0.40976000  0.06918000  0.34550000  1.0
  C  C41  1  0.06257000  0.87348000  0.50451000  1.0
  C  C42  1  0.88076000  0.94107000  0.54945000  1.0
  C  C43  1  0.17747000  0.93754000  0.44918000  1.0
  C  C44  1  0.35699000  0.87163000  0.39804000  1.0
  C  C45  1  0.47145000  0.93623000  0.34788000  1.0
  N  N46  1  0.02447000  0.43425000  0.26774000  1.0
  N  N47  1  0.03587000  0.44398000  0.73691000  1.0
  N  N48  1  0.77112000  0.87435000  0.61001000  1.0
  N  N49  1  0.60739000  0.14307000  0.58915000  1.0
  O  O50  1  0.65987000  0.33659000  0.48470000  1.0
  O  O51  1  0.87180000  0.51386000  0.60675000  1.0
  O  O52  1  0.99670000  0.67806000  0.49945000  1.0
  O  O53  1  0.43326000  0.52950000  0.39904000  1.0
  O  O54  1  0.32244000  0.67954000  0.52104000  1.0
  O  O55  1  0.12002000  0.48910000  0.39792000  1.0
  O  O56  1  0.99154000  0.33236000  0.50153000  1.0
  O  O57  1  0.54178000  0.49544000  0.60765000  1.0
  O  O58  1  0.25963000  0.44630000  0.53546000  1.0
  O  O59  1  0.72769000  0.56551000  0.46955000  1.0
  O  O60  1  0.88456000  0.79206000  0.64843000  1.0
  O  O61  1  0.57461000  0.90648000  0.61786000  1.0
  O  O62  1  0.44015000  0.16896000  0.56134000  1.0
  O  O63  1  0.62838000  0.17247000  0.65261000  1.0
