# generated using pymatgen
data_Zn4H16C40O29F4
_symmetry_space_group_name_H-M   'P 1'
_cell_length_a   23.83388796
_cell_length_b   23.83420000
_cell_length_c   23.83250000
_cell_angle_alpha   66.42370000
_cell_angle_beta   72.53890321
_cell_angle_gamma   107.45809476
_symmetry_Int_Tables_number   1
_chemical_formula_structural   Zn4H16C40O29F4
_chemical_formula_sum   'Zn8 H32 C80 O58 F8'
_cell_volume   10381.11561715
_cell_formula_units_Z   2
loop_
 _symmetry_equiv_pos_site_id
 _symmetry_equiv_pos_as_xyz
  1  'x, y, z'
loop_
 _atom_site_type_symbol
 _atom_site_label
 _atom_site_symmetry_multiplicity
 _atom_site_fract_x
 _atom_site_fract_y
 _atom_site_fract_z
 _atom_site_occupancy
  Zn  Zn0  1  0.05689000  0.09955000  0.45732000  1.0
  Zn  Zn1  1  0.05689000  0.95734000  0.48577000  1.0
  Zn  Zn2  1  0.94311000  0.95733000  0.59956000  1.0
  Zn  Zn3  1  0.94312000  0.98579000  0.45732000  1.0
  Zn  Zn4  1  0.94311000  0.40045000  0.04268000  1.0
  Zn  Zn5  1  0.05690000  0.54268000  0.90043000  1.0
  Zn  Zn6  1  0.94311000  0.54266000  0.01422000  1.0
  Zn  Zn7  1  0.05687000  0.51421000  0.04268000  1.0
  H  H8  1  0.91905000  0.29067000  0.99493000  1.0
  H  H9  1  0.08094000  0.49493000  0.79064000  1.0
  H  H10  1  0.08050000  0.37947000  0.67681000  1.0
  H  H11  1  0.91948000  0.17683000  0.87947000  1.0
  H  H12  1  0.91951000  0.12052000  0.82321000  1.0
  H  H13  1  0.08045000  0.32319000  0.62050000  1.0
  H  H14  1  0.08089000  0.20934000  0.50505000  1.0
  H  H15  1  0.91906000  0.00507000  0.70935000  1.0
  H  H16  1  0.08095000  0.58605000  0.12836000  1.0
  H  H17  1  0.91907000  0.62843000  0.08598000  1.0
  H  H18  1  0.91949000  0.74268000  0.20104000  1.0
  H  H19  1  0.08051000  0.70107000  0.24265000  1.0
  H  H20  1  0.08045000  0.75726000  0.29902000  1.0
  H  H21  1  0.91952000  0.79900000  0.25729000  1.0
  H  H22  1  0.91906000  0.91399000  0.37160000  1.0
  H  H23  1  0.08089000  0.87155000  0.41404000  1.0
  H  H24  1  0.78559000  0.29067000  0.12842000  1.0
  H  H25  1  0.78559000  0.49494000  0.08599000  1.0
  H  H26  1  0.55628000  0.37947000  0.20101000  1.0
  H  H27  1  0.55629000  0.17682000  0.24272000  1.0
  H  H28  1  0.44372000  0.12053000  0.29898000  1.0
  H  H29  1  0.44372000  0.32317000  0.25736000  1.0
  H  H30  1  0.21441000  0.20931000  0.37165000  1.0
  H  H31  1  0.21441000  0.00506000  0.41402000  1.0
  H  H32  1  0.21441000  0.62844000  0.79067000  1.0
  H  H33  1  0.21440000  0.58598000  0.99497000  1.0
  H  H34  1  0.44371000  0.70100000  0.87949000  1.0
  H  H35  1  0.44372000  0.74275000  0.67681000  1.0
  H  H36  1  0.55629000  0.79898000  0.62051000  1.0
  H  H37  1  0.55628000  0.75734000  0.82317000  1.0
  H  H38  1  0.78559000  0.87163000  0.70931000  1.0
  H  H39  1  0.78560000  0.91402000  0.50503000  1.0
  C  C40  1  0.18440000  0.09219000  0.40782000  1.0
  C  C41  1  0.00000000  0.86269000  0.63731000  1.0
  C  C42  1  0.99998000  0.09219000  0.59220000  1.0
  C  C43  1  0.81561000  0.90783000  0.59217000  1.0
  C  C44  1  0.00001000  0.13732000  0.36267000  1.0
  C  C45  1  0.99999000  0.90779000  0.40781000  1.0
  C  C46  1  1.00000000  0.40782000  0.90779000  1.0
  C  C47  1  0.00001000  0.63732000  0.86267000  1.0
  C  C48  1  0.81561000  0.40781000  0.09220000  1.0
  C  C49  1  1.00000000  0.59222000  0.09218000  1.0
  C  C50  1  0.99999000  0.36268000  0.13733000  1.0
  C  C51  1  0.18439000  0.59220000  0.90783000  1.0
  C  C52  1  1.00000000  0.19471000  0.30528000  1.0
  C  C53  1  1.00000000  0.30529000  0.19472000  1.0
  C  C54  1  0.95759000  0.18085000  0.27675000  1.0
  C  C55  1  0.04241000  0.31915000  0.22326000  1.0
  C  C56  1  0.95759000  0.23433000  0.22327000  1.0
  C  C57  1  0.04241000  0.26567000  0.27674000  1.0
  C  C58  1  1.00000000  0.80529000  0.69471000  1.0
  C  C59  1  1.00000000  0.69471000  0.80529000  1.0
  C  C60  1  0.95760000  0.77674000  0.76567000  1.0
  C  C61  1  0.04241000  0.72327000  0.73432000  1.0
  C  C62  1  0.95760000  0.72326000  0.81915000  1.0
  C  C63  1  0.04241000  0.77675000  0.68084000  1.0
  C  C64  1  0.00000000  0.37134000  0.87131000  1.0
  C  C65  1  0.95590000  0.29778000  0.90894000  1.0
  C  C66  1  0.95625000  0.26322000  0.87341000  1.0
  C  C67  1  0.99999000  0.30077000  0.80077000  1.0
  C  C68  1  0.04373000  0.37341000  0.76320000  1.0
  C  C69  1  0.04409000  0.40894000  0.79775000  1.0
  C  C70  1  0.99999000  0.26541000  0.76542000  1.0
  C  C71  1  0.99999000  0.23459000  0.73458000  1.0
  C  C72  1  0.99998000  0.19923000  0.69922000  1.0
  C  C73  1  0.95625000  0.12659000  0.73679000  1.0
  C  C74  1  0.95589000  0.09106000  0.70224000  1.0
  C  C75  1  0.99997000  0.12867000  0.62867000  1.0
  C  C76  1  0.04405000  0.20223000  0.59105000  1.0
  C  C77  1  0.04369000  0.23679000  0.62658000  1.0
  C  C78  1  0.00001000  0.62871000  0.12864000  1.0
  C  C79  1  0.04411000  0.63520000  0.15810000  1.0
  C  C80  1  0.04375000  0.67036000  0.19302000  1.0
  C  C81  1  0.00001000  0.69926000  0.19920000  1.0
  C  C82  1  0.95627000  0.69308000  0.17031000  1.0
  C  C83  1  0.95591000  0.65817000  0.13513000  1.0
  C  C84  1  1.00000000  0.73459000  0.23458000  1.0
  C  C85  1  0.99999000  0.76541000  0.26542000  1.0
  C  C86  1  0.99998000  0.80075000  0.30079000  1.0
  C  C87  1  0.04370000  0.80691000  0.32971000  1.0
  C  C88  1  0.04406000  0.84182000  0.36488000  1.0
  C  C89  1  0.99997000  0.87129000  0.37136000  1.0
  C  C90  1  0.95589000  0.86482000  0.34188000  1.0
  C  C91  1  0.95625000  0.82966000  0.30696000  1.0
  C  C92  1  0.74265000  0.37134000  0.12867000  1.0
  C  C93  1  0.70671000  0.29778000  0.15814000  1.0
  C  C94  1  0.63662000  0.26322000  0.19307000  1.0
  C  C95  1  0.60154000  0.30078000  0.19923000  1.0
  C  C96  1  0.63662000  0.37342000  0.17032000  1.0
  C  C97  1  0.70670000  0.40894000  0.13515000  1.0
  C  C98  1  0.53083000  0.26542000  0.23460000  1.0
  C  C99  1  0.46917000  0.23458000  0.26543000  1.0
  C  C100  1  0.39846000  0.19922000  0.30080000  1.0
  C  C101  1  0.36338000  0.12658000  0.32971000  1.0
  C  C102  1  0.29330000  0.09105000  0.36487000  1.0
  C  C103  1  0.25736000  0.12866000  0.37136000  1.0
  C  C104  1  0.29330000  0.20221000  0.34191000  1.0
  C  C105  1  0.36338000  0.23677000  0.30700000  1.0
  C  C106  1  0.25735000  0.62869000  0.87134000  1.0
  C  C107  1  0.29330000  0.65818000  0.79777000  1.0
  C  C108  1  0.36338000  0.69309000  0.76322000  1.0
  C  C109  1  0.39846000  0.69925000  0.80078000  1.0
  C  C110  1  0.36338000  0.67034000  0.87342000  1.0
  C  C111  1  0.29329000  0.63515000  0.90896000  1.0
  C  C112  1  0.46917000  0.73460000  0.76542000  1.0
  C  C113  1  0.53083000  0.76542000  0.73458000  1.0
  C  C114  1  0.60154000  0.80079000  0.69921000  1.0
  C  C115  1  0.63662000  0.82969000  0.62657000  1.0
  C  C116  1  0.70671000  0.86488000  0.59103000  1.0
  C  C117  1  0.74265000  0.87135000  0.62865000  1.0
  C  C118  1  0.70670000  0.84188000  0.70221000  1.0
  C  C119  1  0.63662000  0.80698000  0.73677000  1.0
  O  O120  1  0.00000000  0.00000000  0.50000000  1.0
  O  O121  1  0.15286000  0.12708000  0.41356000  1.0
  O  O122  1  0.04028000  0.88463000  0.57510000  1.0
  O  O123  1  0.95935000  0.02575000  0.62711000  1.0
  O  O124  1  0.15286000  0.02576000  0.43359000  1.0
  O  O125  1  0.04063000  0.12708000  0.52577000  1.0
  O  O126  1  0.95971000  0.88461000  0.65566000  1.0
  O  O127  1  0.84714000  0.91356000  0.62707000  1.0
  O  O128  1  0.95974000  0.07511000  0.38461000  1.0
  O  O129  1  0.84715000  0.93361000  0.52573000  1.0
  O  O130  1  0.04028000  0.15565000  0.38462000  1.0
  O  O131  1  0.04063000  0.91354000  0.43360000  1.0
  O  O132  1  0.95937000  0.93360000  0.41354000  1.0
  O  O133  1  1.00000000  0.50000000  1.00000000  1.0
  O  O134  1  0.95936000  0.37293000  0.97422000  1.0
  O  O135  1  0.04029000  0.61539000  0.84433000  1.0
  O  O136  1  0.84714000  0.47424000  0.06641000  1.0
  O  O137  1  0.04065000  0.47425000  0.87289000  1.0
  O  O138  1  0.84714000  0.37291000  0.08647000  1.0
  O  O139  1  0.95973000  0.61538000  0.92489000  1.0
  O  O140  1  0.95935000  0.58646000  0.06640000  1.0
  O  O141  1  0.04026000  0.42489000  0.11540000  1.0
  O  O142  1  0.04063000  0.56642000  0.08644000  1.0
  O  O143  1  0.95972000  0.34434000  0.11539000  1.0
  O  O144  1  0.15286000  0.58646000  0.87293000  1.0
  O  O145  1  0.15285000  0.56640000  0.97427000  1.0
  O  O146  1  0.91292000  0.25842000  0.97821000  1.0
  O  O147  1  0.08706000  0.47821000  0.75840000  1.0
  O  O148  1  0.08653000  0.41129000  0.69312000  1.0
  O  O149  1  0.91346000  0.19315000  0.91129000  1.0
  O  O150  1  0.91347000  0.08871000  0.80687000  1.0
  O  O151  1  0.08647000  0.30686000  0.58869000  1.0
  O  O152  1  0.08700000  0.24158000  0.52177000  1.0
  O  O153  1  0.91293000  0.02179000  0.74160000  1.0
  O  O154  1  0.08709000  0.60892000  0.15447000  1.0
  O  O155  1  0.91295000  0.65456000  0.10883000  1.0
  O  O156  1  0.91347000  0.72034000  0.17523000  1.0
  O  O157  1  0.08655000  0.67529000  0.22028000  1.0
  O  O158  1  0.08648000  0.77962000  0.32481000  1.0
  O  O159  1  0.91347000  0.82476000  0.27967000  1.0
  O  O160  1  0.91292000  0.89112000  0.34550000  1.0
  O  O161  1  0.08701000  0.84542000  0.39120000  1.0
  O  O162  1  0.73662000  0.25842000  0.15455000  1.0
  O  O163  1  0.73662000  0.47822000  0.10883000  1.0
  O  O164  1  0.60443000  0.41130000  0.17522000  1.0
  O  O165  1  0.60444000  0.19315000  0.22035000  1.0
  O  O166  1  0.39557000  0.08870000  0.32478000  1.0
  O  O167  1  0.39557000  0.30683000  0.27973000  1.0
  O  O168  1  0.26338000  0.24156000  0.34554000  1.0
  O  O169  1  0.26338000  0.02178000  0.39118000  1.0
  O  O170  1  0.26338000  0.65458000  0.75842000  1.0
  O  O171  1  0.26337000  0.60883000  0.97824000  1.0
  O  O172  1  0.39556000  0.67522000  0.91132000  1.0
  O  O173  1  0.39557000  0.72039000  0.69314000  1.0
  O  O174  1  0.60444000  0.82479000  0.58868000  1.0
  O  O175  1  0.60443000  0.77970000  0.80684000  1.0
  O  O176  1  0.73662000  0.84551000  0.74156000  1.0
  O  O177  1  0.73663000  0.89118000  0.52176000  1.0
  F  F178  1  0.91479000  0.11550000  0.29929000  1.0
  F  F179  1  0.08521000  0.38449000  0.20071000  1.0
  F  F180  1  0.91479000  0.21408000  0.20071000  1.0
  F  F181  1  0.08521000  0.28592000  0.29929000  1.0
  F  F182  1  0.91479000  0.79928000  0.78594000  1.0
  F  F183  1  0.08521000  0.70072000  0.71406000  1.0
  F  F184  1  0.91480000  0.70071000  0.88450000  1.0
  F  F185  1  0.08521000  0.79930000  0.61548000  1.0
