# generated using pymatgen
data_Bi2H18C22S(N3O7)2
_symmetry_space_group_name_H-M   'P 1'
_cell_length_a   8.04235000
_cell_length_b   10.00260000
_cell_length_c   18.89200000
_cell_angle_alpha   77.76140000
_cell_angle_beta   78.61600000
_cell_angle_gamma   76.14290000
_symmetry_Int_Tables_number   1
_chemical_formula_structural   Bi2H18C22S(N3O7)2
_chemical_formula_sum   'Bi4 H36 C44 S2 N12 O28'
_cell_volume   1424.67232797
_cell_formula_units_Z   2
loop_
 _symmetry_equiv_pos_site_id
 _symmetry_equiv_pos_as_xyz
  1  'x, y, z'
loop_
 _atom_site_type_symbol
 _atom_site_label
 _atom_site_symmetry_multiplicity
 _atom_site_fract_x
 _atom_site_fract_y
 _atom_site_fract_z
 _atom_site_occupancy
  Bi  Bi0  1  0.27515000  0.03166000  0.74171000  1.0
  Bi  Bi1  1  0.72484000  0.96834000  0.25829000  1.0
  Bi  Bi2  1  0.74120000  0.84206000  0.81727000  1.0
  Bi  Bi3  1  0.25880000  0.15793000  0.18274000  1.0
  H  H4  1  0.19083000  0.27576000  0.46569000  1.0
  H  H5  1  0.80917000  0.72424000  0.53431000  1.0
  H  H6  1  0.50956000  0.24735000  0.41076000  1.0
  H  H7  1  0.49043000  0.75265000  0.58924000  1.0
  H  H8  1  0.73205000  0.12079000  0.49185000  1.0
  H  H9  1  0.26794000  0.87920000  0.50815000  1.0
  H  H10  1  0.23542000  0.64152000  0.59750000  1.0
  H  H11  1  0.76459000  0.35847000  0.40251000  1.0
  H  H12  1  0.07103000  0.47731000  0.57066000  1.0
  H  H13  1  0.92898000  0.52268000  0.42934000  1.0
  H  H14  1  0.77803000  0.46170000  0.64348000  1.0
  H  H15  1  0.22198000  0.53830000  0.35652000  1.0
  H  H16  1  0.67058000  0.47225000  0.07931000  1.0
  H  H17  1  0.32943000  0.52775000  0.92068000  1.0
  H  H18  1  0.42030000  0.62389000  0.14731000  1.0
  H  H19  1  0.57970000  0.37611000  0.85269000  1.0
  H  H20  1  0.27889000  0.85303000  0.07898000  1.0
  H  H21  1  0.72112000  0.14698000  0.92102000  1.0
  H  H22  1  0.85678000  0.92651000  0.96050000  1.0
  H  H23  1  0.14322000  0.07349000  0.03950000  1.0
  H  H24  1  0.99334000  0.80884000  0.92502000  1.0
  H  H25  1  0.00666000  0.19116000  0.07498000  1.0
  H  H26  1  0.83943000  0.14467000  0.73519000  1.0
  H  H27  1  0.16057000  0.85533000  0.26481000  1.0
  H  H28  1  0.63998000  0.18367000  0.76907000  1.0
  H  H29  1  0.36003000  0.81633000  0.23093000  1.0
  H  H30  1  0.10419000  0.54196000  0.83562000  1.0
  H  H31  1  0.89582000  0.45804000  0.16438000  1.0
  H  H32  1  0.31547000  0.52815000  0.77798000  1.0
  H  H33  1  0.68452000  0.47186000  0.22202000  1.0
  H  H34  1  0.00225000  0.34804000  0.88242000  1.0
  H  H35  1  0.99775000  0.65196000  0.11758000  1.0
  H  H36  1  0.93475000  0.16474000  0.82861000  1.0
  H  H37  1  0.06525000  0.83526000  0.17139000  1.0
  H  H38  1  0.08559000  0.10473000  0.88639000  1.0
  H  H39  1  0.91441000  0.89528000  0.11361000  1.0
  C  C40  1  0.20164000  0.35967000  0.79630000  1.0
  C  C41  1  0.79836000  0.64033000  0.20370000  1.0
  C  C42  1  0.06082000  0.19715000  0.61032000  1.0
  C  C43  1  0.93917000  0.80285000  0.38968000  1.0
  C  C44  1  0.24727000  0.17405000  0.57238000  1.0
  C  C45  1  0.75272000  0.82595000  0.42763000  1.0
  C  C46  1  0.29323000  0.22489000  0.49822000  1.0
  C  C47  1  0.70676000  0.77511000  0.50179000  1.0
  C  C48  1  0.46865000  0.20821000  0.46844000  1.0
  C  C49  1  0.53135000  0.79178000  0.53156000  1.0
  C  C50  1  0.59374000  0.13764000  0.51270000  1.0
  C  C51  1  0.40626000  0.86235000  0.48730000  1.0
  C  C52  1  0.53853000  0.08546000  0.58602000  1.0
  C  C53  1  0.46147000  0.91454000  0.41398000  1.0
  C  C54  1  0.66404000  0.00249000  0.63757000  1.0
  C  C55  1  0.33596000  0.99751000  0.36244000  1.0
  C  C56  1  0.11996000  0.80756000  0.70545000  1.0
  C  C57  1  0.88004000  0.19244000  0.29456000  1.0
  C  C58  1  0.03358000  0.70844000  0.68357000  1.0
  C  C59  1  0.96643000  0.29156000  0.31643000  1.0
  C  C60  1  0.10833000  0.63075000  0.62793000  1.0
  C  C61  1  0.89168000  0.36925000  0.37207000  1.0
  C  C62  1  0.01682000  0.53996000  0.61356000  1.0
  C  C63  1  0.98319000  0.46004000  0.38644000  1.0
  C  C64  1  0.85289000  0.53133000  0.65355000  1.0
  C  C65  1  0.14712000  0.46867000  0.34645000  1.0
  C  C66  1  0.78541000  0.61548000  0.70716000  1.0
  C  C67  1  0.21459000  0.38452000  0.29284000  1.0
  C  C68  1  0.60613000  0.62073000  0.75106000  1.0
  C  C69  1  0.39387000  0.37927000  0.24894000  1.0
  C  C70  1  0.83177000  0.54932000  0.93764000  1.0
  C  C71  1  0.16823000  0.45069000  0.06236000  1.0
  C  C72  1  0.67449000  0.62749000  0.98106000  1.0
  C  C73  1  0.32552000  0.37251000  0.01893000  1.0
  C  C74  1  0.60979000  0.57521000  0.05320000  1.0
  C  C75  1  0.39020000  0.42479000  0.94680000  1.0
  C  C76  1  0.46885000  0.65862000  0.08991000  1.0
  C  C77  1  0.53115000  0.34138000  0.91009000  1.0
  C  C78  1  0.39034000  0.78643000  0.05226000  1.0
  C  C79  1  0.60966000  0.21357000  0.94774000  1.0
  C  C80  1  0.45640000  0.82788000  0.97880000  1.0
  C  C81  1  0.54360000  0.17212000  0.02119000  1.0
  C  C82  1  0.36851000  0.95594000  0.93082000  1.0
  C  C83  1  0.63149000  0.04406000  0.06918000  1.0
  S  S84  1  0.35617000  0.28165000  0.73205000  1.0
  S  S85  1  0.64382000  0.71835000  0.26795000  1.0
  N  N86  1  0.36934000  0.10630000  0.61382000  1.0
  N  N87  1  0.63066000  0.89370000  0.38618000  1.0
  N  N88  1  0.87676000  0.69888000  0.72166000  1.0
  N  N89  1  0.12325000  0.30112000  0.27834000  1.0
  N  N90  1  0.59890000  0.75099000  0.94572000  1.0
  N  N91  1  0.40110000  0.24901000  0.05428000  1.0
  N  N92  1  0.20783000  0.48672000  0.80459000  1.0
  N  N93  1  0.79217000  0.51328000  0.19541000  1.0
  N  N94  1  0.07058000  0.30267000  0.83728000  1.0
  N  N95  1  0.92942000  0.69734000  0.16272000  1.0
  N  N96  1  0.05720000  0.16561000  0.83701000  1.0
  N  N97  1  0.94281000  0.83440000  0.16299000  1.0
  O  O98  1  0.91695000  0.89908000  0.91241000  1.0
  O  O99  1  0.08305000  0.10091000  0.08759000  1.0
  O  O100  1  0.75419000  0.13265000  0.78118000  1.0
  O  O101  1  0.24581000  0.86734000  0.21882000  1.0
  O  O102  1  0.03977000  0.14851000  0.68082000  1.0
  O  O103  1  0.96022000  0.85150000  0.31918000  1.0
  O  O104  1  0.94349000  0.26251000  0.57516000  1.0
  O  O105  1  0.05650000  0.73748000  0.42484000  1.0
  O  O106  1  0.59078000  0.96983000  0.70585000  1.0
  O  O107  1  0.40921000  0.03017000  0.29415000  1.0
  O  O108  1  0.81980000  0.97032000  0.61399000  1.0
  O  O109  1  0.18020000  0.02966000  0.38601000  1.0
  O  O110  1  0.04800000  0.85630000  0.76458000  1.0
  O  O111  1  0.95200000  0.14370000  0.23543000  1.0
  O  O112  1  0.25601000  0.83839000  0.66666667  1.0
  O  O113  1  0.74399000  0.16161000  0.33338000  1.0
  O  O114  1  0.56124000  0.69628000  0.80197000  1.0
  O  O115  1  0.43875000  0.30372000  0.19803000  1.0
  O  O116  1  0.51320000  0.55117000  0.73494000  1.0
  O  O117  1  0.48681000  0.44882000  0.26505000  1.0
  O  O118  1  0.89799000  0.62127000  0.87798000  1.0
  O  O119  1  0.10200000  0.37873000  0.12202000  1.0
  O  O120  1  0.88869000  0.42235000  0.95996000  1.0
  O  O121  1  0.11130000  0.57765000  0.04004000  1.0
  O  O122  1  0.43535000  0.97594000  0.86293000  1.0
  O  O123  1  0.56464000  0.02407000  0.13707000  1.0
  O  O124  1  0.23298000  0.03208000  0.95862000  1.0
  O  O125  1  0.76702000  0.96792000  0.04138000  1.0
