# generated using pymatgen
data_CuPH18C22BrN
_symmetry_space_group_name_H-M   'P 1'
_cell_length_a   8.19330000
_cell_length_b   9.46165000
_cell_length_c   13.78800000
_cell_angle_alpha   87.09710000
_cell_angle_beta   73.11190000
_cell_angle_gamma   65.26130000
_symmetry_Int_Tables_number   1
_chemical_formula_structural   CuPH18C22BrN
_chemical_formula_sum   'Cu2 P2 H36 C44 Br2 N2'
_cell_volume   925.81527512
_cell_formula_units_Z   2
loop_
 _symmetry_equiv_pos_site_id
 _symmetry_equiv_pos_as_xyz
  1  'x, y, z'
loop_
 _atom_site_type_symbol
 _atom_site_label
 _atom_site_symmetry_multiplicity
 _atom_site_fract_x
 _atom_site_fract_y
 _atom_site_fract_z
 _atom_site_occupancy
  Cu  Cu0  1  0.84328000  0.15219000  0.07862000  1.0
  Cu  Cu1  1  0.15672000  0.84781000  0.92138000  1.0
  P  P2  1  0.86003000  0.16709000  0.23327000  1.0
  P  P3  1  0.13997000  0.83291000  0.76673000  1.0
  H  H4  1  0.48932000  0.15046000  0.09200000  1.0
  H  H5  1  0.51068000  0.84955000  0.90800000  1.0
  H  H6  1  0.17436000  0.32908000  0.07710000  1.0
  H  H7  1  0.82564000  0.67093000  0.92290000  1.0
  H  H8  1  0.87658000  0.40446000  0.98568000  1.0
  H  H9  1  0.12342000  0.59555000  0.01432000  1.0
  H  H10  1  0.63242000  0.99825000  0.26206000  1.0
  H  H11  1  0.36758000  0.00175000  0.73794000  1.0
  H  H12  1  0.34909000  0.01030000  0.39700000  1.0
  H  H13  1  0.65090000  0.98971000  0.60299000  1.0
  H  H14  1  0.19423000  0.21659000  0.54207000  1.0
  H  H15  1  0.80577000  0.78341000  0.45793000  1.0
  H  H16  1  0.32843000  0.40268000  0.55355000  1.0
  H  H17  1  0.67158000  0.59731000  0.44645000  1.0
  H  H18  1  0.62055000  0.38475000  0.42131000  1.0
  H  H19  1  0.37946000  0.61524000  0.57869000  1.0
  H  H20  1  0.70209000  0.48257000  0.18567000  1.0
  H  H21  1  0.29791000  0.51743000  0.81433000  1.0
  H  H22  1  0.76637000  0.71347000  0.20314000  1.0
  H  H23  1  0.23363000  0.28652000  0.79686000  1.0
  H  H24  1  0.01286000  0.69164000  0.28043000  1.0
  H  H25  1  0.98715000  0.30836000  0.71957000  1.0
  H  H26  1  0.18553000  0.44130000  0.34896000  1.0
  H  H27  1  0.81447000  0.55869000  0.65104000  1.0
  H  H28  1  0.11818000  0.21323000  0.33406000  1.0
  H  H29  1  0.88182000  0.78677000  0.66594000  1.0
  H  H30  1  0.87654000  0.01151000  0.42650000  1.0
  H  H31  1  0.12346000  0.98849000  0.57350000  1.0
  H  H32  1  0.12788000  0.78024000  0.46929000  1.0
  H  H33  1  0.87212000  0.21977000  0.53071000  1.0
  H  H34  1  0.43465000  0.63810000  0.33747000  1.0
  H  H35  1  0.56535000  0.36190000  0.66254000  1.0
  H  H36  1  0.48921000  0.72899000  0.16256000  1.0
  H  H37  1  0.51079000  0.27101000  0.83744000  1.0
  H  H38  1  0.23552000  0.95659000  0.11928000  1.0
  H  H39  1  0.76448000  0.04341000  0.88072000  1.0
  C  C40  1  0.58833000  0.44563000  0.00591000  1.0
  C  C41  1  0.41168000  0.55437000  0.99409000  1.0
  C  C42  1  0.46466000  0.26610000  0.06531000  1.0
  C  C43  1  0.53534000  0.73391000  0.93468000  1.0
  C  C44  1  0.28722000  0.36729000  0.05609000  1.0
  C  C45  1  0.71278000  0.63271000  0.94391000  1.0
  C  C46  1  0.74050000  0.48810000  0.97920000  1.0
  C  C47  1  0.25951000  0.51190000  0.02080000  1.0
  C  C48  1  0.64529000  0.19061000  0.33313000  1.0
  C  C49  1  0.35472000  0.80939000  0.66687000  1.0
  C  C50  1  0.56632000  0.08635000  0.32643000  1.0
  C  C51  1  0.43368000  0.91365000  0.67357000  1.0
  C  C52  1  0.40604000  0.09447000  0.40185000  1.0
  C  C53  1  0.59396000  0.90553000  0.59815000  1.0
  C  C54  1  0.32003000  0.20903000  0.48317000  1.0
  C  C55  1  0.67998000  0.79097000  0.51683000  1.0
  C  C56  1  0.39602000  0.31426000  0.48955000  1.0
  C  C57  1  0.60399000  0.68574000  0.51045000  1.0
  C  C58  1  0.55893000  0.30456000  0.41530000  1.0
  C  C59  1  0.44107000  0.69543000  0.58470000  1.0
  C  C60  1  0.90445000  0.33269000  0.25942000  1.0
  C  C61  1  0.09555000  0.66731000  0.74058000  1.0
  C  C62  1  0.80522000  0.47515000  0.22340000  1.0
  C  C63  1  0.19477000  0.52485000  0.77660000  1.0
  C  C64  1  0.84115000  0.60434000  0.23307000  1.0
  C  C65  1  0.15884000  0.39566000  0.76693000  1.0
  C  C66  1  0.97990000  0.59208000  0.27693000  1.0
  C  C67  1  0.02010000  0.40791000  0.72307000  1.0
  C  C68  1  0.07747000  0.45189000  0.31428000  1.0
  C  C69  1  0.92253000  0.54810000  0.68572000  1.0
  C  C70  1  0.03915000  0.32288000  0.30618000  1.0
  C  C71  1  0.96085000  0.67712000  0.69382000  1.0
  C  C72  1  0.04035000  0.99980000  0.27035000  1.0
  C  C73  1  0.95965000  0.00020000  0.72965000  1.0
  C  C74  1  0.01104000  0.94952000  0.36882000  1.0
  C  C75  1  0.98896000  0.05048000  0.63118000  1.0
  C  C76  1  0.15241000  0.81961000  0.39282000  1.0
  C  C77  1  0.84758000  0.18039000  0.60719000  1.0
  C  C78  1  0.32461000  0.73962000  0.31885000  1.0
  C  C79  1  0.67539000  0.26038000  0.68116000  1.0
  C  C80  1  0.35509000  0.79002000  0.22085000  1.0
  C  C81  1  0.64491000  0.20998000  0.77916000  1.0
  C  C82  1  0.21360000  0.91874000  0.19628000  1.0
  C  C83  1  0.78640000  0.08125000  0.80372000  1.0
  Br  Br84  1  0.84447000  0.88964000  0.04882000  1.0
  Br  Br85  1  0.15554000  0.11036000  0.95118000  1.0
  N  N86  1  0.61203000  0.30203000  0.04215000  1.0
  N  N87  1  0.38796000  0.69797000  0.95785000  1.0
