# generated using pymatgen
data_ZnH19C19N4O5
_symmetry_space_group_name_H-M   'P 1'
_cell_length_a   7.30808000
_cell_length_b   16.58290000
_cell_length_c   17.09360000
_cell_angle_alpha   89.99980000
_cell_angle_beta   95.52810000
_cell_angle_gamma   89.99970000
_symmetry_Int_Tables_number   1
_chemical_formula_structural   ZnH19C19N4O5
_chemical_formula_sum   'Zn4 H76 C76 N16 O20'
_cell_volume   2061.92435123
_cell_formula_units_Z   4
loop_
 _symmetry_equiv_pos_site_id
 _symmetry_equiv_pos_as_xyz
  1  'x, y, z'
loop_
 _atom_site_type_symbol
 _atom_site_label
 _atom_site_symmetry_multiplicity
 _atom_site_fract_x
 _atom_site_fract_y
 _atom_site_fract_z
 _atom_site_occupancy
  Zn  Zn0  1  0.06727000  0.20091000  0.68884000  1.0
  Zn  Zn1  1  0.43273000  0.70091000  0.81116000  1.0
  Zn  Zn2  1  0.93273000  0.79909000  0.31116000  1.0
  Zn  Zn3  1  0.56727000  0.29909000  0.18884000  1.0
  H  H4  1  0.40233000  0.06666000  0.58246000  1.0
  H  H5  1  0.09767000  0.56667000  0.91754000  1.0
  H  H6  1  0.59767000  0.93334000  0.41754000  1.0
  H  H7  1  0.90233000  0.43334000  0.08246000  1.0
  H  H8  1  0.06505000  0.06808000  0.55741000  1.0
  H  H9  1  0.43495000  0.56808000  0.94259000  1.0
  H  H10  1  0.93495000  0.93192000  0.44259000  1.0
  H  H11  1  0.56505000  0.43192000  0.05742000  1.0
  H  H12  1  0.18451000  0.97504000  0.54423000  1.0
  H  H13  1  0.31549000  0.47504000  0.95577000  1.0
  H  H14  1  0.81550000  0.02496000  0.45576000  1.0
  H  H15  1  0.68450000  0.52496000  0.04424000  1.0
  H  H16  1  0.76197000  0.32569000  0.55780000  1.0
  H  H17  1  0.73803000  0.82569000  0.94220000  1.0
  H  H18  1  0.23804000  0.67431000  0.44219000  1.0
  H  H19  1  0.26196000  0.17430000  0.05780000  1.0
  H  H20  1  0.75018000  0.33460000  0.65977000  1.0
  H  H21  1  0.74983000  0.83461000  0.84023000  1.0
  H  H22  1  0.24982000  0.66539000  0.34023000  1.0
  H  H23  1  0.25018000  0.16539000  0.15977000  1.0
  H  H24  1  0.79318000  0.20400000  0.46538000  1.0
  H  H25  1  0.70683000  0.70400000  0.03462000  1.0
  H  H26  1  0.20683000  0.79600000  0.53462000  1.0
  H  H27  1  0.29317000  0.29600000  0.96538000  1.0
  H  H28  1  0.28291000  0.13227000  0.33802000  1.0
  H  H29  1  0.21709000  0.63227000  0.16198000  1.0
  H  H30  1  0.71709000  0.86774000  0.66198000  1.0
  H  H31  1  0.78291000  0.36774000  0.83802000  1.0
  H  H32  1  0.55238000  0.51306000  0.80202000  1.0
  H  H33  1  0.94762000  0.01305000  0.69797000  1.0
  H  H34  1  0.44762000  0.48695000  0.19798000  1.0
  H  H35  1  0.05238000  0.98694000  0.30202000  1.0
  H  H36  1  0.59599000  0.47411000  0.63275000  1.0
  H  H37  1  0.90402000  0.97411000  0.86725000  1.0
  H  H38  1  0.40402000  0.52589000  0.36724000  1.0
  H  H39  1  0.09597000  0.02588000  0.13275000  1.0
  H  H40  1  0.64815000  0.46473000  0.53413000  1.0
  H  H41  1  0.85186000  0.96473000  0.96587000  1.0
  H  H42  1  0.35185000  0.53527000  0.46587000  1.0
  H  H43  1  0.14814000  0.03527000  0.03413000  1.0
  H  H44  1  0.09343000  0.27070000  0.51390000  1.0
  H  H45  1  0.40658000  0.77070000  0.98609000  1.0
  H  H46  1  0.90657000  0.72930000  0.48610000  1.0
  H  H47  1  0.59343000  0.22931000  0.01391000  1.0
  H  H48  1  0.41056000  0.34699000  0.47296000  1.0
  H  H49  1  0.08945000  0.84698000  0.02705000  1.0
  H  H50  1  0.58944000  0.65301000  0.52704000  1.0
  H  H51  1  0.91055000  0.15302000  0.97296000  1.0
  H  H52  1  0.48397000  0.27696000  0.71220000  1.0
  H  H53  1  0.01604000  0.77697000  0.78780000  1.0
  H  H54  1  0.51604000  0.72304000  0.28780000  1.0
  H  H55  1  0.98396000  0.22303000  0.21220000  1.0
  H  H56  1  0.98859000  0.44717000  0.58614000  1.0
  H  H57  1  0.51142000  0.94718000  0.91386000  1.0
  H  H58  1  0.01141000  0.55283000  0.41386000  1.0
  H  H59  1  0.48858000  0.05282000  0.08614000  1.0
  H  H60  1  0.89296000  0.54353000  0.60096000  1.0
  H  H61  1  0.60705000  0.04353000  0.89905000  1.0
  H  H62  1  0.10705000  0.45647000  0.39904000  1.0
  H  H63  1  0.39294000  0.95646000  0.10095000  1.0
  H  H64  1  0.83924000  0.50465000  0.73930000  1.0
  H  H65  1  0.66076000  0.00465000  0.76070000  1.0
  H  H66  1  0.16076000  0.49535000  0.26070000  1.0
  H  H67  1  0.33924000  0.99535000  0.23930000  1.0
  H  H68  1  0.94157000  0.40892000  0.72560000  1.0
  H  H69  1  0.55843000  0.90892000  0.77441000  1.0
  H  H70  1  0.05843000  0.59108000  0.27440000  1.0
  H  H71  1  0.44156000  0.09108000  0.22559000  1.0
  H  H72  1  0.05387000  0.63221000  0.73112000  1.0
  H  H73  1  0.44613000  0.13221000  0.76888000  1.0
  H  H74  1  0.94612000  0.36779000  0.26888000  1.0
  H  H75  1  0.55387000  0.86779000  0.23112000  1.0
  H  H76  1  0.28416000  0.39824000  0.75372000  1.0
  H  H77  1  0.21584000  0.89824000  0.74628000  1.0
  H  H78  1  0.71584000  0.60176000  0.24627000  1.0
  H  H79  1  0.78415000  0.10176000  0.25372000  1.0
  C  C80  1  0.43906000  0.09550000  0.52898000  1.0
  C  C81  1  0.06095000  0.59551000  0.97102000  1.0
  C  C82  1  0.56094000  0.90450000  0.47102000  1.0
  C  C83  1  0.93905000  0.40450000  0.02898000  1.0
  C  C84  1  0.32529000  0.09277000  0.45826000  1.0
  C  C85  1  0.17472000  0.59277000  0.04174000  1.0
  C  C86  1  0.67471000  0.90723000  0.54174000  1.0
  C  C87  1  0.82528000  0.40723000  0.95826000  1.0
  C  C88  1  0.08953000  0.01990000  0.51534000  1.0
  C  C89  1  0.41047000  0.51990000  0.98466000  1.0
  C  C90  1  0.91047000  0.98010000  0.48466000  1.0
  C  C91  1  0.58953000  0.48010000  0.01534000  1.0
  C  C92  1  0.68629000  0.35502000  0.60245000  1.0
  C  C93  1  0.81371000  0.85503000  0.89755000  1.0
  C  C94  1  0.31371000  0.64497000  0.39755000  1.0
  C  C95  1  0.18629000  0.14497000  0.10245000  1.0
  C  C96  1  0.66104000  0.17373000  0.46408000  1.0
  C  C97  1  0.83897000  0.67373000  0.03592000  1.0
  C  C98  1  0.33896000  0.82627000  0.53592000  1.0
  C  C99  1  0.16104000  0.32627000  0.96408000  1.0
  C  C100  1  0.37645000  0.13248000  0.39154000  1.0
  C  C101  1  0.12356000  0.63248000  0.10846000  1.0
  C  C102  1  0.62355000  0.86752000  0.60846000  1.0
  C  C103  1  0.87644000  0.36752000  0.89154000  1.0
  C  C104  1  0.60720000  0.13661000  0.53155000  1.0
  C  C105  1  0.89281000  0.63661000  0.96845000  1.0
  C  C106  1  0.39280000  0.86339000  0.46845000  1.0
  C  C107  1  0.10719000  0.36339000  0.03155000  1.0
  C  C108  1  0.73076000  0.14137000  0.60717000  1.0
  C  C109  1  0.76925000  0.64137000  0.89283000  1.0
  C  C110  1  0.26924000  0.85863000  0.39283000  1.0
  C  C111  1  0.23075000  0.35863000  0.10717000  1.0
  C  C112  1  0.41033000  0.52017000  0.77829000  1.0
  C  C113  1  0.08967000  0.02017000  0.72171000  1.0
  C  C114  1  0.58967000  0.47983000  0.22171000  1.0
  C  C115  1  0.91033000  0.97983000  0.27829000  1.0
  C  C116  1  0.54466000  0.17242000  0.39418000  1.0
  C  C117  1  0.95535000  0.67242000  0.10582000  1.0
  C  C118  1  0.45534000  0.82758000  0.60582000  1.0
  C  C119  1  0.04466000  0.32758000  0.89418000  1.0
  C  C120  1  0.69334000  0.44689000  0.59498000  1.0
  C  C121  1  0.80667000  0.94689000  0.90502000  1.0
  C  C122  1  0.30666000  0.55311000  0.40502000  1.0
  C  C123  1  0.19333000  0.05311000  0.09498000  1.0
  C  C124  1  0.60002000  0.21577000  0.32338000  1.0
  C  C125  1  0.89999000  0.71577000  0.17662000  1.0
  C  C126  1  0.39999000  0.78423000  0.67662000  1.0
  C  C127  1  0.10001000  0.28423000  0.82338000  1.0
  C  C128  1  0.22029000  0.28512000  0.54928000  1.0
  C  C129  1  0.27972000  0.78512000  0.95071000  1.0
  C  C130  1  0.77971000  0.71488000  0.45072000  1.0
  C  C131  1  0.72029000  0.21489000  0.04928000  1.0
  C  C132  1  0.37568000  0.32298000  0.52853000  1.0
  C  C133  1  0.12432000  0.82298000  0.97147000  1.0
  C  C134  1  0.62431000  0.67702000  0.47147000  1.0
  C  C135  1  0.87568000  0.17702000  0.02853000  1.0
  C  C136  1  0.41803000  0.28593000  0.65325000  1.0
  C  C137  1  0.08196000  0.78593000  0.84675000  1.0
  C  C138  1  0.58197000  0.71407000  0.34675000  1.0
  C  C139  1  0.91804000  0.21407000  0.15325000  1.0
  C  C140  1  0.88721000  0.47966000  0.61815000  1.0
  C  C141  1  0.61279000  0.97967000  0.88185000  1.0
  C  C142  1  0.11279000  0.52034000  0.38185000  1.0
  C  C143  1  0.38720000  0.02033000  0.11815000  1.0
  C  C144  1  0.93890000  0.47218000  0.70680000  1.0
  C  C145  1  0.56110000  0.97218000  0.79320000  1.0
  C  C146  1  0.06110000  0.52782000  0.29320000  1.0
  C  C147  1  0.43889000  0.02782000  0.20680000  1.0
  C  C148  1  0.15570000  0.58520000  0.74236000  1.0
  C  C149  1  0.34430000  0.08520000  0.75764000  1.0
  C  C150  1  0.84430000  0.41480000  0.25764000  1.0
  C  C151  1  0.65570000  0.91480000  0.24236000  1.0
  C  C152  1  0.27956000  0.46350000  0.75463000  1.0
  C  C153  1  0.22044000  0.96350000  0.74537000  1.0
  C  C154  1  0.72044000  0.53650000  0.24537000  1.0
  C  C155  1  0.77956000  0.03650000  0.25463000  1.0
  N  N156  1  0.49937000  0.32297000  0.59506000  1.0
  N  N157  1  0.00063000  0.82297000  0.90494000  1.0
  N  N158  1  0.50063000  0.67703000  0.40494000  1.0
  N  N159  1  0.99937000  0.17703000  0.09506000  1.0
  N  N160  1  0.24848000  0.26247000  0.62739000  1.0
  N  N161  1  0.25152000  0.76247000  0.87261000  1.0
  N  N162  1  0.75151000  0.73753000  0.37261000  1.0
  N  N163  1  0.74849000  0.23753000  0.12739000  1.0
  N  N164  1  0.33074000  0.59586000  0.77024000  1.0
  N  N165  1  0.16927000  0.09586000  0.72976000  1.0
  N  N166  1  0.66926000  0.40414000  0.22976000  1.0
  N  N167  1  0.83073000  0.90414000  0.27024000  1.0
  N  N168  1  0.11956000  0.50577000  0.73223000  1.0
  N  N169  1  0.38044000  0.00577000  0.76778000  1.0
  N  N170  1  0.88044000  0.49423000  0.26777000  1.0
  N  N171  1  0.61956000  0.99422000  0.23222000  1.0
  O  O172  1  0.88044000  0.18249000  0.60086000  1.0
  O  O173  1  0.61956000  0.68249000  0.89915000  1.0
  O  O174  1  0.11955000  0.81751000  0.39914000  1.0
  O  O175  1  0.38044000  0.31751000  0.10086000  1.0
  O  O176  1  0.16137000  0.05330000  0.44761000  1.0
  O  O177  1  0.33864000  0.55330000  0.05239000  1.0
  O  O178  1  0.83863000  0.94670000  0.55239000  1.0
  O  O179  1  0.66136000  0.44671000  0.94761000  1.0
  O  O180  1  0.76134000  0.24082000  0.32095000  1.0
  O  O181  1  0.73867000  0.74082000  0.17905000  1.0
  O  O182  1  0.23867000  0.75918000  0.67905000  1.0
  O  O183  1  0.26133000  0.25918000  0.82095000  1.0
  O  O184  1  0.68803000  0.10881000  0.66876000  1.0
  O  O185  1  0.81197000  0.60881000  0.83124000  1.0
  O  O186  1  0.31197000  0.89119000  0.33124000  1.0
  O  O187  1  0.18803000  0.39119000  0.16876000  1.0
  O  O188  1  0.47019000  0.22528000  0.26604000  1.0
  O  O189  1  0.02981000  0.72529000  0.23396000  1.0
  O  O190  1  0.52982000  0.77472000  0.73396000  1.0
  O  O191  1  0.97019000  0.27472000  0.76604000  1.0
