# generated using pymatgen
data_GdH11C16(NO7)2
_symmetry_space_group_name_H-M   'P 1'
_cell_length_a   9.12513000
_cell_length_b   10.05250000
_cell_length_c   12.58686966
_cell_angle_alpha   95.03659261
_cell_angle_beta   109.65429228
_cell_angle_gamma   111.48240000
_symmetry_Int_Tables_number   1
_chemical_formula_structural   GdH11C16(NO7)2
_chemical_formula_sum   'Gd2 H22 C32 N4 O28'
_cell_volume   982.03587020
_cell_formula_units_Z   2
loop_
 _symmetry_equiv_pos_site_id
 _symmetry_equiv_pos_as_xyz
  1  'x, y, z'
loop_
 _atom_site_type_symbol
 _atom_site_label
 _atom_site_symmetry_multiplicity
 _atom_site_fract_x
 _atom_site_fract_y
 _atom_site_fract_z
 _atom_site_occupancy
  Gd  Gd0  1  0.76683000  0.52946000  0.46631000  1.0
  Gd  Gd1  1  0.23315000  0.47056000  0.53368000  1.0
  H  H2  1  0.85679000  0.78175000  0.24040000  1.0
  H  H3  1  0.14320000  0.21821000  0.75958000  1.0
  H  H4  1  0.41589000  0.48075000  0.30592000  1.0
  H  H5  1  0.58410000  0.51926000  0.69407000  1.0
  H  H6  1  0.53884000  0.59263000  0.26066000  1.0
  H  H7  1  0.46115000  0.40739000  0.73934000  1.0
  H  H8  1  0.81376000  0.31807000  0.30905000  1.0
  H  H9  1  0.18622000  0.68196000  0.69093000  1.0
  H  H10  1  0.62659000  0.31317000  0.23337000  1.0
  H  H11  1  0.37339000  0.68683000  0.76663000  1.0
  H  H12  1  0.13122000  0.99641000  0.44885000  1.0
  H  H13  1  0.86875000  0.00361000  0.55115000  1.0
  H  H14  1  0.57011000  0.13865000  0.35897000  1.0
  H  H15  1  0.42987000  0.86135000  0.64104000  1.0
  H  H16  1  0.26715000  0.67344000  0.30705000  1.0
  H  H17  1  0.73283000  0.32656000  0.69294000  1.0
  H  H18  1  0.79672000  0.58832000  0.88147000  1.0
  H  H19  1  0.20333000  0.41164000  0.11853000  1.0
  H  H20  1  0.16374000  0.97806000  0.15214000  1.0
  H  H21  1  0.83627000  0.02190000  0.84786000  1.0
  H  H22  1  0.20748000  0.91642000  0.82282000  1.0
  H  H23  1  0.79252000  0.08360000  0.17718000  1.0
  C  C24  1  0.18458000  0.82224000  0.38045000  1.0
  C  C25  1  0.81540000  0.17777000  0.61955000  1.0
  C  C26  1  0.21426000  0.96921000  0.41457000  1.0
  C  C27  1  0.78571000  0.03080000  0.58542000  1.0
  C  C28  1  0.35418000  0.08323000  0.40881000  1.0
  C  C29  1  0.64580000  0.91678000  0.59119000  1.0
  C  C30  1  0.46106000  0.05056000  0.36398000  1.0
  C  C31  1  0.53893000  0.94945000  0.63603000  1.0
  C  C32  1  0.42350000  0.90312000  0.32526000  1.0
  C  C33  1  0.57649000  0.09688000  0.67475000  1.0
  C  C34  1  0.28842000  0.78726000  0.33385000  1.0
  C  C35  1  0.71156000  0.21274000  0.66615000  1.0
  C  C36  1  0.04258000  0.70583000  0.39830000  1.0
  C  C37  1  0.95741000  0.29417000  0.60170000  1.0
  C  C38  1  0.39210000  0.24060000  0.45463000  1.0
  C  C39  1  0.60787000  0.75942000  0.54537000  1.0
  C  C40  1  0.99227000  0.74390000  0.83786000  1.0
  C  C41  1  0.00774000  0.25610000  0.16213000  1.0
  C  C42  1  0.91008000  0.69266000  0.91160000  1.0
  C  C43  1  0.08995000  0.30731000  0.08840000  1.0
  C  C44  1  0.97085000  0.77612000  0.02464000  1.0
  C  C45  1  0.02918000  0.22384000  0.97536000  1.0
  C  C46  1  0.11669000  0.91011000  0.06542000  1.0
  C  C47  1  0.88333000  0.08987000  0.93459000  1.0
  C  C48  1  0.20253000  0.95450000  0.99275000  1.0
  C  C49  1  0.79749000  0.04548000  0.00726000  1.0
  C  C50  1  0.14218000  0.87493000  0.87911000  1.0
  C  C51  1  0.85784000  0.12506000  0.12089000  1.0
  C  C52  1  0.91923000  0.66175000  0.71412000  1.0
  C  C53  1  0.08078000  0.33828000  0.28587000  1.0
  C  C54  1  0.88158000  0.71616000  0.10173000  1.0
  C  C55  1  0.11847000  0.28380000  0.89828000  1.0
  N  N56  1  0.53590000  0.86845000  0.27867000  1.0
  N  N57  1  0.46409000  0.13156000  0.72133000  1.0
  N  N58  1  0.36148000  0.09081000  0.03708000  1.0
  N  N59  1  0.63854000  0.90919000  0.96293000  1.0
  O  O60  1  0.89870000  0.71386000  0.37075000  1.0
  O  O61  1  0.10128000  0.28614000  0.62924000  1.0
  O  O62  1  0.06837000  0.60454000  0.44507000  1.0
  O  O63  1  0.93162000  0.39547000  0.55493000  1.0
  O  O64  1  0.28649000  0.26317000  0.48942000  1.0
  O  O65  1  0.71349000  0.73685000  0.51057000  1.0
  O  O66  1  0.52859000  0.34013000  0.45718000  1.0
  O  O67  1  0.47140000  0.65988000  0.54282000  1.0
  O  O68  1  0.68186000  0.96548000  0.30419000  1.0
  O  O69  1  0.31812000  0.03452000  0.69581000  1.0
  O  O70  1  0.47788000  0.74234000  0.21660000  1.0
  O  O71  1  0.52209000  0.25767000  0.78339000  1.0
  O  O72  1  0.76982000  0.55513000  0.66987000  1.0
  O  O73  1  0.23020000  0.44489000  0.33012000  1.0
  O  O74  1  0.00568000  0.70104000  0.65193000  1.0
  O  O75  1  0.99431000  0.29900000  0.34805000  1.0
  O  O76  1  0.81250000  0.58430000  0.09543000  1.0
  O  O77  1  0.18762000  0.41565000  0.90462000  1.0
  O  O78  1  0.89019000  0.82389000  0.17850000  1.0
  O  O79  1  0.10979000  0.17606000  0.82148000  1.0
  O  O80  1  0.40052000  0.16929000  0.13388000  1.0
  O  O81  1  0.59948000  0.83069000  0.86613000  1.0
  O  O82  1  0.44859000  0.12056000  0.97861000  1.0
  O  O83  1  0.55141000  0.87947000  0.02139000  1.0
  O  O84  1  0.52557000  0.50759000  0.29534000  1.0
  O  O85  1  0.47442000  0.49242000  0.70465000  1.0
  O  O86  1  0.72560000  0.35435000  0.30835000  1.0
  O  O87  1  0.27438000  0.64567000  0.69164000  1.0
