# generated using pymatgen
data_Cd3H34C44(NO3)4
_symmetry_space_group_name_H-M   'P 1'
_cell_length_a   9.52867000
_cell_length_b   9.80689000
_cell_length_c   12.96030000
_cell_angle_alpha   71.76680000
_cell_angle_beta   68.84460000
_cell_angle_gamma   78.04240000
_symmetry_Int_Tables_number   1
_chemical_formula_structural   Cd3H34C44(NO3)4
_chemical_formula_sum   'Cd3 H34 C44 N4 O12'
_cell_volume   1066.67215982
_cell_formula_units_Z   1
loop_
 _symmetry_equiv_pos_site_id
 _symmetry_equiv_pos_as_xyz
  1  'x, y, z'
loop_
 _atom_site_type_symbol
 _atom_site_label
 _atom_site_symmetry_multiplicity
 _atom_site_fract_x
 _atom_site_fract_y
 _atom_site_fract_z
 _atom_site_occupancy
  Cd  Cd0  1  0.00000000  0.00000000  0.00000000  1.0
  Cd  Cd1  1  0.31374000  0.18459000  0.73720000  1.0
  Cd  Cd2  1  0.68626000  0.81541000  0.26280000  1.0
  H  H3  1  0.87797000  0.42821000  0.71297000  1.0
  H  H4  1  0.12203000  0.57179000  0.28703000  1.0
  H  H5  1  0.67724000  0.66122000  0.97221000  1.0
  H  H6  1  0.32276000  0.33878000  0.02779000  1.0
  H  H7  1  0.42531000  0.64073000  0.76191000  1.0
  H  H8  1  0.57469000  0.35927000  0.23809000  1.0
  H  H9  1  0.75079000  0.43233000  0.58452000  1.0
  H  H10  1  0.24921000  0.56767000  0.41548000  1.0
  H  H11  1  0.59926000  0.56535000  0.56934000  1.0
  H  H12  1  0.40074000  0.43465000  0.43066000  1.0
  H  H13  1  0.01620000  0.58320000  0.82783000  1.0
  H  H14  1  0.98380000  0.41680000  0.17217000  1.0
  H  H15  1  0.90370000  0.50701000  0.97002000  1.0
  H  H16  1  0.09629000  0.49299000  0.02998000  1.0
  H  H17  1  0.42873000  0.76891000  0.00749000  1.0
  H  H18  1  0.57127000  0.23108000  0.99251000  1.0
  H  H19  1  0.30185000  0.70458000  0.96830000  1.0
  H  H20  1  0.69814000  0.29542000  0.03170000  1.0
  H  H21  1  0.24337000  0.86110000  0.13519000  1.0
  H  H22  1  0.75663000  0.13890000  0.86481000  1.0
  H  H23  1  0.32594000  0.90223000  0.28269000  1.0
  H  H24  1  0.67406000  0.09776000  0.71731000  1.0
  H  H25  1  0.93490000  0.21926000  0.34122000  1.0
  H  H26  1  0.06510000  0.78074000  0.65878000  1.0
  H  H27  1  0.87784000  0.17375000  0.18415000  1.0
  H  H28  1  0.12216000  0.82625000  0.81585000  1.0
  H  H29  1  0.09400000  0.31991000  0.58885000  1.0
  H  H30  1  0.90600000  0.68009000  0.41115000  1.0
  H  H31  1  0.02887000  0.29010000  0.42867000  1.0
  H  H32  1  0.97113000  0.70990000  0.57132000  1.0
  H  H33  1  0.33456000  0.89409000  0.44211000  1.0
  H  H34  1  0.66544000  0.10591000  0.55789000  1.0
  H  H35  1  0.38781000  0.94491000  0.59929000  1.0
  H  H36  1  0.61219000  0.05509000  0.40071000  1.0
  C  C37  1  0.65065000  0.52969000  0.72637000  1.0
  C  C38  1  0.34935000  0.47031000  0.27363000  1.0
  C  C39  1  0.78258000  0.49458000  0.75737000  1.0
  C  C40  1  0.21742000  0.50542000  0.24263000  1.0
  C  C41  1  0.79397000  0.54145000  0.84532000  1.0
  C  C42  1  0.20603000  0.45855000  0.15468000  1.0
  C  C43  1  0.67085000  0.62569000  0.90223000  1.0
  C  C44  1  0.32915000  0.37431000  0.09777000  1.0
  C  C45  1  0.53837000  0.66311000  0.87213000  1.0
  C  C46  1  0.46163000  0.33689000  0.12787000  1.0
  C  C47  1  0.52933000  0.61403000  0.78465000  1.0
  C  C48  1  0.47067000  0.38597000  0.21535000  1.0
  C  C49  1  0.63917000  0.47690000  0.63281000  1.0
  C  C50  1  0.36083000  0.52310000  0.36719000  1.0
  C  C51  1  0.53155000  0.36151000  0.67266000  1.0
  C  C52  1  0.46845000  0.63849000  0.32733000  1.0
  C  C53  1  0.93535000  0.50338000  0.88068000  1.0
  C  C54  1  0.06465000  0.49662000  0.11931000  1.0
  C  C55  1  0.01448000  0.35443000  0.86952000  1.0
  C  C56  1  0.98552000  0.64557000  0.13048000  1.0
  C  C57  1  0.40805000  0.75534000  0.93315000  1.0
  C  C58  1  0.59195000  0.24466000  0.06685000  1.0
  C  C59  1  0.37725000  0.90488000  0.85887000  1.0
  C  C60  1  0.62275000  0.09512000  0.14113000  1.0
  C  C61  1  0.17893000  0.94025000  0.18265000  1.0
  C  C62  1  0.82107000  0.05975000  0.81735000  1.0
  C  C63  1  0.22308000  0.96231000  0.26672000  1.0
  C  C64  1  0.77692000  0.03769000  0.73328000  1.0
  C  C65  1  0.13647000  0.06404000  0.32731000  1.0
  C  C66  1  0.86353000  0.93596000  0.67269000  1.0
  C  C67  1  0.00919000  0.14032000  0.29716000  1.0
  C  C68  1  0.99081000  0.85968000  0.70284000  1.0
  C  C69  1  0.97433000  0.11382000  0.21067000  1.0
  C  C70  1  0.02567000  0.88618000  0.78933000  1.0
  C  C71  1  0.14452000  0.22772000  0.55271000  1.0
  C  C72  1  0.85548000  0.77228000  0.44729000  1.0
  C  C73  1  0.10788000  0.20890000  0.46404000  1.0
  C  C74  1  0.89212000  0.79111000  0.53596000  1.0
  C  C75  1  0.17529000  0.08853000  0.42013000  1.0
  C  C76  1  0.82471000  0.91147000  0.57987000  1.0
  C  C77  1  0.27834000  0.99140000  0.46981000  1.0
  C  C78  1  0.72166000  0.00859000  0.53019000  1.0
  C  C79  1  0.30925000  0.01838000  0.55804000  1.0
  C  C80  1  0.69075000  0.98162000  0.44196000  1.0
  N  N81  1  0.05660000  0.01471000  0.15463000  1.0
  N  N82  1  0.94340000  0.98529000  0.84537000  1.0
  N  N83  1  0.24409000  0.13443000  0.59916000  1.0
  N  N84  1  0.75591000  0.86557000  0.40084000  1.0
  O  O85  1  0.51966000  0.31261000  0.59579000  1.0
  O  O86  1  0.48034000  0.68739000  0.40421000  1.0
  O  O87  1  0.45688000  0.31842000  0.77851000  1.0
  O  O88  1  0.54312000  0.68158000  0.22149000  1.0
  O  O89  1  0.97771000  0.24943000  0.95747000  1.0
  O  O90  1  0.02229000  0.75057000  0.04253000  1.0
  O  O91  1  0.10943000  0.34767000  0.77167000  1.0
  O  O92  1  0.89057000  0.65233000  0.22833000  1.0
  O  O93  1  0.26438000  0.98989000  0.90457000  1.0
  O  O94  1  0.73562000  0.01011000  0.09543000  1.0
  O  O95  1  0.45988000  0.94607000  0.75641000  1.0
  O  O96  1  0.54012000  0.05393000  0.24359000  1.0
