# generated using pymatgen
data_Ni2H26C36S(N2O5)2
_symmetry_space_group_name_H-M   'P 1'
_cell_length_a   8.08436000
_cell_length_b   11.22610000
_cell_length_c   13.24631601
_cell_angle_alpha   72.65995863
_cell_angle_beta   72.23313379
_cell_angle_gamma   89.98760000
_symmetry_Int_Tables_number   1
_chemical_formula_structural   Ni2H26C36S(N2O5)2
_chemical_formula_sum   'Ni2 H26 C36 S1 N4 O10'
_cell_volume   1087.35677451
_cell_formula_units_Z   1
loop_
 _symmetry_equiv_pos_site_id
 _symmetry_equiv_pos_as_xyz
  1  'x, y, z'
loop_
 _atom_site_type_symbol
 _atom_site_label
 _atom_site_symmetry_multiplicity
 _atom_site_fract_x
 _atom_site_fract_y
 _atom_site_fract_z
 _atom_site_occupancy
  Ni  Ni0  1  0.76705000  0.06904000  0.37578000  1.0
  Ni  Ni1  1  0.14286000  0.93098000  0.62418000  1.0
  H  H2  1  0.25366000  0.78934000  0.05527000  1.0
  H  H3  1  0.30902000  0.21067000  0.94472000  1.0
  H  H4  1  0.35596000  0.69614000  0.22046000  1.0
  H  H5  1  0.57648000  0.30364000  0.77957000  1.0
  H  H6  1  0.29377000  0.79638000  0.37149000  1.0
  H  H7  1  0.66518000  0.20338000  0.62856000  1.0
  H  H8  1  0.76868000  0.81502000  0.54151000  1.0
  H  H9  1  0.31032000  0.18509000  0.45845000  1.0
  H  H10  1  0.78405000  0.59459000  0.54015000  1.0
  H  H11  1  0.32435000  0.40547000  0.45990000  1.0
  H  H12  1  0.74504000  0.72123000  0.20663000  1.0
  H  H13  1  0.95155000  0.27881000  0.79331000  1.0
  H  H14  1  0.73219000  0.93583000  0.22247000  1.0
  H  H15  1  0.95450000  0.06424000  0.77737000  1.0
  H  H16  1  0.63299000  0.30358000  0.25940000  1.0
  H  H17  1  0.89238000  0.69656000  0.74062000  1.0
  H  H18  1  0.61775000  0.52490000  0.25805000  1.0
  H  H19  1  0.87565000  0.47523000  0.74200000  1.0
  H  H20  1  0.94229000  0.45242000  0.47166000  1.0
  H  H21  1  0.41367000  0.54757000  0.52831000  1.0
  H  H22  1  0.93665000  0.23155000  0.46690000  1.0
  H  H23  1  0.40344000  0.76841000  0.53307000  1.0
  H  H24  1  0.42440000  0.02918000  0.38454000  1.0
  H  H25  1  0.80887000  0.97091000  0.61546000  1.0
  H  H26  1  0.55711000  0.09415000  0.26191000  1.0
  H  H27  1  0.81905000  0.90594000  0.73807000  1.0
  C  C28  1  0.16928000  0.94670000  0.28981000  1.0
  C  C29  1  0.45894000  0.05318000  0.71027000  1.0
  C  C30  1  0.11821000  0.00273000  0.19488000  1.0
  C  C31  1  0.31305000  0.99714000  0.80526000  1.0
  C  C32  1  0.14774000  0.94212000  0.11298000  1.0
  C  C33  1  0.26073000  0.05778000  0.88717000  1.0
  C  C34  1  0.23333000  0.83283000  0.12121000  1.0
  C  C35  1  0.35458000  0.16709000  0.87883000  1.0
  C  C36  1  0.28994000  0.78162000  0.21319000  1.0
  C  C37  1  0.50312000  0.21821000  0.78683000  1.0
  C  C38  1  0.25640000  0.83763000  0.29716000  1.0
  C  C39  1  0.55347000  0.16219000  0.70288000  1.0
  C  C40  1  0.12543000  0.99480000  0.38745000  1.0
  C  C41  1  0.51273000  0.00510000  0.61260000  1.0
  C  C42  1  0.04374000  0.12909000  0.17248000  1.0
  C  C43  1  0.21617000  0.87085000  0.82758000  1.0
  C  C44  1  0.76331000  0.78989000  0.46913000  1.0
  C  C45  1  0.23250000  0.21020000  0.53084000  1.0
  C  C46  1  0.77285000  0.66697000  0.46727000  1.0
  C  C47  1  0.24022000  0.33309000  0.53275000  1.0
  C  C48  1  0.76545000  0.63736000  0.37283000  1.0
  C  C49  1  0.13820000  0.36267000  0.62717000  1.0
  C  C50  1  0.74668000  0.73606000  0.28395000  1.0
  C  C51  1  0.03054000  0.26396000  0.71600000  1.0
  C  C52  1  0.73886000  0.85648000  0.29201000  1.0
  C  C53  1  0.03080000  0.14356000  0.70787000  1.0
  C  C54  1  0.69780000  0.34007000  0.30640000  1.0
  C  C55  1  0.00412000  0.66003000  0.69359000  1.0
  C  C56  1  0.69109000  0.46399000  0.30569000  1.0
  C  C57  1  0.99658000  0.53611000  0.69428000  1.0
  C  C58  1  0.77523000  0.50801000  0.36786000  1.0
  C  C59  1  0.14282000  0.49204000  0.63211000  1.0
  C  C60  1  0.86776000  0.42309000  0.42567000  1.0
  C  C61  1  0.29314000  0.57695000  0.57427000  1.0
  C  C62  1  0.86666000  0.30023000  0.42300000  1.0
  C  C63  1  0.28949000  0.69980000  0.57693000  1.0
  S  S64  1  0.06329000  0.00002000  0.00005000  1.0
  N  N65  1  0.74775000  0.88408000  0.38259000  1.0
  N  N66  1  0.13035000  0.11599000  0.61730000  1.0
  N  N67  1  0.78040000  0.25812000  0.36618000  1.0
  N  N68  1  0.14647000  0.74194000  0.63380000  1.0
  O  O69  1  0.99691000  0.05778000  0.40941000  1.0
  O  O70  1  0.40634000  0.94205000  0.59063000  1.0
  O  O71  1  0.22245000  0.96600000  0.45077000  1.0
  O  O72  1  0.67301000  0.03408000  0.54924000  1.0
  O  O73  1  0.87502000  0.12817000  0.20717000  1.0
  O  O74  1  0.08228000  0.87193000  0.79272000  1.0
  O  O75  1  0.15053000  0.22290000  0.11884000  1.0
  O  O76  1  0.26913000  0.77697000  0.88128000  1.0
  O  O77  1  0.53022000  0.09101000  0.33955000  1.0
  O  O78  1  0.86971000  0.90905000  0.66044000  1.0
