# generated using pymatgen
data_AgH14C15(NO)2
_symmetry_space_group_name_H-M   'P 1'
_cell_length_a   7.44039000
_cell_length_b   8.58887000
_cell_length_c   11.95900000
_cell_angle_alpha   103.43900000
_cell_angle_beta   90.67770000
_cell_angle_gamma   113.15400000
_symmetry_Int_Tables_number   1
_chemical_formula_structural   AgH14C15(NO)2
_chemical_formula_sum   'Ag2 H28 C30 N4 O4'
_cell_volume   678.86848162
_cell_formula_units_Z   2
loop_
 _symmetry_equiv_pos_site_id
 _symmetry_equiv_pos_as_xyz
  1  'x, y, z'
loop_
 _atom_site_type_symbol
 _atom_site_label
 _atom_site_symmetry_multiplicity
 _atom_site_fract_x
 _atom_site_fract_y
 _atom_site_fract_z
 _atom_site_occupancy
  Ag  Ag0  1  0.70688000  0.44370000  0.52271000  1.0
  Ag  Ag1  1  0.29312000  0.55630000  0.47729000  1.0
  H  H2  1  0.09882000  0.58372000  0.93192000  1.0
  H  H3  1  0.90119000  0.41628000  0.06808000  1.0
  H  H4  1  0.78850000  0.08809000  0.86221000  1.0
  H  H5  1  0.21151000  0.91191000  0.13779000  1.0
  H  H6  1  0.01781000  0.24344000  0.94369000  1.0
  H  H7  1  0.98219000  0.75656000  0.05632000  1.0
  H  H8  1  0.01210000  0.11908000  0.80168000  1.0
  H  H9  1  0.98790000  0.88093000  0.19832000  1.0
  H  H10  1  0.14827000  0.82548000  0.74779000  1.0
  H  H11  1  0.85172000  0.17452000  0.25221000  1.0
  H  H12  1  0.97823000  0.83609000  0.85004000  1.0
  H  H13  1  0.02177000  0.16390000  0.14996000  1.0
  H  H14  1  0.89741000  0.76773000  0.69896000  1.0
  H  H15  1  0.10259000  0.23227000  0.30104000  1.0
  H  H16  1  0.62807000  0.14069000  0.55887000  1.0
  H  H17  1  0.37193000  0.85931000  0.44113000  1.0
  H  H18  1  0.62859000  0.02596000  0.66435000  1.0
  H  H19  1  0.37140000  0.97404000  0.33565000  1.0
  H  H20  1  0.12765000  0.30396000  0.62483000  1.0
  H  H21  1  0.87234000  0.69604000  0.37518000  1.0
  H  H22  1  0.35383000  0.19842000  0.51883000  1.0
  H  H23  1  0.64617000  0.80157000  0.48117000  1.0
  H  H24  1  0.47082000  0.10224000  0.06547000  1.0
  H  H25  1  0.52919000  0.89776000  0.93453000  1.0
  H  H26  1  0.43947000  0.16295000  0.87328000  1.0
  H  H27  1  0.56055000  0.83706000  0.12672000  1.0
  H  H28  1  0.43945000  0.37279000  0.75961000  1.0
  H  H29  1  0.56057000  0.62721000  0.24039000  1.0
  C  C30  1  0.92081000  0.32810000  0.80991000  1.0
  C  C31  1  0.07919000  0.67190000  0.19009000  1.0
  C  C32  1  0.00426000  0.50974000  0.85153000  1.0
  C  C33  1  0.99574000  0.49026000  0.14847000  1.0
  C  C34  1  0.94796000  0.57687000  0.76693000  1.0
  C  C35  1  0.05203000  0.42313000  0.23307000  1.0
  C  C36  1  0.93482000  0.18726000  0.85737000  1.0
  C  C37  1  0.06518000  0.81274000  0.14263000  1.0
  C  C38  1  0.99535000  0.76186000  0.76585000  1.0
  C  C39  1  0.00465000  0.23814000  0.23415000  1.0
  C  C40  1  0.72434000  0.12389000  0.62161000  1.0
  C  C41  1  0.27566000  0.87611000  0.37839000  1.0
  C  C42  1  0.86906000  0.06144000  0.55991000  1.0
  C  C43  1  0.13094000  0.93857000  0.44010000  1.0
  C  C44  1  0.06916000  0.17032000  0.57014000  1.0
  C  C45  1  0.93084000  0.82968000  0.42985000  1.0
  C  C46  1  0.19838000  0.10956000  0.51061000  1.0
  C  C47  1  0.80161000  0.89044000  0.48939000  1.0
  C  C48  1  0.51582000  0.36173000  0.16379000  1.0
  C  C49  1  0.48420000  0.63826000  0.83621000  1.0
  C  C50  1  0.48036000  0.22978000  0.05923000  1.0
  C  C51  1  0.51965000  0.77023000  0.94078000  1.0
  C  C52  1  0.46449000  0.26427000  0.95358000  1.0
  C  C53  1  0.53551000  0.73571000  0.04641000  1.0
  C  C54  1  0.48328000  0.43331000  0.94719000  1.0
  C  C55  1  0.51671000  0.56670000  0.05280000  1.0
  C  C56  1  0.46801000  0.47362000  0.84029000  1.0
  C  C57  1  0.53201000  0.52640000  0.15972000  1.0
  C  C58  1  0.55011000  0.32462000  0.27701000  1.0
  C  C59  1  0.44989000  0.67538000  0.72299000  1.0
  N  N60  1  0.81803000  0.29198000  0.70546000  1.0
  N  N61  1  0.18196000  0.70802000  0.29454000  1.0
  N  N62  1  0.83621000  0.44236000  0.67769000  1.0
  N  N63  1  0.16378000  0.55763000  0.32231000  1.0
  O  O64  1  0.54896000  0.17885000  0.27848000  1.0
  O  O65  1  0.45103000  0.82114000  0.72152000  1.0
  O  O66  1  0.58511000  0.45456000  0.36769000  1.0
  O  O67  1  0.41487000  0.54544000  0.63231000  1.0
