# generated using pymatgen
data_ZnH15C15N2O3
_symmetry_space_group_name_H-M   'P 1'
_cell_length_a   9.39529000
_cell_length_b   10.05640000
_cell_length_c   15.62600000
_cell_angle_alpha   90.00000000
_cell_angle_beta   90.00000000
_cell_angle_gamma   102.84100000
_symmetry_Int_Tables_number   1
_chemical_formula_structural   ZnH15C15N2O3
_chemical_formula_sum   'Zn4 H60 C60 N8 O12'
_cell_volume   1439.46451551
_cell_formula_units_Z   4
loop_
 _symmetry_equiv_pos_site_id
 _symmetry_equiv_pos_as_xyz
  1  'x, y, z'
loop_
 _atom_site_type_symbol
 _atom_site_label
 _atom_site_symmetry_multiplicity
 _atom_site_fract_x
 _atom_site_fract_y
 _atom_site_fract_z
 _atom_site_occupancy
  Zn  Zn0  1  0.63114000  0.98700000  0.93639000  1.0
  Zn  Zn1  1  0.63114000  0.48700000  0.56361000  1.0
  Zn  Zn2  1  0.36886000  0.01300000  0.06361000  1.0
  Zn  Zn3  1  0.36886000  0.51300000  0.43639000  1.0
  H  H4  1  0.67923000  0.04823000  0.76070000  1.0
  H  H5  1  0.67923000  0.54823000  0.73930000  1.0
  H  H6  1  0.32077000  0.95177000  0.23930000  1.0
  H  H7  1  0.32077000  0.45177000  0.26070000  1.0
  H  H8  1  0.24900000  0.19150000  0.93113000  1.0
  H  H9  1  0.24899000  0.69149000  0.56887000  1.0
  H  H10  1  0.75100000  0.80851000  0.06887000  1.0
  H  H11  1  0.75100000  0.30851000  0.43113000  1.0
  H  H12  1  0.60643000  0.26913000  0.93611000  1.0
  H  H13  1  0.60643000  0.76913000  0.56388000  1.0
  H  H14  1  0.39357000  0.73087000  0.06388000  1.0
  H  H15  1  0.39357000  0.23087000  0.43611000  1.0
  H  H16  1  0.69198000  0.80562000  0.72475000  1.0
  H  H17  1  0.69198000  0.30562000  0.77525000  1.0
  H  H18  1  0.30802000  0.19438000  0.27525000  1.0
  H  H19  1  0.30801000  0.69437000  0.22475000  1.0
  H  H20  1  0.90375000  0.00782000  0.72283000  1.0
  H  H21  1  0.90375000  0.50781000  0.77717000  1.0
  H  H22  1  0.09625000  0.99219000  0.27717000  1.0
  H  H23  1  0.09625000  0.49218000  0.22282000  1.0
  H  H24  1  0.95567000  0.86044000  0.76467000  1.0
  H  H25  1  0.95567000  0.36044000  0.73533000  1.0
  H  H26  1  0.04433000  0.13956000  0.23533000  1.0
  H  H27  1  0.04433000  0.63955000  0.26467000  1.0
  H  H28  1  0.92770000  0.99129000  0.83462000  1.0
  H  H29  1  0.92771000  0.49129000  0.66538000  1.0
  H  H30  1  0.07230000  0.00871000  0.16538000  1.0
  H  H31  1  0.07229000  0.50870000  0.33462000  1.0
  H  H32  1  0.44202000  0.81854000  0.81244000  1.0
  H  H33  1  0.44202000  0.31854000  0.68756000  1.0
  H  H34  1  0.55798000  0.18146000  0.18756000  1.0
  H  H35  1  0.55798000  0.68146000  0.31244000  1.0
  H  H36  1  0.48150000  0.87268000  0.70591000  1.0
  H  H37  1  0.48150000  0.37268000  0.79410000  1.0
  H  H38  1  0.51850000  0.12732000  0.29410000  1.0
  H  H39  1  0.51850000  0.62732000  0.20590000  1.0
  H  H40  1  0.16001000  0.15431000  0.65970000  1.0
  H  H41  1  0.16002000  0.65432000  0.84030000  1.0
  H  H42  1  0.83999000  0.84569000  0.34030000  1.0
  H  H43  1  0.83999000  0.34569000  0.15970000  1.0
  H  H44  1  0.11755000  0.31514000  0.02205000  1.0
  H  H45  1  0.11756000  0.81514000  0.47795000  1.0
  H  H46  1  0.88244000  0.68486000  0.97795000  1.0
  H  H47  1  0.88245000  0.18486000  0.52205000  1.0
  H  H48  1  0.33575000  0.00202000  0.64749000  1.0
  H  H49  1  0.33576000  0.50202000  0.85251000  1.0
  H  H50  1  0.66425000  0.99798000  0.35251000  1.0
  H  H51  1  0.66425000  0.49798000  0.14749000  1.0
  H  H52  1  0.75689000  0.50205000  0.95578000  1.0
  H  H53  1  0.75689000  0.00205000  0.54422000  1.0
  H  H54  1  0.24311000  0.49795000  0.04422000  1.0
  H  H55  1  0.24311000  0.99795000  0.45578000  1.0
  H  H56  1  0.95458000  0.09284000  0.99086000  1.0
  H  H57  1  0.95458000  0.59284000  0.50914000  1.0
  H  H58  1  0.04542000  0.90716000  0.00914000  1.0
  H  H59  1  0.04542000  0.40717000  0.49086000  1.0
  H  H60  1  0.11584000  0.24801000  0.80292000  1.0
  H  H61  1  0.11584000  0.74800000  0.69708000  1.0
  H  H62  1  0.88416000  0.75199000  0.19708000  1.0
  H  H63  1  0.88416000  0.25199000  0.30292000  1.0
  C  C64  1  0.38855000  0.00892000  0.78126000  1.0
  C  C65  1  0.38856000  0.50892000  0.71874000  1.0
  C  C66  1  0.61145000  0.99108000  0.21873000  1.0
  C  C67  1  0.61145000  0.49108000  0.28127000  1.0
  C  C68  1  0.36358000  0.06245000  0.86257000  1.0
  C  C69  1  0.36358000  0.56245000  0.63743000  1.0
  C  C70  1  0.63643000  0.93755000  0.13743000  1.0
  C  C71  1  0.63642000  0.43755000  0.36257000  1.0
  C  C72  1  0.26441000  0.14879000  0.86861000  1.0
  C  C73  1  0.26440000  0.64879000  0.63139000  1.0
  C  C74  1  0.73560000  0.85121000  0.13139000  1.0
  C  C75  1  0.73559000  0.35121000  0.36861000  1.0
  C  C76  1  0.72147000  0.28517000  0.95352000  1.0
  C  C77  1  0.72147000  0.78517000  0.54648000  1.0
  C  C78  1  0.27853000  0.71483000  0.04648000  1.0
  C  C79  1  0.27853000  0.21483000  0.45352000  1.0
  C  C80  1  0.72752000  0.86338000  0.78396000  1.0
  C  C81  1  0.72753000  0.36338000  0.71604000  1.0
  C  C82  1  0.27248000  0.13662000  0.21604000  1.0
  C  C83  1  0.27247000  0.63661000  0.28396000  1.0
  C  C84  1  0.71096000  0.76019000  0.85774000  1.0
  C  C85  1  0.71095000  0.26020000  0.64226000  1.0
  C  C86  1  0.28904000  0.23980000  0.14226000  1.0
  C  C87  1  0.28904000  0.73979000  0.35774000  1.0
  C  C88  1  0.95288000  0.43159000  0.99216000  1.0
  C  C89  1  0.95288000  0.93159000  0.50784000  1.0
  C  C90  1  0.04712000  0.56841000  0.00784000  1.0
  C  C91  1  0.04712000  0.06841000  0.49216000  1.0
  C  C92  1  0.88825000  0.93480000  0.77594000  1.0
  C  C93  1  0.88825000  0.43480000  0.72406000  1.0
  C  C94  1  0.11175000  0.06520000  0.22406000  1.0
  C  C95  1  0.11175000  0.56520000  0.27594000  1.0
  C  C96  1  0.48466000  0.90892000  0.77260000  1.0
  C  C97  1  0.48466000  0.40892000  0.72740000  1.0
  C  C98  1  0.51534000  0.09108000  0.22740000  1.0
  C  C99  1  0.51534000  0.59108000  0.27260000  1.0
  C  C100  1  0.21613000  0.12842000  0.71625000  1.0
  C  C101  1  0.21614000  0.62842000  0.78375000  1.0
  C  C102  1  0.78387000  0.87158000  0.28375000  1.0
  C  C103  1  0.78387000  0.37158000  0.21625000  1.0
  C  C104  1  0.00617000  0.31228000  0.00154000  1.0
  C  C105  1  0.00617000  0.81228000  0.49846000  1.0
  C  C106  1  0.99383000  0.68772000  0.99846000  1.0
  C  C107  1  0.99383000  0.18772000  0.50154000  1.0
  C  C108  1  0.31492000  0.04374000  0.70967000  1.0
  C  C109  1  0.31492000  0.54374000  0.79033000  1.0
  C  C110  1  0.68508000  0.95626000  0.29033000  1.0
  C  C111  1  0.68508000  0.45627000  0.20967000  1.0
  C  C112  1  0.80605000  0.41525000  0.96749000  1.0
  C  C113  1  0.80604000  0.91525000  0.53251000  1.0
  C  C114  1  0.19396000  0.58476000  0.03251000  1.0
  C  C115  1  0.19396000  0.08476000  0.46749000  1.0
  C  C116  1  0.91477000  0.18627000  0.98490000  1.0
  C  C117  1  0.91477000  0.68627000  0.51510000  1.0
  C  C118  1  0.08523000  0.81373000  0.01509000  1.0
  C  C119  1  0.08523000  0.31373000  0.48491000  1.0
  C  C120  1  0.19148000  0.18049000  0.79644000  1.0
  C  C121  1  0.19148000  0.68048000  0.70356000  1.0
  C  C122  1  0.80852000  0.81952000  0.20356000  1.0
  C  C123  1  0.80852000  0.31951000  0.29644000  1.0
  N  N124  1  0.77458000  0.17170000  0.96093000  1.0
  N  N125  1  0.77458000  0.67170000  0.53907000  1.0
  N  N126  1  0.22542000  0.82831000  0.03907000  1.0
  N  N127  1  0.22542000  0.32830000  0.46093000  1.0
  N  N128  1  0.63819000  0.96443000  0.79897000  1.0
  N  N129  1  0.63819000  0.46443000  0.70103000  1.0
  N  N130  1  0.36181000  0.03557000  0.20103000  1.0
  N  N131  1  0.36181000  0.53557000  0.29897000  1.0
  O  O132  1  0.43231000  0.03132000  0.93283000  1.0
  O  O133  1  0.43231000  0.53131000  0.56717000  1.0
  O  O134  1  0.56769000  0.96869000  0.06717000  1.0
  O  O135  1  0.56769000  0.46869000  0.43283000  1.0
  O  O136  1  0.68321000  0.80238000  0.93273000  1.0
  O  O137  1  0.68322000  0.30238000  0.56727000  1.0
  O  O138  1  0.31678000  0.19762000  0.06727000  1.0
  O  O139  1  0.31678000  0.69762000  0.43273000  1.0
  O  O140  1  0.73350000  0.64414000  0.84335000  1.0
  O  O141  1  0.73349000  0.14413000  0.65665000  1.0
  O  O142  1  0.26651000  0.35586000  0.15665000  1.0
  O  O143  1  0.26650000  0.85586000  0.34335000  1.0
