# generated using pymatgen
data_ZnH9C13N4O3
_symmetry_space_group_name_H-M   'P 1'
_cell_length_a   5.03092000
_cell_length_b   13.79540000
_cell_length_c   18.21250000
_cell_angle_alpha   88.40710000
_cell_angle_beta   89.99700000
_cell_angle_gamma   89.99920000
_symmetry_Int_Tables_number   1
_chemical_formula_structural   ZnH9C13N4O3
_chemical_formula_sum   'Zn4 H36 C52 N16 O12'
_cell_volume   1263.52376560
_cell_formula_units_Z   4
loop_
 _symmetry_equiv_pos_site_id
 _symmetry_equiv_pos_as_xyz
  1  'x, y, z'
loop_
 _atom_site_type_symbol
 _atom_site_label
 _atom_site_symmetry_multiplicity
 _atom_site_fract_x
 _atom_site_fract_y
 _atom_site_fract_z
 _atom_site_occupancy
  Zn  Zn0  1  0.54078000  0.51504000  0.77304000  1.0
  Zn  Zn1  1  0.45925000  0.48446000  0.22690000  1.0
  Zn  Zn2  1  0.04074000  0.98497000  0.72694000  1.0
  Zn  Zn3  1  0.95937000  0.01553000  0.27310000  1.0
  H  H4  1  0.68473000  0.93457000  0.91960000  1.0
  H  H5  1  0.29519000  0.93006000  0.08699000  1.0
  H  H6  1  0.18476000  0.56543000  0.58039000  1.0
  H  H7  1  0.79539000  0.56994000  0.41303000  1.0
  H  H8  1  0.31564000  0.06492000  0.08021000  1.0
  H  H9  1  0.70457000  0.06939000  0.91300000  1.0
  H  H10  1  0.81582000  0.43509000  0.41979000  1.0
  H  H11  1  0.20466000  0.43061000  0.58700000  1.0
  H  H12  1  0.95556000  0.66321000  0.01331000  1.0
  H  H13  1  0.45565000  0.83679000  0.48671000  1.0
  H  H14  1  0.04422000  0.33628000  0.98657000  1.0
  H  H15  1  0.54427000  0.16373000  0.51340000  1.0
  H  H16  1  0.85146000  0.61157000  0.90166000  1.0
  H  H17  1  0.11591000  0.59883000  0.11045000  1.0
  H  H18  1  0.35147000  0.88842000  0.59834000  1.0
  H  H19  1  0.61619000  0.90120000  0.38963000  1.0
  H  H20  1  0.14834000  0.38795000  0.09830000  1.0
  H  H21  1  0.88409000  0.40056000  0.88940000  1.0
  H  H22  1  0.64840000  0.11207000  0.40168000  1.0
  H  H23  1  0.38408000  0.09944000  0.61057000  1.0
  H  H24  1  0.14845000  0.70791000  0.79809000  1.0
  H  H25  1  0.79920000  0.69516000  0.21958000  1.0
  H  H26  1  0.64843000  0.79210000  0.70191000  1.0
  H  H27  1  0.29931000  0.80483000  0.28041000  1.0
  H  H28  1  0.85174000  0.29172000  0.20173000  1.0
  H  H29  1  0.20041000  0.30432000  0.78038000  1.0
  H  H30  1  0.35186000  0.20828000  0.29825000  1.0
  H  H31  1  0.70042000  0.19569000  0.71962000  1.0
  H  H32  1  0.33177000  0.85403000  0.88767000  1.0
  H  H33  1  0.59785000  0.84976000  0.13612000  1.0
  H  H34  1  0.83178000  0.64597000  0.61233000  1.0
  H  H35  1  0.09794000  0.65023000  0.36385000  1.0
  H  H36  1  0.66863000  0.14559000  0.11208000  1.0
  H  H37  1  0.40165000  0.14972000  0.86388000  1.0
  H  H38  1  0.16877000  0.35440000  0.38793000  1.0
  H  H39  1  0.90167000  0.35030000  0.63612000  1.0
  C  C40  1  0.99182000  0.94613000  0.00268000  1.0
  C  C41  1  0.49193000  0.55387000  0.49733000  1.0
  C  C42  1  0.00826000  0.05335000  0.99722000  1.0
  C  C43  1  0.50839000  0.44665000  0.50278000  1.0
  C  C44  1  0.81077000  0.89601000  0.95912000  1.0
  C  C45  1  0.15858000  0.89310000  0.05086000  1.0
  C  C46  1  0.31085000  0.60398000  0.54088000  1.0
  C  C47  1  0.65876000  0.60690000  0.44916000  1.0
  C  C48  1  0.18936000  0.10348000  0.04075000  1.0
  C  C49  1  0.84125000  0.10639000  0.94908000  1.0
  C  C50  1  0.68951000  0.39652000  0.45925000  1.0
  C  C51  1  0.34135000  0.39362000  0.55093000  1.0
  C  C52  1  0.80261000  0.79517000  0.96269000  1.0
  C  C53  1  0.14363000  0.79227000  0.05482000  1.0
  C  C54  1  0.30269000  0.70483000  0.53731000  1.0
  C  C55  1  0.64379000  0.70773000  0.44520000  1.0
  C  C56  1  0.19744000  0.20434000  0.03718000  1.0
  C  C57  1  0.85615000  0.20719000  0.94512000  1.0
  C  C58  1  0.69755000  0.29566000  0.46281000  1.0
  C  C59  1  0.35621000  0.29282000  0.55487000  1.0
  C  C60  1  0.96649000  0.74193000  0.01071000  1.0
  C  C61  1  0.46659000  0.75806000  0.48931000  1.0
  C  C62  1  0.03339000  0.25755000  0.98919000  1.0
  C  C63  1  0.53347000  0.24245000  0.51079000  1.0
  C  C64  1  0.67659000  0.65439000  0.88866000  1.0
  C  C65  1  0.28106000  0.64422000  0.12589000  1.0
  C  C66  1  0.17660000  0.84561000  0.61134000  1.0
  C  C67  1  0.78131000  0.85580000  0.37416000  1.0
  C  C68  1  0.32340000  0.34515000  0.11123000  1.0
  C  C69  1  0.71883000  0.35521000  0.87400000  1.0
  C  C70  1  0.82347000  0.15487000  0.38875000  1.0
  C  C71  1  0.21882000  0.14479000  0.62598000  1.0
  C  C72  1  0.31973000  0.70950000  0.83414000  1.0
  C  C73  1  0.62922000  0.69779000  0.18301000  1.0
  C  C74  1  0.81971000  0.79051000  0.66586000  1.0
  C  C75  1  0.12938000  0.80221000  0.31700000  1.0
  C  C76  1  0.68047000  0.29011000  0.16568000  1.0
  C  C77  1  0.37049000  0.30165000  0.81695000  1.0
  C  C78  1  0.18057000  0.20989000  0.33431000  1.0
  C  C79  1  0.87049000  0.19835000  0.68304000  1.0
  C  C80  1  0.40617000  0.78138000  0.87893000  1.0
  C  C81  1  0.53216000  0.77459000  0.14159000  1.0
  C  C82  1  0.90617000  0.71862000  0.62107000  1.0
  C  C83  1  0.03232000  0.72541000  0.35841000  1.0
  C  C84  1  0.59411000  0.21823000  0.12089000  1.0
  C  C85  1  0.46751000  0.22489000  0.85839000  1.0
  C  C86  1  0.09424000  0.28177000  0.37910000  1.0
  C  C87  1  0.96754000  0.27512000  0.64161000  1.0
  C  C88  1  0.02154000  0.51157000  0.71139000  1.0
  C  C89  1  0.97821000  0.48831000  0.28874000  1.0
  C  C90  1  0.52153000  0.98842000  0.78861000  1.0
  C  C91  1  0.47836000  0.01165000  0.21124000  1.0
  N  N92  1  0.63268000  0.74527000  0.91381000  1.0
  N  N93  1  0.31059000  0.73946000  0.10505000  1.0
  N  N94  1  0.13270000  0.75472000  0.58619000  1.0
  N  N95  1  0.81081000  0.76054000  0.39497000  1.0
  N  N96  1  0.36743000  0.25428000  0.08604000  1.0
  N  N97  1  0.68912000  0.26000000  0.89489000  1.0
  N  N98  1  0.86752000  0.24573000  0.41395000  1.0
  N  N99  1  0.18915000  0.24001000  0.60510000  1.0
  N  N100  1  0.49008000  0.63086000  0.84070000  1.0
  N  N101  1  0.47152000  0.61715000  0.17262000  1.0
  N  N102  1  0.99007000  0.86914000  0.65929000  1.0
  N  N103  1  0.97176000  0.88286000  0.32743000  1.0
  N  N104  1  0.50998000  0.36871000  0.15915000  1.0
  N  N105  1  0.52830000  0.38228000  0.82728000  1.0
  N  N106  1  0.01006000  0.13130000  0.34083000  1.0
  N  N107  1  0.02830000  0.11771000  0.67269000  1.0
  O  O108  1  0.27624000  0.51417000  0.69692000  1.0
  O  O109  1  0.72345000  0.48564000  0.30308000  1.0
  O  O110  1  0.77620000  0.98584000  0.80307000  1.0
  O  O111  1  0.22355000  0.01432000  0.19692000  1.0
  O  O112  1  0.85494000  0.49526000  0.66031000  1.0
  O  O113  1  0.14434000  0.50521000  0.33984000  1.0
  O  O114  1  0.35489000  0.00475000  0.83971000  1.0
  O  O115  1  0.64441000  0.99476000  0.16016000  1.0
  O  O116  1  0.93979000  0.52669000  0.77861000  1.0
  O  O117  1  0.06049000  0.47269000  0.22164000  1.0
  O  O118  1  0.43975000  0.97331000  0.72140000  1.0
  O  O119  1  0.56062000  0.02728000  0.27835000  1.0
