# generated using pymatgen
data_CdH16(C2O)8
_symmetry_space_group_name_H-M   'P 1'
_cell_length_a   4.67438000
_cell_length_b   13.10420000
_cell_length_c   13.85440000
_cell_angle_alpha   105.55600000
_cell_angle_beta   90.02060000
_cell_angle_gamma   100.24200000
_symmetry_Int_Tables_number   1
_chemical_formula_structural   CdH16(C2O)8
_chemical_formula_sum   'Cd2 H32 C32 O16'
_cell_volume   803.48993511
_cell_formula_units_Z   2
loop_
 _symmetry_equiv_pos_site_id
 _symmetry_equiv_pos_as_xyz
  1  'x, y, z'
loop_
 _atom_site_type_symbol
 _atom_site_label
 _atom_site_symmetry_multiplicity
 _atom_site_fract_x
 _atom_site_fract_y
 _atom_site_fract_z
 _atom_site_occupancy
  Cd  Cd0  1  0.99731000  0.99976000  0.75003000  1.0
  Cd  Cd1  1  0.00267000  0.00025000  0.24996000  1.0
  H  H2  1  0.52653000  0.13620000  0.83623000  1.0
  H  H3  1  0.39044000  0.86349000  0.66378000  1.0
  H  H4  1  0.47345000  0.86380000  0.16376000  1.0
  H  H5  1  0.60954000  0.13650000  0.33622000  1.0
  H  H6  1  0.45531000  0.04929000  0.89412000  1.0
  H  H7  1  0.40603000  0.95047000  0.60595000  1.0
  H  H8  1  0.54468000  0.95071000  0.10587000  1.0
  H  H9  1  0.59396000  0.04953000  0.39405000  1.0
  H  H10  1  0.20509000  0.89088000  0.97702000  1.0
  H  H11  1  0.31372000  0.10910000  0.52322000  1.0
  H  H12  1  0.79493000  0.10911000  0.02298000  1.0
  H  H13  1  0.68624000  0.89090000  0.47678000  1.0
  H  H14  1  0.84883000  0.75107000  0.02136000  1.0
  H  H15  1  0.09820000  0.24917000  0.47875000  1.0
  H  H16  1  0.15119000  0.24893000  0.97864000  1.0
  H  H17  1  0.90177000  0.75084000  0.52125000  1.0
  H  H18  1  0.11746000  0.50959000  0.77695000  1.0
  H  H19  1  0.60915000  0.49044000  0.72305000  1.0
  H  H20  1  0.88256000  0.49040000  0.22305000  1.0
  H  H21  1  0.39086000  0.50957000  0.27695000  1.0
  H  H22  1  0.46863000  0.65339000  0.73058000  1.0
  H  H23  1  0.81601000  0.34645000  0.76943000  1.0
  H  H24  1  0.53140000  0.34660000  0.26942000  1.0
  H  H25  1  0.18399000  0.65356000  0.23056000  1.0
  H  H26  1  0.46625000  0.61462000  0.99886000  1.0
  H  H27  1  0.85270000  0.38541000  0.50142000  1.0
  H  H28  1  0.53376000  0.38538000  0.00114000  1.0
  H  H29  1  0.14729000  0.61459000  0.49858000  1.0
  H  H30  1  0.72961000  0.58314000  0.07485000  1.0
  H  H31  1  0.14642000  0.41685000  0.42508000  1.0
  H  H32  1  0.27040000  0.41686000  0.92514000  1.0
  H  H33  1  0.85358000  0.58315000  0.57492000  1.0
  C  C34  1  0.58717000  0.86364000  0.82674000  1.0
  C  C35  1  0.72331000  0.13613000  0.67351000  1.0
  C  C36  1  0.41284000  0.13636000  0.17325000  1.0
  C  C37  1  0.27667000  0.86388000  0.32649000  1.0
  C  C38  1  0.36576000  0.78102000  0.85243000  1.0
  C  C39  1  0.58489000  0.21882000  0.64776000  1.0
  C  C40  1  0.63425000  0.21898000  0.14756000  1.0
  C  C41  1  0.41510000  0.78118000  0.35225000  1.0
  C  C42  1  0.18928000  0.80710000  0.93391000  1.0
  C  C43  1  0.38199000  0.19286000  0.56635000  1.0
  C  C44  1  0.81073000  0.19289000  0.06608000  1.0
  C  C45  1  0.61800000  0.80715000  0.43365000  1.0
  C  C46  1  0.98713000  0.72767000  0.95913000  1.0
  C  C47  1  0.25972000  0.27241000  0.54106000  1.0
  C  C48  1  0.01288000  0.27232000  0.04087000  1.0
  C  C49  1  0.74028000  0.72760000  0.45894000  1.0
  C  C50  1  0.96472000  0.62014000  0.90242000  1.0
  C  C51  1  0.34531000  0.37996000  0.59767000  1.0
  C  C52  1  0.03530000  0.37985000  0.09759000  1.0
  C  C53  1  0.65469000  0.62004000  0.40233000  1.0
  C  C54  1  0.13793000  0.59347000  0.81975000  1.0
  C  C55  1  0.54528000  0.40655000  0.68032000  1.0
  C  C56  1  0.86210000  0.40653000  0.18026000  1.0
  C  C57  1  0.45472000  0.59346000  0.31968000  1.0
  C  C58  1  0.33367000  0.67330000  0.79450000  1.0
  C  C59  1  0.66087000  0.32657000  0.70556000  1.0
  C  C60  1  0.66636000  0.32670000  0.20550000  1.0
  C  C61  1  0.33912000  0.67344000  0.29444000  1.0
  C  C62  1  0.59733000  0.55406000  0.00367000  1.0
  C  C63  1  0.04387000  0.44600000  0.49640000  1.0
  C  C64  1  0.40269000  0.44595000  0.99633000  1.0
  C  C65  1  0.95611000  0.55400000  0.50360000  1.0
  O  O66  1  0.68179000  0.84156000  0.73680000  1.0
  O  O67  1  0.83969000  0.15811000  0.76348000  1.0
  O  O68  1  0.31822000  0.15845000  0.26320000  1.0
  O  O69  1  0.16031000  0.84190000  0.23652000  1.0
  O  O70  1  0.68082000  0.95444000  0.88974000  1.0
  O  O71  1  0.72606000  0.04530000  0.61054000  1.0
  O  O72  1  0.31919000  0.04555000  0.11025000  1.0
  O  O73  1  0.27392000  0.95470000  0.38946000  1.0
  O  O74  1  0.78093000  0.53485000  0.92045000  1.0
  O  O75  1  0.24747000  0.46531000  0.57941000  1.0
  O  O76  1  0.21908000  0.46515000  0.07955000  1.0
  O  O77  1  0.75252000  0.53469000  0.42059000  1.0
  O  O78  1  0.36171000  0.09869000  0.86658000  1.0
  O  O79  1  0.26307000  0.90095000  0.63332000  1.0
  O  O80  1  0.63827000  0.90131000  0.13341000  1.0
  O  O81  1  0.73692000  0.09905000  0.36668000  1.0
