# generated using pymatgen
data_ZnH8C17(O2F3)2
_symmetry_space_group_name_H-M   'P 1'
_cell_length_a   7.60342000
_cell_length_b   21.32800000
_cell_length_c   21.32767763
_cell_angle_alpha   119.99950000
_cell_angle_beta   90.00000000
_cell_angle_gamma   89.99930000
_symmetry_Int_Tables_number   1
_chemical_formula_structural   ZnH8C17(O2F3)2
_chemical_formula_sum   'Zn6 H48 C102 O24 F36'
_cell_volume   2995.26671424
_cell_formula_units_Z   6
loop_
 _symmetry_equiv_pos_site_id
 _symmetry_equiv_pos_as_xyz
  1  'x, y, z'
loop_
 _atom_site_type_symbol
 _atom_site_label
 _atom_site_symmetry_multiplicity
 _atom_site_fract_x
 _atom_site_fract_y
 _atom_site_fract_z
 _atom_site_occupancy
  Zn  Zn0  1  0.14907000  0.36541000  0.63451000  1.0
  Zn  Zn1  1  0.48204000  0.96793000  0.93580000  1.0
  Zn  Zn2  1  0.48240000  0.36549000  0.73090000  1.0
  Zn  Zn3  1  0.81537000  0.06419000  0.03212000  1.0
  Zn  Zn4  1  0.81573000  0.26909000  0.63458000  1.0
  Zn  Zn5  1  0.14870000  0.96788000  0.03207000  1.0
  H  H6  1  0.94480000  0.60156000  0.67751000  1.0
  H  H7  1  0.48877000  0.30133000  0.49175000  1.0
  H  H8  1  0.82099000  0.82581000  0.85686000  1.0
  H  H9  1  0.01084000  0.25965000  0.17879000  1.0
  H  H10  1  0.47627000  0.14302000  0.17441000  1.0
  H  H11  1  0.95299000  0.41467000  0.48827000  1.0
  H  H12  1  0.28736000  0.82072000  0.74036000  1.0
  H  H13  1  0.80951000  0.50788000  0.69810000  1.0
  H  H14  1  0.68546000  0.73238000  0.74260000  1.0
  H  H15  1  0.35318000  0.32200000  0.39820000  1.0
  H  H16  1  0.81955000  0.43660000  0.39604000  1.0
  H  H17  1  0.61181000  0.25726000  0.26794000  1.0
  H  H18  1  0.34426000  0.51199000  0.58560000  1.0
  H  H19  1  0.47743000  0.60427000  0.56372000  1.0
  H  H20  1  0.14417000  0.37380000  0.27101000  1.0
  H  H21  1  0.15395000  0.72859000  0.62619000  1.0
  H  H22  1  0.27814000  0.32250000  0.92405000  1.0
  H  H23  1  0.82212000  0.50826000  0.80959000  1.0
  H  H24  1  0.15432000  0.14314000  0.96895000  1.0
  H  H25  1  0.34418000  0.82121000  0.08086000  1.0
  H  H26  1  0.80960000  0.82559000  0.96861000  1.0
  H  H27  1  0.28633000  0.51173000  0.92640000  1.0
  H  H28  1  0.62069000  0.25964000  0.08035000  1.0
  H  H29  1  0.14285000  0.30190000  0.80978000  1.0
  H  H30  1  0.01878000  0.25741000  0.98978000  1.0
  H  H31  1  0.68652000  0.60180000  0.92380000  1.0
  H  H32  1  0.15290000  0.60395000  0.04056000  1.0
  H  H33  1  0.94514000  0.73205000  0.98932000  1.0
  H  H34  1  0.67759000  0.41439000  0.92639000  1.0
  H  H35  1  0.81077000  0.43628000  0.04055000  1.0
  H  H36  1  0.47751000  0.72898000  0.10279000  1.0
  H  H37  1  0.48728000  0.37380000  0.10239000  1.0
  H  H38  1  0.61148000  0.07594000  0.39844000  1.0
  H  H39  1  0.15543000  0.19042000  0.69868000  1.0
  H  H40  1  0.48765000  0.03104000  0.17418000  1.0
  H  H41  1  0.67753000  0.91914000  0.74035000  1.0
  H  H42  1  0.14294000  0.03139000  0.85698000  1.0
  H  H43  1  0.61968000  0.07361000  0.58534000  1.0
  H  H44  1  0.95402000  0.91965000  0.17929000  1.0
  H  H45  1  0.47619000  0.19020000  0.49211000  1.0
  H  H46  1  0.35211000  0.01021000  0.26762000  1.0
  H  H47  1  0.01987000  0.07620000  0.67801000  1.0
  H  H48  1  0.48625000  0.95944000  0.56340000  1.0
  H  H49  1  0.27849000  0.01068000  0.74274000  1.0
  H  H50  1  0.01092000  0.07361000  0.48800000  1.0
  H  H51  1  0.14409000  0.95945000  0.39573000  1.0
  H  H52  1  0.81088000  0.89721000  0.62619000  1.0
  H  H53  1  0.82062000  0.89760000  0.27141000  1.0
  C  C54  1  0.81568000  0.34395000  0.55129000  1.0
  C  C55  1  0.14876000  0.12602000  0.11528000  1.0
  C  C56  1  0.48222000  0.44859000  0.65581000  1.0
  C  C57  1  0.14894000  0.88457000  0.87395000  1.0
  C  C58  1  0.56699000  0.50472000  0.64387000  1.0
  C  C59  1  0.23365000  0.19410000  0.17138000  1.0
  C  C60  1  0.73079000  0.35596000  0.49521000  1.0
  C  C61  1  0.06413000  0.82847000  0.80586000  1.0
  C  C62  1  0.81276000  0.58223000  0.65732000  1.0
  C  C63  1  0.56116000  0.33012000  0.46979000  1.0
  C  C64  1  0.89389000  0.80354000  0.80621000  1.0
  C  C65  1  0.14232000  0.25960000  0.19897000  1.0
  C  C66  1  0.40360000  0.19372000  0.19655000  1.0
  C  C67  1  0.82184000  0.39416000  0.46786000  1.0
  C  C68  1  0.15568000  0.80069000  0.74039000  1.0
  C  C69  1  0.73684000  0.52998000  0.66950000  1.0
  C  C70  1  0.38804000  0.32399000  0.27693000  1.0
  C  C71  1  0.81779000  0.75142000  0.74176000  1.0
  C  C72  1  0.48510000  0.34233000  0.41759000  1.0
  C  C73  1  0.90955000  0.72307000  0.67592000  1.0
  C  C74  1  0.74556000  0.40625000  0.41556000  1.0
  C  C75  1  0.48216000  0.39342333  0.33333333  1.0
  C  C76  1  0.47967000  0.25814000  0.24872000  1.0
  C  C77  1  0.81521000  0.66675000  0.60653000  1.0
  C  C78  1  0.47561000  0.53228000  0.60594000  1.0
  C  C79  1  0.55176000  0.58460000  0.59385000  1.0
  C  C80  1  0.21858000  0.32400000  0.25126000  1.0
  C  C81  1  0.35249000  0.45800000  0.37653000  1.0
  C  C82  1  0.07934000  0.74848000  0.67596000  1.0
  C  C83  1  0.61166000  0.41494000  0.29018000  1.0
  C  C84  1  0.72112000  0.61038000  0.61961000  1.0
  C  C85  1  0.57641000  0.38029000  0.38964000  1.0
  C  C86  1  0.68552000  0.70994000  0.58512000  1.0
  C  C87  1  0.94463000  0.62359000  0.54182000  1.0
  C  C88  1  0.14903000  0.44871000  0.79267000  1.0
  C  C89  1  0.48209000  0.88472000  0.01074000  1.0
  C  C90  1  0.81558000  0.34418000  0.79278000  1.0
  C  C91  1  0.48227000  0.12606000  0.01062000  1.0
  C  C92  1  0.90033000  0.35613000  0.86085000  1.0
  C  C93  1  0.56698000  0.82862000  0.02272000  1.0
  C  C94  1  0.06414000  0.50480000  0.86076000  1.0
  C  C95  1  0.39745000  0.19413000  0.02261000  1.0
  C  C96  1  0.14610000  0.34268000  0.92492000  1.0
  C  C97  1  0.89450000  0.53021000  0.86033000  1.0
  C  C98  1  0.22721000  0.19380000  0.99734000  1.0
  C  C99  1  0.47566000  0.80104000  0.06064000  1.0
  C  C100  1  0.73693000  0.80345000  0.99717000  1.0
  C  C101  1  0.15518000  0.53215000  0.92630000  1.0
  C  C102  1  0.48901000  0.25960000  0.06029000  1.0
  C  C103  1  0.07019000  0.33050000  0.86048000  1.0
  C  C104  1  0.72138000  0.72307000  0.04707000  1.0
  C  C105  1  0.15111000  0.25825000  0.00967000  1.0
  C  C106  1  0.81845000  0.58241000  0.92474000  1.0
  C  C107  1  0.24287000  0.32408000  0.04715000  1.0
  C  C108  1  0.07890000  0.58444000  0.99069000  1.0
  C  C109  1  0.81552000  0.66668000  0.06009000  1.0
  C  C110  1  0.81300000  0.75128000  0.00943000  1.0
  C  C111  1  0.14854000  0.39347000  0.06022000  1.0
  C  C112  1  0.80894000  0.39407000  0.92634000  1.0
  C  C113  1  0.88510000  0.40616000  0.99075000  1.0
  C  C114  1  0.55192000  0.74874000  0.07274000  1.0
  C  C115  1  0.68585000  0.62348000  0.08149000  1.0
  C  C116  1  0.41267000  0.32403000  0.07252000  1.0
  C  C117  1  0.94503000  0.70983000  0.12476000  1.0
  C  C118  1  0.05446000  0.38040000  0.99077000  1.0
  C  C119  1  0.90976000  0.61037000  0.99065000  1.0
  C  C120  1  0.01885000  0.41489000  0.12482000  1.0
  C  C121  1  0.27796000  0.45818000  0.08177000  1.0
  C  C122  1  0.48236000  0.20734000  0.65604000  1.0
  C  C123  1  0.81545000  0.98926000  0.87398000  1.0
  C  C124  1  0.14889000  0.20722000  0.55140000  1.0
  C  C125  1  0.81559000  0.98938000  0.11543000  1.0
  C  C126  1  0.23366000  0.13914000  0.49527000  1.0
  C  C127  1  0.90033000  0.97727000  0.80590000  1.0
  C  C128  1  0.39746000  0.13925000  0.64404000  1.0
  C  C129  1  0.73078000  0.97739000  0.17152000  1.0
  C  C130  1  0.47943000  0.07508000  0.41776000  1.0
  C  C131  1  0.22783000  0.13968000  0.66989000  1.0
  C  C132  1  0.56054000  0.00266000  0.19646000  1.0
  C  C133  1  0.80901000  0.93936000  0.74040000  1.0
  C  C134  1  0.07028000  0.00283000  0.80628000  1.0
  C  C135  1  0.48852000  0.07371000  0.60585000  1.0
  C  C136  1  0.82234000  0.93970000  0.19931000  1.0
  C  C137  1  0.40352000  0.13951000  0.47001000  1.0
  C  C138  1  0.05473000  0.95294000  0.67601000  1.0
  C  C139  1  0.48444000  0.99032000  0.24857000  1.0
  C  C140  1  0.15178000  0.07526000  0.65768000  1.0
  C  C141  1  0.57621000  0.95284000  0.27692000  1.0
  C  C142  1  0.41225000  0.00931000  0.59375000  1.0
  C  C143  1  0.14886000  0.93992333  0.60659000  1.0
  C  C144  1  0.14636000  0.99058000  0.74186000  1.0
  C  C145  1  0.48187000  0.93977000  0.33325000  1.0
  C  C146  1  0.14228000  0.07366000  0.46772000  1.0
  C  C147  1  0.21843000  0.00925000  0.41540000  1.0
  C  C148  1  0.88527000  0.92726000  0.67600000  1.0
  C  C149  1  0.01918000  0.91854000  0.54200000  1.0
  C  C150  1  0.74600000  0.92747000  0.25151000  1.0
  C  C151  1  0.27837000  0.87524000  0.58506000  1.0
  C  C152  1  0.38779000  0.00923000  0.38962000  1.0
  C  C153  1  0.24310000  0.00936000  0.61972000  1.0
  C  C154  1  0.35218000  0.87518000  0.29006000  1.0
  C  C155  1  0.61129000  0.91822000  0.37640000  1.0
  O  O156  1  0.29698000  0.90844000  0.86764000  1.0
  O  O157  1  0.96361000  0.37424000  0.57526000  1.0
  O  O158  1  0.23159000  0.06666000  0.09523000  1.0
  O  O159  1  0.33430000  0.42464000  0.62553000  1.0
  O  O160  1  0.56492000  0.42866000  0.69525000  1.0
  O  O161  1  0.06608000  0.90457000  0.93329000  1.0
  O  O162  1  0.73309000  0.30447000  0.57119000  1.0
  O  O163  1  0.00067000  0.13234000  0.09144000  1.0
  O  O164  1  0.63031000  0.13236000  0.04080000  1.0
  O  O165  1  0.29699000  0.42475000  0.79899000  1.0
  O  O166  1  0.56491000  0.90476000  0.97142000  1.0
  O  O167  1  0.66764000  0.37447000  0.79910000  1.0
  O  O168  1  0.89826000  0.30475000  0.73341000  1.0
  O  O169  1  0.39941000  0.06671000  0.97127000  1.0
  O  O170  1  0.06645000  0.42881000  0.73328000  1.0
  O  O171  1  0.33401000  0.90857000  0.04091000  1.0
  O  O172  1  0.96365000  0.95921000  0.09156000  1.0
  O  O173  1  0.63028000  0.20102000  0.62577000  1.0
  O  O174  1  0.89826000  0.02858000  0.93334000  1.0
  O  O175  1  0.00098000  0.20089000  0.57536000  1.0
  O  O176  1  0.23158000  0.26659000  0.57133000  1.0
  O  O177  1  0.73273000  0.02872000  0.09543000  1.0
  O  O178  1  0.39975000  0.26673000  0.69553000  1.0
  O  O179  1  0.66736000  0.95909000  0.86766000  1.0
  F  F180  1  0.01804000  0.66451000  0.51614000  1.0
  F  F181  1  0.55041000  0.73842000  0.63371000  1.0
  F  F182  1  0.61230000  0.66917000  0.51846000  1.0
  F  F183  1  0.74679000  0.36637000  0.26164000  1.0
  F  F184  1  0.07957000  0.59480000  0.56167000  1.0
  F  F185  1  0.27909000  0.48385000  0.33574000  1.0
  F  F186  1  0.68480000  0.48162000  0.33104000  1.0
  F  F187  1  0.21751000  0.43791000  0.40508000  1.0
  F  F188  1  0.86240000  0.56731000  0.48506000  1.0
  F  F189  1  0.43446000  0.51472000  0.43297000  1.0
  F  F190  1  0.76748000  0.76641000  0.58494000  1.0
  F  F191  1  0.52965000  0.41521000  0.23376000  1.0
  F  F192  1  0.35140000  0.48386000  0.14837000  1.0
  F  F193  1  0.88375000  0.36630000  0.10472000  1.0
  F  F194  1  0.94562000  0.48154000  0.15071000  1.0
  F  F195  1  0.08016000  0.73836000  0.10473000  1.0
  F  F196  1  0.41289000  0.43833000  0.03313000  1.0
  F  F197  1  0.61247000  0.66428000  0.14812000  1.0
  F  F198  1  0.01816000  0.66897000  0.15058000  1.0
  F  F199  1  0.55088000  0.59493000  0.03285000  1.0
  F  F200  1  0.19572000  0.51494000  0.08225000  1.0
  F  F201  1  0.76783000  0.56705000  0.08176000  1.0
  F  F202  1  0.10083000  0.41506000  0.18147000  1.0
  F  F203  1  0.86303000  0.76625000  0.18145000  1.0
  F  F204  1  0.68472000  0.85162000  0.33547000  1.0
  F  F205  1  0.21708000  0.89528000  0.26156000  1.0
  F  F206  1  0.27895000  0.84929000  0.33083000  1.0
  F  F207  1  0.41349000  0.89527000  0.63363000  1.0
  F  F208  1  0.74621000  0.96686000  0.40519000  1.0
  F  F209  1  0.94579000  0.85190000  0.51616000  1.0
  F  F210  1  0.35151000  0.84942000  0.51838000  1.0
  F  F211  1  0.88421000  0.96718000  0.56209000  1.0
  F  F212  1  0.52906000  0.91773000  0.43268000  1.0
  F  F213  1  0.10116000  0.91826000  0.48529000  1.0
  F  F214  1  0.43415000  0.81852000  0.23359000  1.0
  F  F215  1  0.19635000  0.81855000  0.58479000  1.0
