# generated using pymatgen
data_MnH12C18N2(O3F2)2
_symmetry_space_group_name_H-M   'P 1'
_cell_length_a   6.99999000
_cell_length_b   7.81468000
_cell_length_c   8.37463000
_cell_angle_alpha   87.34630000
_cell_angle_beta   71.36300000
_cell_angle_gamma   89.94960000
_symmetry_Int_Tables_number   1
_chemical_formula_structural   MnH12C18N2(O3F2)2
_chemical_formula_sum   'Mn1 H12 C18 N2 O6 F4'
_cell_volume   433.57982816
_cell_formula_units_Z   1
loop_
 _symmetry_equiv_pos_site_id
 _symmetry_equiv_pos_as_xyz
  1  'x, y, z'
loop_
 _atom_site_type_symbol
 _atom_site_label
 _atom_site_symmetry_multiplicity
 _atom_site_fract_x
 _atom_site_fract_y
 _atom_site_fract_z
 _atom_site_occupancy
  Mn  Mn0  1  0.99999000  0.99999000  0.00000000  1.0
  H  H1  1  0.87698000  0.02134000  0.39850000  1.0
  H  H2  1  0.12300000  0.97867000  0.60150000  1.0
  H  H3  1  0.86947000  0.22367000  0.61619000  1.0
  H  H4  1  0.13047000  0.77634000  0.38380000  1.0
  H  H5  1  0.12377000  0.60695000  0.21242000  1.0
  H  H6  1  0.87627000  0.39303000  0.78758000  1.0
  H  H7  1  0.12556000  0.38612000  0.01368000  1.0
  H  H8  1  0.87449000  0.61386000  0.98631000  1.0
  H  H9  1  0.38179000  0.95058000  0.91140000  1.0
  H  H10  1  0.61821000  0.04942000  0.08860000  1.0
  H  H11  1  0.34018000  0.86878000  0.09462000  1.0
  H  H12  1  0.65983000  0.13122000  0.90538000  1.0
  C  C13  1  0.93378000  0.15200000  0.36248000  1.0
  C  C14  1  0.06621000  0.84800000  0.63752000  1.0
  C  C15  1  0.92999000  0.26768000  0.48455000  1.0
  C  C16  1  0.06999000  0.73233000  0.51544000  1.0
  C  C17  1  0.00038000  0.43662000  0.43674000  1.0
  C  C18  1  0.99962000  0.56338000  0.56326000  1.0
  C  C19  1  0.07008000  0.47879000  0.26258000  1.0
  C  C20  1  0.92993000  0.52120000  0.73741000  1.0
  C  C21  1  0.07049000  0.35493000  0.14878000  1.0
  C  C22  1  0.92953000  0.64506000  0.85122000  1.0
  C  C23  1  0.36667000  0.20577000  0.74135000  1.0
  C  C24  1  0.63333000  0.79423000  0.25865000  1.0
  C  C25  1  0.45879000  0.34420000  0.44657000  1.0
  C  C26  1  0.54119000  0.65582000  0.55345000  1.0
  C  C27  1  0.43514000  0.35820000  0.61697000  1.0
  C  C28  1  0.56487000  0.64181000  0.38304000  1.0
  C  C29  1  0.47705000  0.51668000  0.66854000  1.0
  C  C30  1  0.52295000  0.48333000  0.33148000  1.0
  N  N31  1  0.00446000  0.19273000  0.19580000  1.0
  N  N32  1  0.99555000  0.80727000  0.80419000  1.0
  O  O33  1  0.50090000  0.12175000  0.78005000  1.0
  O  O34  1  0.49910000  0.87826000  0.21997000  1.0
  O  O35  1  0.17805000  0.17524000  0.79461000  1.0
  O  O36  1  0.82196000  0.82473000  0.20537000  1.0
  O  O37  1  0.28171000  0.87888000  0.00186000  1.0
  O  O38  1  0.71829000  0.12113000  0.99815000  1.0
  F  F39  1  0.41855000  0.19210000  0.39167000  1.0
  F  F40  1  0.58144000  0.80791000  0.60834000  1.0
  F  F41  1  0.45677000  0.53547000  0.83322000  1.0
  F  F42  1  0.54324000  0.46455000  0.16680000  1.0
