# generated using pymatgen
data_CdH8C12(NO2)2
_symmetry_space_group_name_H-M   'P 1'
_cell_length_a   9.90662000
_cell_length_b   10.61030000
_cell_length_c   12.41980000
_cell_angle_alpha   90.00000000
_cell_angle_beta   112.46200000
_cell_angle_gamma   90.00000000
_symmetry_Int_Tables_number   1
_chemical_formula_structural   CdH8C12(NO2)2
_chemical_formula_sum   'Cd4 H32 C48 N8 O16'
_cell_volume   1206.43051186
_cell_formula_units_Z   4
loop_
 _symmetry_equiv_pos_site_id
 _symmetry_equiv_pos_as_xyz
  1  'x, y, z'
loop_
 _atom_site_type_symbol
 _atom_site_label
 _atom_site_symmetry_multiplicity
 _atom_site_fract_x
 _atom_site_fract_y
 _atom_site_fract_z
 _atom_site_occupancy
  Cd  Cd0  1  0.82198000  0.89449000  0.94203000  1.0
  Cd  Cd1  1  0.17802000  0.39449000  0.55797000  1.0
  Cd  Cd2  1  0.17802000  0.10551000  0.05797000  1.0
  Cd  Cd3  1  0.82198000  0.60551000  0.44203000  1.0
  H  H4  1  0.24158000  0.55676000  0.36401000  1.0
  H  H5  1  0.75842000  0.05675000  0.13598000  1.0
  H  H6  1  0.75842000  0.44324000  0.63598000  1.0
  H  H7  1  0.24158000  0.94324000  0.86401000  1.0
  H  H8  1  0.39707000  0.73630000  0.34553000  1.0
  H  H9  1  0.60295000  0.23630000  0.15447000  1.0
  H  H10  1  0.60294000  0.26370000  0.65447000  1.0
  H  H11  1  0.39706000  0.76370000  0.84553000  1.0
  H  H12  1  0.57599000  0.83419000  0.52757000  1.0
  H  H13  1  0.42402000  0.33419000  0.97243000  1.0
  H  H14  1  0.42402000  0.16581000  0.47243000  1.0
  H  H15  1  0.57598000  0.66581000  0.02757000  1.0
  H  H16  1  0.43466000  0.56623000  0.72422000  1.0
  H  H17  1  0.56533000  0.06623000  0.77578000  1.0
  H  H18  1  0.56533000  0.43377000  0.27578000  1.0
  H  H19  1  0.43467000  0.93377000  0.22422000  1.0
  H  H20  1  0.12934000  0.81301000  0.63469000  1.0
  H  H21  1  0.87066000  0.31301000  0.86531000  1.0
  H  H22  1  0.87066000  0.18699000  0.36532000  1.0
  H  H23  1  0.12934000  0.68699000  0.13469000  1.0
  H  H24  1  0.25267000  0.99762000  0.58305000  1.0
  H  H25  1  0.74733000  0.49762000  0.91695000  1.0
  H  H26  1  0.74733000  0.00238000  0.41695000  1.0
  H  H27  1  0.25267000  0.50238000  0.08305000  1.0
  H  H28  1  0.19344000  0.04529000  0.37074000  1.0
  H  H29  1  0.80656000  0.54528000  0.12926000  1.0
  H  H30  1  0.80656000  0.95472000  0.62926000  1.0
  H  H31  1  0.19344000  0.45472000  0.87074000  1.0
  H  H32  1  0.91299000  0.72114000  0.28648000  1.0
  H  H33  1  0.08701000  0.22114000  0.21352000  1.0
  H  H34  1  0.08701000  0.27887000  0.71352000  1.0
  H  H35  1  0.91299000  0.77886000  0.78648000  1.0
  C  C36  1  0.32071000  0.60273000  0.44055000  1.0
  C  C37  1  0.67930000  0.10273000  0.05945000  1.0
  C  C38  1  0.67930000  0.39726000  0.55945000  1.0
  C  C39  1  0.32070000  0.89726000  0.94055000  1.0
  C  C40  1  0.40682000  0.70210000  0.43077000  1.0
  C  C41  1  0.59319000  0.20210000  0.06923000  1.0
  C  C42  1  0.59318000  0.29790000  0.56923000  1.0
  C  C43  1  0.40682000  0.79790000  0.93077000  1.0
  C  C44  1  0.50643000  0.75655000  0.53187000  1.0
  C  C45  1  0.49358000  0.25655000  0.96813000  1.0
  C  C46  1  0.49358000  0.24345000  0.46813000  1.0
  C  C47  1  0.50642000  0.74345000  0.03186000  1.0
  C  C48  1  0.51817000  0.70851000  0.63996000  1.0
  C  C49  1  0.48183000  0.20851000  0.86005000  1.0
  C  C50  1  0.48183000  0.29149000  0.36005000  1.0
  C  C51  1  0.51817000  0.79149000  0.13995000  1.0
  C  C52  1  0.42839000  0.60779000  0.64204000  1.0
  C  C53  1  0.57161000  0.10779000  0.85796000  1.0
  C  C54  1  0.57161000  0.39221000  0.35796000  1.0
  C  C55  1  0.42839000  0.89221000  0.14204000  1.0
  C  C56  1  0.11029000  0.83457000  0.54402000  1.0
  C  C57  1  0.88971000  0.33457000  0.95598000  1.0
  C  C58  1  0.88971000  0.16543000  0.45599000  1.0
  C  C59  1  0.11029000  0.66543000  0.04402000  1.0
  C  C60  1  0.17823000  0.93718000  0.51508000  1.0
  C  C61  1  0.82176000  0.43718000  0.98491000  1.0
  C  C62  1  0.82177000  0.06283000  0.48492000  1.0
  C  C63  1  0.17823000  0.56283000  0.01509000  1.0
  C  C64  1  0.14480000  0.96487000  0.39754000  1.0
  C  C65  1  0.85520000  0.46487000  0.10246000  1.0
  C  C66  1  0.85520000  0.03514000  0.60246000  1.0
  C  C67  1  0.14480000  0.53513000  0.89754000  1.0
  C  C68  1  0.04481000  0.88712000  0.31392000  1.0
  C  C69  1  0.95519000  0.38713000  0.18608000  1.0
  C  C70  1  0.95519000  0.11288000  0.68608000  1.0
  C  C71  1  0.04481000  0.61288000  0.81392000  1.0
  C  C72  1  0.98811000  0.78358000  0.35155000  1.0
  C  C73  1  0.01189000  0.28358000  0.14845000  1.0
  C  C74  1  0.01189000  0.21642000  0.64845000  1.0
  C  C75  1  0.98811000  0.71642000  0.85155000  1.0
  C  C76  1  0.98272000  0.90871000  0.18532000  1.0
  C  C77  1  0.01728000  0.40871000  0.31468000  1.0
  C  C78  1  0.01728000  0.09129000  0.81469000  1.0
  C  C79  1  0.98272000  0.59129000  0.68532000  1.0
  C  C80  1  0.62304000  0.76387000  0.75162000  1.0
  C  C81  1  0.37696000  0.26387000  0.74838000  1.0
  C  C82  1  0.37696000  0.23613000  0.24838000  1.0
  C  C83  1  0.62304000  0.73613000  0.25162000  1.0
  N  N84  1  0.33068000  0.55674000  0.54433000  1.0
  N  N85  1  0.66933000  0.05674000  0.95567000  1.0
  N  N86  1  0.66933000  0.44325000  0.45567000  1.0
  N  N87  1  0.33067000  0.94325000  0.04433000  1.0
  N  N88  1  0.01751000  0.75737000  0.46338000  1.0
  N  N89  1  0.98248000  0.25738000  0.03661000  1.0
  N  N90  1  0.98249000  0.24263000  0.53662000  1.0
  N  N91  1  0.01751000  0.74262000  0.96339000  1.0
  O  O92  1  0.67425000  0.87349000  0.74564000  1.0
  O  O93  1  0.32575000  0.37349000  0.75436000  1.0
  O  O94  1  0.32575000  0.12651000  0.25436000  1.0
  O  O95  1  0.67425000  0.62651000  0.24564000  1.0
  O  O96  1  0.86924000  0.84290000  0.12866000  1.0
  O  O97  1  0.13077000  0.34291000  0.37134000  1.0
  O  O98  1  0.13077000  0.15709000  0.87135000  1.0
  O  O99  1  0.86923000  0.65709000  0.62866000  1.0
  O  O100  1  0.65572000  0.70256000  0.84570000  1.0
  O  O101  1  0.34427000  0.20255000  0.65430000  1.0
  O  O102  1  0.34427000  0.29744000  0.15430000  1.0
  O  O103  1  0.65573000  0.79745000  0.34570000  1.0
  O  O104  1  0.03656000  0.98941000  0.13818000  1.0
  O  O105  1  0.96344000  0.48941000  0.36182000  1.0
  O  O106  1  0.96343000  0.01059000  0.86182000  1.0
  O  O107  1  0.03657000  0.51060000  0.63818000  1.0
