# generated using pymatgen
data_ZnH(CO)5
_symmetry_space_group_name_H-M   'P 1'
_cell_length_a   6.79198000
_cell_length_b   15.23050000
_cell_length_c   15.22927176
_cell_angle_alpha   117.80729752
_cell_angle_beta   98.54571785
_cell_angle_gamma   98.55450000
_symmetry_Int_Tables_number   1
_chemical_formula_structural   ZnH(CO)5
_chemical_formula_sum   'Zn6 H6 C30 O30'
_cell_volume   1334.48883941
_cell_formula_units_Z   6
loop_
 _symmetry_equiv_pos_site_id
 _symmetry_equiv_pos_as_xyz
  1  'x, y, z'
loop_
 _atom_site_type_symbol
 _atom_site_label
 _atom_site_symmetry_multiplicity
 _atom_site_fract_x
 _atom_site_fract_y
 _atom_site_fract_z
 _atom_site_occupancy
  Zn  Zn0  1  0.20638000  0.32432000  0.73625000  1.0
  Zn  Zn1  1  0.88197000  0.41176000  0.67555000  1.0
  Zn  Zn2  1  0.47027000  0.26375000  0.58821000  1.0
  Zn  Zn3  1  0.79361000  0.67568000  0.26375000  1.0
  Zn  Zn4  1  0.11803000  0.58824000  0.32445000  1.0
  Zn  Zn5  1  0.52973000  0.73625000  0.41179000  1.0
  H  H6  1  0.37174000  0.02426000  0.56133000  1.0
  H  H7  1  0.34746000  0.53705000  0.97569000  1.0
  H  H8  1  0.81038000  0.43867000  0.46291000  1.0
  H  H9  1  0.62826000  0.97574000  0.43867000  1.0
  H  H10  1  0.65254000  0.46295000  0.02431000  1.0
  H  H11  1  0.18962000  0.56132000  0.53708000  1.0
  C  C12  1  0.80999000  0.17082000  0.56258000  1.0
  C  C13  1  0.63909000  0.39164000  0.82918000  1.0
  C  C14  1  0.24743000  0.43740000  0.60832000  1.0
  C  C15  1  0.19001000  0.82918000  0.43742000  1.0
  C  C16  1  0.36091000  0.60836000  0.17082000  1.0
  C  C17  1  0.75257000  0.56260000  0.39168000  1.0
  C  C18  1  0.91430000  0.08585000  0.53304000  1.0
  C  C19  1  0.82842000  0.44714000  0.91413000  1.0
  C  C20  1  0.38126000  0.46692000  0.55283000  1.0
  C  C21  1  0.08569000  0.91415000  0.46696000  1.0
  C  C22  1  0.17158000  0.55286000  0.08587000  1.0
  C  C23  1  0.61875000  0.53308000  0.44717000  1.0
  C  C24  1  0.13011000  0.10100000  0.56917000  1.0
  C  C25  1  0.02910000  0.46809000  0.89896000  1.0
  C  C26  1  0.56090000  0.43080000  0.53182000  1.0
  C  C27  1  0.86989000  0.89900000  0.43083000  1.0
  C  C28  1  0.97090000  0.53191000  0.10104000  1.0
  C  C29  1  0.43910000  0.56920000  0.46818000  1.0
  C  C30  1  0.20773000  0.01374000  0.53450000  1.0
  C  C31  1  0.19396000  0.52073000  0.98623000  1.0
  C  C32  1  0.67320000  0.46551000  0.47923000  1.0
  C  C33  1  0.79227000  0.98626000  0.46550000  1.0
  C  C34  1  0.80604000  0.47927000  0.01377000  1.0
  C  C35  1  0.32680000  0.53449000  0.52077000  1.0
  C  C36  1  0.15353000  0.26810000  0.92071000  1.0
  C  C37  1  0.88508000  0.65219000  0.73147000  1.0
  C  C38  1  0.23332000  0.07963000  0.34792000  1.0
  C  C39  1  0.84648000  0.73190000  0.07931000  1.0
  C  C40  1  0.11492000  0.34780000  0.26852000  1.0
  C  C41  1  0.76668000  0.92037000  0.65207000  1.0
  O  O42  1  0.91713000  0.26237000  0.62718000  1.0
  O  O43  1  0.65468000  0.36482000  0.73764000  1.0
  O  O44  1  0.29006000  0.37279000  0.63528000  1.0
  O  O45  1  0.08287000  0.73763000  0.37282000  1.0
  O  O46  1  0.34532000  0.63518000  0.26236000  1.0
  O  O47  1  0.70994000  0.62721000  0.36472000  1.0
  O  O48  1  0.61773000  0.15131000  0.52387000  1.0
  O  O49  1  0.46641000  0.37224000  0.84867000  1.0
  O  O50  1  0.09397000  0.47617000  0.62756000  1.0
  O  O51  1  0.38227000  0.84869000  0.47613000  1.0
  O  O52  1  0.53359000  0.62776000  0.15133000  1.0
  O  O53  1  0.90603000  0.52383000  0.37244000  1.0
  O  O54  1  0.26473000  0.19277000  0.63320000  1.0
  O  O55  1  0.07198000  0.44025000  0.80716000  1.0
  O  O56  1  0.63154000  0.36673000  0.55953000  1.0
  O  O57  1  0.73527000  0.80723000  0.36680000  1.0
  O  O58  1  0.92802000  0.55975000  0.19284000  1.0
  O  O59  1  0.36846000  0.63327000  0.44047000  1.0
  O  O60  1  0.23509000  0.29314000  0.00518000  1.0
  O  O61  1  0.94105000  0.71192000  0.70666000  1.0
  O  O62  1  0.22966000  0.99511000  0.28837000  1.0
  O  O63  1  0.76489000  0.70686000  0.99482000  1.0
  O  O64  1  0.05895000  0.28807000  0.29333000  1.0
  O  O65  1  0.77034000  0.00489000  0.71162000  1.0
  O  O66  1  0.06880000  0.24097000  0.83554000  1.0
  O  O67  1  0.82806000  0.59398000  0.75850000  1.0
  O  O68  1  0.23444000  0.16487000  0.40601000  1.0
  O  O69  1  0.93119000  0.75903000  0.16446000  1.0
  O  O70  1  0.17194000  0.40602000  0.24150000  1.0
  O  O71  1  0.76556000  0.83514000  0.59399000  1.0
