# generated using pymatgen
data_Cd3H56C76(N3O7)2
_symmetry_space_group_name_H-M   'P 1'
_cell_length_a   12.79230000
_cell_length_b   12.79230000
_cell_length_c   24.52830000
_cell_angle_alpha   75.11070000
_cell_angle_beta   75.11090000
_cell_angle_gamma   76.77860000
_symmetry_Int_Tables_number   1
_chemical_formula_structural   Cd3H56C76(N3O7)2
_chemical_formula_sum   'Cd6 H112 C152 N12 O28'
_cell_volume   3691.55838709
_cell_formula_units_Z   2
loop_
 _symmetry_equiv_pos_site_id
 _symmetry_equiv_pos_as_xyz
  1  'x, y, z'
loop_
 _atom_site_type_symbol
 _atom_site_label
 _atom_site_symmetry_multiplicity
 _atom_site_fract_x
 _atom_site_fract_y
 _atom_site_fract_z
 _atom_site_occupancy
  Cd  Cd0  1  0.25609000  0.74391000  0.25000000  1.0
  Cd  Cd1  1  0.74391000  0.25609000  0.75000000  1.0
  Cd  Cd2  1  0.50380000  0.12427000  0.80205000  1.0
  Cd  Cd3  1  0.87573000  0.49620000  0.69795000  1.0
  Cd  Cd4  1  0.49620000  0.87573000  0.19795000  1.0
  Cd  Cd5  1  0.12427000  0.50380000  0.30205000  1.0
  H  H6  1  0.81401000  0.71534000  0.54315000  1.0
  H  H7  1  0.28465000  0.18599000  0.95685000  1.0
  H  H8  1  0.18599000  0.28466000  0.45685000  1.0
  H  H9  1  0.71535000  0.81402000  0.04315000  1.0
  H  H10  1  0.91146000  0.62742000  0.46073000  1.0
  H  H11  1  0.37258000  0.08854000  0.03927000  1.0
  H  H12  1  0.08854000  0.37258000  0.53927000  1.0
  H  H13  1  0.62742000  0.91147000  0.96073000  1.0
  H  H14  1  0.73446000  0.17327000  0.59011000  1.0
  H  H15  1  0.82672000  0.26554000  0.90989000  1.0
  H  H16  1  0.26554000  0.82673000  0.40989000  1.0
  H  H17  1  0.17327000  0.73446000  0.09011000  1.0
  H  H18  1  0.65798000  0.38917000  0.85547000  1.0
  H  H19  1  0.61083000  0.34202000  0.64453000  1.0
  H  H20  1  0.34202000  0.61083000  0.14453000  1.0
  H  H21  1  0.38917000  0.65798000  0.35548000  1.0
  H  H22  1  0.81651000  0.08707000  0.50570000  1.0
  H  H23  1  0.91293000  0.18349000  0.99430000  1.0
  H  H24  1  0.18349000  0.91293000  0.49430000  1.0
  H  H25  1  0.08707000  0.81651000  0.00570000  1.0
  H  H26  1  0.32102000  0.36134000  0.93396000  1.0
  H  H27  1  0.63866000  0.67898000  0.56604000  1.0
  H  H28  1  0.67899000  0.63866000  0.06604000  1.0
  H  H29  1  0.36134000  0.32101000  0.43397000  1.0
  H  H30  1  0.66396000  0.48490000  0.92875000  1.0
  H  H31  1  0.51510000  0.33604000  0.57125000  1.0
  H  H32  1  0.33604000  0.51510000  0.07125000  1.0
  H  H33  1  0.48490000  0.66396000  0.42875000  1.0
  H  H34  1  0.05072000  0.91614000  0.37397000  1.0
  H  H35  1  0.08385000  0.94928000  0.12603000  1.0
  H  H36  1  0.94928000  0.08386000  0.62603000  1.0
  H  H37  1  0.91615000  0.05072000  0.87397000  1.0
  H  H38  1  0.81555000  0.76639000  0.61878000  1.0
  H  H39  1  0.23361000  0.18445000  0.88122000  1.0
  H  H40  1  0.18445000  0.23361000  0.38122000  1.0
  H  H41  1  0.76639000  0.81555000  0.11878000  1.0
  H  H42  1  0.95524000  0.00578000  0.45539000  1.0
  H  H43  1  0.99422000  0.04476000  0.04461000  1.0
  H  H44  1  0.04476000  0.99422000  0.54461000  1.0
  H  H45  1  0.00578000  0.95524000  0.95539000  1.0
  H  H46  1  0.72520000  0.85456000  0.70138000  1.0
  H  H47  1  0.14544000  0.27480000  0.79862000  1.0
  H  H48  1  0.27480000  0.14544000  0.29862000  1.0
  H  H49  1  0.85456000  0.72520000  0.20138000  1.0
  H  H50  1  0.32622000  0.45461000  0.00893000  1.0
  H  H51  1  0.54539000  0.67378000  0.49107000  1.0
  H  H52  1  0.67379000  0.54539000  0.99107000  1.0
  H  H53  1  0.45461000  0.32621000  0.50893000  1.0
  H  H54  1  0.41947000  0.96955000  0.94914000  1.0
  H  H55  1  0.03044000  0.58053000  0.55086000  1.0
  H  H56  1  0.58053000  0.03045000  0.05086000  1.0
  H  H57  1  0.96955000  0.41947000  0.44914000  1.0
  H  H58  1  0.35782000  0.81328000  0.02753000  1.0
  H  H59  1  0.18672000  0.64218000  0.47247000  1.0
  H  H60  1  0.64218000  0.18673000  0.97247000  1.0
  H  H61  1  0.81328000  0.35782000  0.52753000  1.0
  H  H62  1  0.14863000  0.00350000  0.81286000  1.0
  H  H63  1  0.99650000  0.85137000  0.68714000  1.0
  H  H64  1  0.85138000  0.99650000  0.18714000  1.0
  H  H65  1  0.00349000  0.14863000  0.31286000  1.0
  H  H66  1  0.97690000  0.09832000  0.78088000  1.0
  H  H67  1  0.90168000  0.02311000  0.71912000  1.0
  H  H68  1  0.02311000  0.90168000  0.21912000  1.0
  H  H69  1  0.09832000  0.97690000  0.28089000  1.0
  H  H70  1  0.37874000  0.99753000  0.74848000  1.0
  H  H71  1  0.00247000  0.62126000  0.75151000  1.0
  H  H72  1  0.62126000  0.00247000  0.25152000  1.0
  H  H73  1  0.99753000  0.37874000  0.24848000  1.0
  H  H74  1  0.56533000  0.52343000  0.77436000  1.0
  H  H75  1  0.47657000  0.43467000  0.72564000  1.0
  H  H76  1  0.43467000  0.47656000  0.22564000  1.0
  H  H77  1  0.52343000  0.56533000  0.27436000  1.0
  H  H78  1  0.47374000  0.70124000  0.80277000  1.0
  H  H79  1  0.29876000  0.52626000  0.69723000  1.0
  H  H80  1  0.52626000  0.29876000  0.19723000  1.0
  H  H81  1  0.70124000  0.47374000  0.30277000  1.0
  H  H82  1  0.25114000  0.68450000  0.90791000  1.0
  H  H83  1  0.31551000  0.74885000  0.59209000  1.0
  H  H84  1  0.74886000  0.31550000  0.09209000  1.0
  H  H85  1  0.68449000  0.25115000  0.40791000  1.0
  H  H86  1  0.27539000  0.67492000  0.00685000  1.0
  H  H87  1  0.32508000  0.72461000  0.49315000  1.0
  H  H88  1  0.72461000  0.32508000  0.99315000  1.0
  H  H89  1  0.67492000  0.27539000  0.50685000  1.0
  H  H90  1  0.40106000  0.33894000  0.68135000  1.0
  H  H91  1  0.66106000  0.59893000  0.81865000  1.0
  H  H92  1  0.59894000  0.66106000  0.31864000  1.0
  H  H93  1  0.33894000  0.40106000  0.18135000  1.0
  H  H94  1  0.23152000  0.13079000  0.71589000  1.0
  H  H95  1  0.86921000  0.76848000  0.78410000  1.0
  H  H96  1  0.76848000  0.86921000  0.28411000  1.0
  H  H97  1  0.13079000  0.23152000  0.21589000  1.0
  H  H98  1  0.20734000  0.16907000  0.64395000  1.0
  H  H99  1  0.83093000  0.79266000  0.85605000  1.0
  H  H100  1  0.79266000  0.83093000  0.35605000  1.0
  H  H101  1  0.16907000  0.20734000  0.14394000  1.0
  H  H102  1  0.11871000  0.23568000  0.69880000  1.0
  H  H103  1  0.76431000  0.88129000  0.80120000  1.0
  H  H104  1  0.88128000  0.76432000  0.30120000  1.0
  H  H105  1  0.23568000  0.11872000  0.19880000  1.0
  H  H106  1  0.30028000  0.43869000  0.62143000  1.0
  H  H107  1  0.56131000  0.69971000  0.87857000  1.0
  H  H108  1  0.69972000  0.56131000  0.37857000  1.0
  H  H109  1  0.43869000  0.30029000  0.12143000  1.0
  H  H110  1  0.16049000  0.41744000  0.63982000  1.0
  H  H111  1  0.58256000  0.83951000  0.86017000  1.0
  H  H112  1  0.83951000  0.58257000  0.36018000  1.0
  H  H113  1  0.41744000  0.16050000  0.13982000  1.0
  H  H114  1  0.25623000  0.35970000  0.58407000  1.0
  H  H115  1  0.64030000  0.74377000  0.91593000  1.0
  H  H116  1  0.74377000  0.64029000  0.41593000  1.0
  H  H117  1  0.35971000  0.25623000  0.08406000  1.0
  C  C118  1  0.82296000  0.91996000  0.55549000  1.0
  C  C119  1  0.08004000  0.17705000  0.94451000  1.0
  C  C120  1  0.17704000  0.08005000  0.44451000  1.0
  C  C121  1  0.91996000  0.82296000  0.05549000  1.0
  C  C122  1  0.98724000  0.76627000  0.41173000  1.0
  C  C123  1  0.23373000  0.01275000  0.08827000  1.0
  C  C124  1  0.01275000  0.23373000  0.58827000  1.0
  C  C125  1  0.76627000  0.98725000  0.91173000  1.0
  C  C126  1  0.66602000  0.07258000  0.70094000  1.0
  C  C127  1  0.92741000  0.33398000  0.79906000  1.0
  C  C128  1  0.33398000  0.92742000  0.29906000  1.0
  C  C129  1  0.07258000  0.66602000  0.20094000  1.0
  C  C130  1  0.87613000  0.86818000  0.50554000  1.0
  C  C131  1  0.13182000  0.12387000  0.99446000  1.0
  C  C132  1  0.12386000  0.13182000  0.49446000  1.0
  C  C133  1  0.86818000  0.87614000  0.00554000  1.0
  C  C134  1  0.72374000  0.01987000  0.65098000  1.0
  C  C135  1  0.98012000  0.27626000  0.84903000  1.0
  C  C136  1  0.27626000  0.98013000  0.34903000  1.0
  C  C137  1  0.01987000  0.72373000  0.15098000  1.0
  C  C138  1  0.86467000  0.76095000  0.50587000  1.0
  C  C139  1  0.23904000  0.13533000  0.99413000  1.0
  C  C140  1  0.13533000  0.23905000  0.49413000  1.0
  C  C141  1  0.76095000  0.86467000  0.00587000  1.0
  C  C142  1  0.48674000  0.30177000  0.84881000  1.0
  C  C143  1  0.69824000  0.51326000  0.65119000  1.0
  C  C144  1  0.51326000  0.69823000  0.15119000  1.0
  C  C145  1  0.30177000  0.48674000  0.34881000  1.0
  C  C146  1  0.48875000  0.36836000  0.89005000  1.0
  C  C147  1  0.63165000  0.51125000  0.60995000  1.0
  C  C148  1  0.51125000  0.63164000  0.10995000  1.0
  C  C149  1  0.36836000  0.48875000  0.39005000  1.0
  C  C150  1  0.05139000  0.71028000  0.36328000  1.0
  C  C151  1  0.28971000  0.94860000  0.13672000  1.0
  C  C152  1  0.94861000  0.28971000  0.63672000  1.0
  C  C153  1  0.71029000  0.05140000  0.86328000  1.0
  C  C154  1  0.91929000  0.71102000  0.45976000  1.0
  C  C155  1  0.28898000  0.08071000  0.04024000  1.0
  C  C156  1  0.08071000  0.28898000  0.54024000  1.0
  C  C157  1  0.71102000  0.91929000  0.95976000  1.0
  C  C158  1  0.75114000  0.08419000  0.59557000  1.0
  C  C159  1  0.91580000  0.24886000  0.90443000  1.0
  C  C160  1  0.24886000  0.91581000  0.40443000  1.0
  C  C161  1  0.08420000  0.75114000  0.09557000  1.0
  C  C162  1  0.58459000  0.40524000  0.88868000  1.0
  C  C163  1  0.59476000  0.41541000  0.61132000  1.0
  C  C164  1  0.41541000  0.59476000  0.11132000  1.0
  C  C165  1  0.40524000  0.58459000  0.38868000  1.0
  C  C166  1  0.49684000  0.47507000  0.97655000  1.0
  C  C167  1  0.52493000  0.50316000  0.52345000  1.0
  C  C168  1  0.50317000  0.52493000  0.02345000  1.0
  C  C169  1  0.47507000  0.49683000  0.47655000  1.0
  C  C170  1  0.79848000  0.03503000  0.54854000  1.0
  C  C171  1  0.96496000  0.20153000  0.95146000  1.0
  C  C172  1  0.20152000  0.96497000  0.45146000  1.0
  C  C173  1  0.03504000  0.79847000  0.04854000  1.0
  C  C174  1  0.39593000  0.38872000  0.93348000  1.0
  C  C175  1  0.61129000  0.60407000  0.56652000  1.0
  C  C176  1  0.60407000  0.61128000  0.06652000  1.0
  C  C177  1  0.38871000  0.39593000  0.43348000  1.0
  C  C178  1  0.58768000  0.45821000  0.93100000  1.0
  C  C179  1  0.54180000  0.41232000  0.56900000  1.0
  C  C180  1  0.41232000  0.54179000  0.06900000  1.0
  C  C181  1  0.45821000  0.58768000  0.43100000  1.0
  C  C182  1  0.99707000  0.87357000  0.41066000  1.0
  C  C183  1  0.12643000  0.00293000  0.08934000  1.0
  C  C184  1  0.00293000  0.12643000  0.58934000  1.0
  C  C185  1  0.87357000  0.99708000  0.91066000  1.0
  C  C186  1  0.79710000  0.85570000  0.61160000  1.0
  C  C187  1  0.14430000  0.20290000  0.88840000  1.0
  C  C188  1  0.20290000  0.14430000  0.38840000  1.0
  C  C189  1  0.85570000  0.79710000  0.11160000  1.0
  C  C190  1  0.94259000  0.92368000  0.45665000  1.0
  C  C191  1  0.07632000  0.05741000  0.04335000  1.0
  C  C192  1  0.05741000  0.07632000  0.54335000  1.0
  C  C193  1  0.92368000  0.94259000  0.95665000  1.0
  C  C194  1  0.74699000  0.90496000  0.65839000  1.0
  C  C195  1  0.09504000  0.25301000  0.84161000  1.0
  C  C196  1  0.25301000  0.09504000  0.34161000  1.0
  C  C197  1  0.90496000  0.74699000  0.15839000  1.0
  C  C198  1  0.39997000  0.44119000  0.97571000  1.0
  C  C199  1  0.55881000  0.60002000  0.52429000  1.0
  C  C200  1  0.60003000  0.55881000  0.02429000  1.0
  C  C201  1  0.44119000  0.39997000  0.47572000  1.0
  C  C202  1  0.38211000  0.90853000  0.94072000  1.0
  C  C203  1  0.09147000  0.61789000  0.55928000  1.0
  C  C204  1  0.61789000  0.09147000  0.05928000  1.0
  C  C205  1  0.90853000  0.38211000  0.44072000  1.0
  C  C206  1  0.34795000  0.82100000  0.98374000  1.0
  C  C207  1  0.17900000  0.65205000  0.51626000  1.0
  C  C208  1  0.65205000  0.17900000  0.01626000  1.0
  C  C209  1  0.82100000  0.34795000  0.48374000  1.0
  C  C210  1  0.33207000  0.71657000  0.76618000  1.0
  C  C211  1  0.28343000  0.66793000  0.73382000  1.0
  C  C212  1  0.66793000  0.28343000  0.23382000  1.0
  C  C213  1  0.71657000  0.33207000  0.26618000  1.0
  C  C214  1  0.11671000  0.96965000  0.78521000  1.0
  C  C215  1  0.03035000  0.88329000  0.71479000  1.0
  C  C216  1  0.88329000  0.03035000  0.21479000  1.0
  C  C217  1  0.96965000  0.11671000  0.28521000  1.0
  C  C218  1  0.32087000  0.83433000  0.87404000  1.0
  C  C219  1  0.16567000  0.67913000  0.62596000  1.0
  C  C220  1  0.67913000  0.16567000  0.12596000  1.0
  C  C221  1  0.83433000  0.32087000  0.37404000  1.0
  C  C222  1  0.02105000  0.02246000  0.76770000  1.0
  C  C223  1  0.97754000  0.97895000  0.73230000  1.0
  C  C224  1  0.97895000  0.97754000  0.23230000  1.0
  C  C225  1  0.02246000  0.02105000  0.26770000  1.0
  C  C226  1  0.27536000  0.81525000  0.78266000  1.0
  C  C227  1  0.18475000  0.72465000  0.71733000  1.0
  C  C228  1  0.72465000  0.18475000  0.21734000  1.0
  C  C229  1  0.81525000  0.27536000  0.28266000  1.0
  C  C230  1  0.36742000  0.95681000  0.79365000  1.0
  C  C231  1  0.04319000  0.63258000  0.70635000  1.0
  C  C232  1  0.63258000  0.04319000  0.20635000  1.0
  C  C233  1  0.95681000  0.36741000  0.29365000  1.0
  C  C234  1  0.17491000  0.87043000  0.76762000  1.0
  C  C235  1  0.12957000  0.82509000  0.73237000  1.0
  C  C236  1  0.82509000  0.12957000  0.23237000  1.0
  C  C237  1  0.87043000  0.17490000  0.26763000  1.0
  C  C238  1  0.36775000  0.91494000  0.88523000  1.0
  C  C239  1  0.08506000  0.63225000  0.61477000  1.0
  C  C240  1  0.63225000  0.08506000  0.11477000  1.0
  C  C241  1  0.91494000  0.36775000  0.38523000  1.0
  C  C242  1  0.48591000  0.56472000  0.76457000  1.0
  C  C243  1  0.43528000  0.51409000  0.73543000  1.0
  C  C244  1  0.51409000  0.43528000  0.23543000  1.0
  C  C245  1  0.56472000  0.48591000  0.26457000  1.0
  C  C246  1  0.43552000  0.66284000  0.77992000  1.0
  C  C247  1  0.33716000  0.56448000  0.72008000  1.0
  C  C248  1  0.56448000  0.33716000  0.22008000  1.0
  C  C249  1  0.66284000  0.43552000  0.27992000  1.0
  C  C250  1  0.28640000  0.74654000  0.91692000  1.0
  C  C251  1  0.25347000  0.71360000  0.58308000  1.0
  C  C252  1  0.71360000  0.25346000  0.08308000  1.0
  C  C253  1  0.74653000  0.28640000  0.41692000  1.0
  C  C254  1  0.30096000  0.74192000  0.97191000  1.0
  C  C255  1  0.25808000  0.69903000  0.52809000  1.0
  C  C256  1  0.69904000  0.25808000  0.02809000  1.0
  C  C257  1  0.74192000  0.30096000  0.47191000  1.0
  C  C258  1  0.35683000  0.26865000  0.69543000  1.0
  C  C259  1  0.73133000  0.64317000  0.80458000  1.0
  C  C260  1  0.64317000  0.73135000  0.30457000  1.0
  C  C261  1  0.26867000  0.35683000  0.19542000  1.0
  C  C262  1  0.20404000  0.19902000  0.68264000  1.0
  C  C263  1  0.80098000  0.79596000  0.81736000  1.0
  C  C264  1  0.79595000  0.80098000  0.31736000  1.0
  C  C265  1  0.19902000  0.20405000  0.18264000  1.0
  C  C266  1  0.24646000  0.37994000  0.62623000  1.0
  C  C267  1  0.62006000  0.75354000  0.87377000  1.0
  C  C268  1  0.75354000  0.62006000  0.37377000  1.0
  C  C269  1  0.37995000  0.24646000  0.12623000  1.0
  N  N270  1  0.39527000  0.98997000  0.83388000  1.0
  N  N271  1  0.01003000  0.60473000  0.66612000  1.0
  N  N272  1  0.60473000  0.01003000  0.16612000  1.0
  N  N273  1  0.98997000  0.39527000  0.33388000  1.0
  N  N274  1  0.32204000  0.86370000  0.81503000  1.0
  N  N275  1  0.13630000  0.67796000  0.68497000  1.0
  N  N276  1  0.67796000  0.13630000  0.18497000  1.0
  N  N277  1  0.86370000  0.32204000  0.31503000  1.0
  N  N278  1  0.27411000  0.28134000  0.66877000  1.0
  N  N279  1  0.71866000  0.72589000  0.83123000  1.0
  N  N280  1  0.72589000  0.71866000  0.33123000  1.0
  N  N281  1  0.28134000  0.27411000  0.16877000  1.0
  O  O282  1  0.66522000  0.17460000  0.69678000  1.0
  O  O283  1  0.82540000  0.33478000  0.80323000  1.0
  O  O284  1  0.33478000  0.82540000  0.30323000  1.0
  O  O285  1  0.17460000  0.66522000  0.19677000  1.0
  O  O286  1  0.56538000  0.29518000  0.80446000  1.0
  O  O287  1  0.70482000  0.43462000  0.69554000  1.0
  O  O288  1  0.43462000  0.70482000  0.19554000  1.0
  O  O289  1  0.29518000  0.56538000  0.30446000  1.0
  O  O290  1  0.40788000  0.24908000  0.86004000  1.0
  O  O291  1  0.75092000  0.59212000  0.63996000  1.0
  O  O292  1  0.59212000  0.75092000  0.13996000  1.0
  O  O293  1  0.24908000  0.40788000  0.36005000  1.0
  O  O294  1  0.05051000  0.60820000  0.37121000  1.0
  O  O295  1  0.39180000  0.94949000  0.12880000  1.0
  O  O296  1  0.94949000  0.39180000  0.62879000  1.0
  O  O297  1  0.60820000  0.05051000  0.87121000  1.0
  O  O298  1  0.10108000  0.77000000  0.31830000  1.0
  O  O299  1  0.23000000  0.89892000  0.18170000  1.0
  O  O300  1  0.89892000  0.23000000  0.68170000  1.0
  O  O301  1  0.77001000  0.10108000  0.81830000  1.0
  O  O302  1  0.61626000  0.01190000  0.74536000  1.0
  O  O303  1  0.98810000  0.38374000  0.75464000  1.0
  O  O304  1  0.38374000  0.98810000  0.25464000  1.0
  O  O305  1  0.01189000  0.61626000  0.24536000  1.0
  O  O306  1  0.38360000  0.18602000  0.73257000  1.0
  O  O307  1  0.81399000  0.61639000  0.76742000  1.0
  O  O308  1  0.61639000  0.81398000  0.26743000  1.0
  O  O309  1  0.18601000  0.38361000  0.23258000  1.0
