# generated using pymatgen
data_Na2H5C2N9O2
_symmetry_space_group_name_H-M   'P 1'
_cell_length_a   5.87869000
_cell_length_b   6.43925000
_cell_length_c   10.74100000
_cell_angle_alpha   90.00000000
_cell_angle_beta   97.06270000
_cell_angle_gamma   90.00000000
_symmetry_Int_Tables_number   1
_chemical_formula_structural   Na2H5C2N9O2
_chemical_formula_sum   'Na4 H10 C4 N18 O4'
_cell_volume   403.50846869
_cell_formula_units_Z   2
loop_
 _symmetry_equiv_pos_site_id
 _symmetry_equiv_pos_as_xyz
  1  'x, y, z'
loop_
 _atom_site_type_symbol
 _atom_site_label
 _atom_site_symmetry_multiplicity
 _atom_site_fract_x
 _atom_site_fract_y
 _atom_site_fract_z
 _atom_site_occupancy
  Na  Na0  1  0.16382000  0.99656000  0.17215000  1.0
  Na  Na1  1  0.83618000  0.49656000  0.82785000  1.0
  Na  Na2  1  0.83618000  0.00344000  0.82785000  1.0
  Na  Na3  1  0.16382000  0.50344000  0.17215000  1.0
  H  H4  1  0.24879000  0.75000000  0.38004000  1.0
  H  H5  1  0.75121000  0.25000000  0.61996000  1.0
  H  H6  1  0.50783000  0.75000000  0.35335000  1.0
  H  H7  1  0.49217000  0.25000000  0.64665000  1.0
  H  H8  1  0.81189000  0.75000000  0.27079000  1.0
  H  H9  1  0.18812000  0.25000000  0.72921000  1.0
  H  H10  1  0.72429000  0.75000000  0.12366000  1.0
  H  H11  1  0.27571000  0.25000000  0.87634000  1.0
  H  H12  1  0.56754000  0.25000000  0.36913000  1.0
  H  H13  1  0.43246000  0.75000000  0.63087000  1.0
  C  C14  1  0.92061000  0.25000000  0.39087000  1.0
  C  C15  1  0.07939000  0.75000000  0.60914000  1.0
  C  C16  1  0.67440000  0.25000000  0.19158000  1.0
  C  C17  1  0.32560000  0.75000000  0.80842000  1.0
  N  N18  1  0.70901000  0.25000000  0.32029000  1.0
  N  N19  1  0.29099000  0.75000000  0.67971000  1.0
  N  N20  1  0.95035000  0.25000000  0.51706000  1.0
  N  N21  1  0.04965000  0.75000000  0.48294000  1.0
  N  N22  1  0.18041000  0.25000000  0.54824000  1.0
  N  N23  1  0.81958000  0.75000000  0.45176000  1.0
  N  N24  1  0.28273000  0.25000000  0.44635000  1.0
  N  N25  1  0.71727000  0.75000000  0.55365000  1.0
  N  N26  1  0.12328000  0.25000000  0.34429000  1.0
  N  N27  1  0.87672000  0.75000000  0.65571000  1.0
  N  N28  1  0.46206000  0.25000000  0.12631000  1.0
  N  N29  1  0.53794000  0.75000000  0.87369000  1.0
  N  N30  1  0.49919000  0.25000000  0.00489000  1.0
  N  N31  1  0.50081000  0.75000000  0.99511000  1.0
  N  N32  1  0.71945000  0.25000000  0.99668000  1.0
  N  N33  1  0.28055000  0.75000000  0.00332000  1.0
  N  N34  1  0.83805000  0.25000000  0.11351000  1.0
  N  N35  1  0.16196000  0.75000000  0.88649000  1.0
  O  O36  1  0.35071000  0.75000000  0.31074000  1.0
  O  O37  1  0.64929000  0.25000000  0.68927000  1.0
  O  O38  1  0.86415000  0.75000000  0.18697000  1.0
  O  O39  1  0.13585000  0.25000000  0.81303000  1.0
