# generated using pymatgen
data_Zr3H20C33N3O16
_symmetry_space_group_name_H-M   'P 1'
_cell_length_a   14.22040000
_cell_length_b   14.22460000
_cell_length_c   14.22370000
_cell_angle_alpha   88.61640000
_cell_angle_beta   88.65380000
_cell_angle_gamma   88.66070000
_symmetry_Int_Tables_number   1
_chemical_formula_structural   Zr3H20C33N3O16
_chemical_formula_sum   'Zr6 H40 C66 N6 O32'
_cell_volume   2874.78146375
_cell_formula_units_Z   2
loop_
 _symmetry_equiv_pos_site_id
 _symmetry_equiv_pos_as_xyz
  1  'x, y, z'
loop_
 _atom_site_type_symbol
 _atom_site_label
 _atom_site_symmetry_multiplicity
 _atom_site_fract_x
 _atom_site_fract_y
 _atom_site_fract_z
 _atom_site_occupancy
  Zr  Zr0  1  0.18350000  0.19274000  0.04618000  1.0
  Zr  Zr1  1  0.28270000  0.98516000  0.15413000  1.0
  Zr  Zr2  1  0.96602000  0.08275000  0.03215000  1.0
  Zr  Zr3  1  0.07526000  0.09316000  0.25347000  1.0
  Zr  Zr4  1  0.17283000  0.97172000  0.93661000  1.0
  Zr  Zr5  1  0.06143000  0.87592000  0.14329000  1.0
  H  H6  1  0.83463000  0.46691000  0.79636000  1.0
  H  H7  1  0.85322000  0.65021000  0.80472000  1.0
  H  H8  1  0.40330000  0.60431000  0.38796000  1.0
  H  H9  1  0.38438000  0.42005000  0.37832000  1.0
  H  H10  1  0.82597000  0.74498000  0.52771000  1.0
  H  H11  1  0.83447000  0.76331000  0.71103000  1.0
  H  H12  1  0.41715000  0.31335000  0.66435000  1.0
  H  H13  1  0.40712000  0.29349000  0.48022000  1.0
  H  H14  1  0.55646000  0.73572000  0.80586000  1.0
  H  H15  1  0.73972000  0.74460000  0.82445000  1.0
  H  H16  1  0.69457000  0.32734000  0.37453000  1.0
  H  H17  1  0.51020000  0.31790000  0.35600000  1.0
  H  H18  1  0.25805000  0.16777000  0.22897000  1.0
  H  H19  1  0.09041000  0.13917000  0.87999000  1.0
  H  H20  1  0.90924000  0.00019000  0.19948000  1.0
  H  H21  1  0.22882000  0.81928000  0.06088000  1.0
  H  H22  1  0.77767000  0.34803000  0.11107000  1.0
  H  H23  1  0.83653000  0.29669000  0.31397000  1.0
  H  H24  1  0.50590000  0.20933000  0.21845000  1.0
  H  H25  1  0.42239000  0.38067000  0.10801000  1.0
  H  H26  1  0.75626000  0.85299000  0.95055000  1.0
  H  H27  1  0.82259000  0.68616000  0.07811000  1.0
  H  H28  1  0.42783000  0.78760000  0.86965000  1.0
  H  H29  1  0.47149000  0.71801000  0.07190000  1.0
  H  H30  1  0.38713000  0.25365000  0.80690000  1.0
  H  H31  1  0.43856000  0.05054000  0.74903000  1.0
  H  H32  1  0.47084000  0.04623000  0.39289000  1.0
  H  H33  1  0.29931000  0.15549000  0.47749000  1.0
  H  H34  1  0.94276000  0.88968000  0.72770000  1.0
  H  H35  1  0.77577000  0.01710000  0.79362000  1.0
  H  H36  1  0.87698000  0.80859000  0.39833000  1.0
  H  H37  1  0.80857000  0.01096000  0.44279000  1.0
  H  H38  1  0.34304000  0.74649000  0.35790000  1.0
  H  H39  1  0.14008000  0.68777000  0.40936000  1.0
  H  H40  1  0.13648000  0.33249000  0.44165000  1.0
  H  H41  1  0.24710000  0.41573000  0.27026000  1.0
  H  H42  1  0.10717000  0.73287000  0.74578000  1.0
  H  H43  1  0.97996000  0.66695000  0.91304000  1.0
  H  H44  1  0.10084000  0.38155000  0.77888000  1.0
  H  H45  1  0.89863000  0.33869000  0.84922000  1.0
  C  C46  1  0.97886000  0.46591000  0.73586000  1.0
  C  C47  1  0.89252000  0.50566000  0.76465000  1.0
  C  C48  1  0.90241000  0.60325000  0.76892000  1.0
  C  C49  1  0.99292000  0.62668000  0.73925000  1.0
  C  C50  1  0.26160000  0.60448000  0.45380000  1.0
  C  C51  1  0.34672000  0.56484000  0.42126000  1.0
  C  C52  1  0.33632000  0.46734000  0.41539000  1.0
  C  C53  1  0.24630000  0.44403000  0.44692000  1.0
  C  C54  1  0.76509000  0.88898000  0.52685000  1.0
  C  C55  1  0.79409000  0.80269000  0.56651000  1.0
  C  C56  1  0.79848000  0.81243000  0.66412000  1.0
  C  C57  1  0.76875000  0.90287000  0.68760000  1.0
  C  C58  1  0.48304000  0.17169000  0.66518000  1.0
  C  C59  1  0.45042000  0.25663000  0.62513000  1.0
  C  C60  1  0.44440000  0.24576000  0.52771000  1.0
  C  C61  1  0.47601000  0.15573000  0.50484000  1.0
  C  C62  1  0.55558000  0.67476000  0.94991000  1.0
  C  C63  1  0.59526000  0.70385000  0.86364000  1.0
  C  C64  1  0.69286000  0.70849000  0.87353000  1.0
  C  C65  1  0.71635000  0.67884000  0.96401000  1.0
  C  C66  1  0.69462000  0.39273000  0.23262000  1.0
  C  C67  1  0.65507000  0.36052000  0.31792000  1.0
  C  C68  1  0.55747000  0.35477000  0.30774000  1.0
  C  C69  1  0.53408000  0.38610000  0.21770000  1.0
  C  C70  1  0.01123000  0.28098000  0.92932000  1.0
  C  C71  1  0.39132000  0.18751000  0.12371000  1.0
  C  C72  1  0.15257000  0.30108000  0.24839000  1.0
  C  C73  1  0.29808000  0.14369000  0.85669000  1.0
  C  C74  1  0.23313000  0.79569000  0.26859000  1.0
  C  C75  1  0.86045000  0.87783000  0.05477000  1.0
  C  C76  1  0.27738000  0.06182000  0.36218000  1.0
  C  C77  1  0.37077000  0.86825000  0.98202000  1.0
  C  C78  1  0.96774000  0.99443000  0.83124000  1.0
  C  C79  1  0.88576000  0.20752000  0.20407000  1.0
  C  C80  1  0.95800000  0.92095000  0.34139000  1.0
  C  C81  1  0.08434000  0.77084000  0.93792000  1.0
  C  C82  1  0.77652000  0.34974000  0.18788000  1.0
  C  C83  1  0.83502000  0.29166000  0.23761000  1.0
  C  C84  1  0.45813000  0.24749000  0.17148000  1.0
  C  C85  1  0.46369000  0.34247000  0.16095000  1.0
  C  C86  1  0.79843000  0.81612000  0.00341000  1.0
  C  C87  1  0.78713000  0.72249000  0.01992000  1.0
  C  C88  1  0.42446000  0.78699000  0.94633000  1.0
  C  C89  1  0.47612000  0.72169000  0.99511000  1.0
  C  C90  1  0.62260000  0.49531000  0.11213000  1.0
  C  C91  1  0.62680000  0.57152000  0.07060000  1.0
  C  C92  1  0.38219000  0.17726000  0.80577000  1.0
  C  C93  1  0.44026000  0.12737000  0.74743000  1.0
  C  C94  1  0.43250000  0.09873000  0.43460000  1.0
  C  C95  1  0.33743000  0.10896000  0.42935000  1.0
  C  C96  1  0.90592000  0.94264000  0.76969000  1.0
  C  C97  1  0.81224000  0.95890000  0.75839000  1.0
  C  C98  1  0.87672000  0.88530000  0.39519000  1.0
  C  C99  1  0.81188000  0.93415000  0.44726000  1.0
  C  C100  1  0.58560000  0.05098000  0.59371000  1.0
  C  C101  1  0.66192000  0.00968000  0.59793000  1.0
  C  C102  1  0.26665000  0.74505000  0.35289000  1.0
  C  C103  1  0.21692000  0.68652000  0.41101000  1.0
  C  C104  1  0.18946000  0.37369000  0.40339000  1.0
  C  C105  1  0.20012000  0.36797000  0.30839000  1.0
  C  C106  1  0.04903000  0.69761000  0.78249000  1.0
  C  C107  1  0.03283000  0.70903000  0.87613000  1.0
  C  C108  1  0.02405000  0.38646000  0.78280000  1.0
  C  C109  1  0.97536000  0.33503000  0.84834000  1.0
  C  C110  1  0.14120000  0.53250000  0.55649000  1.0
  C  C111  1  0.09976000  0.53681000  0.63271000  1.0
  N  N112  1  0.03582000  0.54246000  0.70459000  1.0
  N  N113  1  0.20478000  0.52771000  0.48426000  1.0
  N  N114  1  0.73387000  0.94581000  0.60344000  1.0
  N  N115  1  0.51339000  0.11456000  0.58870000  1.0
  N  N116  1  0.63223000  0.64360000  0.00686000  1.0
  N  N117  1  0.61781000  0.42315000  0.17588000  1.0
  O  O118  1  0.95170000  0.22350000  0.96580000  1.0
  O  O119  1  0.39872000  0.09861000  0.13827000  1.0
  O  O120  1  0.16728000  0.30853000  0.15949000  1.0
  O  O121  1  0.25927000  0.20521000  0.91070000  1.0
  O  O122  1  0.26397000  0.06306000  0.84097000  1.0
  O  O123  1  0.10405000  0.23766000  0.29088000  1.0
  O  O124  1  0.32801000  0.23009000  0.07514000  1.0
  O  O125  1  0.09351000  0.29429000  0.96118000  1.0
  O  O126  1  0.23429000  0.05345000  0.03542000  1.0
  O  O127  1  0.06465000  0.14418000  0.11417000  1.0
  O  O128  1  0.21960000  0.12943000  0.19049000  1.0
  O  O129  1  0.09899000  0.11141000  0.94224000  1.0
  O  O130  1  0.29482000  0.84953000  0.22964000  1.0
  O  O131  1  0.85266000  0.96617000  0.03673000  1.0
  O  O132  1  0.18848000  0.07663000  0.36950000  1.0
  O  O133  1  0.31354000  0.90501000  0.92239000  1.0
  O  O134  1  0.05613000  0.97659000  0.82321000  1.0
  O  O135  1  0.93974000  0.16867000  0.26567000  1.0
  O  O136  1  0.99453000  0.86142000  0.28397000  1.0
  O  O137  1  0.06621000  0.76286000  0.02623000  1.0
  O  O138  1  0.99007000  0.00309000  0.35484000  1.0
  O  O139  1  0.14279000  0.82764000  0.89888000  1.0
  O  O140  1  0.31995000  0.01362000  0.29864000  1.0
  O  O141  1  0.87002000  0.17343000  0.12347000  1.0
  O  O142  1  0.92863000  0.05292000  0.88789000  1.0
  O  O143  1  0.38413000  0.90009000  0.06426000  1.0
  O  O144  1  0.15252000  0.77995000  0.23443000  1.0
  O  O145  1  0.91727000  0.83861000  0.11309000  1.0
  O  O146  1  0.05136000  0.96141000  0.02189000  1.0
  O  O147  1  0.14335000  0.97444000  0.20490000  1.0
  O  O148  1  0.97155000  0.00872000  0.17183000  1.0
  O  O149  1  0.20115000  0.88155000  0.06946000  1.0
