# generated using pymatgen
data_CdH8C14S(NO)4
_symmetry_space_group_name_H-M   'P 1'
_cell_length_a   13.16530000
_cell_length_b   13.64790000
_cell_length_c   19.48350000
_cell_angle_alpha   81.65330000
_cell_angle_beta   89.99980000
_cell_angle_gamma   89.99960000
_symmetry_Int_Tables_number   1
_chemical_formula_structural   CdH8C14S(NO)4
_chemical_formula_sum   'Cd8 H64 C112 S8 N32 O32'
_cell_volume   3463.68905538
_cell_formula_units_Z   8
loop_
 _symmetry_equiv_pos_site_id
 _symmetry_equiv_pos_as_xyz
  1  'x, y, z'
loop_
 _atom_site_type_symbol
 _atom_site_label
 _atom_site_symmetry_multiplicity
 _atom_site_fract_x
 _atom_site_fract_y
 _atom_site_fract_z
 _atom_site_occupancy
  Cd  Cd0  1  0.81544000  0.84961000  0.30169000  1.0
  Cd  Cd1  1  0.81544000  0.65039000  0.69831000  1.0
  Cd  Cd2  1  0.18456000  0.15039000  0.69831000  1.0
  Cd  Cd3  1  0.18456000  0.34960000  0.30169000  1.0
  Cd  Cd4  1  0.68739000  0.09341000  0.20640000  1.0
  Cd  Cd5  1  0.68739000  0.40659000  0.79360000  1.0
  Cd  Cd6  1  0.31261000  0.90659000  0.79360000  1.0
  Cd  Cd7  1  0.31261000  0.59341000  0.20640000  1.0
  H  H8  1  0.70554000  0.14910000  0.35437000  1.0
  H  H9  1  0.70554000  0.35091000  0.64563000  1.0
  H  H10  1  0.29445000  0.85092000  0.64563000  1.0
  H  H11  1  0.29446000  0.64910000  0.35437000  1.0
  H  H12  1  0.60802000  0.16744000  0.46089000  1.0
  H  H13  1  0.60801000  0.33257000  0.53911000  1.0
  H  H14  1  0.39199000  0.83258000  0.53911000  1.0
  H  H15  1  0.39199000  0.66745000  0.46089000  1.0
  H  H16  1  0.34424000  0.05759000  0.36274000  1.0
  H  H17  1  0.34423000  0.44242000  0.63727000  1.0
  H  H18  1  0.65576000  0.94242000  0.63727000  1.0
  H  H19  1  0.65576000  0.55758000  0.36273000  1.0
  H  H20  1  0.45233000  0.04570000  0.26098000  1.0
  H  H21  1  0.45232000  0.45430000  0.73903000  1.0
  H  H22  1  0.54766000  0.95429000  0.73903000  1.0
  H  H23  1  0.54767000  0.54570000  0.26097000  1.0
  H  H24  1  0.53148000  0.12429000  0.55652000  1.0
  H  H25  1  0.53148000  0.37571000  0.44348000  1.0
  H  H26  1  0.46852000  0.87571000  0.44348000  1.0
  H  H27  1  0.46852000  0.62429000  0.55652000  1.0
  H  H28  1  0.42032000  0.14356000  0.65619000  1.0
  H  H29  1  0.42033000  0.35643000  0.34382000  1.0
  H  H30  1  0.57968000  0.85644000  0.34382000  1.0
  H  H31  1  0.57968000  0.64356000  0.65618000  1.0
  H  H32  1  0.16010000  0.14074000  0.53642000  1.0
  H  H33  1  0.16011000  0.35926000  0.46358000  1.0
  H  H34  1  0.83989000  0.85926000  0.46359000  1.0
  H  H35  1  0.83990000  0.64075000  0.53642000  1.0
  H  H36  1  0.25978000  0.12351000  0.43172000  1.0
  H  H37  1  0.25977000  0.37650000  0.56828000  1.0
  H  H38  1  0.74022000  0.87650000  0.56829000  1.0
  H  H39  1  0.74022000  0.62351000  0.43171000  1.0
  H  H40  1  0.78800000  0.87012000  0.13717000  1.0
  H  H41  1  0.78799000  0.62988000  0.86283000  1.0
  H  H42  1  0.21200000  0.12989000  0.86283000  1.0
  H  H43  1  0.21200000  0.37011000  0.13717000  1.0
  H  H44  1  0.88359000  0.88412000  0.02630000  1.0
  H  H45  1  0.88359000  0.61588000  0.97370000  1.0
  H  H46  1  0.11642000  0.11589000  0.97370000  1.0
  H  H47  1  0.11641000  0.38412000  0.02630000  1.0
  H  H48  1  0.16013000  0.85439000  0.14929000  1.0
  H  H49  1  0.16013000  0.64562000  0.85070000  1.0
  H  H50  1  0.83987000  0.14560000  0.85071000  1.0
  H  H51  1  0.83987000  0.35440000  0.14929000  1.0
  H  H52  1  0.05255000  0.84450000  0.25295000  1.0
  H  H53  1  0.05255000  0.65551000  0.74704000  1.0
  H  H54  1  0.94745000  0.15550000  0.74705000  1.0
  H  H55  1  0.94744000  0.34450000  0.25295000  1.0
  H  H56  1  0.97092000  0.84698000  0.94364000  1.0
  H  H57  1  0.97092000  0.65302000  0.05636000  1.0
  H  H58  1  0.02908000  0.15302000  0.05636000  1.0
  H  H59  1  0.02908000  0.34697000  0.94364000  1.0
  H  H60  1  0.08063000  0.86516000  0.83926000  1.0
  H  H61  1  0.08062000  0.63484000  0.16074000  1.0
  H  H62  1  0.91938000  0.13484000  0.16075000  1.0
  H  H63  1  0.91938000  0.36515000  0.83926000  1.0
  H  H64  1  0.33316000  0.92738000  0.95226000  1.0
  H  H65  1  0.33315000  0.57263000  0.04774000  1.0
  H  H66  1  0.66684000  0.07263000  0.04774000  1.0
  H  H67  1  0.66685000  0.42738000  0.95226000  1.0
  H  H68  1  0.23525000  0.91926000  0.06007000  1.0
  H  H69  1  0.23524000  0.58074000  0.93993000  1.0
  H  H70  1  0.76475000  0.08074000  0.93994000  1.0
  H  H71  1  0.76476000  0.41926000  0.06006000  1.0
  C  C72  1  0.62533000  0.12900000  0.35892000  1.0
  C  C73  1  0.62532000  0.37100000  0.64108000  1.0
  C  C74  1  0.37467000  0.87100000  0.64108000  1.0
  C  C75  1  0.37467000  0.62901000  0.35892000  1.0
  C  C76  1  0.57010000  0.13878000  0.41826000  1.0
  C  C77  1  0.57010000  0.36122000  0.58174000  1.0
  C  C78  1  0.42990000  0.86122000  0.58174000  1.0
  C  C79  1  0.42990000  0.63879000  0.41825000  1.0
  C  C80  1  0.46682000  0.11265000  0.42218000  1.0
  C  C81  1  0.46681000  0.38736000  0.57782000  1.0
  C  C82  1  0.53318000  0.88736000  0.57782000  1.0
  C  C83  1  0.53319000  0.61265000  0.42218000  1.0
  C  C84  1  0.42402000  0.07846000  0.36416000  1.0
  C  C85  1  0.42402000  0.42155000  0.63584000  1.0
  C  C86  1  0.57597000  0.92155000  0.63584000  1.0
  C  C87  1  0.57598000  0.57845000  0.36416000  1.0
  C  C88  1  0.48453000  0.07115000  0.30675000  1.0
  C  C89  1  0.48453000  0.42886000  0.69326000  1.0
  C  C90  1  0.51546000  0.92885000  0.69326000  1.0
  C  C91  1  0.51547000  0.57114000  0.30674000  1.0
  C  C92  1  0.40529000  0.12125000  0.48438000  1.0
  C  C93  1  0.40529000  0.37876000  0.51562000  1.0
  C  C94  1  0.59470000  0.87876000  0.51562000  1.0
  C  C95  1  0.59471000  0.62124000  0.48438000  1.0
  C  C96  1  0.44954000  0.12752000  0.54915000  1.0
  C  C97  1  0.44954000  0.37249000  0.45085000  1.0
  C  C98  1  0.55046000  0.87249000  0.45085000  1.0
  C  C99  1  0.55046000  0.62751000  0.54915000  1.0
  C  C100  1  0.38789000  0.13676000  0.60565000  1.0
  C  C101  1  0.38789000  0.36324000  0.39436000  1.0
  C  C102  1  0.61211000  0.86324000  0.39436000  1.0
  C  C103  1  0.61211000  0.63675000  0.60564000  1.0
  C  C104  1  0.24252000  0.13441000  0.53936000  1.0
  C  C105  1  0.24252000  0.36559000  0.46064000  1.0
  C  C106  1  0.75748000  0.86559000  0.46065000  1.0
  C  C107  1  0.75749000  0.63441000  0.53936000  1.0
  C  C108  1  0.29913000  0.12494000  0.48054000  1.0
  C  C109  1  0.29913000  0.37507000  0.51947000  1.0
  C  C110  1  0.70087000  0.87506000  0.51947000  1.0
  C  C111  1  0.70087000  0.62494000  0.48053000  1.0
  C  C112  1  0.60178000  0.85877000  0.21409000  1.0
  C  C113  1  0.60178000  0.64122000  0.78592000  1.0
  C  C114  1  0.39822000  0.14122000  0.78592000  1.0
  C  C115  1  0.39823000  0.35877000  0.21409000  1.0
  C  C116  1  0.52735000  0.92152000  0.16800000  1.0
  C  C117  1  0.52735000  0.57848000  0.83201000  1.0
  C  C118  1  0.47265000  0.07849000  0.83201000  1.0
  C  C119  1  0.47264000  0.42152000  0.16799000  1.0
  C  C120  1  0.43258000  0.89184000  0.14174000  1.0
  C  C121  1  0.43257000  0.60815000  0.85827000  1.0
  C  C122  1  0.56742000  0.10816000  0.85826000  1.0
  C  C123  1  0.56742000  0.39184000  0.14174000  1.0
  C  C124  1  0.39170000  0.78724000  0.14943000  1.0
  C  C125  1  0.39169000  0.71276000  0.85057000  1.0
  C  C126  1  0.60831000  0.21277000  0.85057000  1.0
  C  C127  1  0.60830000  0.28724000  0.14943000  1.0
  C  C128  1  0.89403000  0.08036000  0.30056000  1.0
  C  C129  1  0.89402000  0.41964000  0.69944000  1.0
  C  C130  1  0.10597000  0.91963000  0.69945000  1.0
  C  C131  1  0.10598000  0.58036000  0.30056000  1.0
  C  C132  1  0.97074000  0.01780000  0.34453000  1.0
  C  C133  1  0.97073000  0.48219000  0.65546000  1.0
  C  C134  1  0.02926000  0.98219000  0.65547000  1.0
  C  C135  1  0.02927000  0.51780000  0.34453000  1.0
  C  C136  1  0.06059000  0.05100000  0.37498000  1.0
  C  C137  1  0.06058000  0.44898000  0.62501000  1.0
  C  C138  1  0.93942000  0.94899000  0.62501000  1.0
  C  C139  1  0.93942000  0.55100000  0.37499000  1.0
  C  C140  1  0.09680000  0.15680000  0.36989000  1.0
  C  C141  1  0.09680000  0.34319000  0.63010000  1.0
  C  C142  1  0.90321000  0.84319000  0.63010000  1.0
  C  C143  1  0.90321000  0.65680000  0.36989000  1.0
  C  C144  1  0.87071000  0.86717000  0.13676000  1.0
  C  C145  1  0.87070000  0.63283000  0.86324000  1.0
  C  C146  1  0.12929000  0.13284000  0.86324000  1.0
  C  C147  1  0.12929000  0.36716000  0.13676000  1.0
  C  C148  1  0.92507000  0.87437000  0.07517000  1.0
  C  C149  1  0.92506000  0.62564000  0.92482000  1.0
  C  C150  1  0.07494000  0.12564000  0.92483000  1.0
  C  C151  1  0.07494000  0.37437000  0.07517000  1.0
  C  C152  1  0.03172000  0.87242000  0.07693000  1.0
  C  C153  1  0.03171000  0.62758000  0.92307000  1.0
  C  C154  1  0.96829000  0.12758000  0.92307000  1.0
  C  C155  1  0.96828000  0.37242000  0.07693000  1.0
  C  C156  1  0.07809000  0.86133000  0.14253000  1.0
  C  C157  1  0.07809000  0.63867000  0.85747000  1.0
  C  C158  1  0.92191000  0.13867000  0.85748000  1.0
  C  C159  1  0.92191000  0.36133000  0.14253000  1.0
  C  C160  1  0.01786000  0.85500000  0.20171000  1.0
  C  C161  1  0.01786000  0.64500000  0.79828000  1.0
  C  C162  1  0.98214000  0.14500000  0.79828000  1.0
  C  C163  1  0.98214000  0.35500000  0.20171000  1.0
  C  C164  1  0.09246000  0.88135000  0.01257000  1.0
  C  C165  1  0.09246000  0.61865000  0.98743000  1.0
  C  C166  1  0.90754000  0.11865000  0.98744000  1.0
  C  C167  1  0.90754000  0.38135000  0.01257000  1.0
  C  C168  1  0.05032000  0.86713000  0.94850000  1.0
  C  C169  1  0.05031000  0.63287000  0.05150000  1.0
  C  C170  1  0.94969000  0.13286000  0.05150000  1.0
  C  C171  1  0.94969000  0.36713000  0.94850000  1.0
  C  C172  1  0.11114000  0.87664000  0.88957000  1.0
  C  C173  1  0.11113000  0.62335000  0.11043000  1.0
  C  C174  1  0.88886000  0.12335000  0.11043000  1.0
  C  C175  1  0.88887000  0.37664000  0.88957000  1.0
  C  C176  1  0.25201000  0.91158000  0.95245000  1.0
  C  C177  1  0.25200000  0.58842000  0.04755000  1.0
  C  C178  1  0.74799000  0.08842000  0.04755000  1.0
  C  C179  1  0.74800000  0.41158000  0.95245000  1.0
  C  C180  1  0.19613000  0.90479000  0.01333000  1.0
  C  C181  1  0.19613000  0.59522000  0.98667000  1.0
  C  C182  1  0.80387000  0.09522000  0.98667000  1.0
  C  C183  1  0.80388000  0.40479000  0.01333000  1.0
  S  S184  1  0.44908000  0.06882000  0.10515000  1.0
  S  S185  1  0.44908000  0.43118000  0.89486000  1.0
  S  S186  1  0.55092000  0.93119000  0.89485000  1.0
  S  S187  1  0.55091000  0.56881000  0.10514000  1.0
  S  S188  1  0.05185000  0.87365000  0.40917000  1.0
  S  S189  1  0.05185000  0.62633000  0.59083000  1.0
  S  S190  1  0.94815000  0.12634000  0.59083000  1.0
  S  S191  1  0.94815000  0.37365000  0.40916000  1.0
  N  N192  1  0.58348000  0.09495000  0.30397000  1.0
  N  N193  1  0.58348000  0.40505000  0.69603000  1.0
  N  N194  1  0.41652000  0.90505000  0.69603000  1.0
  N  N195  1  0.41652000  0.59495000  0.30397000  1.0
  N  N196  1  0.28594000  0.13976000  0.60117000  1.0
  N  N197  1  0.28594000  0.36024000  0.39883000  1.0
  N  N198  1  0.71406000  0.86024000  0.39883000  1.0
  N  N199  1  0.71406000  0.63976000  0.60117000  1.0
  N  N200  1  0.54516000  0.01837000  0.15072000  1.0
  N  N201  1  0.54516000  0.48163000  0.84928000  1.0
  N  N202  1  0.45484000  0.98164000  0.84928000  1.0
  N  N203  1  0.45484000  0.51837000  0.15072000  1.0
  N  N204  1  0.38200000  0.96738000  0.10609000  1.0
  N  N205  1  0.38200000  0.53262000  0.89392000  1.0
  N  N206  1  0.61800000  0.03263000  0.89391000  1.0
  N  N207  1  0.61800000  0.46738000  0.10608000  1.0
  N  N208  1  0.95799000  0.91979000  0.35952000  1.0
  N  N209  1  0.95799000  0.58020000  0.64047000  1.0
  N  N210  1  0.04201000  0.08020000  0.64048000  1.0
  N  N211  1  0.04201000  0.41979000  0.35952000  1.0
  N  N212  1  0.11275000  0.97767000  0.41193000  1.0
  N  N213  1  0.11274000  0.52231000  0.58806000  1.0
  N  N214  1  0.88726000  0.02232000  0.58806000  1.0
  N  N215  1  0.88726000  0.47767000  0.41193000  1.0
  N  N216  1  0.91591000  0.85850000  0.19925000  1.0
  N  N217  1  0.91590000  0.64150000  0.80074000  1.0
  N  N218  1  0.08410000  0.14150000  0.80075000  1.0
  N  N219  1  0.08409000  0.35850000  0.19925000  1.0
  N  N220  1  0.21061000  0.89849000  0.89138000  1.0
  N  N221  1  0.21061000  0.60151000  0.10863000  1.0
  N  N222  1  0.78939000  0.10152000  0.10863000  1.0
  N  N223  1  0.78940000  0.39849000  0.89137000  1.0
  O  O224  1  0.42819000  0.73203000  0.10962000  1.0
  O  O225  1  0.42818000  0.76797000  0.89039000  1.0
  O  O226  1  0.57182000  0.26798000  0.89039000  1.0
  O  O227  1  0.57180000  0.23203000  0.10961000  1.0
  O  O228  1  0.32294000  0.76575000  0.19550000  1.0
  O  O229  1  0.32294000  0.73425000  0.80450000  1.0
  O  O230  1  0.67706000  0.23426000  0.80449000  1.0
  O  O231  1  0.67706000  0.26574000  0.19550000  1.0
  O  O232  1  0.57936000  0.77165000  0.23648000  1.0
  O  O233  1  0.57936000  0.72835000  0.76353000  1.0
  O  O234  1  0.42064000  0.22835000  0.76353000  1.0
  O  O235  1  0.42064000  0.27165000  0.23647000  1.0
  O  O236  1  0.68338000  0.90573000  0.22737000  1.0
  O  O237  1  0.68338000  0.59427000  0.77263000  1.0
  O  O238  1  0.31662000  0.09427000  0.77263000  1.0
  O  O239  1  0.31662000  0.40572000  0.22737000  1.0
  O  O240  1  0.81925000  0.03132000  0.27883000  1.0
  O  O241  1  0.81925000  0.46868000  0.72117000  1.0
  O  O242  1  0.18075000  0.96868000  0.72117000  1.0
  O  O243  1  0.18075000  0.53131000  0.27883000  1.0
  O  O244  1  0.90695000  0.17147000  0.28844000  1.0
  O  O245  1  0.90694000  0.32852000  0.71155000  1.0
  O  O246  1  0.09305000  0.82852000  0.71156000  1.0
  O  O247  1  0.09305000  0.67147000  0.28844000  1.0
  O  O248  1  0.15744000  0.18402000  0.31917000  1.0
  O  O249  1  0.15744000  0.31597000  0.68083000  1.0
  O  O250  1  0.84255000  0.81597000  0.68082000  1.0
  O  O251  1  0.84256000  0.68403000  0.31918000  1.0
  O  O252  1  0.06773000  0.20540000  0.41593000  1.0
  O  O253  1  0.06773000  0.29458000  0.58407000  1.0
  O  O254  1  0.93227000  0.79459000  0.58407000  1.0
  O  O255  1  0.93229000  0.70540000  0.41593000  1.0
