# generated using pymatgen
data_MnH6(CO3)2
_symmetry_space_group_name_H-M   'P 1'
_cell_length_a   7.09193000
_cell_length_b   8.80503000
_cell_length_c   9.57454000
_cell_angle_alpha   82.15900000
_cell_angle_beta   89.99720000
_cell_angle_gamma   89.99720000
_symmetry_Int_Tables_number   1
_chemical_formula_structural   MnH6(CO3)2
_chemical_formula_sum   'Mn4 H24 C8 O24'
_cell_volume   592.28897345
_cell_formula_units_Z   4
loop_
 _symmetry_equiv_pos_site_id
 _symmetry_equiv_pos_as_xyz
  1  'x, y, z'
loop_
 _atom_site_type_symbol
 _atom_site_label
 _atom_site_symmetry_multiplicity
 _atom_site_fract_x
 _atom_site_fract_y
 _atom_site_fract_z
 _atom_site_occupancy
  Mn  Mn0  1  0.00000000  0.00000000  0.00000000  1.0
  Mn  Mn1  1  0.50000000  0.00000000  0.50000000  1.0
  Mn  Mn2  1  0.50000000  0.50000000  0.00000000  1.0
  Mn  Mn3  1  0.99999000  0.50000000  0.50000000  1.0
  H  H4  1  0.24502000  0.08876000  0.24711000  1.0
  H  H5  1  0.74498000  0.91119000  0.25284000  1.0
  H  H6  1  0.75500000  0.91123000  0.75288000  1.0
  H  H7  1  0.25503000  0.08882000  0.74717000  1.0
  H  H8  1  0.63051000  0.76179000  0.04540000  1.0
  H  H9  1  0.13054000  0.23820000  0.45457000  1.0
  H  H10  1  0.36949000  0.23820000  0.95461000  1.0
  H  H11  1  0.86946000  0.76181000  0.54542000  1.0
  H  H12  1  0.95569000  0.33251000  0.12495000  1.0
  H  H13  1  0.45571000  0.66733000  0.37514000  1.0
  H  H14  1  0.04431000  0.66749000  0.87505000  1.0
  H  H15  1  0.54430000  0.33268000  0.62486000  1.0
  H  H16  1  0.41114000  0.79739000  0.01737000  1.0
  H  H17  1  0.91118000  0.20258000  0.48257000  1.0
  H  H18  1  0.58886000  0.20260000  0.98263000  1.0
  H  H19  1  0.08882000  0.79742000  0.51742000  1.0
  H  H20  1  0.60284000  0.29342000  0.23235000  1.0
  H  H21  1  0.10306000  0.70656000  0.26778000  1.0
  H  H22  1  0.39716000  0.70657000  0.76765000  1.0
  H  H23  1  0.89695000  0.29344000  0.73222000  1.0
  H  H24  1  0.65312000  0.45908000  0.27587000  1.0
  H  H25  1  0.15322000  0.54093000  0.22418000  1.0
  H  H26  1  0.34687000  0.54092000  0.72413000  1.0
  H  H27  1  0.84678000  0.45906000  0.77582000  1.0
  C  C28  1  0.19038000  0.97521000  0.29186000  1.0
  C  C29  1  0.69037000  0.02477000  0.20816000  1.0
  C  C30  1  0.80962000  0.02479000  0.70814000  1.0
  C  C31  1  0.30964000  0.97523000  0.79185000  1.0
  C  C32  1  0.09738000  0.33191000  0.07681000  1.0
  C  C33  1  0.59740000  0.66809000  0.42317000  1.0
  C  C34  1  0.90261000  0.66810000  0.92320000  1.0
  C  C35  1  0.40260000  0.33191000  0.57683000  1.0
  O  O36  1  0.08527000  0.90456000  0.21485000  1.0
  O  O37  1  0.58520000  0.09535000  0.28517000  1.0
  O  O38  1  0.91474000  0.09543000  0.78514000  1.0
  O  O39  1  0.41480000  0.90466000  0.71483000  1.0
  O  O40  1  0.50022000  0.72553000  0.07299000  1.0
  O  O41  1  0.00026000  0.27447000  0.42699000  1.0
  O  O42  1  0.49977000  0.27446000  0.92701000  1.0
  O  O43  1  0.99974000  0.72553000  0.57301000  1.0
  O  O44  1  0.23876000  0.92253000  0.41713000  1.0
  O  O45  1  0.73884000  0.07755000  0.08292000  1.0
  O  O46  1  0.76124000  0.07747000  0.58287000  1.0
  O  O47  1  0.26116000  0.92245000  0.91709000  1.0
  O  O48  1  0.62881000  0.40188000  0.19437000  1.0
  O  O49  1  0.12916000  0.59812000  0.30574000  1.0
  O  O50  1  0.37118000  0.59812000  0.80563000  1.0
  O  O51  1  0.87084000  0.40188000  0.69426000  1.0
  O  O52  1  0.20756000  0.44203000  0.09168000  1.0
  O  O53  1  0.70777000  0.55808000  0.40824000  1.0
  O  O54  1  0.79245000  0.55797000  0.90833000  1.0
  O  O55  1  0.29223000  0.44192000  0.59176000  1.0
  O  O56  1  0.14073000  0.22005000  0.01068000  1.0
  O  O57  1  0.64065000  0.77998000  0.48931000  1.0
  O  O58  1  0.85928000  0.77994000  0.98931000  1.0
  O  O59  1  0.35935000  0.22003000  0.51068000  1.0
