# generated using pymatgen
data_CuH5C5BrN3
_symmetry_space_group_name_H-M   'P 1'
_cell_length_a   19.44009185
_cell_length_b   19.44020000
_cell_length_c   19.44030000
_cell_angle_alpha   70.52800000
_cell_angle_beta   70.52880859
_cell_angle_gamma   109.47077460
_symmetry_Int_Tables_number   1
_chemical_formula_structural   CuH5C5BrN3
_chemical_formula_sum   'Cu24 H120 C120 Br24 N72'
_cell_volume   5655.59735792
_cell_formula_units_Z   24
loop_
 _symmetry_equiv_pos_site_id
 _symmetry_equiv_pos_as_xyz
  1  'x, y, z'
loop_
 _atom_site_type_symbol
 _atom_site_label
 _atom_site_symmetry_multiplicity
 _atom_site_fract_x
 _atom_site_fract_y
 _atom_site_fract_z
 _atom_site_occupancy
  Cu  Cu0  1  0.23292000  0.44573000  0.38540000  1.0
  Cu  Cu1  1  0.83113000  0.11832000  0.11460000  1.0
  Cu  Cu2  1  0.26706000  0.38167000  0.28720000  1.0
  Cu  Cu3  1  0.66887000  0.05427000  0.21281000  1.0
  Cu  Cu4  1  0.44574000  0.61461000  0.76706000  1.0
  Cu  Cu5  1  0.11833000  0.88538000  0.16888000  1.0
  Cu  Cu6  1  0.38168000  0.71281000  0.73292000  1.0
  Cu  Cu7  1  0.05428000  0.78720000  0.33113000  1.0
  Cu  Cu8  1  0.61461000  0.23293000  0.55427000  1.0
  Cu  Cu9  1  0.88539000  0.83113000  0.88168000  1.0
  Cu  Cu10  1  0.71280000  0.26707000  0.61833000  1.0
  Cu  Cu11  1  0.78718000  0.66887000  0.94573000  1.0
  Cu  Cu12  1  0.94573000  0.73292000  0.88540000  1.0
  Cu  Cu13  1  0.61832000  0.33113000  0.61460000  1.0
  Cu  Cu14  1  0.88168000  0.76707000  0.78720000  1.0
  Cu  Cu15  1  0.55426000  0.16887000  0.71282000  1.0
  Cu  Cu16  1  0.11463000  0.94574000  0.26706000  1.0
  Cu  Cu17  1  0.38540000  0.61833000  0.66887000  1.0
  Cu  Cu18  1  0.21281000  0.88167000  0.23292000  1.0
  Cu  Cu19  1  0.28719000  0.55426000  0.83112000  1.0
  Cu  Cu20  1  0.73292000  0.11461000  0.05427000  1.0
  Cu  Cu21  1  0.33111000  0.38538000  0.38170000  1.0
  Cu  Cu22  1  0.76708000  0.21282000  0.11831000  1.0
  Cu  Cu23  1  0.16886000  0.28718000  0.44574000  1.0
  H  H24  1  0.30536000  0.58499000  0.21272000  1.0
  H  H25  1  0.79772000  0.01810000  0.28727000  1.0
  H  H26  1  0.19463000  0.48191000  0.22037000  1.0
  H  H27  1  0.70228000  0.91500000  0.27963000  1.0
  H  H28  1  0.58500000  0.78729000  0.69463000  1.0
  H  H29  1  0.01809000  0.71272000  0.20228000  1.0
  H  H30  1  0.48192000  0.77964000  0.80536000  1.0
  H  H31  1  0.91502000  0.72038000  0.29771000  1.0
  H  H32  1  0.78727000  0.30535000  0.41501000  1.0
  H  H33  1  0.71272000  0.79772000  0.98192000  1.0
  H  H34  1  0.77963000  0.19464000  0.51809000  1.0
  H  H35  1  0.72036000  0.70228000  0.08500000  1.0
  H  H36  1  0.08499000  0.80536000  0.71273000  1.0
  H  H37  1  0.51809000  0.29772000  0.78727000  1.0
  H  H38  1  0.98191000  0.69463000  0.72037000  1.0
  H  H39  1  0.41501000  0.20229000  0.77963000  1.0
  H  H40  1  0.28728000  0.08500000  0.19464000  1.0
  H  H41  1  0.21272000  0.51809000  0.70228000  1.0
  H  H42  1  0.27963000  0.98191000  0.30536000  1.0
  H  H43  1  0.22037000  0.41501000  0.79771000  1.0
  H  H44  1  0.80537000  0.28728000  0.91501000  1.0
  H  H45  1  0.29771000  0.21272000  0.48191000  1.0
  H  H46  1  0.69464000  0.27963000  0.01809000  1.0
  H  H47  1  0.20229000  0.22037000  0.58499000  1.0
  H  H48  1  0.26781000  0.72117000  0.37983000  1.0
  H  H49  1  0.10101000  0.14764000  0.12018000  1.0
  H  H50  1  0.23218000  0.35235000  0.04664000  1.0
  H  H51  1  0.39900000  0.77883000  0.45336000  1.0
  H  H52  1  0.72118000  0.62018000  0.73219000  1.0
  H  H53  1  0.14764000  0.87983000  0.89899000  1.0
  H  H54  1  0.35236000  0.95337000  0.76781000  1.0
  H  H55  1  0.77881000  0.54663000  0.60101000  1.0
  H  H56  1  0.62017000  0.26781000  0.27883000  1.0
  H  H57  1  0.87983000  0.10101000  0.85236000  1.0
  H  H58  1  0.95336000  0.23218000  0.64765000  1.0
  H  H59  1  0.54663000  0.39899000  0.22119000  1.0
  H  H60  1  0.22118000  0.76781000  0.87983000  1.0
  H  H61  1  0.64764000  0.60101000  0.62018000  1.0
  H  H62  1  0.85236000  0.73219000  0.54663000  1.0
  H  H63  1  0.27882000  0.89900000  0.95337000  1.0
  H  H64  1  0.12017000  0.22118000  0.23219000  1.0
  H  H65  1  0.37983000  0.64765000  0.39898000  1.0
  H  H66  1  0.45337000  0.85236000  0.26782000  1.0
  H  H67  1  0.04664000  0.27882000  0.10100000  1.0
  H  H68  1  0.76782000  0.12018000  0.77881000  1.0
  H  H69  1  0.60101000  0.37982000  0.35236000  1.0
  H  H70  1  0.73218000  0.45336000  0.14765000  1.0
  H  H71  1  0.89899000  0.04663000  0.72119000  1.0
  H  H72  1  0.35128000  0.91191000  0.10922000  1.0
  H  H73  1  0.02112000  0.96048000  0.39079000  1.0
  H  H74  1  0.14872000  0.53951000  0.93937000  1.0
  H  H75  1  0.47887000  0.58809000  0.56064000  1.0
  H  H76  1  0.91191000  0.89079000  0.64872000  1.0
  H  H77  1  0.96049000  0.60921000  0.97888000  1.0
  H  H78  1  0.53951000  0.06063000  0.85128000  1.0
  H  H79  1  0.58809000  0.43937000  0.52112000  1.0
  H  H80  1  0.89079000  0.35128000  0.08808000  1.0
  H  H81  1  0.60921000  0.02112000  0.03951000  1.0
  H  H82  1  0.06063000  0.14872000  0.46050000  1.0
  H  H83  1  0.43937000  0.47888000  0.41191000  1.0
  H  H84  1  0.41191000  0.85128000  0.60921000  1.0
  H  H85  1  0.46049000  0.52112000  0.89079000  1.0
  H  H86  1  0.03951000  0.64872000  0.43937000  1.0
  H  H87  1  0.08809000  0.97888000  0.06063000  1.0
  H  H88  1  0.39079000  0.41191000  0.14871000  1.0
  H  H89  1  0.10921000  0.46049000  0.47887000  1.0
  H  H90  1  0.56064000  0.03951000  0.35128000  1.0
  H  H91  1  0.93937000  0.08809000  0.02113000  1.0
  H  H92  1  0.85128000  0.39079000  0.58808000  1.0
  H  H93  1  0.52112000  0.10920000  0.53952000  1.0
  H  H94  1  0.64872000  0.56063000  0.96049000  1.0
  H  H95  1  0.97888000  0.93937000  0.91191000  1.0
  H  H96  1  0.44361000  0.90145000  0.08184000  1.0
  H  H97  1  0.98329000  0.02544000  0.41816000  1.0
  H  H98  1  0.05640000  0.47456000  0.04215000  1.0
  H  H99  1  0.51670000  0.59854000  0.45785000  1.0
  H  H100  1  0.90145000  0.91816000  0.55640000  1.0
  H  H101  1  0.02545000  0.58185000  0.01671000  1.0
  H  H102  1  0.47456000  0.95785000  0.94359000  1.0
  H  H103  1  0.59855000  0.54215000  0.48329000  1.0
  H  H104  1  0.91816000  0.44361000  0.09855000  1.0
  H  H105  1  0.58184000  0.98329000  0.97456000  1.0
  H  H106  1  0.95785000  0.05640000  0.52544000  1.0
  H  H107  1  0.54215000  0.51670000  0.40145000  1.0
  H  H108  1  0.40145000  0.94360000  0.58184000  1.0
  H  H109  1  0.52544000  0.48329000  0.91816000  1.0
  H  H110  1  0.97456000  0.55640000  0.54215000  1.0
  H  H111  1  0.09855000  0.01671000  0.95785000  1.0
  H  H112  1  0.41815000  0.40144000  0.05640000  1.0
  H  H113  1  0.08184000  0.52544000  0.51671000  1.0
  H  H114  1  0.45785000  0.97456000  0.44360000  1.0
  H  H115  1  0.04216000  0.09855000  0.98329000  1.0
  H  H116  1  0.94360000  0.41816000  0.59855000  1.0
  H  H117  1  0.48329000  0.08184000  0.47456000  1.0
  H  H118  1  0.55640000  0.45785000  0.02544000  1.0
  H  H119  1  0.01671000  0.04215000  0.90145000  1.0
  H  H120  1  0.34798000  0.82103000  0.10291000  1.0
  H  H121  1  0.92393000  0.95088000  0.39710000  1.0
  H  H122  1  0.15202000  0.54911000  0.02695000  1.0
  H  H123  1  0.57606000  0.67897000  0.47305000  1.0
  H  H124  1  0.82102000  0.89709000  0.65203000  1.0
  H  H125  1  0.95088000  0.60291000  0.07607000  1.0
  H  H126  1  0.54911000  0.97304000  0.84798000  1.0
  H  H127  1  0.67897000  0.52695000  0.42394000  1.0
  H  H128  1  0.89709000  0.34797000  0.17897000  1.0
  H  H129  1  0.60291000  0.92394000  0.04912000  1.0
  H  H130  1  0.97305000  0.15202000  0.45089000  1.0
  H  H131  1  0.52695000  0.57606000  0.32103000  1.0
  H  H132  1  0.32103000  0.84798000  0.60291000  1.0
  H  H133  1  0.45089000  0.42394000  0.89709000  1.0
  H  H134  1  0.04912000  0.65203000  0.52694000  1.0
  H  H135  1  0.17898000  0.07607000  0.97304000  1.0
  H  H136  1  0.39709000  0.32103000  0.15202000  1.0
  H  H137  1  0.10291000  0.45088000  0.57606000  1.0
  H  H138  1  0.47306000  0.04912000  0.34797000  1.0
  H  H139  1  0.02695000  0.17897000  0.92394000  1.0
  H  H140  1  0.84797000  0.39709000  0.67897000  1.0
  H  H141  1  0.42393000  0.10289000  0.54913000  1.0
  H  H142  1  0.65202000  0.47304000  0.95089000  1.0
  H  H143  1  0.07607000  0.02695000  0.82102000  1.0
  C  C144  1  0.29725000  0.61635000  0.24959000  1.0
  C  C145  1  0.86594000  0.04685000  0.25041000  1.0
  C  C146  1  0.20274000  0.45315000  0.18091000  1.0
  C  C147  1  0.63406000  0.88364000  0.31910000  1.0
  C  C148  1  0.61635000  0.75041000  0.70274000  1.0
  C  C149  1  0.04684000  0.74958000  0.13406000  1.0
  C  C150  1  0.45316000  0.81910000  0.79725000  1.0
  C  C151  1  0.88366000  0.68091000  0.36593000  1.0
  C  C152  1  0.75041000  0.29725000  0.38365000  1.0
  C  C153  1  0.74959000  0.86594000  0.95316000  1.0
  C  C154  1  0.81909000  0.20274000  0.54685000  1.0
  C  C155  1  0.68091000  0.63407000  0.11634000  1.0
  C  C156  1  0.11635000  0.79726000  0.74959000  1.0
  C  C157  1  0.54685000  0.36595000  0.75040000  1.0
  C  C158  1  0.95316000  0.70275000  0.68090000  1.0
  C  C159  1  0.38365000  0.13406000  0.81909000  1.0
  C  C160  1  0.25042000  0.11635000  0.20274000  1.0
  C  C161  1  0.24959000  0.54685000  0.63406000  1.0
  C  C162  1  0.31910000  0.95316000  0.29725000  1.0
  C  C163  1  0.18090000  0.38365000  0.86594000  1.0
  C  C164  1  0.79726000  0.25041000  0.88365000  1.0
  C  C165  1  0.36593000  0.24958000  0.45316000  1.0
  C  C166  1  0.70274000  0.31909000  0.04685000  1.0
  C  C167  1  0.13406000  0.18090000  0.61635000  1.0
  C  C168  1  0.31912000  0.73823000  0.25236000  1.0
  C  C169  1  0.99059000  0.07147000  0.24765000  1.0
  C  C170  1  0.18088000  0.42852000  0.08088000  1.0
  C  C171  1  0.50940000  0.76175000  0.41912000  1.0
  C  C172  1  0.73824000  0.74765000  0.68088000  1.0
  C  C173  1  0.07147000  0.75235000  0.00941000  1.0
  C  C174  1  0.42852000  0.91912000  0.81912000  1.0
  C  C175  1  0.76176000  0.58088000  0.49059000  1.0
  C  C176  1  0.74764000  0.31912000  0.26177000  1.0
  C  C177  1  0.75236000  0.99060000  0.92852000  1.0
  C  C178  1  0.91912000  0.18088000  0.57147000  1.0
  C  C179  1  0.58088000  0.50940000  0.23824000  1.0
  C  C180  1  0.23824000  0.81913000  0.75235000  1.0
  C  C181  1  0.57147000  0.49059000  0.74765000  1.0
  C  C182  1  0.92852000  0.68087000  0.58089000  1.0
  C  C183  1  0.26177000  0.00941000  0.91911000  1.0
  C  C184  1  0.24765000  0.23824000  0.18087000  1.0
  C  C185  1  0.25235000  0.57147000  0.50941000  1.0
  C  C186  1  0.41912000  0.92853000  0.31912000  1.0
  C  C187  1  0.08089000  0.26176000  0.99059000  1.0
  C  C188  1  0.81912000  0.24764000  0.76177000  1.0
  C  C189  1  0.49059000  0.25235000  0.42852000  1.0
  C  C190  1  0.68088000  0.41912000  0.07148000  1.0
  C  C191  1  0.00941000  0.08089000  0.73823000  1.0
  C  C192  1  0.27912000  0.69219000  0.34129000  1.0
  C  C193  1  0.03348000  0.12041000  0.15871000  1.0
  C  C194  1  0.22088000  0.37959000  0.08693000  1.0
  C  C195  1  0.46652000  0.80781000  0.41307000  1.0
  C  C196  1  0.69219000  0.65872000  0.72088000  1.0
  C  C197  1  0.12041000  0.84129000  0.96653000  1.0
  C  C198  1  0.37959000  0.91306000  0.77912000  1.0
  C  C199  1  0.80781000  0.58694000  0.53347000  1.0
  C  C200  1  0.65871000  0.27912000  0.30781000  1.0
  C  C201  1  0.84129000  0.03348000  0.87959000  1.0
  C  C202  1  0.91307000  0.22088000  0.62041000  1.0
  C  C203  1  0.58693000  0.46652000  0.19219000  1.0
  C  C204  1  0.19219000  0.77912000  0.84129000  1.0
  C  C205  1  0.62041000  0.53348000  0.65871000  1.0
  C  C206  1  0.87959000  0.72088000  0.58693000  1.0
  C  C207  1  0.30781000  0.96652000  0.91307000  1.0
  C  C208  1  0.15871000  0.19218000  0.22088000  1.0
  C  C209  1  0.34129000  0.62041000  0.46652000  1.0
  C  C210  1  0.41307000  0.87960000  0.27912000  1.0
  C  C211  1  0.08694000  0.30782000  0.03347000  1.0
  C  C212  1  0.77912000  0.15871000  0.80781000  1.0
  C  C213  1  0.53348000  0.34129000  0.37959000  1.0
  C  C214  1  0.72087000  0.41306000  0.12042000  1.0
  C  C215  1  0.96652000  0.08693000  0.69219000  1.0
  C  C216  1  0.25119000  0.60699000  0.37876000  1.0
  C  C217  1  0.98576000  0.12995000  0.12124000  1.0
  C  C218  1  0.24880000  0.37005000  0.14420000  1.0
  C  C219  1  0.51425000  0.89301000  0.35580000  1.0
  C  C220  1  0.60700000  0.62125000  0.74880000  1.0
  C  C221  1  0.12995000  0.87875000  0.01425000  1.0
  C  C222  1  0.37005000  0.85581000  0.75119000  1.0
  C  C223  1  0.89300000  0.64420000  0.48576000  1.0
  C  C224  1  0.62124000  0.25119000  0.39300000  1.0
  C  C225  1  0.87876000  0.98576000  0.87005000  1.0
  C  C226  1  0.85580000  0.24880000  0.62995000  1.0
  C  C227  1  0.64419000  0.51424000  0.10701000  1.0
  C  C228  1  0.10700000  0.75120000  0.87876000  1.0
  C  C229  1  0.62996000  0.48576000  0.62124000  1.0
  C  C230  1  0.87005000  0.74881000  0.64419000  1.0
  C  C231  1  0.39300000  0.01424000  0.85580000  1.0
  C  C232  1  0.12124000  0.10699000  0.24881000  1.0
  C  C233  1  0.37876000  0.62996000  0.51424000  1.0
  C  C234  1  0.35581000  0.87004000  0.25119000  1.0
  C  C235  1  0.14420000  0.39300000  0.98575000  1.0
  C  C236  1  0.75120000  0.12125000  0.89300000  1.0
  C  C237  1  0.48575000  0.37875000  0.37005000  1.0
  C  C238  1  0.74880000  0.35580000  0.12996000  1.0
  C  C239  1  0.01424000  0.14419000  0.60700000  1.0
  C  C240  1  0.37450000  0.86720000  0.12029000  1.0
  C  C241  1  0.98748000  0.99478000  0.37971000  1.0
  C  C242  1  0.12551000  0.50522000  0.00729000  1.0
  C  C243  1  0.51251000  0.63281000  0.49270000  1.0
  C  C244  1  0.86719000  0.87971000  0.62551000  1.0
  C  C245  1  0.99478000  0.62029000  0.01252000  1.0
  C  C246  1  0.50522000  0.99270000  0.87449000  1.0
  C  C247  1  0.63281000  0.50730000  0.48748000  1.0
  C  C248  1  0.87970000  0.37449000  0.13281000  1.0
  C  C249  1  0.62029000  0.98748000  0.00522000  1.0
  C  C250  1  0.99270000  0.12551000  0.49479000  1.0
  C  C251  1  0.50730000  0.51252000  0.36719000  1.0
  C  C252  1  0.36719000  0.87449000  0.62029000  1.0
  C  C253  1  0.49478000  0.48748000  0.87971000  1.0
  C  C254  1  0.00522000  0.62551000  0.50730000  1.0
  C  C255  1  0.13281000  0.01252000  0.99270000  1.0
  C  C256  1  0.37971000  0.36719000  0.12551000  1.0
  C  C257  1  0.12028000  0.49477000  0.51252000  1.0
  C  C258  1  0.49271000  0.00523000  0.37449000  1.0
  C  C259  1  0.00730000  0.13280000  0.98749000  1.0
  C  C260  1  0.87449000  0.37971000  0.63281000  1.0
  C  C261  1  0.48748000  0.12028000  0.50522000  1.0
  C  C262  1  0.62551000  0.49270000  0.99478000  1.0
  C  C263  1  0.01252000  0.00730000  0.86719000  1.0
  Br  Br264  1  0.26061000  0.39869000  0.50255000  1.0
  Br  Br265  1  0.90123000  0.26314000  0.99747000  1.0
  Br  Br266  1  0.23938000  0.23686000  0.36192000  1.0
  Br  Br267  1  0.59876000  0.10131000  0.13808000  1.0
  Br  Br268  1  0.39869000  0.49747000  0.73938000  1.0
  Br  Br269  1  0.26315000  0.00253000  0.09877000  1.0
  Br  Br270  1  0.23686000  0.63809000  0.76061000  1.0
  Br  Br271  1  0.10130000  0.86192000  0.40123000  1.0
  Br  Br272  1  0.49747000  0.26062000  0.60131000  1.0
  Br  Br273  1  0.00252000  0.90122000  0.73686000  1.0
  Br  Br274  1  0.63808000  0.23939000  0.76315000  1.0
  Br  Br275  1  0.86192000  0.59877000  0.89870000  1.0
  Br  Br276  1  0.89870000  0.76062000  0.00252000  1.0
  Br  Br277  1  0.76314000  0.40122000  0.49747000  1.0
  Br  Br278  1  0.73686000  0.73940000  0.86191000  1.0
  Br  Br279  1  0.60130000  0.09878000  0.63808000  1.0
  Br  Br280  1  0.99749000  0.89870000  0.23938000  1.0
  Br  Br281  1  0.50253000  0.76315000  0.59877000  1.0
  Br  Br282  1  0.13808000  0.73685000  0.26062000  1.0
  Br  Br283  1  0.36193000  0.60131000  0.90121000  1.0
  Br  Br284  1  0.76061000  0.99746000  0.10130000  1.0
  Br  Br285  1  0.40122000  0.50253000  0.23686000  1.0
  Br  Br286  1  0.73940000  0.13810000  0.26313000  1.0
  Br  Br287  1  0.09877000  0.36191000  0.39870000  1.0
  N  N288  1  0.26068000  0.56704000  0.33379000  1.0
  N  N289  1  0.90084000  0.09448000  0.16621000  1.0
  N  N290  1  0.23931000  0.40553000  0.19364000  1.0
  N  N291  1  0.59917000  0.93296000  0.30636000  1.0
  N  N292  1  0.56705000  0.66622000  0.73930000  1.0
  N  N293  1  0.09447000  0.83378000  0.09917000  1.0
  N  N294  1  0.40553000  0.80636000  0.76068000  1.0
  N  N295  1  0.93296000  0.69364000  0.40083000  1.0
  N  N296  1  0.66621000  0.26068000  0.43296000  1.0
  N  N297  1  0.83379000  0.90084000  0.90553000  1.0
  N  N298  1  0.80636000  0.23932000  0.59447000  1.0
  N  N299  1  0.69363000  0.59916000  0.06705000  1.0
  N  N300  1  0.06704000  0.76069000  0.83379000  1.0
  N  N301  1  0.59448000  0.40084000  0.66621000  1.0
  N  N302  1  0.90553000  0.73932000  0.69364000  1.0
  N  N303  1  0.43295000  0.09917000  0.80636000  1.0
  N  N304  1  0.16622000  0.06705000  0.23931000  1.0
  N  N305  1  0.33379000  0.59448000  0.59916000  1.0
  N  N306  1  0.30636000  0.90552000  0.26068000  1.0
  N  N307  1  0.19364000  0.43296000  0.90083000  1.0
  N  N308  1  0.76069000  0.16622000  0.93295000  1.0
  N  N309  1  0.40083000  0.33378000  0.40553000  1.0
  N  N310  1  0.73932000  0.30636000  0.09447000  1.0
  N  N311  1  0.09917000  0.19364000  0.56705000  1.0
  N  N312  1  0.32653000  0.69845000  0.20735000  1.0
  N  N313  1  0.90580000  0.03388000  0.29265000  1.0
  N  N314  1  0.17347000  0.46612000  0.12808000  1.0
  N  N315  1  0.59420000  0.80154000  0.37192000  1.0
  N  N316  1  0.69845000  0.79265000  0.67347000  1.0
  N  N317  1  0.03388000  0.70735000  0.09420000  1.0
  N  N318  1  0.46612000  0.87192000  0.82653000  1.0
  N  N319  1  0.80155000  0.62808000  0.40580000  1.0
  N  N320  1  0.79265000  0.32653000  0.30155000  1.0
  N  N321  1  0.70735000  0.90580000  0.96612000  1.0
  N  N322  1  0.87192000  0.17347000  0.53388000  1.0
  N  N323  1  0.62807000  0.59419000  0.19846000  1.0
  N  N324  1  0.19845000  0.82653000  0.70735000  1.0
  N  N325  1  0.53388000  0.40581000  0.79265000  1.0
  N  N326  1  0.96612000  0.67347000  0.62808000  1.0
  N  N327  1  0.30155000  0.09420000  0.87192000  1.0
  N  N328  1  0.29265000  0.19845000  0.17347000  1.0
  N  N329  1  0.20734000  0.53387000  0.59420000  1.0
  N  N330  1  0.37193000  0.96613000  0.32653000  1.0
  N  N331  1  0.12808000  0.30155000  0.90580000  1.0
  N  N332  1  0.82654000  0.29266000  0.80154000  1.0
  N  N333  1  0.40580000  0.20735000  0.46612000  1.0
  N  N334  1  0.67347000  0.37192000  0.03388000  1.0
  N  N335  1  0.09420000  0.12808000  0.69845000  1.0
  N  N336  1  0.34804000  0.82262000  0.20969000  1.0
  N  N337  1  0.03231000  0.05772000  0.29031000  1.0
  N  N338  1  0.15197000  0.44228000  0.02541000  1.0
  N  N339  1  0.46768000  0.67738000  0.47459000  1.0
  N  N340  1  0.82262000  0.79031000  0.65197000  1.0
  N  N341  1  0.05773000  0.70970000  0.96769000  1.0
  N  N342  1  0.44227000  0.97458000  0.84804000  1.0
  N  N343  1  0.67738000  0.52542000  0.53231000  1.0
  N  N344  1  0.79030000  0.34803000  0.17739000  1.0
  N  N345  1  0.70970000  0.03232000  0.94227000  1.0
  N  N346  1  0.97458000  0.15196000  0.55773000  1.0
  N  N347  1  0.52542000  0.46769000  0.32261000  1.0
  N  N348  1  0.32262000  0.84804000  0.70969000  1.0
  N  N349  1  0.55772000  0.53231000  0.79031000  1.0
  N  N350  1  0.94227000  0.65196000  0.52542000  1.0
  N  N351  1  0.17738000  0.96769000  0.97459000  1.0
  N  N352  1  0.29030000  0.32261000  0.15197000  1.0
  N  N353  1  0.20969000  0.55772000  0.46769000  1.0
  N  N354  1  0.47459000  0.94228000  0.34803000  1.0
  N  N355  1  0.02542000  0.17738000  0.03231000  1.0
  N  N356  1  0.84803000  0.29031000  0.67738000  1.0
  N  N357  1  0.53230000  0.20968000  0.44229000  1.0
  N  N358  1  0.65196000  0.47458000  0.05773000  1.0
  N  N359  1  0.96769000  0.02541000  0.82262000  1.0
