# generated using pymatgen
data_AgH7C7NClO6
_symmetry_space_group_name_H-M   'P 1'
_cell_length_a   5.23210000
_cell_length_b   12.91945682
_cell_length_c   15.39250000
_cell_angle_alpha   90.00010119
_cell_angle_beta   90.00050000
_cell_angle_gamma   99.90757040
_symmetry_Int_Tables_number   1
_chemical_formula_structural   AgH7C7NClO6
_chemical_formula_sum   'Ag4 H28 C28 N4 Cl4 O24'
_cell_volume   1024.95279652
_cell_formula_units_Z   4
loop_
 _symmetry_equiv_pos_site_id
 _symmetry_equiv_pos_as_xyz
  1  'x, y, z'
loop_
 _atom_site_type_symbol
 _atom_site_label
 _atom_site_symmetry_multiplicity
 _atom_site_fract_x
 _atom_site_fract_y
 _atom_site_fract_z
 _atom_site_occupancy
  Ag  Ag0  1  0.18987000  0.95486000  0.03824000  1.0
  Ag  Ag1  1  0.31003000  0.54516000  0.53824000  1.0
  Ag  Ag2  1  0.80994000  0.04518000  0.96176000  1.0
  Ag  Ag3  1  0.68999000  0.45485000  0.46176000  1.0
  H  H4  1  0.39121000  0.94277000  0.23043000  1.0
  H  H5  1  0.10872000  0.55725000  0.73042000  1.0
  H  H6  1  0.60869000  0.05725000  0.76959000  1.0
  H  H7  1  0.89131000  0.44274000  0.26958000  1.0
  H  H8  1  0.60208000  0.05430000  0.27181000  1.0
  H  H9  1  0.89786000  0.44569000  0.77182000  1.0
  H  H10  1  0.39786000  0.94569000  0.72819000  1.0
  H  H11  1  0.10212000  0.55429000  0.22819000  1.0
  H  H12  1  0.95834000  0.03578000  0.35651000  1.0
  H  H13  1  0.54168000  0.46424000  0.85652000  1.0
  H  H14  1  0.04163000  0.96425000  0.64350000  1.0
  H  H15  1  0.45835000  0.53576000  0.14350000  1.0
  H  H16  1  0.17259000  0.92144000  0.45504000  1.0
  H  H17  1  0.32746000  0.57857000  0.95507000  1.0
  H  H18  1  0.82741000  0.07858000  0.54496000  1.0
  H  H19  1  0.67260000  0.42145000  0.04495000  1.0
  H  H20  1  0.01423000  0.72737000  0.45429000  1.0
  H  H21  1  0.48577000  0.77263000  0.95431000  1.0
  H  H22  1  0.98578000  0.27264000  0.54570000  1.0
  H  H23  1  0.51429000  0.22739000  0.04570000  1.0
  H  H24  1  0.65121000  0.65285000  0.35288000  1.0
  H  H25  1  0.84876000  0.84715000  0.85288000  1.0
  H  H26  1  0.34882000  0.34715000  0.64711000  1.0
  H  H27  1  0.15130000  0.15285000  0.14711000  1.0
  H  H28  1  0.45871000  0.77732000  0.25676000  1.0
  H  H29  1  0.04126000  0.72270000  0.75675000  1.0
  H  H30  1  0.54128000  0.22268000  0.74324000  1.0
  H  H31  1  0.95878000  0.27729000  0.24324000  1.0
  C  C32  1  0.75090000  0.98796000  0.15904000  1.0
  C  C33  1  0.74903000  0.51207000  0.65903000  1.0
  C  C34  1  0.24900000  0.01207000  0.84097000  1.0
  C  C35  1  0.25099000  0.48791000  0.34097000  1.0
  C  C36  1  0.59480000  0.97588000  0.24339000  1.0
  C  C37  1  0.90518000  0.52414000  0.74337000  1.0
  C  C38  1  0.40519000  0.02415000  0.75664000  1.0
  C  C39  1  0.09481000  0.47584000  0.25663000  1.0
  C  C40  1  0.89891000  0.95080000  0.35883000  1.0
  C  C41  1  0.60107000  0.54920000  0.85886000  1.0
  C  C42  1  0.10102000  0.04920000  0.64116000  1.0
  C  C43  1  0.39900000  0.45079000  0.14114000  1.0
  C  C44  1  0.01434000  0.88642000  0.41273000  1.0
  C  C45  1  0.48565000  0.61357000  0.91274000  1.0
  C  C46  1  0.98563000  0.11356000  0.58727000  1.0
  C  C47  1  0.51442000  0.38643000  0.08727000  1.0
  C  C48  1  0.92554000  0.77819000  0.41158000  1.0
  C  C49  1  0.57445000  0.72180000  0.91159000  1.0
  C  C50  1  0.07441000  0.22181000  0.58842000  1.0
  C  C51  1  0.42556000  0.27818000  0.08841000  1.0
  C  C52  1  0.72343000  0.73691000  0.35593000  1.0
  C  C53  1  0.77654000  0.76309000  0.85594000  1.0
  C  C54  1  0.27653000  0.26309000  0.64404000  1.0
  C  C55  1  0.22351000  0.23691000  0.14405000  1.0
  C  C56  1  0.61368000  0.80375000  0.30304000  1.0
  C  C57  1  0.88626000  0.69624000  0.80304000  1.0
  C  C58  1  0.38630000  0.19624000  0.69696000  1.0
  C  C59  1  0.11377000  0.30377000  0.19696000  1.0
  N  N60  1  0.70165000  0.90867000  0.30566000  1.0
  N  N61  1  0.79834000  0.59135000  0.80566000  1.0
  N  N62  1  0.29834000  0.09135000  0.69435000  1.0
  N  N63  1  0.20169000  0.40864000  0.19435000  1.0
  Cl  Cl64  1  0.97371000  0.69325000  0.10441000  1.0
  Cl  Cl65  1  0.52632000  0.80674000  0.60442000  1.0
  Cl  Cl66  1  0.02637000  0.30672000  0.89557000  1.0
  Cl  Cl67  1  0.47367000  0.19326000  0.39559000  1.0
  O  O68  1  0.10905000  0.76099000  0.03579000  1.0
  O  O69  1  0.39097000  0.73902000  0.53578000  1.0
  O  O70  1  0.89101000  0.23902000  0.96422000  1.0
  O  O71  1  0.60902000  0.26099000  0.46422000  1.0
  O  O72  1  0.11016000  0.71656000  0.18718000  1.0
  O  O73  1  0.38983000  0.78342000  0.68718000  1.0
  O  O74  1  0.88991000  0.28340000  0.81281000  1.0
  O  O75  1  0.61015000  0.21657000  0.31283000  1.0
  O  O76  1  0.97474000  0.58392000  0.08030000  1.0
  O  O77  1  0.52533000  0.91607000  0.58032000  1.0
  O  O78  1  0.02545000  0.41607000  0.91964000  1.0
  O  O79  1  0.47465000  0.08393000  0.41970000  1.0
  O  O80  1  0.70786000  0.71187000  0.11267000  1.0
  O  O81  1  0.79218000  0.78811000  0.61268000  1.0
  O  O82  1  0.29219000  0.28807000  0.88730000  1.0
  O  O83  1  0.20783000  0.21190000  0.38732000  1.0
  O  O84  1  0.98101000  0.97073000  0.16162000  1.0
  O  O85  1  0.51887000  0.52927000  0.66164000  1.0
  O  O86  1  0.01882000  0.02925000  0.83836000  1.0
  O  O87  1  0.48115000  0.47074000  0.33837000  1.0
  O  O88  1  0.63403000  0.01924000  0.09405000  1.0
  O  O89  1  0.86591000  0.48080000  0.59405000  1.0
  O  O90  1  0.36584000  0.98080000  0.90596000  1.0
  O  O91  1  0.13412000  0.51920000  0.40596000  1.0
