# generated using pymatgen
data_Zn3H24C37N2O13
_symmetry_space_group_name_H-M   'P 1'
_cell_length_a   12.65370000
_cell_length_b   14.63390000
_cell_length_c   25.82670000
_cell_angle_alpha   100.02100000
_cell_angle_beta   89.99990000
_cell_angle_gamma   90.00000000
_symmetry_Int_Tables_number   1
_chemical_formula_structural   Zn3H24C37N2O13
_chemical_formula_sum   'Zn12 H96 C148 N8 O52'
_cell_volume   4709.44681066
_cell_formula_units_Z   4
loop_
 _symmetry_equiv_pos_site_id
 _symmetry_equiv_pos_as_xyz
  1  'x, y, z'
loop_
 _atom_site_type_symbol
 _atom_site_label
 _atom_site_symmetry_multiplicity
 _atom_site_fract_x
 _atom_site_fract_y
 _atom_site_fract_z
 _atom_site_occupancy
  Zn  Zn0  1  0.10366000  0.11571000  0.12210000  1.0
  Zn  Zn1  1  0.73243000  0.98429000  0.80441000  1.0
  Zn  Zn2  1  0.92711000  0.06944000  0.52980000  1.0
  Zn  Zn3  1  0.60366000  0.38429000  0.37790000  1.0
  Zn  Zn4  1  0.23243000  0.51571000  0.69559000  1.0
  Zn  Zn5  1  0.42711000  0.43056000  0.97020000  1.0
  Zn  Zn6  1  0.89633000  0.88429000  0.87790000  1.0
  Zn  Zn7  1  0.26758000  0.01571000  0.19559000  1.0
  Zn  Zn8  1  0.07288000  0.93056000  0.47020000  1.0
  Zn  Zn9  1  0.39634000  0.61571000  0.62210000  1.0
  Zn  Zn10  1  0.76757000  0.48429000  0.30441000  1.0
  Zn  Zn11  1  0.57288000  0.56944000  0.02980000  1.0
  H  H12  1  0.81838000  0.29831000  0.69374000  1.0
  H  H13  1  0.59063000  0.50262000  0.54618000  1.0
  H  H14  1  0.04589000  0.00444000  0.31547000  1.0
  H  H15  1  0.51216000  0.92889000  0.81989000  1.0
  H  H16  1  0.77701000  0.21224000  0.50154000  1.0
  H  H17  1  0.61613000  0.15817000  0.79699000  1.0
  H  H18  1  0.71088000  0.92846000  0.68884000  1.0
  H  H19  1  0.89758000  0.15447000  0.64127000  1.0
  H  H20  1  0.52131000  0.29224000  0.76817000  1.0
  H  H21  1  0.71712000  0.44954000  0.69294000  1.0
  H  H22  1  0.44999000  0.36556000  0.69557000  1.0
  H  H23  1  0.61967000  0.55099000  0.64181000  1.0
  H  H24  1  0.64547000  0.99721000  0.61315000  1.0
  H  H25  1  0.66281000  0.35282000  0.49906000  1.0
  H  H26  1  0.46853000  0.28574000  0.60254000  1.0
  H  H27  1  0.55442000  0.13190000  0.58117000  1.0
  H  H28  1  0.93557000  0.10471000  0.98859000  1.0
  H  H29  1  0.91153000  0.22409000  0.24508000  1.0
  H  H30  1  0.67566000  0.23256000  0.92065000  1.0
  H  H31  1  0.82358000  0.19388000  0.40244000  1.0
  H  H32  1  0.80953000  0.36353000  0.06829000  1.0
  H  H33  1  0.46358000  0.08998000  0.84494000  1.0
  H  H34  1  0.43157000  0.01982000  0.89324000  1.0
  H  H35  1  0.55052000  0.08731000  0.89920000  1.0
  H  H36  1  0.31838000  0.20169000  0.80626000  1.0
  H  H37  1  0.09063000  0.99738000  0.95382000  1.0
  H  H38  1  0.54588000  0.49556000  0.18453000  1.0
  H  H39  1  0.01217000  0.57111000  0.68011000  1.0
  H  H40  1  0.27701000  0.28776000  0.99846000  1.0
  H  H41  1  0.11613000  0.34183000  0.70301000  1.0
  H  H42  1  0.21088000  0.57154000  0.81116000  1.0
  H  H43  1  0.39758000  0.34553000  0.85873000  1.0
  H  H44  1  0.02131000  0.20776000  0.73183000  1.0
  H  H45  1  0.21712000  0.05047000  0.80706000  1.0
  H  H46  1  0.94999000  0.13444000  0.80443000  1.0
  H  H47  1  0.11967000  0.94901000  0.85819000  1.0
  H  H48  1  0.14547000  0.50279000  0.88685000  1.0
  H  H49  1  0.16281000  0.14718000  0.00094000  1.0
  H  H50  1  0.96853000  0.21426000  0.89746000  1.0
  H  H51  1  0.05442000  0.36810000  0.91883000  1.0
  H  H52  1  0.43556000  0.39529000  0.51140000  1.0
  H  H53  1  0.41153000  0.27591000  0.25492000  1.0
  H  H54  1  0.17566000  0.26744000  0.57935000  1.0
  H  H55  1  0.32359000  0.30612000  0.09756000  1.0
  H  H56  1  0.30953000  0.13647000  0.43171000  1.0
  H  H57  1  0.96358000  0.41002000  0.65506000  1.0
  H  H58  1  0.93157000  0.48018000  0.60676000  1.0
  H  H59  1  0.05052000  0.41269000  0.60080000  1.0
  H  H60  1  0.18162000  0.70169000  0.30626000  1.0
  H  H61  1  0.40937000  0.49738000  0.45382000  1.0
  H  H62  1  0.95411000  0.99556000  0.68453000  1.0
  H  H63  1  0.48783000  0.07111000  0.18011000  1.0
  H  H64  1  0.22299000  0.78776000  0.49846000  1.0
  H  H65  1  0.38387000  0.84183000  0.20301000  1.0
  H  H66  1  0.28912000  0.07154000  0.31116000  1.0
  H  H67  1  0.10242000  0.84553000  0.35873000  1.0
  H  H68  1  0.47869000  0.70776000  0.23183000  1.0
  H  H69  1  0.28288000  0.55046000  0.30706000  1.0
  H  H70  1  0.55001000  0.63444000  0.30443000  1.0
  H  H71  1  0.38033000  0.44901000  0.35819000  1.0
  H  H72  1  0.35453000  0.00279000  0.38685000  1.0
  H  H73  1  0.33719000  0.64718000  0.50094000  1.0
  H  H74  1  0.53147000  0.71426000  0.39746000  1.0
  H  H75  1  0.44558000  0.86810000  0.41883000  1.0
  H  H76  1  0.06443000  0.89529000  0.01140000  1.0
  H  H77  1  0.08847000  0.77591000  0.75492000  1.0
  H  H78  1  0.32434000  0.76744000  0.07935000  1.0
  H  H79  1  0.17642000  0.80612000  0.59756000  1.0
  H  H80  1  0.19047000  0.63647000  0.93171000  1.0
  H  H81  1  0.53642000  0.91002000  0.15506000  1.0
  H  H82  1  0.56843000  0.98018000  0.10676000  1.0
  H  H83  1  0.44948000  0.91269000  0.10080000  1.0
  H  H84  1  0.68162000  0.79831000  0.19374000  1.0
  H  H85  1  0.90937000  0.00263000  0.04618000  1.0
  H  H86  1  0.45412000  0.50444000  0.81547000  1.0
  H  H87  1  0.98784000  0.42889000  0.31989000  1.0
  H  H88  1  0.72299000  0.71224000  0.00154000  1.0
  H  H89  1  0.88387000  0.65817000  0.29699000  1.0
  H  H90  1  0.78912000  0.42845000  0.18884000  1.0
  H  H91  1  0.60242000  0.65447000  0.14127000  1.0
  H  H92  1  0.97869000  0.79224000  0.26817000  1.0
  H  H93  1  0.78288000  0.94954000  0.19294000  1.0
  H  H94  1  0.05001000  0.86556000  0.19557000  1.0
  H  H95  1  0.88033000  0.05099000  0.14181000  1.0
  H  H96  1  0.85453000  0.49721000  0.11315000  1.0
  H  H97  1  0.83719000  0.85282000  0.99906000  1.0
  H  H98  1  0.03147000  0.78574000  0.10254000  1.0
  H  H99  1  0.94558000  0.63190000  0.08117000  1.0
  H  H100  1  0.56443000  0.60471000  0.48860000  1.0
  H  H101  1  0.58847000  0.72409000  0.74508000  1.0
  H  H102  1  0.82434000  0.73256000  0.42066000  1.0
  H  H103  1  0.67642000  0.69388000  0.90244000  1.0
  H  H104  1  0.69047000  0.86353000  0.56829000  1.0
  H  H105  1  0.03642000  0.58998000  0.34494000  1.0
  H  H106  1  0.06843000  0.51982000  0.39324000  1.0
  H  H107  1  0.94948000  0.58731000  0.39920000  1.0
  C  C108  1  0.57785000  0.16925000  0.71604000  1.0
  C  C109  1  0.80755000  0.28217000  0.65119000  1.0
  C  C110  1  0.05032000  0.08262000  0.22742000  1.0
  C  C111  1  0.63580000  0.45739000  0.56725000  1.0
  C  C112  1  0.73574000  0.30669000  0.99417000  1.0
  C  C113  1  0.94965000  0.04770000  0.41089000  1.0
  C  C114  1  0.65488000  0.38238000  0.99690000  1.0
  C  C115  1  0.98284000  0.10951000  0.27492000  1.0
  C  C116  1  0.99164000  0.06270000  0.31754000  1.0
  C  C117  1  0.93375000  0.09255000  0.36347000  1.0
  C  C118  1  0.74942000  0.34340000  0.62502000  1.0
  C  C119  1  0.78379000  0.23387000  0.54408000  1.0
  C  C120  1  0.61990000  0.12463000  0.75577000  1.0
  C  C121  1  0.67397000  0.99668000  0.69468000  1.0
  C  C122  1  0.85131000  0.20294000  0.62295000  1.0
  C  C123  1  0.52766000  0.25729000  0.72733000  1.0
  C  C124  1  0.70633000  0.42875000  0.65060000  1.0
  C  C125  1  0.73548000  0.31697000  0.56935000  1.0
  C  C126  1  0.48837000  0.29784000  0.68697000  1.0
  C  C127  1  0.65190000  0.48493000  0.62203000  1.0
  C  C128  1  0.63686000  0.03482000  0.65322000  1.0
  C  C129  1  0.58714000  0.12283000  0.66255000  1.0
  C  C130  1  0.67644000  0.37464000  0.54114000  1.0
  C  C131  1  0.49854000  0.25223000  0.63406000  1.0
  C  C132  1  0.54657000  0.16661000  0.62193000  1.0
  C  C133  1  0.87976000  0.16151000  0.99029000  1.0
  C  C134  1  0.91650000  0.18680000  0.27804000  1.0
  C  C135  1  0.88093000  0.23380000  0.03332000  1.0
  C  C136  1  0.80704000  0.16075000  0.94943000  1.0
  C  C137  1  0.73410000  0.23303000  0.95163000  1.0
  C  C138  1  0.85931000  0.21693000  0.32409000  1.0
  C  C139  1  0.86734000  0.16938000  0.36647000  1.0
  C  C140  1  0.80940000  0.30713000  0.03470000  1.0
  C  C141  1  0.95566000  0.22934000  0.07842000  1.0
  C  C142  1  0.80834000  0.08045000  0.90515000  1.0
  C  C143  1  0.79361000  0.30230000  0.32985000  1.0
  C  C144  1  0.49641000  0.04589000  0.87145000  1.0
  C  C145  1  0.07784000  0.33075000  0.78396000  1.0
  C  C146  1  0.30755000  0.21783000  0.84881000  1.0
  C  C147  1  0.55032000  0.41738000  0.27257000  1.0
  C  C148  1  0.13580000  0.04261000  0.93276000  1.0
  C  C149  1  0.23574000  0.19331000  0.50583000  1.0
  C  C150  1  0.44965000  0.45230000  0.08911000  1.0
  C  C151  1  0.15488000  0.11761000  0.50310000  1.0
  C  C152  1  0.48284000  0.39050000  0.22508000  1.0
  C  C153  1  0.49163000  0.43730000  0.18246000  1.0
  C  C154  1  0.43375000  0.40745000  0.13653000  1.0
  C  C155  1  0.24942000  0.15660000  0.87498000  1.0
  C  C156  1  0.28379000  0.26613000  0.95593000  1.0
  C  C157  1  0.11990000  0.37537000  0.74422000  1.0
  C  C158  1  0.17397000  0.50332000  0.80532000  1.0
  C  C159  1  0.35131000  0.29706000  0.87705000  1.0
  C  C160  1  0.02766000  0.24271000  0.77267000  1.0
  C  C161  1  0.20633000  0.07126000  0.84940000  1.0
  C  C162  1  0.23548000  0.18304000  0.93065000  1.0
  C  C163  1  0.98837000  0.20216000  0.81303000  1.0
  C  C164  1  0.15190000  0.01507000  0.87797000  1.0
  C  C165  1  0.13685000  0.46518000  0.84678000  1.0
  C  C166  1  0.08714000  0.37717000  0.83745000  1.0
  C  C167  1  0.17643000  0.12537000  0.95886000  1.0
  C  C168  1  0.99854000  0.24777000  0.86594000  1.0
  C  C169  1  0.04657000  0.33333333  0.87807000  1.0
  C  C170  1  0.37976000  0.33849000  0.50971000  1.0
  C  C171  1  0.41650000  0.31320000  0.22196000  1.0
  C  C172  1  0.38093000  0.26620000  0.46668000  1.0
  C  C173  1  0.30703000  0.33925000  0.55056000  1.0
  C  C174  1  0.23410000  0.26697000  0.54837000  1.0
  C  C175  1  0.35931000  0.28307000  0.17591000  1.0
  C  C176  1  0.36734000  0.33062000  0.13353000  1.0
  C  C177  1  0.30940000  0.19287000  0.46530000  1.0
  C  C178  1  0.45566000  0.27066000  0.42158000  1.0
  C  C179  1  0.30834000  0.41955000  0.59485000  1.0
  C  C180  1  0.29362000  0.19770000  0.17015000  1.0
  C  C181  1  0.99641000  0.45411000  0.62855000  1.0
  C  C182  1  0.42215000  0.83075000  0.28396000  1.0
  C  C183  1  0.19245000  0.71783000  0.34881000  1.0
  C  C184  1  0.94968000  0.91737000  0.77257000  1.0
  C  C185  1  0.36420000  0.54261000  0.43276000  1.0
  C  C186  1  0.26426000  0.69331000  0.00583000  1.0
  C  C187  1  0.05035000  0.95230000  0.58911000  1.0
  C  C188  1  0.34512000  0.61762000  0.00310000  1.0
  C  C189  1  0.01716000  0.89049000  0.72508000  1.0
  C  C190  1  0.00836000  0.93730000  0.68246000  1.0
  C  C191  1  0.06625000  0.90745000  0.63653000  1.0
  C  C192  1  0.25058000  0.65660000  0.37498000  1.0
  C  C193  1  0.21621000  0.76613000  0.45593000  1.0
  C  C194  1  0.38010000  0.87536000  0.24423000  1.0
  C  C195  1  0.32603000  0.00332000  0.30532000  1.0
  C  C196  1  0.14869000  0.79706000  0.37705000  1.0
  C  C197  1  0.47234000  0.74271000  0.27267000  1.0
  C  C198  1  0.29367000  0.57125000  0.34940000  1.0
  C  C199  1  0.26452000  0.68304000  0.43065000  1.0
  C  C200  1  0.51163000  0.70216000  0.31303000  1.0
  C  C201  1  0.34810000  0.51507000  0.37797000  1.0
  C  C202  1  0.36314000  0.96518000  0.34678000  1.0
  C  C203  1  0.41286000  0.87717000  0.33745000  1.0
  C  C204  1  0.32357000  0.62536000  0.45886000  1.0
  C  C205  1  0.50146000  0.74777000  0.36594000  1.0
  C  C206  1  0.45343000  0.83339000  0.37807000  1.0
  C  C207  1  0.12024000  0.83849000  0.00971000  1.0
  C  C208  1  0.08351000  0.81320000  0.72196000  1.0
  C  C209  1  0.11907000  0.76620000  0.96668000  1.0
  C  C210  1  0.19297000  0.83926000  0.05057000  1.0
  C  C211  1  0.26590000  0.76697000  0.04837000  1.0
  C  C212  1  0.14069000  0.78307000  0.67591000  1.0
  C  C213  1  0.13266000  0.83062000  0.63353000  1.0
  C  C214  1  0.19060000  0.69287000  0.96530000  1.0
  C  C215  1  0.04434000  0.77066000  0.92159000  1.0
  C  C216  1  0.19166000  0.91955000  0.09485000  1.0
  C  C217  1  0.20639000  0.69770000  0.67015000  1.0
  C  C218  1  0.50359000  0.95411000  0.12855000  1.0
  C  C219  1  0.92215000  0.66925000  0.21604000  1.0
  C  C220  1  0.69245000  0.78217000  0.15119000  1.0
  C  C221  1  0.44968000  0.58263000  0.72743000  1.0
  C  C222  1  0.86420000  0.95739000  0.06724000  1.0
  C  C223  1  0.76426000  0.80669000  0.49418000  1.0
  C  C224  1  0.55035000  0.54770000  0.91089000  1.0
  C  C225  1  0.84512000  0.88239000  0.49690000  1.0
  C  C226  1  0.51716000  0.60950000  0.77492000  1.0
  C  C227  1  0.50837000  0.56270000  0.81754000  1.0
  C  C228  1  0.56625000  0.59254000  0.86347000  1.0
  C  C229  1  0.75058000  0.84340000  0.12502000  1.0
  C  C230  1  0.71621000  0.73387000  0.04407000  1.0
  C  C231  1  0.88010000  0.62463000  0.25578000  1.0
  C  C232  1  0.82603000  0.49668000  0.19468000  1.0
  C  C233  1  0.64869000  0.70294000  0.12295000  1.0
  C  C234  1  0.97234000  0.75729000  0.22733000  1.0
  C  C235  1  0.79367000  0.92875000  0.15060000  1.0
  C  C236  1  0.76452000  0.81697000  0.06935000  1.0
  C  C237  1  0.01163000  0.79784000  0.18697000  1.0
  C  C238  1  0.84810000  0.98493000  0.12203000  1.0
  C  C239  1  0.86314000  0.53482000  0.15322000  1.0
  C  C240  1  0.91286000  0.62283000  0.16255000  1.0
  C  C241  1  0.82357000  0.87464000  0.04114000  1.0
  C  C242  1  0.00146000  0.75223000  0.13406000  1.0
  C  C243  1  0.95343000  0.66661000  0.12193000  1.0
  C  C244  1  0.62024000  0.66151000  0.49029000  1.0
  C  C245  1  0.58351000  0.68680000  0.77804000  1.0
  C  C246  1  0.61907000  0.73380000  0.53332000  1.0
  C  C247  1  0.69297000  0.66075000  0.44944000  1.0
  C  C248  1  0.76590000  0.73303000  0.45163000  1.0
  C  C249  1  0.64069000  0.71693000  0.82409000  1.0
  C  C250  1  0.63266000  0.66938000  0.86647000  1.0
  C  C251  1  0.69060000  0.80713000  0.53470000  1.0
  C  C252  1  0.54434000  0.72934000  0.57842000  1.0
  C  C253  1  0.69166000  0.58045000  0.40515000  1.0
  C  C254  1  0.70639000  0.80230000  0.82985000  1.0
  C  C255  1  0.00359000  0.54589000  0.37145000  1.0
  N  N256  1  0.66597000  0.04167000  0.74568000  1.0
  N  N257  1  0.84071000  0.17951000  0.56952000  1.0
  N  N258  1  0.16597000  0.45833000  0.75432000  1.0
  N  N259  1  0.34070000  0.32049000  0.93048000  1.0
  N  N260  1  0.33402000  0.95833000  0.25432000  1.0
  N  N261  1  0.15930000  0.82049000  0.43048000  1.0
  N  N262  1  0.83402000  0.54167000  0.24568000  1.0
  N  N263  1  0.65930000  0.67951000  0.06952000  1.0
  O  O264  1  0.74431000  0.08203000  0.86688000  1.0
  O  O265  1  0.79389000  0.34868000  0.29217000  1.0
  O  O266  1  0.01800000  0.15646000  0.06934000  1.0
  O  O267  1  0.03428000  0.12816000  0.19027000  1.0
  O  O268  1  0.11874000  0.01888000  0.22757000  1.0
  O  O269  1  0.90130000  0.08413000  0.45265000  1.0
  O  O270  1  0.56841000  0.35991000  0.97293000  1.0
  O  O271  1  0.01261000  0.97895000  0.40566000  1.0
  O  O272  1  0.67886000  0.46159000  0.02322000  1.0
  O  O273  1  0.55805000  0.97083000  0.84315000  1.0
  O  O274  1  0.74258000  0.32399000  0.37277000  1.0
  O  O275  1  0.87391000  0.01622000  0.90891000  1.0
  O  O276  1  0.95355000  0.28878000  0.11894000  1.0
  O  O277  1  0.24430000  0.41797000  0.63312000  1.0
  O  O278  1  0.29389000  0.15132000  0.20783000  1.0
  O  O279  1  0.51800000  0.34354000  0.43066000  1.0
  O  O280  1  0.53429000  0.37184000  0.30973000  1.0
  O  O281  1  0.61874000  0.48112000  0.27243000  1.0
  O  O282  1  0.40130000  0.41588000  0.04735000  1.0
  O  O283  1  0.06841000  0.14008000  0.52707000  1.0
  O  O284  1  0.51262000  0.52104000  0.09434000  1.0
  O  O285  1  0.17887000  0.03841000  0.47678000  1.0
  O  O286  1  0.05805000  0.52917000  0.65685000  1.0
  O  O287  1  0.24258000  0.17600000  0.12723000  1.0
  O  O288  1  0.37390000  0.48378000  0.59109000  1.0
  O  O289  1  0.45356000  0.21122000  0.38106000  1.0
  O  O290  1  0.25569000  0.91797000  0.13312000  1.0
  O  O291  1  0.20611000  0.65132000  0.70783000  1.0
  O  O292  1  0.98200000  0.84354000  0.93066000  1.0
  O  O293  1  0.96572000  0.87184000  0.80973000  1.0
  O  O294  1  0.88126000  0.98112000  0.77243000  1.0
  O  O295  1  0.09870000  0.91587000  0.54735000  1.0
  O  O296  1  0.43159000  0.64009000  0.02707000  1.0
  O  O297  1  0.98738000  0.02104000  0.59434000  1.0
  O  O298  1  0.32113000  0.53841000  0.97678000  1.0
  O  O299  1  0.44195000  0.02917000  0.15685000  1.0
  O  O300  1  0.25742000  0.67601000  0.62723000  1.0
  O  O301  1  0.12611000  0.98378000  0.09109000  1.0
  O  O302  1  0.04645000  0.71123000  0.88106000  1.0
  O  O303  1  0.75570000  0.58202000  0.36688000  1.0
  O  O304  1  0.70611000  0.84868000  0.79217000  1.0
  O  O305  1  0.48200000  0.65646000  0.56934000  1.0
  O  O306  1  0.46572000  0.62816000  0.69027000  1.0
  O  O307  1  0.38126000  0.51888000  0.72757000  1.0
  O  O308  1  0.59870000  0.58412000  0.95265000  1.0
  O  O309  1  0.93159000  0.85992000  0.47293000  1.0
  O  O310  1  0.48738000  0.47896000  0.90566000  1.0
  O  O311  1  0.82113000  0.96159000  0.52322000  1.0
  O  O312  1  0.94195000  0.47083000  0.34315000  1.0
  O  O313  1  0.75742000  0.82399000  0.87277000  1.0
  O  O314  1  0.62610000  0.51622000  0.40891000  1.0
  O  O315  1  0.54645000  0.78877000  0.61894000  1.0
