# generated using pymatgen
data_KBaP3H65C52Se3N3O
_symmetry_space_group_name_H-M   'P 1'
_cell_length_a   11.03460000
_cell_length_b   11.58800000
_cell_length_c   24.76990000
_cell_angle_alpha   86.81190000
_cell_angle_beta   83.44010000
_cell_angle_gamma   67.51040000
_symmetry_Int_Tables_number   1
_chemical_formula_structural   KBaP3H65C52Se3N3O
_chemical_formula_sum   'K2 Ba2 P6 H130 C104 Se6 N6 O2'
_cell_volume   2907.02016070
_cell_formula_units_Z   2
loop_
 _symmetry_equiv_pos_site_id
 _symmetry_equiv_pos_as_xyz
  1  'x, y, z'
loop_
 _atom_site_type_symbol
 _atom_site_label
 _atom_site_symmetry_multiplicity
 _atom_site_fract_x
 _atom_site_fract_y
 _atom_site_fract_z
 _atom_site_occupancy
  K  K0  1  0.59822000  0.72172000  0.30454000  1.0
  K  K1  1  0.40179000  0.27826000  0.69546000  1.0
  Ba  Ba2  1  0.99670000  0.82738000  0.26441000  1.0
  Ba  Ba3  1  0.00330000  0.17263000  0.73560000  1.0
  P  P4  1  0.23490000  0.97072000  0.21801000  1.0
  P  P5  1  0.76510000  0.02928000  0.78199000  1.0
  P  P6  1  0.86579000  0.68786000  0.17000000  1.0
  P  P7  1  0.13421000  0.31214000  0.83000000  1.0
  P  P8  1  0.84205000  0.79581000  0.40003000  1.0
  P  P9  1  0.15795000  0.20419000  0.59997000  1.0
  H  H10  1  0.82970000  0.04389000  0.19378000  1.0
  H  H11  1  0.17030000  0.95611000  0.80622000  1.0
  H  H12  1  0.79925000  0.18826000  0.15902000  1.0
  H  H13  1  0.20075000  0.81174000  0.84098000  1.0
  H  H14  1  0.84422000  0.17122000  0.22655000  1.0
  H  H15  1  0.15578000  0.82878000  0.77345000  1.0
  H  H16  1  0.01646000  0.25728000  0.18671000  1.0
  H  H17  1  0.98355000  0.74272000  0.81329000  1.0
  H  H18  1  0.98110000  0.25078000  0.11911000  1.0
  H  H19  1  0.01891000  0.74922000  0.88089000  1.0
  H  H20  1  0.14417000  0.17134000  0.13704000  1.0
  H  H21  1  0.85583000  0.82866000  0.86296000  1.0
  H  H22  1  0.13653000  0.97139000  0.09783000  1.0
  H  H23  1  0.86348000  0.02860000  0.90217000  1.0
  H  H24  1  0.97010000  0.05499000  0.08395000  1.0
  H  H25  1  0.02990000  0.94501000  0.91605000  1.0
  H  H26  1  0.01158000  0.91720000  0.12538000  1.0
  H  H27  1  0.98842000  0.08280000  0.87462000  1.0
  H  H28  1  0.07167000  0.19855000  0.27566000  1.0
  H  H29  1  0.92833000  0.80145000  0.72434000  1.0
  H  H30  1  0.12059000  0.36872000  0.31494000  1.0
  H  H31  1  0.87942000  0.63128000  0.68506000  1.0
  H  H32  1  0.34941000  0.36206000  0.30505000  1.0
  H  H33  1  0.65060000  0.63793000  0.69494000  1.0
  H  H34  1  0.53079000  0.18461000  0.25626000  1.0
  H  H35  1  0.46922000  0.81538000  0.74374000  1.0
  H  H36  1  0.48199000  0.01634000  0.21828000  1.0
  H  H37  1  0.51801000  0.98365000  0.78172000  1.0
  H  H38  1  0.34758000  0.73652000  0.16323000  1.0
  H  H39  1  0.65242000  0.26348000  0.83676000  1.0
  H  H40  1  0.47624000  0.66685000  0.07380000  1.0
  H  H41  1  0.52376000  0.33315000  0.92620000  1.0
  H  H42  1  0.55857000  0.81113000  0.01711000  1.0
  H  H43  1  0.44142000  0.18888000  0.98289000  1.0
  H  H44  1  0.50368000  0.02706000  0.04875000  1.0
  H  H45  1  0.49632000  0.97294000  0.95125000  1.0
  H  H46  1  0.36772000  0.09914000  0.13583000  1.0
  H  H47  1  0.63228000  0.90086000  0.86417000  1.0
  H  H48  1  0.11652000  0.39795000  0.18439000  1.0
  H  H49  1  0.88348000  0.60205000  0.81561000  1.0
  H  H50  1  0.22993000  0.38429000  0.12601000  1.0
  H  H51  1  0.77007000  0.61571000  0.87399000  1.0
  H  H52  1  0.05789000  0.45354000  0.12017000  1.0
  H  H53  1  0.94212000  0.54646000  0.87984000  1.0
  H  H54  1  0.10699000  0.64036000  0.07417000  1.0
  H  H55  1  0.89300000  0.35964000  0.92583000  1.0
  H  H56  1  0.27586000  0.56689000  0.08631000  1.0
  H  H57  1  0.72414000  0.43310000  0.91369000  1.0
  H  H58  1  0.17971000  0.72047000  0.11051000  1.0
  H  H59  1  0.82029000  0.27953000  0.88950000  1.0
  H  H60  1  0.25346000  0.63838000  0.20590000  1.0
  H  H61  1  0.74654000  0.36162000  0.79410000  1.0
  H  H62  1  0.33722000  0.48356000  0.18143000  1.0
  H  H63  1  0.66279000  0.51644000  0.81857000  1.0
  H  H64  1  0.21106000  0.51427000  0.23622000  1.0
  H  H65  1  0.78895000  0.48573000  0.76378000  1.0
  H  H66  1  0.85315000  0.51124000  0.08916000  1.0
  H  H67  1  0.14685000  0.48876000  0.91085000  1.0
  H  H68  1  0.84269000  0.52953000  0.98950000  1.0
  H  H69  1  0.15731000  0.47048000  0.01050000  1.0
  H  H70  1  0.82930000  0.72708000  0.94081000  1.0
  H  H71  1  0.17069000  0.27292000  0.05920000  1.0
  H  H72  1  0.82392000  0.90764000  0.99229000  1.0
  H  H73  1  0.17607000  0.09237000  0.00771000  1.0
  H  H74  1  0.83037000  0.89056000  0.09280000  1.0
  H  H75  1  0.16963000  0.10944000  0.90720000  1.0
  H  H76  1  0.62720000  0.64298000  0.15224000  1.0
  H  H77  1  0.37280000  0.35702000  0.84776000  1.0
  H  H78  1  0.52293000  0.50360000  0.19830000  1.0
  H  H79  1  0.47706000  0.49640000  0.80170000  1.0
  H  H80  1  0.63320000  0.35426000  0.27059000  1.0
  H  H81  1  0.36679000  0.64574000  0.72941000  1.0
  H  H82  1  0.84966000  0.34358000  0.29533000  1.0
  H  H83  1  0.15034000  0.65641000  0.70467000  1.0
  H  H84  1  0.95437000  0.48386000  0.24850000  1.0
  H  H85  1  0.04563000  0.51613000  0.75150000  1.0
  H  H86  1  0.98308000  0.06311000  0.31888000  1.0
  H  H87  1  0.01692000  0.93690000  0.68112000  1.0
  H  H88  1  0.91132000  0.18384000  0.36733000  1.0
  H  H89  1  0.08868000  0.81616000  0.63267000  1.0
  H  H90  1  0.80797000  0.13346000  0.33218000  1.0
  H  H91  1  0.19203000  0.86655000  0.66782000  1.0
  H  H92  1  0.04043000  0.89486000  0.45383000  1.0
  H  H93  1  0.95957000  0.10515000  0.54617000  1.0
  H  H94  1  0.05009000  0.04273000  0.43711000  1.0
  H  H95  1  0.94991000  0.95728000  0.56289000  1.0
  H  H96  1  0.11673000  0.91883000  0.38892000  1.0
  H  H97  1  0.88327000  0.08117000  0.61108000  1.0
  H  H98  1  0.69457000  0.10082000  0.42470000  1.0
  H  H99  1  0.30543000  0.89918000  0.57530000  1.0
  H  H100  1  0.80308000  0.15245000  0.45545000  1.0
  H  H101  1  0.19692000  0.84755000  0.54455000  1.0
  H  H102  1  0.79139000  0.00767000  0.47545000  1.0
  H  H103  1  0.20861000  0.99233000  0.52455000  1.0
  H  H104  1  0.08353000  0.60902000  0.43255000  1.0
  H  H105  1  0.91647000  0.39098000  0.56745000  1.0
  H  H106  1  0.16920000  0.53605000  0.52269000  1.0
  H  H107  1  0.83080000  0.46395000  0.47731000  1.0
  H  H108  1  0.03047000  0.62462000  0.60737000  1.0
  H  H109  1  0.96953000  0.37539000  0.39263000  1.0
  H  H110  1  0.80524000  0.78910000  0.60297000  1.0
  H  H111  1  0.19476000  0.21091000  0.39703000  1.0
  H  H112  1  0.71944000  0.86113000  0.51404000  1.0
  H  H113  1  0.28056000  0.13888000  0.48596000  1.0
  H  H114  1  0.65390000  0.70065000  0.46643000  1.0
  H  H115  1  0.34611000  0.29936000  0.53357000  1.0
  H  H116  1  0.41001000  0.76781000  0.47032000  1.0
  H  H117  1  0.58999000  0.23219000  0.52968000  1.0
  H  H118  1  0.28024000  0.95192000  0.41647000  1.0
  H  H119  1  0.71976000  0.04807000  0.58353000  1.0
  H  H120  1  0.39410000  0.07060000  0.35862000  1.0
  H  H121  1  0.60590000  0.92940000  0.64138000  1.0
  H  H122  1  0.63824000  0.00403000  0.35535000  1.0
  H  H123  1  0.36175000  0.99598000  0.64465000  1.0
  H  H124  1  0.59388000  0.49867000  0.44247000  1.0
  H  H125  1  0.40612000  0.50132000  0.55753000  1.0
  H  H126  1  0.68806000  0.42054000  0.38233000  1.0
  H  H127  1  0.31194000  0.57945000  0.61767000  1.0
  H  H128  1  0.53778000  0.31298000  0.37510000  1.0
  H  H129  1  0.46221000  0.68702000  0.62490000  1.0
  H  H130  1  0.53790000  0.31307000  0.44670000  1.0
  H  H131  1  0.46209000  0.68693000  0.55330000  1.0
  H  H132  1  0.33928000  0.50475000  0.45520000  1.0
  H  H133  1  0.66071000  0.49525000  0.54480000  1.0
  H  H134  1  0.30129000  0.42410000  0.40484000  1.0
  H  H135  1  0.69870000  0.57591000  0.59516000  1.0
  H  H136  1  0.35698000  0.55088000  0.33225000  1.0
  H  H137  1  0.64302000  0.44913000  0.66775000  1.0
  H  H138  1  0.30837000  0.66212000  0.38535000  1.0
  H  H139  1  0.69163000  0.33789000  0.61465000  1.0
  C  C140  1  0.00838000  0.08010000  0.16634000  1.0
  C  C141  1  0.99162000  0.91990000  0.83366000  1.0
  C  C142  1  0.86189000  0.12312000  0.18781000  1.0
  C  C143  1  0.13811000  0.87688000  0.81219000  1.0
  C  C144  1  0.03960000  0.19649000  0.15156000  1.0
  C  C145  1  0.96040000  0.80350000  0.84844000  1.0
  C  C146  1  0.03329000  0.00130000  0.11525000  1.0
  C  C147  1  0.96671000  0.99869000  0.88474000  1.0
  C  C148  1  0.27277000  0.09739000  0.24393000  1.0
  C  C149  1  0.72722000  0.90260000  0.75607000  1.0
  C  C150  1  0.17187000  0.19648000  0.27168000  1.0
  C  C151  1  0.82813000  0.80352000  0.72832000  1.0
  C  C152  1  0.19949000  0.29098000  0.29375000  1.0
  C  C153  1  0.80052000  0.70902000  0.70625000  1.0
  C  C154  1  0.32844000  0.28734000  0.28832000  1.0
  C  C155  1  0.67157000  0.71266000  0.71168000  1.0
  C  C156  1  0.42965000  0.18860000  0.26091000  1.0
  C  C157  1  0.57035000  0.81139000  0.73909000  1.0
  C  C158  1  0.40209000  0.09387000  0.23910000  1.0
  C  C159  1  0.59790000  0.90613000  0.76090000  1.0
  C  C160  1  0.34714000  0.92246000  0.15550000  1.0
  C  C161  1  0.65286000  0.07754000  0.84450000  1.0
  C  C162  1  0.37938000  0.80085000  0.13732000  1.0
  C  C163  1  0.62062000  0.19915000  0.86268000  1.0
  C  C164  1  0.45250000  0.76171000  0.08738000  1.0
  C  C165  1  0.54750000  0.23829000  0.91262000  1.0
  C  C166  1  0.49742000  0.84304000  0.05527000  1.0
  C  C167  1  0.50258000  0.15696000  0.94473000  1.0
  C  C168  1  0.46691000  0.96396000  0.07317000  1.0
  C  C169  1  0.53309000  0.03604000  0.92683000  1.0
  C  C170  1  0.39090000  0.00421000  0.12259000  1.0
  C  C171  1  0.60910000  0.99579000  0.87741000  1.0
  C  C172  1  0.13713000  0.57292000  0.15764000  1.0
  C  C173  1  0.86287000  0.42708000  0.84237000  1.0
  C  C174  1  0.13450000  0.44497000  0.14649000  1.0
  C  C175  1  0.86550000  0.55503000  0.85351000  1.0
  C  C176  1  0.17742000  0.62853000  0.10397000  1.0
  C  C177  1  0.82258000  0.37147000  0.89604000  1.0
  C  C178  1  0.24071000  0.55164000  0.19748000  1.0
  C  C179  1  0.75930000  0.44836000  0.80252000  1.0
  C  C180  1  0.84418000  0.69956000  0.09742000  1.0
  C  C181  1  0.15582000  0.30044000  0.90258000  1.0
  C  C182  1  0.84664000  0.59840000  0.06815000  1.0
  C  C183  1  0.15336000  0.40160000  0.93185000  1.0
  C  C184  1  0.84046000  0.60869000  0.01197000  1.0
  C  C185  1  0.15954000  0.39131000  0.98803000  1.0
  C  C186  1  0.83318000  0.71942000  0.98464000  1.0
  C  C187  1  0.16681000  0.28058000  0.01536000  1.0
  C  C188  1  0.83069000  0.82073000  0.01360000  1.0
  C  C189  1  0.16931000  0.17927000  0.98641000  1.0
  C  C190  1  0.83520000  0.81116000  0.06971000  1.0
  C  C191  1  0.16479000  0.18885000  0.93029000  1.0
  C  C192  1  0.79925000  0.57054000  0.19667000  1.0
  C  C193  1  0.20075000  0.42945000  0.80333000  1.0
  C  C194  1  0.67755000  0.57520000  0.18261000  1.0
  C  C195  1  0.32245000  0.42480000  0.81739000  1.0
  C  C196  1  0.61846000  0.49738000  0.20886000  1.0
  C  C197  1  0.38154000  0.50262000  0.79114000  1.0
  C  C198  1  0.68000000  0.41422000  0.24969000  1.0
  C  C199  1  0.31999000  0.58578000  0.75031000  1.0
  C  C200  1  0.80133000  0.40852000  0.26364000  1.0
  C  C201  1  0.19866000  0.59147000  0.73636000  1.0
  C  C202  1  0.86091000  0.48604000  0.23719000  1.0
  C  C203  1  0.13909000  0.51395000  0.76281000  1.0
  C  C204  1  0.90341000  0.00558000  0.39636000  1.0
  C  C205  1  0.09659000  0.99442000  0.60364000  1.0
  C  C206  1  0.90132000  0.10201000  0.35089000  1.0
  C  C207  1  0.09868000  0.89799000  0.64911000  1.0
  C  C208  1  0.03599000  0.96291000  0.42070000  1.0
  C  C209  1  0.96401000  0.03709000  0.57930000  1.0
  C  C210  1  0.79113000  0.07009000  0.44050000  1.0
  C  C211  1  0.20887000  0.92991000  0.55950000  1.0
  C  C212  1  0.89717000  0.74109000  0.46716000  1.0
  C  C213  1  0.10283000  0.25891000  0.53284000  1.0
  C  C214  1  0.02441000  0.65006000  0.47013000  1.0
  C  C215  1  0.97559000  0.34995000  0.52987000  1.0
  C  C216  1  0.07204000  0.60969000  0.52038000  1.0
  C  C217  1  0.92796000  0.39031000  0.47962000  1.0
  C  C218  1  0.99352000  0.65984000  0.56829000  1.0
  C  C219  1  0.00648000  0.34016000  0.43170000  1.0
  C  C220  1  0.86703000  0.75031000  0.56569000  1.0
  C  C221  1  0.13298000  0.24969000  0.43431000  1.0
  C  C222  1  0.81881000  0.79085000  0.51540000  1.0
  C  C223  1  0.18119000  0.20915000  0.48460000  1.0
  C  C224  1  0.66146000  0.84989000  0.41132000  1.0
  C  C225  1  0.33854000  0.15011000  0.58868000  1.0
  C  C226  1  0.59653000  0.78323000  0.44370000  1.0
  C  C227  1  0.40347000  0.21677000  0.55630000  1.0
  C  C228  1  0.45993000  0.82063000  0.44572000  1.0
  C  C229  1  0.54007000  0.17937000  0.55428000  1.0
  C  C230  1  0.38643000  0.92447000  0.41550000  1.0
  C  C231  1  0.61358000  0.07553000  0.58449000  1.0
  C  C232  1  0.45011000  0.99142000  0.38331000  1.0
  C  C233  1  0.54989000  0.00858000  0.61669000  1.0
  C  C234  1  0.58687000  0.95436000  0.38133000  1.0
  C  C235  1  0.41314000  0.04564000  0.61867000  1.0
  C  C236  1  0.58787000  0.46174000  0.40302000  1.0
  C  C237  1  0.41214000  0.53825000  0.59698000  1.0
  C  C238  1  0.51418000  0.37354000  0.41063000  1.0
  C  C239  1  0.48581000  0.62646000  0.58937000  1.0
  C  C240  1  0.37045000  0.46590000  0.41409000  1.0
  C  C241  1  0.62954000  0.53410000  0.58591000  1.0
  C  C242  1  0.37676000  0.56771000  0.37314000  1.0
  C  C243  1  0.62324000  0.43229000  0.62686000  1.0
  Se  Se244  1  0.29317000  0.82117000  0.27906000  1.0
  Se  Se245  1  0.70684000  0.17882000  0.72094000  1.0
  Se  Se246  1  0.72704000  0.86152000  0.20751000  1.0
  Se  Se247  1  0.27297000  0.13847000  0.79249000  1.0
  Se  Se248  1  0.90064000  0.63304000  0.34813000  1.0
  Se  Se249  1  0.09935000  0.36697000  0.65187000  1.0
  N  N250  1  0.08371000  0.00332000  0.21018000  1.0
  N  N251  1  0.91629000  0.99667000  0.78982000  1.0
  N  N252  1  0.01148000  0.66134000  0.18422000  1.0
  N  N253  1  0.98852000  0.33866000  0.81578000  1.0
  N  N254  1  0.89131000  0.89856000  0.37084000  1.0
  N  N255  1  0.10869000  0.10144000  0.62916000  1.0
  O  O256  1  0.51092000  0.56326000  0.36946000  1.0
  O  O257  1  0.48908000  0.43673000  0.63054000  1.0
