# generated using pymatgen
data_CdH8C10SN3Cl
_symmetry_space_group_name_H-M   'P 1'
_cell_length_a   7.44059000
_cell_length_b   8.30878000
_cell_length_c   10.41310000
_cell_angle_alpha   104.12700000
_cell_angle_beta   98.17030000
_cell_angle_gamma   111.91800000
_symmetry_Int_Tables_number   1
_chemical_formula_structural   CdH8C10SN3Cl
_chemical_formula_sum   'Cd2 H16 C20 S2 N6 Cl2'
_cell_volume   559.36832322
_cell_formula_units_Z   2
loop_
 _symmetry_equiv_pos_site_id
 _symmetry_equiv_pos_as_xyz
  1  'x, y, z'
loop_
 _atom_site_type_symbol
 _atom_site_label
 _atom_site_symmetry_multiplicity
 _atom_site_fract_x
 _atom_site_fract_y
 _atom_site_fract_z
 _atom_site_occupancy
  Cd  Cd0  1  0.63116000  0.89584000  0.60248000  1.0
  Cd  Cd1  1  0.36884000  0.10416000  0.39752000  1.0
  H  H2  1  0.52260000  0.79556000  0.87345000  1.0
  H  H3  1  0.47739000  0.20444000  0.12655000  1.0
  H  H4  1  0.65268000  0.92075000  0.13147000  1.0
  H  H5  1  0.34732000  0.07925000  0.86853000  1.0
  H  H6  1  0.96437000  0.21294000  0.23594000  1.0
  H  H7  1  0.03563000  0.78707000  0.76406000  1.0
  H  H8  1  0.23918000  0.47476000  0.20460000  1.0
  H  H9  1  0.76081000  0.52525000  0.79540000  1.0
  H  H10  1  0.40557000  0.62126000  0.04807000  1.0
  H  H11  1  0.59442000  0.37875000  0.95193000  1.0
  H  H12  1  0.26553000  0.47729000  0.79387000  1.0
  H  H13  1  0.73446000  0.52270000  0.20613000  1.0
  H  H14  1  0.89357000  0.24946000  0.61523000  1.0
  H  H15  1  0.10643000  0.75054000  0.38477000  1.0
  H  H16  1  0.04590000  0.14828000  0.61636000  1.0
  H  H17  1  0.95409000  0.85171000  0.38364000  1.0
  C  C18  1  0.65778000  0.92316000  0.92349000  1.0
  C  C19  1  0.34223000  0.07684000  0.07652000  1.0
  C  C20  1  0.72985000  0.99347000  0.06728000  1.0
  C  C21  1  0.27016000  0.00653000  0.93272000  1.0
  C  C22  1  0.90080000  0.15516000  0.12514000  1.0
  C  C23  1  0.09920000  0.84485000  0.87486000  1.0
  C  C24  1  0.99948000  0.24726000  0.04012000  1.0
  C  C25  1  0.00051000  0.75274000  0.95988000  1.0
  C  C26  1  0.17662000  0.41300000  0.09384000  1.0
  C  C27  1  0.82338000  0.58700000  0.90616000  1.0
  C  C28  1  0.26928000  0.49396000  0.00603000  1.0
  C  C29  1  0.73072000  0.50604000  0.99397000  1.0
  C  C30  1  0.19014000  0.41274000  0.86258000  1.0
  C  C31  1  0.80985000  0.58726000  0.13742000  1.0
  C  C32  1  0.01658000  0.25198000  0.80609000  1.0
  C  C33  1  0.98342000  0.74802000  0.19391000  1.0
  C  C34  1  0.91678000  0.16557000  0.89472000  1.0
  C  C35  1  0.08322000  0.83443000  0.10528000  1.0
  C  C36  1  0.25654000  0.46697000  0.50048000  1.0
  C  C37  1  0.74347000  0.53304000  0.49951000  1.0
  S  S38  1  0.26047000  0.66039000  0.58923000  1.0
  S  S39  1  0.73954000  0.33959000  0.41076000  1.0
  N  N40  1  0.74707000  0.00503000  0.84074000  1.0
  N  N41  1  0.25293000  0.99497000  0.15926000  1.0
  N  N42  1  0.93647000  0.16696000  0.65945000  1.0
  N  N43  1  0.06353000  0.83304000  0.34055000  1.0
  N  N44  1  0.24521000  0.32413000  0.43447000  1.0
  N  N45  1  0.75480000  0.67586000  0.56552000  1.0
  Cl  Cl46  1  0.55968000  0.86210000  0.34643000  1.0
  Cl  Cl47  1  0.44031000  0.13790000  0.65357000  1.0
