# generated using pymatgen
data_RbH3C7N2O7
_symmetry_space_group_name_H-M   'P 1'
_cell_length_a   7.33099000
_cell_length_b   7.70812000
_cell_length_c   16.90940000
_cell_angle_alpha   84.08870000
_cell_angle_beta   89.99910000
_cell_angle_gamma   89.99960000
_symmetry_Int_Tables_number   1
_chemical_formula_structural   RbH3C7N2O7
_chemical_formula_sum   'Rb4 H12 C28 N8 O28'
_cell_volume   950.43797411
_cell_formula_units_Z   4
loop_
 _symmetry_equiv_pos_site_id
 _symmetry_equiv_pos_as_xyz
  1  'x, y, z'
loop_
 _atom_site_type_symbol
 _atom_site_label
 _atom_site_symmetry_multiplicity
 _atom_site_fract_x
 _atom_site_fract_y
 _atom_site_fract_z
 _atom_site_occupancy
  Rb  Rb0  1  0.15894000  0.61285000  0.79763000  1.0
  Rb  Rb1  1  0.65894000  0.38715000  0.70237000  1.0
  Rb  Rb2  1  0.84106000  0.38715000  0.20237000  1.0
  Rb  Rb3  1  0.34107000  0.61285000  0.29763000  1.0
  H  H4  1  0.58100000  0.69049000  0.03664000  1.0
  H  H5  1  0.08100000  0.30951000  0.46336000  1.0
  H  H6  1  0.41899000  0.30952000  0.96336000  1.0
  H  H7  1  0.91901000  0.69049000  0.53664000  1.0
  H  H8  1  0.81085000  0.98034000  0.82792000  1.0
  H  H9  1  0.31086000  0.01967000  0.67208000  1.0
  H  H10  1  0.18914000  0.01965000  0.17208000  1.0
  H  H11  1  0.68914000  0.98034000  0.32792000  1.0
  H  H12  1  0.91647000  0.34092000  0.99764000  1.0
  H  H13  1  0.41647000  0.65908000  0.50235000  1.0
  H  H14  1  0.08354000  0.65908000  0.00235000  1.0
  H  H15  1  0.58353000  0.34092000  0.49765000  1.0
  C  C16  1  0.90643000  0.26622000  0.89328000  1.0
  C  C17  1  0.40644000  0.73380000  0.60671000  1.0
  C  C18  1  0.09357000  0.73378000  0.10671000  1.0
  C  C19  1  0.59356000  0.26621000  0.39328000  1.0
  C  C20  1  0.82222000  0.10628000  0.93521000  1.0
  C  C21  1  0.32222000  0.89373000  0.56479000  1.0
  C  C22  1  0.17777000  0.89372000  0.06479000  1.0
  C  C23  1  0.67778000  0.10627000  0.43521000  1.0
  C  C24  1  0.79024000  0.09594000  0.02054000  1.0
  C  C25  1  0.29024000  0.90407000  0.47946000  1.0
  C  C26  1  0.20976000  0.90406000  0.97946000  1.0
  C  C27  1  0.70976000  0.09593000  0.52054000  1.0
  C  C28  1  0.70054000  0.93809000  0.05506000  1.0
  C  C29  1  0.20054000  0.06191000  0.44494000  1.0
  C  C30  1  0.29945000  0.06191000  0.94494000  1.0
  C  C31  1  0.79946000  0.93809000  0.55506000  1.0
  C  C32  1  0.65087000  0.80595000  0.00912000  1.0
  C  C33  1  0.15087000  0.19405000  0.49088000  1.0
  C  C34  1  0.34912000  0.19405000  0.99088000  1.0
  C  C35  1  0.84914000  0.80595000  0.50912000  1.0
  C  C36  1  0.69381000  0.82127000  0.92859000  1.0
  C  C37  1  0.19381000  0.17874000  0.57141000  1.0
  C  C38  1  0.30618000  0.17873000  0.07141000  1.0
  C  C39  1  0.80620000  0.82126000  0.42859000  1.0
  C  C40  1  0.78017000  0.97012000  0.89136000  1.0
  C  C41  1  0.28017000  0.02989000  0.60863000  1.0
  C  C42  1  0.21983000  0.02988000  0.10863000  1.0
  C  C43  1  0.71983000  0.97011000  0.39137000  1.0
  N  N44  1  0.65433000  0.91134000  0.13887000  1.0
  N  N45  1  0.15433000  0.08866000  0.36113000  1.0
  N  N46  1  0.34568000  0.08866000  0.86113000  1.0
  N  N47  1  0.84568000  0.91134000  0.63887000  1.0
  N  N48  1  0.64778000  0.68049000  0.88206000  1.0
  N  N49  1  0.14778000  0.31951000  0.61794000  1.0
  N  N50  1  0.35222000  0.31949000  0.11794000  1.0
  N  N51  1  0.85223000  0.68050000  0.38206000  1.0
  O  O52  1  0.93223000  0.28497000  0.82061000  1.0
  O  O53  1  0.43224000  0.71504000  0.67939000  1.0
  O  O54  1  0.06776000  0.71502000  0.17939000  1.0
  O  O55  1  0.56776000  0.28496000  0.32062000  1.0
  O  O56  1  0.95448000  0.38960000  0.93892000  1.0
  O  O57  1  0.45449000  0.61041000  0.56108000  1.0
  O  O58  1  0.04552000  0.61040000  0.06108000  1.0
  O  O59  1  0.54551000  0.38959000  0.43892000  1.0
  O  O60  1  0.69309000  0.02524000  0.18313000  1.0
  O  O61  1  0.19309000  0.97476000  0.31688000  1.0
  O  O62  1  0.30692000  0.97477000  0.81687000  1.0
  O  O63  1  0.80692000  0.02524000  0.68312000  1.0
  O  O64  1  0.57315000  0.77326000  0.16311000  1.0
  O  O65  1  0.07315000  0.22674000  0.33689000  1.0
  O  O66  1  0.42685000  0.22675000  0.83689000  1.0
  O  O67  1  0.92686000  0.77326000  0.66311000  1.0
  O  O68  1  0.52647000  0.57570000  0.90722000  1.0
  O  O69  1  0.02648000  0.42430000  0.59278000  1.0
  O  O70  1  0.47351000  0.42430000  0.09278000  1.0
  O  O71  1  0.97352000  0.57570000  0.40722000  1.0
  O  O72  1  0.73161000  0.67142000  0.81839000  1.0
  O  O73  1  0.23160000  0.32858000  0.68161000  1.0
  O  O74  1  0.26841000  0.32857000  0.18161000  1.0
  O  O75  1  0.76841000  0.67142000  0.31839000  1.0
  O  O76  1  0.84092000  0.22080000  0.05976000  1.0
  O  O77  1  0.34092000  0.77921000  0.44024000  1.0
  O  O78  1  0.15907000  0.77921000  0.94024000  1.0
  O  O79  1  0.65908000  0.22079000  0.55976000  1.0
