# generated using pymatgen
data_CdH16C16(NO)4
_symmetry_space_group_name_H-M   'P 1'
_cell_length_a   8.96719000
_cell_length_b   9.83749000
_cell_length_c   12.01150000
_cell_angle_alpha   79.06330000
_cell_angle_beta   86.54120000
_cell_angle_gamma   65.54150000
_symmetry_Int_Tables_number   1
_chemical_formula_structural   CdH16C16(NO)4
_chemical_formula_sum   'Cd2 H32 C32 N8 O8'
_cell_volume   946.78927839
_cell_formula_units_Z   2
loop_
 _symmetry_equiv_pos_site_id
 _symmetry_equiv_pos_as_xyz
  1  'x, y, z'
loop_
 _atom_site_type_symbol
 _atom_site_label
 _atom_site_symmetry_multiplicity
 _atom_site_fract_x
 _atom_site_fract_y
 _atom_site_fract_z
 _atom_site_occupancy
  Cd  Cd0  1  0.83997000  0.13421000  0.38416000  1.0
  Cd  Cd1  1  0.16004000  0.86579000  0.61584000  1.0
  H  H2  1  0.03941000  0.20872000  0.18357000  1.0
  H  H3  1  0.96059000  0.79128000  0.81643000  1.0
  H  H4  1  0.26650000  0.84604000  0.99198000  1.0
  H  H5  1  0.73351000  0.15397000  0.00802000  1.0
  H  H6  1  0.15139000  0.69141000  0.13264000  1.0
  H  H7  1  0.84863000  0.30859000  0.86736000  1.0
  H  H8  1  0.98443000  0.80777000  0.29224000  1.0
  H  H9  1  0.01558000  0.19222000  0.70776000  1.0
  H  H10  1  0.18937000  0.25391000  0.01615000  1.0
  H  H11  1  0.81063000  0.74610000  0.98385000  1.0
  H  H12  1  0.43810000  0.05908000  0.73568000  1.0
  H  H13  1  0.56190000  0.94091000  0.26432000  1.0
  H  H14  1  0.43893000  0.43918000  0.77863000  1.0
  H  H15  1  0.56106000  0.56081000  0.22137000  1.0
  H  H16  1  0.59728000  0.56038000  0.65028000  1.0
  H  H17  1  0.40271000  0.43962000  0.34972000  1.0
  H  H18  1  0.75859000  0.43112000  0.49343000  1.0
  H  H19  1  0.24140000  0.56889000  0.50657000  1.0
  H  H20  1  0.61426000  0.07720000  0.58352000  1.0
  H  H21  1  0.38574000  0.92280000  0.41648000  1.0
  H  H22  1  0.37997000  0.38417000  0.12638000  1.0
  H  H23  1  0.62002000  0.61582000  0.87362000  1.0
  H  H24  1  0.31558000  0.25119000  0.21764000  1.0
  H  H25  1  0.68441000  0.74880000  0.78236000  1.0
  H  H26  1  0.45698000  0.19234000  0.10750000  1.0
  H  H27  1  0.54302000  0.80765000  0.89251000  1.0
  H  H28  1  0.19231000  0.38532000  0.45016000  1.0
  H  H29  1  0.80770000  0.61469000  0.54983000  1.0
  H  H30  1  0.33586000  0.19276000  0.45507000  1.0
  H  H31  1  0.66414000  0.80724000  0.54493000  1.0
  H  H32  1  0.21989000  0.24542000  0.57633000  1.0
  H  H33  1  0.78012000  0.75459000  0.42367000  1.0
  C  C34  1  0.06782000  0.09448000  0.16860000  1.0
  C  C35  1  0.93218000  0.90552000  0.83140000  1.0
  C  C36  1  0.16296000  0.03963000  0.07695000  1.0
  C  C37  1  0.83705000  0.96037000  0.92305000  1.0
  C  C38  1  0.19431000  0.89133000  0.06317000  1.0
  C  C39  1  0.80570000  0.10867000  0.93683000  1.0
  C  C40  1  0.13038000  0.80647000  0.14052000  1.0
  C  C41  1  0.86963000  0.19353000  0.85948000  1.0
  C  C42  1  0.03703000  0.87037000  0.22961000  1.0
  C  C43  1  0.96298000  0.12962000  0.77039000  1.0
  C  C44  1  0.22560000  0.13737000  0.00166000  1.0
  C  C45  1  0.77440000  0.86263000  0.99834000  1.0
  C  C46  1  0.44050000  0.15761000  0.76524000  1.0
  C  C47  1  0.55949000  0.84239000  0.23475000  1.0
  C  C48  1  0.51815000  0.24503000  0.69330000  1.0
  C  C49  1  0.48185000  0.75497000  0.30670000  1.0
  C  C50  1  0.51227000  0.38435000  0.71118000  1.0
  C  C51  1  0.48772000  0.61565000  0.28882000  1.0
  C  C52  1  0.60001000  0.45198000  0.63987000  1.0
  C  C53  1  0.39999000  0.54802000  0.36013000  1.0
  C  C54  1  0.68920000  0.38160000  0.55227000  1.0
  C  C55  1  0.31079000  0.61841000  0.44773000  1.0
  C  C56  1  0.60853000  0.18384000  0.60167000  1.0
  C  C57  1  0.39147000  0.81616000  0.39833000  1.0
  C  C58  1  0.56375000  0.22026000  0.24963000  1.0
  C  C59  1  0.43625000  0.77973000  0.75038000  1.0
  C  C60  1  0.41822000  0.26669000  0.17123000  1.0
  C  C61  1  0.58178000  0.73330000  0.82878000  1.0
  C  C62  1  0.08410000  0.22890000  0.44118000  1.0
  C  C63  1  0.91590000  0.77111000  0.55882000  1.0
  C  C64  1  0.21518000  0.26677000  0.48328000  1.0
  C  C65  1  0.78482000  0.73324000  0.51671000  1.0
  N  N66  1  0.00730000  0.01143000  0.24337000  1.0
  N  N67  1  0.99270000  0.98857000  0.75663000  1.0
  N  N68  1  0.32310000  0.08818000  0.92072000  1.0
  N  N69  1  0.67689000  0.91182000  0.07928000  1.0
  N  N70  1  0.37957000  0.19215000  0.86186000  1.0
  N  N71  1  0.62043000  0.80785000  0.13813000  1.0
  N  N72  1  0.69192000  0.25032000  0.53311000  1.0
  N  N73  1  0.30808000  0.74968000  0.46689000  1.0
  O  O74  1  0.66108000  0.28599000  0.22576000  1.0
  O  O75  1  0.33891000  0.71400000  0.77425000  1.0
  O  O76  1  0.58602000  0.11479000  0.33598000  1.0
  O  O77  1  0.41398000  0.88521000  0.66402000  1.0
  O  O78  1  0.07597000  0.10316000  0.48880000  1.0
  O  O79  1  0.92402000  0.89685000  0.51120000  1.0
  O  O80  1  0.98597000  0.31782000  0.36170000  1.0
  O  O81  1  0.01403000  0.68218000  0.63829000  1.0
