# generated using pymatgen
data_KErH27C31NO9
_symmetry_space_group_name_H-M   'P 1'
_cell_length_a   7.20467000
_cell_length_b   10.94540000
_cell_length_c   19.83320000
_cell_angle_alpha   79.97740000
_cell_angle_beta   84.42690000
_cell_angle_gamma   79.29940000
_symmetry_Int_Tables_number   1
_chemical_formula_structural   KErH27C31NO9
_chemical_formula_sum   'K2 Er2 H54 C62 N2 O18'
_cell_volume   1509.95918990
_cell_formula_units_Z   2
loop_
 _symmetry_equiv_pos_site_id
 _symmetry_equiv_pos_as_xyz
  1  'x, y, z'
loop_
 _atom_site_type_symbol
 _atom_site_label
 _atom_site_symmetry_multiplicity
 _atom_site_fract_x
 _atom_site_fract_y
 _atom_site_fract_z
 _atom_site_occupancy
  K  K0  1  0.18573000  0.58530000  0.77162000  1.0
  K  K1  1  0.81427000  0.41469000  0.22839000  1.0
  Er  Er2  1  0.72247000  0.46111000  0.76102000  1.0
  Er  Er3  1  0.27753000  0.53889000  0.23898000  1.0
  H  H4  1  0.35194000  0.85186000  0.65876000  1.0
  H  H5  1  0.64806000  0.14814000  0.34124000  1.0
  H  H6  1  0.42710000  0.02333000  0.57818000  1.0
  H  H7  1  0.57291000  0.97666000  0.42182000  1.0
  H  H8  1  0.71747000  0.05202000  0.52019000  1.0
  H  H9  1  0.28254000  0.94797000  0.47982000  1.0
  H  H10  1  0.01173000  0.91385000  0.53089000  1.0
  H  H11  1  0.98828000  0.08615000  0.46912000  1.0
  H  H12  1  0.08579000  0.72212000  0.60273000  1.0
  H  H13  1  0.91422000  0.27788000  0.39728000  1.0
  H  H14  1  0.17208000  0.37537000  0.67352000  1.0
  H  H15  1  0.82791000  0.62465000  0.32647000  1.0
  H  H16  1  0.10780000  0.33511000  0.56849000  1.0
  H  H17  1  0.89219000  0.66491000  0.43151000  1.0
  H  H18  1  0.31467000  0.30508000  0.47040000  1.0
  H  H19  1  0.68533000  0.69493000  0.52960000  1.0
  H  H20  1  0.64063000  0.30948000  0.45759000  1.0
  H  H21  1  0.35937000  0.69052000  0.54241000  1.0
  H  H22  1  0.83979000  0.33978000  0.53688000  1.0
  H  H23  1  0.16021000  0.66022000  0.46312000  1.0
  H  H24  1  0.90091000  0.71219000  0.91446000  1.0
  H  H25  1  0.09909000  0.28782000  0.08555000  1.0
  H  H26  1  0.75334000  0.78385000  0.01449000  1.0
  H  H27  1  0.24665000  0.21617000  0.98551000  1.0
  H  H28  1  0.45391000  0.75875000  0.06860000  1.0
  H  H29  1  0.54607000  0.24126000  0.93140000  1.0
  H  H30  1  0.22148000  0.67006000  0.02952000  1.0
  H  H31  1  0.77851000  0.32996000  0.97047000  1.0
  H  H32  1  0.23702000  0.56701000  0.93495000  1.0
  H  H33  1  0.76297000  0.43301000  0.06504000  1.0
  H  H34  1  0.76379000  0.05199000  0.90389000  1.0
  H  H35  1  0.23621000  0.94800000  0.09610000  1.0
  H  H36  1  0.01595000  0.90007000  0.94450000  1.0
  H  H37  1  0.98405000  0.09992000  0.05550000  1.0
  H  H38  1  0.34231000  0.90465000  0.92905000  1.0
  H  H39  1  0.65770000  0.09534000  0.07094000  1.0
  H  H40  1  0.48998000  0.07177000  0.87093000  1.0
  H  H41  1  0.51002000  0.92823000  0.12906000  1.0
  H  H42  1  0.35656000  0.26603000  0.81239000  1.0
  H  H43  1  0.64343000  0.73397000  0.18761000  1.0
  H  H44  1  0.14824000  0.02621000  0.69460000  1.0
  H  H45  1  0.85177000  0.97379000  0.30540000  1.0
  H  H46  1  0.99413000  0.17314000  0.70196000  1.0
  H  H47  1  0.00587000  0.82686000  0.29804000  1.0
  H  H48  1  0.98436000  0.09773000  0.63036000  1.0
  H  H49  1  0.01564000  0.90226000  0.36964000  1.0
  H  H50  1  0.58198000  0.00429000  0.75209000  1.0
  H  H51  1  0.41803000  0.99571000  0.24791000  1.0
  H  H52  1  0.62575000  0.09975000  0.67195000  1.0
  H  H53  1  0.37427000  0.90024000  0.32805000  1.0
  H  H54  1  0.64872000  0.15453000  0.75012000  1.0
  H  H55  1  0.35128000  0.84546000  0.24988000  1.0
  H  H56  1  0.80005000  0.85308000  0.78618000  1.0
  H  H57  1  0.19996000  0.14691000  0.21383000  1.0
  C  C58  1  0.61442000  0.73173000  0.66666667  1.0
  C  C59  1  0.38559000  0.26826000  0.33337000  1.0
  C  C60  1  0.49932000  0.84517000  0.63811000  1.0
  C  C61  1  0.50069000  0.15482000  0.36189000  1.0
  C  C62  1  0.54490000  0.94615000  0.59056000  1.0
  C  C63  1  0.45510000  0.05384000  0.40944000  1.0
  C  C64  1  0.71865000  0.96406000  0.55596000  1.0
  C  C65  1  0.28135000  0.03593000  0.44404000  1.0
  C  C66  1  0.89191000  0.88285000  0.56298000  1.0
  C  C67  1  0.10811000  0.11714000  0.43703000  1.0
  C  C68  1  0.93756000  0.76800000  0.60546000  1.0
  C  C69  1  0.06245000  0.23200000  0.39454000  1.0
  C  C70  1  0.82349000  0.69811000  0.65362000  1.0
  C  C71  1  0.17651000  0.30188000  0.34638000  1.0
  C  C72  1  0.46449000  0.37765000  0.66127000  1.0
  C  C73  1  0.53551000  0.62235000  0.33873000  1.0
  C  C74  1  0.29372000  0.36355000  0.63639000  1.0
  C  C75  1  0.70628000  0.63646000  0.36361000  1.0
  C  C76  1  0.25639000  0.33916000  0.57295000  1.0
  C  C77  1  0.74360000  0.66085000  0.42705000  1.0
  C  C78  1  0.37801000  0.32127000  0.51507000  1.0
  C  C79  1  0.62199000  0.67874000  0.48493000  1.0
  C  C80  1  0.57208000  0.32345000  0.50802000  1.0
  C  C81  1  0.42792000  0.67656000  0.49197000  1.0
  C  C82  1  0.69135000  0.34162000  0.55509000  1.0
  C  C83  1  0.30864000  0.65838000  0.44491000  1.0
  C  C84  1  0.65361000  0.36551000  0.62355000  1.0
  C  C85  1  0.34638000  0.63449000  0.37645000  1.0
  C  C86  1  0.69902000  0.61910000  0.88558000  1.0
  C  C87  1  0.30098000  0.38090000  0.11442000  1.0
  C  C88  1  0.75871000  0.69112000  0.92961000  1.0
  C  C89  1  0.24128000  0.30889000  0.07039000  1.0
  C  C90  1  0.66999000  0.73408000  0.98867000  1.0
  C  C91  1  0.33000000  0.26594000  0.01133000  1.0
  C  C92  1  0.49099000  0.72254000  0.02032000  1.0
  C  C93  1  0.50899000  0.27747000  0.97968000  1.0
  C  C94  1  0.35410000  0.66721000  0.99744000  1.0
  C  C95  1  0.64589000  0.33280000  0.00256000  1.0
  C  C96  1  0.36203000  0.60651000  0.94096000  1.0
  C  C97  1  0.63797000  0.39350000  0.05904000  1.0
  C  C98  1  0.51174000  0.57829000  0.89139000  1.0
  C  C99  1  0.48826000  0.42172000  0.10861000  1.0
  C  C100  1  0.89956000  0.19593000  0.84831000  1.0
  C  C101  1  0.10043000  0.80407000  0.15169000  1.0
  C  C102  1  0.90431000  0.07638000  0.88982000  1.0
  C  C103  1  0.09568000  0.92361000  0.11018000  1.0
  C  C104  1  0.05557000  0.98588000  0.91411000  1.0
  C  C105  1  0.94443000  0.01412000  0.08589000  1.0
  C  C106  1  0.24935000  0.98835000  0.90560000  1.0
  C  C107  1  0.75064000  0.01165000  0.09440000  1.0
  C  C108  1  0.33582000  0.08731000  0.87082000  1.0
  C  C109  1  0.66417000  0.91269000  0.12917000  1.0
  C  C110  1  0.25729000  0.20388000  0.83559000  1.0
  C  C111  1  0.74270000  0.79611000  0.16441000  1.0
  C  C112  1  0.06691000  0.25596000  0.82285000  1.0
  C  C113  1  0.93308000  0.74404000  0.17715000  1.0
  C  C114  1  0.00707000  0.08105000  0.68553000  1.0
  C  C115  1  0.99293000  0.91894000  0.31448000  1.0
  C  C116  1  0.67014000  0.07117000  0.72461000  1.0
  C  C117  1  0.32987000  0.92882000  0.27539000  1.0
  C  C118  1  0.92121000  0.89449000  0.75874000  1.0
  C  C119  1  0.07876000  0.10552000  0.24126000  1.0
  N  N120  1  0.86774000  0.01085000  0.72388000  1.0
  N  N121  1  0.13227000  0.98914000  0.27612000  1.0
  O  O122  1  0.46315000  0.40357000  0.72248000  1.0
  O  O123  1  0.53685000  0.59643000  0.27752000  1.0
  O  O124  1  0.78915000  0.37995000  0.65758000  1.0
  O  O125  1  0.21085000  0.62005000  0.34242000  1.0
  O  O126  1  0.53875000  0.64915000  0.70877000  1.0
  O  O127  1  0.46125000  0.35085000  0.29123000  1.0
  O  O128  1  0.90116000  0.59548000  0.68959000  1.0
  O  O129  1  0.09885000  0.40451000  0.31042000  1.0
  O  O130  1  0.81228000  0.58343000  0.83569000  1.0
  O  O131  1  0.18772000  0.41657000  0.16432000  1.0
  O  O132  1  0.48971000  0.51129000  0.84629000  1.0
  O  O133  1  0.51029000  0.48872000  0.15371000  1.0
  O  O134  1  0.02751000  0.36588000  0.78606000  1.0
  O  O135  1  0.97248000  0.63412000  0.21394000  1.0
  O  O136  1  0.73950000  0.26213000  0.82994000  1.0
  O  O137  1  0.26049000  0.73786000  0.17006000  1.0
  O  O138  1  0.08674000  0.83620000  0.76111000  1.0
  O  O139  1  0.91329000  0.16378000  0.23889000  1.0
