# generated using pymatgen
data_ZnH26C33N2(O4F3)2
_symmetry_space_group_name_H-M   'P 1'
_cell_length_a   17.23190000
_cell_length_b   18.33980000
_cell_length_c   19.12110000
_cell_angle_alpha   90.04620000
_cell_angle_beta   91.11680000
_cell_angle_gamma   96.59100000
_symmetry_Int_Tables_number   1
_chemical_formula_structural   ZnH26C33N2(O4F3)2
_chemical_formula_sum   'Zn2 H52 C66 N4 O16 F12'
_cell_volume   6001.72684009
_cell_formula_units_Z   2
loop_
 _symmetry_equiv_pos_site_id
 _symmetry_equiv_pos_as_xyz
  1  'x, y, z'
loop_
 _atom_site_type_symbol
 _atom_site_label
 _atom_site_symmetry_multiplicity
 _atom_site_fract_x
 _atom_site_fract_y
 _atom_site_fract_z
 _atom_site_occupancy
  Zn  Zn0  1  0.48971000  0.41884000  0.49747000  1.0
  Zn  Zn1  1  0.49661000  0.57343000  0.49790000  1.0
  H  H2  1  0.73219000  0.40081000  0.46996000  1.0
  H  H3  1  0.66814000  0.58904000  0.18841000  1.0
  H  H4  1  0.60555000  0.39935000  0.93436000  1.0
  H  H5  1  0.60015000  0.62944000  0.06820000  1.0
  H  H6  1  0.68075000  0.42070000  0.15238000  1.0
  H  H7  1  0.73018000  0.38085000  0.08322000  1.0
  H  H8  1  0.65877000  0.25661000  0.11275000  1.0
  H  H9  1  0.71513000  0.29585000  0.18541000  1.0
  H  H10  1  0.61186000  0.29768000  0.18254000  1.0
  H  H11  1  0.67738000  0.62407000  0.85094000  1.0
  H  H12  1  0.72999000  0.67860000  0.91754000  1.0
  H  H13  1  0.25888000  0.59235000  0.55625000  1.0
  H  H14  1  0.65198000  0.78336000  0.88619000  1.0
  H  H15  1  0.70427000  0.75526000  0.81318000  1.0
  H  H16  1  0.60188000  0.72792000  0.81908000  1.0
  H  H17  1  0.60383000  0.25304000  0.67395000  1.0
  H  H18  1  0.67860000  0.25558000  0.61034000  1.0
  H  H19  1  0.71773000  0.13607000  0.65740000  1.0
  H  H20  1  0.72434000  0.20494000  0.72362000  1.0
  H  H21  1  0.64386000  0.13479000  0.72161000  1.0
  H  H22  1  0.33159000  0.87504000  0.49767000  1.0
  H  H23  1  0.28172000  0.78701000  0.47483000  1.0
  H  H24  1  0.57315000  0.31734000  0.57931000  1.0
  H  H25  1  0.24795000  0.83732000  0.35590000  1.0
  H  H26  1  0.20922000  0.88594000  0.42525000  1.0
  H  H27  1  0.29447000  0.92543000  0.38191000  1.0
  H  H28  1  0.49744000  0.65959000  0.69148000  1.0
  H  H29  1  0.44593000  0.67205000  0.77055000  1.0
  H  H30  1  0.31802000  0.64943000  0.70170000  1.0
  H  H31  1  0.37917000  0.72506000  0.66701000  1.0
  H  H32  1  0.37157000  0.63778000  0.62419000  1.0
  H  H33  1  0.45854000  0.32391000  0.29662000  1.0
  H  H34  1  0.45154000  0.32490000  0.20275000  1.0
  H  H35  1  0.40326000  0.67924000  0.42854000  1.0
  H  H36  1  0.34420000  0.23737000  0.25555000  1.0
  H  H37  1  0.31068000  0.31225000  0.30075000  1.0
  H  H38  1  0.30609000  0.30896000  0.20744000  1.0
  H  H39  1  0.41881000  0.49356000  0.92088000  1.0
  H  H40  1  0.36766000  0.52197000  0.84495000  1.0
  H  H41  1  0.34630000  0.63921000  0.90633000  1.0
  H  H42  1  0.30691000  0.56171000  0.95554000  1.0
  H  H43  1  0.39801000  0.61147000  0.98153000  1.0
  H  H44  1  0.40890000  0.50241000  0.06829000  1.0
  H  H45  1  0.35896000  0.45931000  0.14138000  1.0
  H  H46  1  0.49599000  0.06516000  0.39538000  1.0
  H  H47  1  0.33412000  0.34134000  0.07338000  1.0
  H  H48  1  0.29437000  0.41377000  0.02797000  1.0
  H  H49  1  0.38391000  0.38373000  0.00062000  1.0
  H  H50  1  0.48491000  0.92685000  0.61881000  1.0
  H  H51  1  0.49201000  0.93013000  0.39350000  1.0
  H  H52  1  0.48740000  0.06176000  0.62066000  1.0
  H  H53  1  0.67536000  0.44633000  0.82455000  1.0
  C  C54  1  0.49743000  0.49962000  0.36337000  1.0
  C  C55  1  0.58727000  0.55154000  0.26819000  1.0
  C  C56  1  0.53701000  0.49521000  0.70873000  1.0
  C  C57  1  0.52181000  0.50475000  0.28839000  1.0
  C  C58  1  0.60705000  0.45073000  0.96340000  1.0
  C  C59  1  0.60374000  0.57864000  0.03932000  1.0
  C  C60  1  0.60726000  0.44757000  0.03617000  1.0
  C  C61  1  0.60815000  0.58243000  0.96649000  1.0
  C  C62  1  0.59836000  0.51155000  0.07488000  1.0
  C  C63  1  0.60235000  0.51668000  0.92716000  1.0
  C  C64  1  0.53690000  0.27743000  0.54718000  1.0
  C  C65  1  0.51463000  0.49014000  0.63256000  1.0
  C  C66  1  0.44229000  0.71662000  0.46111000  1.0
  C  C67  1  0.53958000  0.20181000  0.55248000  1.0
  C  C68  1  0.43651000  0.79164000  0.46150000  1.0
  C  C69  1  0.34306000  0.48904000  0.51097000  1.0
  C  C70  1  0.64454000  0.50831000  0.49424000  1.0
  C  C71  1  0.49051000  0.15331000  0.50786000  1.0
  C  C72  1  0.48829000  0.83889000  0.50457000  1.0
  C  C73  1  0.44074000  0.18593000  0.46226000  1.0
  C  C74  1  0.54255000  0.80540000  0.54474000  1.0
  C  C75  1  0.44077000  0.26189000  0.46086000  1.0
  C  C76  1  0.51840000  0.54498000  0.82501000  1.0
  C  C77  1  0.54494000  0.72977000  0.54087000  1.0
  C  C78  1  0.49253000  0.03488000  0.44442000  1.0
  C  C79  1  0.48708000  0.95716000  0.56976000  1.0
  C  C80  1  0.49063000  0.95895000  0.44320000  1.0
  C  C81  1  0.48847000  0.03309000  0.57088000  1.0
  C  C82  1  0.48787000  0.91927000  0.50600000  1.0
  C  C83  1  0.49101000  0.07292000  0.50813000  1.0
  C  C84  1  0.25614000  0.48104000  0.52002000  1.0
  C  C85  1  0.73211000  0.51435000  0.49806000  1.0
  C  C86  1  0.22138000  0.54227000  0.54281000  1.0
  C  C87  1  0.50748000  0.46241000  0.16718000  1.0
  C  C88  1  0.76840000  0.45120000  0.48488000  1.0
  C  C89  1  0.14135000  0.53982000  0.54716000  1.0
  C  C90  1  0.84835000  0.45234000  0.49146000  1.0
  C  C91  1  0.09078000  0.47598000  0.52926000  1.0
  C  C92  1  0.89718000  0.51669000  0.51157000  1.0
  C  C93  1  0.12673000  0.41384000  0.51055000  1.0
  C  C94  1  0.85977000  0.58008000  0.52239000  1.0
  C  C95  1  0.20761000  0.41605000  0.50520000  1.0
  C  C96  1  0.77894000  0.57929000  0.51613000  1.0
  C  C97  1  0.49643000  0.53706000  0.75395000  1.0
  C  C98  1  0.58369000  0.51299000  0.85135000  1.0
  C  C99  1  0.48229000  0.45941000  0.23684000  1.0
  C  C100  1  0.67627000  0.37538000  0.11412000  1.0
  C  C101  1  0.66462000  0.30191000  0.15080000  1.0
  C  C102  1  0.67399000  0.66958000  0.88791000  1.0
  C  C103  1  0.65688000  0.73817000  0.84938000  1.0
  C  C104  1  0.63914000  0.21892000  0.64293000  1.0
  C  C105  1  0.68376000  0.17053000  0.68899000  1.0
  C  C106  1  0.31309000  0.83777000  0.45363000  1.0
  C  C107  1  0.26349000  0.87378000  0.40082000  1.0
  C  C108  1  0.44214000  0.64518000  0.71883000  1.0
  C  C109  1  0.57546000  0.50817000  0.14906000  1.0
  C  C110  1  0.37345000  0.66536000  0.67529000  1.0
  C  C111  1  0.42231000  0.33723000  0.25132000  1.0
  C  C112  1  0.34085000  0.29683000  0.25389000  1.0
  C  C113  1  0.40334000  0.54159000  0.89115000  1.0
  C  C114  1  0.36124000  0.59156000  0.93635000  1.0
  C  C115  1  0.39331000  0.44951000  0.09498000  1.0
  C  C116  1  0.34892000  0.39374000  0.04630000  1.0
  C  C117  1  0.62448000  0.47144000  0.80593000  1.0
  C  C118  1  0.61534000  0.55313000  0.20065000  1.0
  C  C119  1  0.59976000  0.46241000  0.73677000  1.0
  N  N120  1  0.00904000  0.46708000  0.52940000  1.0
  N  N121  1  0.97871000  0.52559000  0.51575000  1.0
  N  N122  1  0.48785000  0.30584000  0.50139000  1.0
  N  N123  1  0.49634000  0.68671000  0.50041000  1.0
  O  O124  1  0.49923000  0.43735000  0.39212000  1.0
  O  O125  1  0.61204000  0.65096000  0.93680000  1.0
  O  O126  1  0.58769000  0.17081000  0.59756000  1.0
  O  O127  1  0.38222000  0.81856000  0.41835000  1.0
  O  O128  1  0.43151000  0.56608000  0.72838000  1.0
  O  O129  1  0.41558000  0.41552000  0.25428000  1.0
  O  O130  1  0.47480000  0.58345000  0.86834000  1.0
  O  O131  1  0.46471000  0.42061000  0.11681000  1.0
  O  O132  1  0.51699000  0.55127000  0.60096000  1.0
  O  O133  1  0.47957000  0.55774000  0.39221000  1.0
  O  O134  1  0.49658000  0.42683000  0.60636000  1.0
  O  O135  1  0.37447000  0.43088000  0.50074000  1.0
  O  O136  1  0.61327000  0.56641000  0.48271000  1.0
  O  O137  1  0.37752000  0.55424000  0.51400000  1.0
  O  O138  1  0.60987000  0.44396000  0.50318000  1.0
  O  O139  1  0.61018000  0.38010000  0.06733000  1.0
  F  F140  1  0.38987000  0.14498000  0.41916000  1.0
  F  F141  1  0.74889000  0.64227000  0.53029000  1.0
  F  F142  1  0.64088000  0.42156000  0.69384000  1.0
  F  F143  1  0.62783000  0.59533000  0.31736000  1.0
  F  F144  1  0.59575000  0.84534000  0.58645000  1.0
  F  F145  1  0.39163000  0.29196000  0.41733000  1.0
  F  F146  1  0.59816000  0.69920000  0.57925000  1.0
  F  F147  1  0.88032000  0.39052000  0.47526000  1.0
  F  F148  1  0.11124000  0.59987000  0.57137000  1.0
  F  F149  1  0.08196000  0.35095000  0.49357000  1.0
  F  F150  1  0.90290000  0.64316000  0.54152000  1.0
  F  F151  1  0.23502000  0.35407000  0.48341000  1.0
