# generated using pymatgen
data_BaH8(C3O4)2
_symmetry_space_group_name_H-M   'P 1'
_cell_length_a   4.67596000
_cell_length_b   11.50450000
_cell_length_c   15.58450000
_cell_angle_alpha   90.00000000
_cell_angle_beta   90.00000000
_cell_angle_gamma   90.00000000
_symmetry_Int_Tables_number   1
_chemical_formula_structural   BaH8(C3O4)2
_chemical_formula_sum   'Ba4 H32 C24 O32'
_cell_volume   838.36166037
_cell_formula_units_Z   4
loop_
 _symmetry_equiv_pos_site_id
 _symmetry_equiv_pos_as_xyz
  1  'x, y, z'
loop_
 _atom_site_type_symbol
 _atom_site_label
 _atom_site_symmetry_multiplicity
 _atom_site_fract_x
 _atom_site_fract_y
 _atom_site_fract_z
 _atom_site_occupancy
  Ba  Ba0  1  0.27035000  0.89332000  0.86329000  1.0
  Ba  Ba1  1  0.22965000  0.10668000  0.36329000  1.0
  Ba  Ba2  1  0.72965000  0.39332000  0.63671000  1.0
  Ba  Ba3  1  0.77035000  0.60668000  0.13671000  1.0
  H  H4  1  0.45970000  0.64766000  0.72825000  1.0
  H  H5  1  0.04030000  0.35235000  0.22825000  1.0
  H  H6  1  0.54030000  0.14765000  0.77175000  1.0
  H  H7  1  0.95970000  0.85235000  0.27175000  1.0
  H  H8  1  0.79044000  0.79272000  0.70358000  1.0
  H  H9  1  0.70956000  0.20728000  0.20358000  1.0
  H  H10  1  0.20956000  0.29272000  0.79642000  1.0
  H  H11  1  0.29044000  0.70728000  0.29642000  1.0
  H  H12  1  0.63147000  0.95306000  0.69657000  1.0
  H  H13  1  0.86852000  0.04694000  0.19657000  1.0
  H  H14  1  0.36853000  0.45306000  0.80343000  1.0
  H  H15  1  0.13147000  0.54694000  0.30343000  1.0
  H  H16  1  0.76802000  0.08727000  0.52379000  1.0
  H  H17  1  0.73198000  0.91273000  0.02379000  1.0
  H  H18  1  0.23198000  0.58727000  0.97621000  1.0
  H  H19  1  0.26802000  0.41273000  0.47621000  1.0
  H  H20  1  0.45185000  0.73723000  0.57922000  1.0
  H  H21  1  0.04815000  0.26277000  0.07922000  1.0
  H  H22  1  0.54815000  0.23723000  0.92078000  1.0
  H  H23  1  0.95185000  0.76277000  0.42078000  1.0
  H  H24  1  0.99038000  0.83780000  0.56728000  1.0
  H  H25  1  0.50962000  0.16220000  0.06728000  1.0
  H  H26  1  0.00962000  0.33780000  0.93272000  1.0
  H  H27  1  0.49038000  0.66220000  0.43272000  1.0
  H  H28  1  0.44425000  0.94551000  0.56668000  1.0
  H  H29  1  0.05575000  0.05448000  0.06668000  1.0
  H  H30  1  0.55575000  0.44552000  0.93332000  1.0
  H  H31  1  0.94425000  0.55449000  0.43332000  1.0
  H  H32  1  0.94839000  0.07561000  0.65141000  1.0
  H  H33  1  0.55161000  0.92439000  0.15141000  1.0
  H  H34  1  0.05161000  0.57561000  0.84859000  1.0
  H  H35  1  0.44839000  0.42439000  0.34859000  1.0
  C  C36  1  0.12510000  0.62291000  0.62291000  1.0
  C  C37  1  0.37490000  0.37709000  0.12291000  1.0
  C  C38  1  0.87491000  0.12291000  0.87709000  1.0
  C  C39  1  0.62509000  0.87709000  0.37709000  1.0
  C  C40  1  0.29726000  0.73607000  0.63298000  1.0
  C  C41  1  0.20274000  0.26393000  0.13298000  1.0
  C  C42  1  0.70274000  0.23607000  0.86702000  1.0
  C  C43  1  0.79726000  0.76393000  0.36702000  1.0
  C  C44  1  0.11518000  0.84574000  0.62699000  1.0
  C  C45  1  0.38482000  0.15426000  0.12699000  1.0
  C  C46  1  0.88482000  0.34574000  0.87301000  1.0
  C  C47  1  0.61518000  0.65426000  0.37301000  1.0
  C  C48  1  0.29004000  0.95750000  0.61932000  1.0
  C  C49  1  0.20996000  0.04250000  0.11932000  1.0
  C  C50  1  0.70996000  0.45750000  0.88068000  1.0
  C  C51  1  0.79004000  0.54250000  0.38068000  1.0
  C  C52  1  0.10117000  0.06211000  0.59855000  1.0
  C  C53  1  0.39883000  0.93789000  0.09855000  1.0
  C  C54  1  0.89883000  0.56211000  0.90145000  1.0
  C  C55  1  0.60117000  0.43789000  0.40145000  1.0
  C  C56  1  0.28420000  0.17256000  0.59075000  1.0
  C  C57  1  0.21581000  0.82743000  0.09075000  1.0
  C  C58  1  0.71580000  0.67256000  0.90925000  1.0
  C  C59  1  0.78420000  0.32744000  0.40925000  1.0
  O  O60  1  0.89853000  0.62213000  0.57917000  1.0
  O  O61  1  0.60147000  0.37787000  0.07917000  1.0
  O  O62  1  0.10146000  0.12213000  0.92083000  1.0
  O  O63  1  0.39853000  0.87787000  0.42083000  1.0
  O  O64  1  0.23097000  0.53440000  0.66119000  1.0
  O  O65  1  0.26903000  0.46560000  0.16119000  1.0
  O  O66  1  0.76903000  0.03440000  0.83881000  1.0
  O  O67  1  0.73097000  0.96560000  0.33881000  1.0
  O  O68  1  0.45247000  0.73125000  0.71301000  1.0
  O  O69  1  0.04753000  0.26875000  0.21301000  1.0
  O  O70  1  0.54753000  0.23125000  0.78699000  1.0
  O  O71  1  0.95247000  0.76875000  0.28699000  1.0
  O  O72  1  0.92938000  0.85848000  0.69976000  1.0
  O  O73  1  0.57062000  0.14152000  0.19976000  1.0
  O  O74  1  0.07062000  0.35848000  0.80024000  1.0
  O  O75  1  0.42938000  0.64152000  0.30024000  1.0
  O  O76  1  0.43616000  0.98747000  0.69768000  1.0
  O  O77  1  0.06383000  0.01253000  0.19768000  1.0
  O  O78  1  0.56383000  0.48747000  0.80232000  1.0
  O  O79  1  0.93617000  0.51253000  0.30232000  1.0
  O  O80  1  0.95160000  0.04226000  0.51987000  1.0
  O  O81  1  0.54841000  0.95774000  0.01987000  1.0
  O  O82  1  0.04840000  0.54226000  0.98013000  1.0
  O  O83  1  0.45160000  0.45774000  0.48013000  1.0
  O  O84  1  0.49467000  0.17273000  0.53853000  1.0
  O  O85  1  0.00533000  0.82727000  0.03853000  1.0
  O  O86  1  0.50534000  0.67273000  0.96147000  1.0
  O  O87  1  0.99467000  0.32727000  0.46147000  1.0
  O  O88  1  0.21268000  0.26041000  0.63479000  1.0
  O  O89  1  0.28732000  0.73959000  0.13479000  1.0
  O  O90  1  0.78732000  0.76041000  0.86521000  1.0
  O  O91  1  0.71268000  0.23959000  0.36521000  1.0
