# generated using pymatgen
data_ZnH16C17N6ClO2
_symmetry_space_group_name_H-M   'P 1'
_cell_length_a   8.87199000
_cell_length_b   8.92303000
_cell_length_c   11.73300000
_cell_angle_alpha   106.63600000
_cell_angle_beta   99.87650000
_cell_angle_gamma   91.94610000
_symmetry_Int_Tables_number   1
_chemical_formula_structural   ZnH16C17N6ClO2
_chemical_formula_sum   'Zn2 H32 C34 N12 Cl2 O4'
_cell_volume   873.37380394
_cell_formula_units_Z   2
loop_
 _symmetry_equiv_pos_site_id
 _symmetry_equiv_pos_as_xyz
  1  'x, y, z'
loop_
 _atom_site_type_symbol
 _atom_site_label
 _atom_site_symmetry_multiplicity
 _atom_site_fract_x
 _atom_site_fract_y
 _atom_site_fract_z
 _atom_site_occupancy
  Zn  Zn0  1  0.33469000  0.96309000  0.73061000  1.0
  Zn  Zn1  1  0.66530000  0.03691000  0.26939000  1.0
  H  H2  1  0.49581000  0.46909000  0.78803000  1.0
  H  H3  1  0.50419000  0.53091000  0.21197000  1.0
  H  H4  1  0.30041000  0.45358000  0.71967000  1.0
  H  H5  1  0.69959000  0.54642000  0.28033000  1.0
  H  H6  1  0.69551000  0.41954000  0.64330000  1.0
  H  H7  1  0.30449000  0.58046000  0.35670000  1.0
  H  H8  1  0.23005000  0.51004000  0.53024000  1.0
  H  H9  1  0.76995000  0.48996000  0.46976000  1.0
  H  H10  1  0.30493000  0.91691000  0.43925000  1.0
  H  H11  1  0.69507000  0.08309000  0.56075000  1.0
  H  H12  1  0.99393000  0.77248000  0.62963000  1.0
  H  H13  1  0.00607000  0.22752000  0.37037000  1.0
  H  H14  1  0.05240000  0.91704000  0.24708000  1.0
  H  H15  1  0.94760000  0.08297000  0.75292000  1.0
  H  H16  1  0.90336000  0.77096000  0.23330000  1.0
  H  H17  1  0.09664000  0.22904000  0.76670000  1.0
  H  H18  1  0.23662000  0.85091000  0.12316000  1.0
  H  H19  1  0.76339000  0.14910000  0.87685000  1.0
  H  H20  1  0.36340000  0.65328000  0.98529000  1.0
  H  H21  1  0.63660000  0.34672000  0.01471000  1.0
  H  H22  1  0.31275000  0.36895000  0.96154000  1.0
  H  H23  1  0.68725000  0.63105000  0.03846000  1.0
  H  H24  1  0.00278000  0.48173000  0.21358000  1.0
  H  H25  1  0.99722000  0.51827000  0.78641000  1.0
  H  H26  1  0.01813000  0.20896000  0.09901000  1.0
  H  H27  1  0.98187000  0.79104000  0.90099000  1.0
  H  H28  1  0.13838000  0.16075000  0.98839000  1.0
  H  H29  1  0.86162000  0.83924000  0.01161000  1.0
  H  H30  1  0.43231000  0.13626000  0.06793000  1.0
  H  H31  1  0.56770000  0.86374000  0.93207000  1.0
  H  H32  1  0.38015000  0.14434000  0.41988000  1.0
  H  H33  1  0.61985000  0.85566000  0.58012000  1.0
  C  C34  1  0.40487000  0.23752000  0.68896000  1.0
  C  C35  1  0.59513000  0.76248000  0.31104000  1.0
  C  C36  1  0.41278000  0.41362000  0.70345000  1.0
  C  C37  1  0.58722000  0.58638000  0.29655000  1.0
  C  C38  1  0.45767000  0.45959000  0.59940000  1.0
  C  C39  1  0.54233000  0.54041000  0.40060000  1.0
  C  C40  1  0.60895000  0.45358000  0.57973000  1.0
  C  C41  1  0.39105000  0.54642000  0.42027000  1.0
  C  C42  1  0.34921000  0.50682000  0.51793000  1.0
  C  C43  1  0.65079000  0.49318000  0.48207000  1.0
  C  C44  1  0.20243000  0.87316000  0.46265000  1.0
  C  C45  1  0.79757000  0.12684000  0.53735000  1.0
  C  C46  1  0.04377000  0.79455000  0.55693000  1.0
  C  C47  1  0.95623000  0.20544000  0.44307000  1.0
  C  C48  1  0.02839000  0.80016000  0.25667000  1.0
  C  C49  1  0.97161000  0.19984000  0.74333000  1.0
  C  C50  1  0.11193000  0.68000000  0.17798000  1.0
  C  C51  1  0.88808000  0.32001000  0.82202000  1.0
  C  C52  1  0.21492000  0.72682000  0.11443000  1.0
  C  C53  1  0.78508000  0.27318000  0.88557000  1.0
  C  C54  1  0.28732000  0.61528000  0.03724000  1.0
  C  C55  1  0.71269000  0.38472000  0.96276000  1.0
  C  C56  1  0.25908000  0.45621000  0.02457000  1.0
  C  C57  1  0.74092000  0.54379000  0.97543000  1.0
  C  C58  1  0.15786000  0.40803000  0.08962000  1.0
  C  C59  1  0.84214000  0.59197000  0.91038000  1.0
  C  C60  1  0.08397000  0.51992000  0.16511000  1.0
  C  C61  1  0.91603000  0.48007000  0.83489000  1.0
  C  C62  1  0.13028000  0.23639000  0.07884000  1.0
  C  C63  1  0.86972000  0.76362000  0.92116000  1.0
  C  C64  1  0.38669000  0.14796000  0.14967000  1.0
  C  C65  1  0.61331000  0.85204000  0.85033000  1.0
  C  C66  1  0.35446000  0.14976000  0.32705000  1.0
  C  C67  1  0.64554000  0.85024000  0.67295000  1.0
  N  N68  1  0.18850000  0.86513000  0.57262000  1.0
  N  N69  1  0.81150000  0.13487000  0.42738000  1.0
  N  N70  1  0.96790000  0.76038000  0.44375000  1.0
  N  N71  1  0.03210000  0.23961000  0.55625000  1.0
  N  N72  1  0.07037000  0.81190000  0.38553000  1.0
  N  N73  1  0.92963000  0.18810000  0.61447000  1.0
  N  N74  1  0.24574000  0.18878000  0.16407000  1.0
  N  N75  1  0.75425000  0.81122000  0.83593000  1.0
  N  N76  1  0.22302000  0.19111000  0.27660000  1.0
  N  N77  1  0.77698000  0.80889000  0.72340000  1.0
  N  N78  1  0.45816000  0.12127000  0.25126000  1.0
  N  N79  1  0.54184000  0.87873000  0.74874000  1.0
  Cl  Cl80  1  0.23024000  0.89387000  0.87329000  1.0
  Cl  Cl81  1  0.76976000  0.10613000  0.12671000  1.0
  O  O82  1  0.34792000  0.19650000  0.77195000  1.0
  O  O83  1  0.65208000  0.80350000  0.22805000  1.0
  O  O84  1  0.45126000  0.14093000  0.60454000  1.0
  O  O85  1  0.54874000  0.85907000  0.39546000  1.0
