# generated using pymatgen
data_ZnH30C28(NO)4
_symmetry_space_group_name_H-M   'P 1'
_cell_length_a   11.20980000
_cell_length_b   15.11130000
_cell_length_c   16.22480000
_cell_angle_alpha   90.00000000
_cell_angle_beta   90.00010000
_cell_angle_gamma   94.43020000
_symmetry_Int_Tables_number   1
_chemical_formula_structural   ZnH30C28(NO)4
_chemical_formula_sum   'Zn4 H120 C112 N16 O16'
_cell_volume   2740.18261061
_cell_formula_units_Z   4
loop_
 _symmetry_equiv_pos_site_id
 _symmetry_equiv_pos_as_xyz
  1  'x, y, z'
loop_
 _atom_site_type_symbol
 _atom_site_label
 _atom_site_symmetry_multiplicity
 _atom_site_fract_x
 _atom_site_fract_y
 _atom_site_fract_z
 _atom_site_occupancy
  Zn  Zn0  1  0.64945000  0.43326000  0.53468000  1.0
  Zn  Zn1  1  0.35055000  0.06673000  0.03468000  1.0
  Zn  Zn2  1  0.35055000  0.56674000  0.46532000  1.0
  Zn  Zn3  1  0.64945000  0.93326000  0.96532000  1.0
  H  H4  1  0.80492000  0.49383000  0.69047000  1.0
  H  H5  1  0.19507000  0.00617000  0.19047000  1.0
  H  H6  1  0.19508000  0.50618000  0.30953000  1.0
  H  H7  1  0.80492000  0.99383000  0.80953000  1.0
  H  H8  1  0.72235000  0.46876000  0.85102000  1.0
  H  H9  1  0.27765000  0.03124000  0.35102000  1.0
  H  H10  1  0.27765000  0.53124000  0.14898000  1.0
  H  H11  1  0.72234000  0.96876000  0.64898000  1.0
  H  H12  1  0.34833000  0.41799000  0.68393000  1.0
  H  H13  1  0.65167000  0.08201000  0.18393000  1.0
  H  H14  1  0.65167000  0.58201000  0.31607000  1.0
  H  H15  1  0.34833000  0.91799000  0.81607000  1.0
  H  H16  1  0.38647000  0.30737000  0.70398000  1.0
  H  H17  1  0.61353000  0.19263000  0.20398000  1.0
  H  H18  1  0.61354000  0.69263000  0.29602000  1.0
  H  H19  1  0.38646000  0.80737000  0.79602000  1.0
  H  H20  1  0.42072000  0.35976000  0.60749000  1.0
  H  H21  1  0.57928000  0.14024000  0.10749000  1.0
  H  H22  1  0.57928000  0.64024000  0.39251000  1.0
  H  H23  1  0.42072000  0.85976000  0.89251000  1.0
  H  H24  1  0.50820000  0.31855000  0.87216000  1.0
  H  H25  1  0.49180000  0.18145000  0.37216000  1.0
  H  H26  1  0.49180000  0.68145000  0.12784000  1.0
  H  H27  1  0.50820000  0.81855000  0.62784000  1.0
  H  H28  1  0.39470000  0.38081000  0.83301000  1.0
  H  H29  1  0.60529000  0.11919000  0.33301000  1.0
  H  H30  1  0.60530000  0.61919000  0.16699000  1.0
  H  H31  1  0.39470000  0.88081000  0.66699000  1.0
  H  H32  1  0.75084000  0.38152000  0.00829000  1.0
  H  H33  1  0.24917000  0.11849000  0.50829000  1.0
  H  H34  1  0.24916000  0.61848000  0.99171000  1.0
  H  H35  1  0.75083000  0.88152000  0.49172000  1.0
  H  H36  1  0.66853000  0.33041000  0.92667000  1.0
  H  H37  1  0.33147000  0.16960000  0.42667000  1.0
  H  H38  1  0.33147000  0.66959000  0.07333000  1.0
  H  H39  1  0.66853000  0.83040000  0.57333000  1.0
  H  H40  1  0.63573000  0.29956000  0.02906000  1.0
  H  H41  1  0.36428000  0.20044000  0.52907000  1.0
  H  H42  1  0.36427000  0.70044000  0.97094000  1.0
  H  H43  1  0.63573000  0.79956000  0.47094000  1.0
  H  H44  1  0.25925000  0.49808000  0.86365000  1.0
  H  H45  1  0.74075000  0.00192000  0.36365000  1.0
  H  H46  1  0.74075000  0.50192000  0.13635000  1.0
  H  H47  1  0.25925000  0.99808000  0.63635000  1.0
  H  H48  1  0.38727000  0.52656000  0.80194000  1.0
  H  H49  1  0.61272000  0.97344000  0.30194000  1.0
  H  H50  1  0.61273000  0.47344000  0.19806000  1.0
  H  H51  1  0.38727000  0.02656000  0.69806000  1.0
  H  H52  1  0.32437000  0.60810000  0.86184000  1.0
  H  H53  1  0.67563000  0.89190000  0.36184000  1.0
  H  H54  1  0.67563000  0.39190000  0.13816000  1.0
  H  H55  1  0.32436000  0.10810000  0.63816000  1.0
  H  H56  1  0.58529000  0.22501000  0.50657000  1.0
  H  H57  1  0.41471000  0.27499000  0.00658000  1.0
  H  H58  1  0.41471000  0.77499000  0.49342000  1.0
  H  H59  1  0.58528000  0.72501000  0.99342000  1.0
  H  H60  1  0.75999000  0.10407000  0.50312000  1.0
  H  H61  1  0.24001000  0.39593000  0.00313000  1.0
  H  H62  1  0.24001000  0.89593000  0.49687000  1.0
  H  H63  1  0.75999000  0.60407000  0.99687000  1.0
  H  H64  1  0.90627000  0.44748000  0.54547000  1.0
  H  H65  1  0.09374000  0.05252000  0.04547000  1.0
  H  H66  1  0.09374000  0.55252000  0.45453000  1.0
  H  H67  1  0.90626000  0.94748000  0.95453000  1.0
  H  H68  1  0.00860000  0.39141000  0.48534000  1.0
  H  H69  1  0.99141000  0.10859000  0.98534000  1.0
  H  H70  1  0.99140000  0.60859000  0.51466000  1.0
  H  H71  1  0.00859000  0.89141000  0.01466000  1.0
  H  H72  1  0.00687000  0.37469000  0.59215000  1.0
  H  H73  1  0.99313000  0.12531000  0.09215000  1.0
  H  H74  1  0.99313000  0.62531000  0.40785000  1.0
  H  H75  1  0.00687000  0.87469000  0.90785000  1.0
  H  H76  1  0.03906000  0.21077000  0.57950000  1.0
  H  H77  1  0.96094000  0.28923000  0.07950000  1.0
  H  H78  1  0.96094000  0.78923000  0.42050000  1.0
  H  H79  1  0.03906000  0.71077000  0.92050000  1.0
  H  H80  1  0.04993000  0.22469000  0.47357000  1.0
  H  H81  1  0.95007000  0.27532000  0.97357000  1.0
  H  H82  1  0.95007000  0.77531000  0.52643000  1.0
  H  H83  1  0.04993000  0.72468000  0.02643000  1.0
  H  H84  1  0.06704000  0.12655000  0.32389000  1.0
  H  H85  1  0.93296000  0.37345000  0.82389000  1.0
  H  H86  1  0.93296000  0.87345000  0.67611000  1.0
  H  H87  1  0.06704000  0.62655000  0.17611000  1.0
  H  H88  1  0.94620000  0.17700000  0.37027000  1.0
  H  H89  1  0.05379000  0.32300000  0.87027000  1.0
  H  H90  1  0.05379000  0.82300000  0.62972000  1.0
  H  H91  1  0.94621000  0.67700000  0.12973000  1.0
  H  H92  1  0.91838000  0.08082000  0.30972000  1.0
  H  H93  1  0.08161000  0.41917000  0.80972000  1.0
  H  H94  1  0.08161000  0.91918000  0.69028000  1.0
  H  H95  1  0.91839000  0.58082000  0.19028000  1.0
  H  H96  1  0.07117000  0.87358000  0.33202000  1.0
  H  H97  1  0.92883000  0.62642000  0.83202000  1.0
  H  H98  1  0.92883000  0.12642000  0.66798000  1.0
  H  H99  1  0.07118000  0.37359000  0.16798000  1.0
  H  H100  1  0.03122000  0.97354000  0.28836000  1.0
  H  H101  1  0.96878000  0.52646000  0.78835000  1.0
  H  H102  1  0.96878000  0.02646000  0.71165000  1.0
  H  H103  1  0.03122000  0.47354000  0.21165000  1.0
  H  H104  1  0.91823000  0.89091000  0.31597000  1.0
  H  H105  1  0.08177000  0.60909000  0.81597000  1.0
  H  H106  1  0.08177000  0.10909000  0.68403000  1.0
  H  H107  1  0.91824000  0.39091000  0.18403000  1.0
  H  H108  1  0.49678000  0.32397000  0.25273000  1.0
  H  H109  1  0.50322000  0.17603000  0.75273000  1.0
  H  H110  1  0.50322000  0.67603000  0.74727000  1.0
  H  H111  1  0.49678000  0.82397000  0.24727000  1.0
  H  H112  1  0.32092000  0.25706000  0.17240000  1.0
  H  H113  1  0.67908000  0.24294000  0.67240000  1.0
  H  H114  1  0.67908000  0.74294000  0.82761000  1.0
  H  H115  1  0.32092000  0.75706000  0.32760000  1.0
  H  H116  1  0.11772000  0.25228000  0.23583000  1.0
  H  H117  1  0.88228000  0.24773000  0.73583000  1.0
  H  H118  1  0.88228000  0.74772000  0.76418000  1.0
  H  H119  1  0.11772000  0.75228000  0.26417000  1.0
  H  H120  1  0.09161000  0.31383000  0.37513000  1.0
  H  H121  1  0.90839000  0.18618000  0.87513000  1.0
  H  H122  1  0.90839000  0.68617000  0.62487000  1.0
  H  H123  1  0.09161000  0.81383000  0.12487000  1.0
  C  C124  1  0.71985000  0.46469000  0.71290000  1.0
  C  C125  1  0.28015000  0.03531000  0.21290000  1.0
  C  C126  1  0.28016000  0.53531000  0.28710000  1.0
  C  C127  1  0.71985000  0.96469000  0.78710000  1.0
  C  C128  1  0.68035000  0.45323000  0.79223000  1.0
  C  C129  1  0.31964000  0.04677000  0.29223000  1.0
  C  C130  1  0.31965000  0.54677000  0.20777000  1.0
  C  C131  1  0.68035000  0.95323000  0.70777000  1.0
  C  C132  1  0.53477000  0.40622000  0.70530000  1.0
  C  C133  1  0.46522000  0.09378000  0.20530000  1.0
  C  C134  1  0.46523000  0.59378000  0.29471000  1.0
  C  C135  1  0.53477000  0.90622000  0.79470000  1.0
  C  C136  1  0.41658000  0.37043000  0.67409000  1.0
  C  C137  1  0.58342000  0.12957000  0.17409000  1.0
  C  C138  1  0.58342000  0.62956000  0.32591000  1.0
  C  C139  1  0.41658000  0.87043000  0.82591000  1.0
  C  C140  1  0.48695000  0.38605000  0.85577000  1.0
  C  C141  1  0.51305000  0.11395000  0.35577000  1.0
  C  C142  1  0.51305000  0.61395000  0.14423000  1.0
  C  C143  1  0.48695000  0.88605000  0.64423000  1.0
  C  C144  1  0.49769000  0.44687000  0.92964000  1.0
  C  C145  1  0.50231000  0.05313000  0.42964000  1.0
  C  C146  1  0.50231000  0.55313000  0.07036000  1.0
  C  C147  1  0.49768000  0.94687000  0.57036000  1.0
  C  C148  1  0.57552000  0.42906000  0.99478000  1.0
  C  C149  1  0.42447000  0.07094000  0.49479000  1.0
  C  C150  1  0.42448000  0.57094000  0.00522000  1.0
  C  C151  1  0.57552000  0.92906000  0.50522000  1.0
  C  C152  1  0.66042000  0.35675000  0.98902000  1.0
  C  C153  1  0.33958000  0.14326000  0.48902000  1.0
  C  C154  1  0.33958000  0.64325000  0.01098000  1.0
  C  C155  1  0.66042000  0.85674000  0.51098000  1.0
  C  C156  1  0.42430000  0.51831000  0.93347000  1.0
  C  C157  1  0.57570000  0.98169000  0.43347000  1.0
  C  C158  1  0.57570000  0.48169000  0.06653000  1.0
  C  C159  1  0.42429000  0.01831000  0.56653000  1.0
  C  C160  1  0.34543000  0.53851000  0.86158000  1.0
  C  C161  1  0.65457000  0.96149000  0.36158000  1.0
  C  C162  1  0.65458000  0.46149000  0.13842000  1.0
  C  C163  1  0.34542000  0.03851000  0.63842000  1.0
  C  C164  1  0.68157000  0.23602000  0.51159000  1.0
  C  C165  1  0.31843000  0.26398000  0.01160000  1.0
  C  C166  1  0.31843000  0.76398000  0.48840000  1.0
  C  C167  1  0.68157000  0.73602000  0.98840000  1.0
  C  C168  1  0.76671000  0.17552000  0.50995000  1.0
  C  C169  1  0.23330000  0.32448000  0.00995000  1.0
  C  C170  1  0.23329000  0.82448000  0.49005000  1.0
  C  C171  1  0.76670000  0.67552000  0.99005000  1.0
  C  C172  1  0.85474000  0.31155000  0.52804000  1.0
  C  C173  1  0.14526000  0.18845000  0.02804000  1.0
  C  C174  1  0.14526000  0.68845000  0.47196000  1.0
  C  C175  1  0.85474000  0.81155000  0.97196000  1.0
  C  C176  1  0.94876000  0.38495000  0.53899000  1.0
  C  C177  1  0.05124000  0.11505000  0.03899000  1.0
  C  C178  1  0.05124000  0.61505000  0.46102000  1.0
  C  C179  1  0.94876000  0.88495000  0.96101000  1.0
  C  C180  1  0.99527000  0.19025000  0.52146000  1.0
  C  C181  1  0.00473000  0.30975000  0.02146000  1.0
  C  C182  1  0.00473000  0.80975000  0.47854000  1.0
  C  C183  1  0.99527000  0.69025000  0.97854000  1.0
  C  C184  1  0.99353000  0.09121000  0.51001000  1.0
  C  C185  1  0.00648000  0.40879000  0.01001000  1.0
  C  C186  1  0.00647000  0.90879000  0.48999000  1.0
  C  C187  1  0.99353000  0.59121000  0.98999000  1.0
  C  C188  1  0.99181000  0.05514000  0.42990000  1.0
  C  C189  1  0.00819000  0.44486000  0.92990000  1.0
  C  C190  1  0.00819000  0.94486000  0.57010000  1.0
  C  C191  1  0.99181000  0.55514000  0.07010000  1.0
  C  C192  1  0.98026000  0.11307000  0.35498000  1.0
  C  C193  1  0.01974000  0.38693000  0.85498000  1.0
  C  C194  1  0.01973000  0.88693000  0.64502000  1.0
  C  C195  1  0.98027000  0.61307000  0.14502000  1.0
  C  C196  1  0.00052000  0.96331000  0.41990000  1.0
  C  C197  1  0.99948000  0.53669000  0.91990000  1.0
  C  C198  1  0.99947000  0.03670000  0.58010000  1.0
  C  C199  1  0.00053000  0.46330000  0.08010000  1.0
  C  C200  1  0.00529000  0.92341000  0.33496000  1.0
  C  C201  1  0.99471000  0.57659000  0.83496000  1.0
  C  C202  1  0.99471000  0.07659000  0.66504000  1.0
  C  C203  1  0.00530000  0.42341000  0.16504000  1.0
  C  C204  1  0.50624000  0.38744000  0.40241000  1.0
  C  C205  1  0.49376000  0.11256000  0.90241000  1.0
  C  C206  1  0.49376000  0.61256000  0.59759000  1.0
  C  C207  1  0.50624000  0.88743000  0.09759000  1.0
  C  C208  1  0.39404000  0.35210000  0.35897000  1.0
  C  C209  1  0.60596000  0.14791000  0.85897000  1.0
  C  C210  1  0.60596000  0.64790000  0.64103000  1.0
  C  C211  1  0.39404000  0.85209000  0.14103000  1.0
  C  C212  1  0.40680000  0.31978000  0.27863000  1.0
  C  C213  1  0.59320000  0.18022000  0.77863000  1.0
  C  C214  1  0.59320000  0.68022000  0.72137000  1.0
  C  C215  1  0.40680000  0.81977000  0.22137000  1.0
  C  C216  1  0.30911000  0.28331000  0.23405000  1.0
  C  C217  1  0.69089000  0.21669000  0.73405000  1.0
  C  C218  1  0.69090000  0.71669000  0.76595000  1.0
  C  C219  1  0.30911000  0.78331000  0.26594000  1.0
  C  C220  1  0.19548000  0.28092000  0.26962000  1.0
  C  C221  1  0.80451000  0.21908000  0.76962000  1.0
  C  C222  1  0.80451000  0.71908000  0.73039000  1.0
  C  C223  1  0.19549000  0.78092000  0.23038000  1.0
  C  C224  1  0.18117000  0.31474000  0.34857000  1.0
  C  C225  1  0.81883000  0.18526000  0.84857000  1.0
  C  C226  1  0.81884000  0.68526000  0.65143000  1.0
  C  C227  1  0.18117000  0.81474000  0.15143000  1.0
  C  C228  1  0.27949000  0.34959000  0.39507000  1.0
  C  C229  1  0.72051000  0.15041000  0.89507000  1.0
  C  C230  1  0.72051000  0.65041000  0.60493000  1.0
  C  C231  1  0.27949000  0.84958000  0.10492000  1.0
  C  C232  1  0.25144000  0.37958000  0.48183000  1.0
  C  C233  1  0.74856000  0.12042000  0.98183000  1.0
  C  C234  1  0.74856000  0.62042000  0.51817000  1.0
  C  C235  1  0.25144000  0.87958000  0.01817000  1.0
  N  N236  1  0.62901000  0.43571000  0.65948000  1.0
  N  N237  1  0.37099000  0.06429000  0.15948000  1.0
  N  N238  1  0.37100000  0.56429000  0.34052000  1.0
  N  N239  1  0.62900000  0.93571000  0.84052000  1.0
  N  N240  1  0.56369000  0.41649000  0.78657000  1.0
  N  N241  1  0.43631000  0.08351000  0.28657000  1.0
  N  N242  1  0.43631000  0.58351000  0.21344000  1.0
  N  N243  1  0.56369000  0.91649000  0.71343000  1.0
  N  N244  1  0.73713000  0.31992000  0.52278000  1.0
  N  N245  1  0.26288000  0.18008000  0.02278000  1.0
  N  N246  1  0.26287000  0.68008000  0.47722000  1.0
  N  N247  1  0.73712000  0.81992000  0.97722000  1.0
  N  N248  1  0.87556000  0.22404000  0.52031000  1.0
  N  N249  1  0.12445000  0.27596000  0.02031000  1.0
  N  N250  1  0.12445000  0.77596000  0.47969000  1.0
  N  N251  1  0.87555000  0.72404000  0.97969000  1.0
  O  O252  1  0.49443000  0.40032000  0.48160000  1.0
  O  O253  1  0.50557000  0.09968000  0.98160000  1.0
  O  O254  1  0.50557000  0.59969000  0.51840000  1.0
  O  O255  1  0.49444000  0.90031000  0.01840000  1.0
  O  O256  1  0.60179000  0.40114000  0.36357000  1.0
  O  O257  1  0.39821000  0.09886000  0.86357000  1.0
  O  O258  1  0.39821000  0.59886000  0.63643000  1.0
  O  O259  1  0.60179000  0.90113000  0.13643000  1.0
  O  O260  1  0.22283000  0.32069000  0.53329000  1.0
  O  O261  1  0.77717000  0.17931000  0.03329000  1.0
  O  O262  1  0.77716000  0.67931000  0.46671000  1.0
  O  O263  1  0.22284000  0.82069000  0.96670000  1.0
  O  O264  1  0.24395000  0.46373000  0.49509000  1.0
  O  O265  1  0.75605000  0.03627000  0.99509000  1.0
  O  O266  1  0.75605000  0.53627000  0.50491000  1.0
  O  O267  1  0.24395000  0.96372000  0.00491000  1.0
