# generated using pymatgen
data_MnH30C26N2(ClO)2
_symmetry_space_group_name_H-M   'P 1'
_cell_length_a   9.62337000
_cell_length_b   9.96213000
_cell_length_c   13.21630000
_cell_angle_alpha   80.70750000
_cell_angle_beta   89.99950000
_cell_angle_gamma   89.99990000
_symmetry_Int_Tables_number   1
_chemical_formula_structural   MnH30C26N2(ClO)2
_chemical_formula_sum   'Mn2 H60 C52 N4 Cl4 O4'
_cell_volume   1250.40943943
_cell_formula_units_Z   2
loop_
 _symmetry_equiv_pos_site_id
 _symmetry_equiv_pos_as_xyz
  1  'x, y, z'
loop_
 _atom_site_type_symbol
 _atom_site_label
 _atom_site_symmetry_multiplicity
 _atom_site_fract_x
 _atom_site_fract_y
 _atom_site_fract_z
 _atom_site_occupancy
  Mn  Mn0  1  0.34608000  0.51796000  0.26073000  1.0
  Mn  Mn1  1  0.84608000  0.48204000  0.73927000  1.0
  H  H2  1  0.09219000  0.08537000  0.11373000  1.0
  H  H3  1  0.59219000  0.91462000  0.88627000  1.0
  H  H4  1  0.25870000  0.90404000  0.08673000  1.0
  H  H5  1  0.75870000  0.09596000  0.91327000  1.0
  H  H6  1  0.50897000  0.95619000  0.06292000  1.0
  H  H7  1  0.00897000  0.04381000  0.93708000  1.0
  H  H8  1  0.59449000  0.19233000  0.06392000  1.0
  H  H9  1  0.09449000  0.80767000  0.93607000  1.0
  H  H10  1  0.42914000  0.37377000  0.09379000  1.0
  H  H11  1  0.92914000  0.62623000  0.90622000  1.0
  H  H12  1  0.97524000  0.27200000  0.05912000  1.0
  H  H13  1  0.47524000  0.72800000  0.94088000  1.0
  H  H14  1  0.71091000  0.35976000  0.14995000  1.0
  H  H15  1  0.21090000  0.64024000  0.85005000  1.0
  H  H16  1  0.76454000  0.38941000  0.01924000  1.0
  H  H17  1  0.26453000  0.61059000  0.98076000  1.0
  H  H18  1  0.70803000  0.52715000  0.08054000  1.0
  H  H19  1  0.20803000  0.47286000  0.91946000  1.0
  H  H20  1  0.77055000  0.66453000  0.16965000  1.0
  H  H21  1  0.27054000  0.33547000  0.83035000  1.0
  H  H22  1  0.97098000  0.81687000  0.11969000  1.0
  H  H23  1  0.47098000  0.18313000  0.88031000  1.0
  H  H24  1  0.05323000  0.75997000  0.23926000  1.0
  H  H25  1  0.55322000  0.24003000  0.76073000  1.0
  H  H26  1  0.93904000  0.98268000  0.24231000  1.0
  H  H27  1  0.43904000  0.01732000  0.75769000  1.0
  H  H28  1  0.77779000  0.91737000  0.20761000  1.0
  H  H29  1  0.27779000  0.08263000  0.79239000  1.0
  H  H30  1  0.78727000  0.91438000  0.39776000  1.0
  H  H31  1  0.28727000  0.08563000  0.60224000  1.0
  H  H32  1  0.94084000  0.81742000  0.40573000  1.0
  H  H33  1  0.44084000  0.18258000  0.59427000  1.0
  H  H34  1  0.73545000  0.66666667  0.45435000  1.0
  H  H35  1  0.23545000  0.33341000  0.54565000  1.0
  H  H36  1  0.65674000  0.72712000  0.33411000  1.0
  H  H37  1  0.15674000  0.27288000  0.66589000  1.0
  H  H38  1  0.93184000  0.57078000  0.36792000  1.0
  H  H39  1  0.43184000  0.42921000  0.63208000  1.0
  H  H40  1  0.71813000  0.13908000  0.39554000  1.0
  H  H41  1  0.21813000  0.86092000  0.60446000  1.0
  H  H42  1  0.00120000  0.33011000  0.33854000  1.0
  H  H43  1  0.50120000  0.66989000  0.66146000  1.0
  H  H44  1  0.93108000  0.20421000  0.43707000  1.0
  H  H45  1  0.43109000  0.79579000  0.56293000  1.0
  H  H46  1  0.95972000  0.37303000  0.45982000  1.0
  H  H47  1  0.45973000  0.62698000  0.54017000  1.0
  H  H48  1  0.17956000  0.84619000  0.38943000  1.0
  H  H49  1  0.67956000  0.15381000  0.61057000  1.0
  H  H50  1  0.10158000  0.07768000  0.41472000  1.0
  H  H51  1  0.60158000  0.92232000  0.58528000  1.0
  H  H52  1  0.42137000  0.81008000  0.33783000  1.0
  H  H53  1  0.92137000  0.18992000  0.66217000  1.0
  H  H54  1  0.59084000  0.00027000  0.31870000  1.0
  H  H55  1  0.09084000  0.99973000  0.68130000  1.0
  H  H56  1  0.26928000  0.27058000  0.39099000  1.0
  H  H57  1  0.76928000  0.72942000  0.60901000  1.0
  H  H58  1  0.05682000  0.54528000  0.18872000  1.0
  H  H59  1  0.55682000  0.45472000  0.81128000  1.0
  H  H60  1  0.64382000  0.48966000  0.31545000  1.0
  H  H61  1  0.14382000  0.51034000  0.68455000  1.0
  C  C62  1  0.20185000  0.10980000  0.10086000  1.0
  C  C63  1  0.70185000  0.89019000  0.89914000  1.0
  C  C64  1  0.29496000  0.00798000  0.08545000  1.0
  C  C65  1  0.79496000  0.99202000  0.91455000  1.0
  C  C66  1  0.43645000  0.03724000  0.07250000  1.0
  C  C67  1  0.93644000  0.96275000  0.92750000  1.0
  C  C68  1  0.48421000  0.16920000  0.07459000  1.0
  C  C69  1  0.98421000  0.83080000  0.92541000  1.0
  C  C70  1  0.39176000  0.27100000  0.09127000  1.0
  C  C71  1  0.89176000  0.72900000  0.90873000  1.0
  C  C72  1  0.24931000  0.24230000  0.10496000  1.0
  C  C73  1  0.74931000  0.75770000  0.89504000  1.0
  C  C74  1  0.15364000  0.35065000  0.12707000  1.0
  C  C75  1  0.65363000  0.64935000  0.87293000  1.0
  C  C76  1  0.01205000  0.34889000  0.10230000  1.0
  C  C77  1  0.51204000  0.65111000  0.89770000  1.0
  C  C78  1  0.91346000  0.44580000  0.12336000  1.0
  C  C79  1  0.41346000  0.55420000  0.87663000  1.0
  C  C80  1  0.76587000  0.43118000  0.09114000  1.0
  C  C81  1  0.26586000  0.56883000  0.90886000  1.0
  C  C82  1  0.86896000  0.64813000  0.21228000  1.0
  C  C83  1  0.36896000  0.35187000  0.78772000  1.0
  C  C84  1  0.95156000  0.78142000  0.20147000  1.0
  C  C85  1  0.45155000  0.21858000  0.79853000  1.0
  C  C86  1  0.87541000  0.88981000  0.24982000  1.0
  C  C87  1  0.37540000  0.11018000  0.75018000  1.0
  C  C88  1  0.84303000  0.83752000  0.36247000  1.0
  C  C89  1  0.34303000  0.16248000  0.63753000  1.0
  C  C90  1  0.75740000  0.70692000  0.37360000  1.0
  C  C91  1  0.25739000  0.29308000  0.62640000  1.0
  C  C92  1  0.83352000  0.59632000  0.32684000  1.0
  C  C93  1  0.33352000  0.40368000  0.67316000  1.0
  C  C94  1  0.68271000  0.24192000  0.36799000  1.0
  C  C95  1  0.18271000  0.75808000  0.63201000  1.0
  C  C96  1  0.78175000  0.34666000  0.36673000  1.0
  C  C97  1  0.28176000  0.65334000  0.63327000  1.0
  C  C98  1  0.92669000  0.31146000  0.40230000  1.0
  C  C99  1  0.42669000  0.68855000  0.59770000  1.0
  C  C100  1  0.44212000  0.14756000  0.35604000  1.0
  C  C101  1  0.94213000  0.85244000  0.64396000  1.0
  C  C102  1  0.54097000  0.26296000  0.34565000  1.0
  C  C103  1  0.04098000  0.73704000  0.65435000  1.0
  C  C104  1  0.25184000  0.93153000  0.37946000  1.0
  C  C105  1  0.75184000  0.06847000  0.62054000  1.0
  C  C106  1  0.20873000  0.06120000  0.39320000  1.0
  C  C107  1  0.70873000  0.93880000  0.60680000  1.0
  C  C108  1  0.38948000  0.91006000  0.35253000  1.0
  C  C109  1  0.88948000  0.08994000  0.64747000  1.0
  C  C110  1  0.48433000  0.01689000  0.34179000  1.0
  C  C111  1  0.98433000  0.98311000  0.65821000  1.0
  C  C112  1  0.30254000  0.16913000  0.38021000  1.0
  C  C113  1  0.80254000  0.83087000  0.61979000  1.0
  N  N114  1  0.95221000  0.54745000  0.17156000  1.0
  N  N115  1  0.45221000  0.45255000  0.82844000  1.0
  N  N116  1  0.74694000  0.47597000  0.33520000  1.0
  N  N117  1  0.24694000  0.52403000  0.66480000  1.0
  Cl  Cl118  1  0.48182000  0.68158000  0.16307000  1.0
  Cl  Cl119  1  0.98182000  0.31842000  0.83693000  1.0
  Cl  Cl120  1  0.20950000  0.57015000  0.39224000  1.0
  Cl  Cl121  1  0.70950000  0.42986000  0.60777000  1.0
  O  O122  1  0.20601000  0.44961000  0.16790000  1.0
  O  O123  1  0.70601000  0.55039000  0.83210000  1.0
  O  O124  1  0.49249000  0.38483000  0.31929000  1.0
  O  O125  1  0.99249000  0.61517000  0.68071000  1.0
