# generated using pymatgen
data_Mn2H22C25(N2O5)2
_symmetry_space_group_name_H-M   'P 1'
_cell_length_a   8.74471000
_cell_length_b   12.86242507
_cell_length_c   13.23452053
_cell_angle_alpha   80.72539465
_cell_angle_beta   70.70623565
_cell_angle_gamma   70.12079976
_symmetry_Int_Tables_number   1
_chemical_formula_structural   Mn2H22C25(N2O5)2
_chemical_formula_sum   'Mn4 H44 C50 N8 O20'
_cell_volume   1319.26995735
_cell_formula_units_Z   2
loop_
 _symmetry_equiv_pos_site_id
 _symmetry_equiv_pos_as_xyz
  1  'x, y, z'
loop_
 _atom_site_type_symbol
 _atom_site_label
 _atom_site_symmetry_multiplicity
 _atom_site_fract_x
 _atom_site_fract_y
 _atom_site_fract_z
 _atom_site_occupancy
  Mn  Mn0  1  0.90650000  0.64318000  0.84606000  1.0
  Mn  Mn1  1  0.39584000  0.85698000  0.65375000  1.0
  Mn  Mn2  1  0.09385000  0.35654000  0.15405000  1.0
  Mn  Mn3  1  0.60436000  0.14331000  0.34612000  1.0
  H  H4  1  0.34439000  0.62623000  0.92064000  1.0
  H  H5  1  0.89163000  0.87377000  0.57899000  1.0
  H  H6  1  0.65561000  0.37370000  0.07936000  1.0
  H  H7  1  0.10833000  0.12631000  0.42103000  1.0
  H  H8  1  0.31143000  0.59662000  0.25483000  1.0
  H  H9  1  0.16384000  0.90338000  0.24492000  1.0
  H  H10  1  0.68855000  0.40339000  0.74516000  1.0
  H  H11  1  0.83610000  0.09662000  0.75509000  1.0
  H  H12  1  0.56271000  0.81711000  0.03734000  1.0
  H  H13  1  0.41762000  0.68275000  0.46257000  1.0
  H  H14  1  0.43732000  0.18286000  0.96259000  1.0
  H  H15  1  0.58232000  0.31728000  0.53749000  1.0
  H  H16  1  0.52455000  0.81805000  0.22098000  1.0
  H  H17  1  0.56384000  0.68132000  0.27864000  1.0
  H  H18  1  0.47541000  0.18195000  0.77902000  1.0
  H  H19  1  0.43611000  0.31869000  0.72138000  1.0
  H  H20  1  0.82065000  0.66266000  0.11975000  1.0
  H  H21  1  0.60362000  0.83716000  0.37999000  1.0
  H  H22  1  0.17940000  0.33733000  0.88032000  1.0
  H  H23  1  0.39654000  0.16285000  0.61990000  1.0
  H  H24  1  0.90995000  0.82537000  0.18560000  1.0
  H  H25  1  0.92155000  0.67441000  0.31444000  1.0
  H  H26  1  0.09002000  0.17467000  0.81443000  1.0
  H  H27  1  0.07854000  0.32553000  0.68552000  1.0
  H  H28  1  0.05956000  0.83464000  0.84702000  1.0
  H  H29  1  0.74146000  0.66571000  0.65299000  1.0
  H  H30  1  0.94056000  0.16529000  0.15301000  1.0
  H  H31  1  0.25860000  0.33436000  0.34697000  1.0
  H  H32  1  0.18466000  0.93491000  0.94049000  1.0
  H  H33  1  0.06013000  0.56477000  0.55978000  1.0
  H  H34  1  0.81531000  0.06511000  0.05951000  1.0
  H  H35  1  0.93986000  0.43521000  0.44022000  1.0
  H  H36  1  0.09696000  0.94548000  0.08263000  1.0
  H  H37  1  0.12548000  0.55439000  0.41761000  1.0
  H  H38  1  0.90303000  0.05455000  0.91737000  1.0
  H  H39  1  0.87456000  0.44558000  0.58238000  1.0
  H  H40  1  0.20357000  0.52246000  0.90118000  1.0
  H  H41  1  0.62756000  0.97755000  0.59881000  1.0
  H  H42  1  0.79682000  0.47745000  0.09878000  1.0
  H  H43  1  0.37268000  0.02253000  0.40124000  1.0
  H  H44  1  0.24239000  0.58739000  0.78564000  1.0
  H  H45  1  0.61568000  0.91247000  0.71427000  1.0
  H  H46  1  0.75768000  0.41266000  0.21431000  1.0
  H  H47  1  0.38437000  0.08746000  0.28578000  1.0
  C  C48  1  0.46015000  0.72541000  0.96848000  1.0
  C  C49  1  0.15448000  0.77461000  0.53136000  1.0
  C  C50  1  0.53977000  0.27459000  0.03150000  1.0
  C  C51  1  0.84545000  0.22540000  0.46867000  1.0
  C  C52  1  0.37103000  0.64918000  0.98712000  1.0
  C  C53  1  0.00785000  0.85085000  0.51262000  1.0
  C  C54  1  0.62899000  0.35077000  0.01286000  1.0
  C  C55  1  0.99212000  0.14922000  0.48741000  1.0
  C  C56  1  0.31973000  0.60153000  0.09025000  1.0
  C  C57  1  0.01217000  0.89854000  0.40950000  1.0
  C  C58  1  0.68034000  0.39841000  0.90973000  1.0
  C  C59  1  0.98784000  0.10154000  0.59053000  1.0
  C  C60  1  0.35321000  0.63407000  0.17471000  1.0
  C  C61  1  0.16271000  0.86596000  0.32508000  1.0
  C  C62  1  0.64680000  0.36591000  0.82527000  1.0
  C  C63  1  0.83725000  0.13407000  0.67495000  1.0
  C  C64  1  0.43779000  0.71315000  0.15759000  1.0
  C  C65  1  0.30910000  0.78673000  0.34228000  1.0
  C  C66  1  0.56219000  0.28685000  0.84239000  1.0
  C  C67  1  0.69086000  0.21328000  0.65775000  1.0
  C  C68  1  0.49334000  0.75710000  0.05337000  1.0
  C  C69  1  0.30432000  0.74282000  0.44652000  1.0
  C  C70  1  0.50664000  0.24288000  0.94660000  1.0
  C  C71  1  0.69562000  0.25721000  0.55352000  1.0
  C  C72  1  0.46886000  0.74979000  0.24989000  1.0
  C  C73  1  0.53108000  0.25021000  0.75011000  1.0
  C  C74  1  0.51540000  0.77498000  0.85771000  1.0
  C  C75  1  0.14825000  0.72505000  0.64218000  1.0
  C  C76  1  0.48420000  0.22519000  0.14228000  1.0
  C  C77  1  0.85152000  0.27476000  0.35783000  1.0
  C  C78  1  0.23188000  0.51593000  0.11033000  1.0
  C  C79  1  0.85867000  0.98408000  0.38942000  1.0
  C  C80  1  0.76823000  0.48398000  0.88965000  1.0
  C  C81  1  0.14134000  0.01603000  0.61063000  1.0
  C  C82  1  0.88034000  0.72352000  0.07316000  1.0
  C  C83  1  0.67749000  0.77643000  0.42669000  1.0
  C  C84  1  0.11968000  0.27648000  0.92688000  1.0
  C  C85  1  0.32260000  0.22358000  0.57324000  1.0
  C  C86  1  0.92578000  0.80121000  0.10706000  1.0
  C  C87  1  0.83462000  0.69871000  0.39291000  1.0
  C  C88  1  0.07421000  0.19881000  0.89296000  1.0
  C  C89  1  0.16545000  0.30127000  0.60705000  1.0
  C  C90  1  0.00377000  0.80874000  0.92940000  1.0
  C  C91  1  0.74223000  0.69145000  0.57058000  1.0
  C  C92  1  0.99627000  0.19123000  0.07063000  1.0
  C  C93  1  0.25781000  0.30857000  0.42938000  1.0
  C  C94  1  0.06768000  0.94577000  0.00811000  1.0
  C  C95  1  0.02175000  0.55414000  0.49203000  1.0
  C  C96  1  0.93230000  0.05425000  0.99190000  1.0
  C  C97  1  0.97827000  0.44583000  0.50796000  1.0
  N  N98  1  0.92842000  0.72987000  0.96219000  1.0
  N  N99  1  0.62082000  0.77023000  0.53766000  1.0
  N  N100  1  0.07162000  0.27009000  0.03785000  1.0
  N  N101  1  0.37923000  0.22981000  0.46228000  1.0
  N  N102  1  0.00511000  0.85332000  0.01496000  1.0
  N  N103  1  0.87382000  0.64677000  0.48511000  1.0
  N  N104  1  0.99487000  0.14669000  0.98507000  1.0
  N  N105  1  0.12621000  0.35322000  0.51486000  1.0
  O  O106  1  0.66220000  0.78823000  0.82120000  1.0
  O  O107  1  0.27173000  0.71166000  0.67879000  1.0
  O  O108  1  0.33740000  0.21190000  0.17859000  1.0
  O  O109  1  0.72778000  0.28818000  0.32144000  1.0
  O  O110  1  0.40480000  0.80196000  0.80703000  1.0
  O  O111  1  0.01380000  0.69820000  0.69278000  1.0
  O  O112  1  0.59442000  0.19842000  0.19321000  1.0
  O  O113  1  0.98607000  0.30136000  0.30693000  1.0
  O  O114  1  0.20264000  0.48442000  0.03337000  1.0
  O  O115  1  0.72104000  0.01564000  0.46646000  1.0
  O  O116  1  0.79748000  0.51548000  0.96662000  1.0
  O  O117  1  0.27899000  0.98449000  0.53359000  1.0
  O  O118  1  0.18802000  0.47226000  0.20532000  1.0
  O  O119  1  0.86592000  0.02760000  0.29441000  1.0
  O  O120  1  0.81211000  0.52763000  0.79467000  1.0
  O  O121  1  0.13410000  0.97253000  0.70563000  1.0
  O  O122  1  0.18236000  0.53531000  0.82991000  1.0
  O  O123  1  0.54789000  0.96465000  0.67002000  1.0
  O  O124  1  0.81793000  0.46461000  0.17007000  1.0
  O  O125  1  0.45229000  0.03540000  0.33000000  1.0
