# generated using pymatgen
data_CdH26(C11O4)3
_symmetry_space_group_name_H-M   'P 1'
_cell_length_a   16.23100000
_cell_length_b   16.23140000
_cell_length_c   27.39670000
_cell_angle_alpha   83.89470000
_cell_angle_beta   83.89590000
_cell_angle_gamma   72.86690000
_symmetry_Int_Tables_number   1
_chemical_formula_structural   CdH26(C11O4)3
_chemical_formula_sum   'Cd4 H104 C132 O48'
_cell_volume   6836.89050249
_cell_formula_units_Z   4
loop_
 _symmetry_equiv_pos_site_id
 _symmetry_equiv_pos_as_xyz
  1  'x, y, z'
loop_
 _atom_site_type_symbol
 _atom_site_label
 _atom_site_symmetry_multiplicity
 _atom_site_fract_x
 _atom_site_fract_y
 _atom_site_fract_z
 _atom_site_occupancy
  Cd  Cd0  1  0.34651000  0.92628000  0.18240000  1.0
  Cd  Cd1  1  0.07371000  0.65351000  0.31760000  1.0
  Cd  Cd2  1  0.65349000  0.07372000  0.81760000  1.0
  Cd  Cd3  1  0.92629000  0.34649000  0.68240000  1.0
  H  H4  1  0.32678000  0.67567000  0.09258000  1.0
  H  H5  1  0.32571000  0.61291000  0.01364000  1.0
  H  H6  1  0.39617000  0.82907000  0.93372000  1.0
  H  H7  1  0.39297000  0.89303000  0.01369000  1.0
  H  H8  1  0.25917000  0.63522000  0.94175000  1.0
  H  H9  1  0.36328000  0.56145000  0.92613000  1.0
  H  H10  1  0.36955000  0.64521000  0.79115000  1.0
  H  H11  1  0.41445000  0.67778000  0.84049000  1.0
  H  H12  1  0.51295000  0.65089000  0.77865000  1.0
  H  H13  1  0.65865000  0.60567000  0.74083000  1.0
  H  H14  1  0.68931000  0.34405000  0.80696000  1.0
  H  H15  1  0.54076000  0.39106000  0.84615000  1.0
  H  H16  1  0.26175000  0.77912000  0.86011000  1.0
  H  H17  1  0.22004000  0.73538000  0.81349000  1.0
  H  H18  1  0.12331000  0.86454000  0.81241000  1.0
  H  H19  1  0.97349000  0.95292000  0.79639000  1.0
  H  H20  1  0.87185000  0.80300000  0.91412000  1.0
  H  H21  1  0.02033000  0.71578000  0.93024000  1.0
  H  H22  1  0.30495000  0.50321000  0.85855000  1.0
  H  H23  1  0.19856000  0.57194000  0.87500000  1.0
  H  H24  1  0.18393000  0.62526000  0.71677000  1.0
  H  H25  1  0.09359000  0.55164000  0.67785000  1.0
  H  H26  1  0.10466000  0.37236000  0.80501000  1.0
  H  H27  1  0.19492000  0.44333000  0.84443000  1.0
  H  H28  1  0.77067000  0.55603000  0.72087000  1.0
  H  H29  1  0.77709000  0.84506000  0.87163000  1.0
  H  H30  1  0.32435000  0.67322000  0.40742000  1.0
  H  H31  1  0.38710000  0.67429000  0.48636000  1.0
  H  H32  1  0.17093000  0.60383000  0.56628000  1.0
  H  H33  1  0.10697000  0.60704000  0.48630000  1.0
  H  H34  1  0.36479000  0.74082000  0.55825000  1.0
  H  H35  1  0.43855000  0.63671000  0.57387000  1.0
  H  H36  1  0.35478000  0.63046000  0.70885000  1.0
  H  H37  1  0.32222000  0.58556000  0.65951000  1.0
  H  H38  1  0.34910000  0.48706000  0.72135000  1.0
  H  H39  1  0.39434000  0.34135000  0.75917000  1.0
  H  H40  1  0.65595000  0.31069000  0.69304000  1.0
  H  H41  1  0.60894000  0.45925000  0.65386000  1.0
  H  H42  1  0.22088000  0.73824000  0.63989000  1.0
  H  H43  1  0.26462000  0.77997000  0.68650000  1.0
  H  H44  1  0.13546000  0.87669000  0.68757000  1.0
  H  H45  1  0.04708000  0.02650000  0.70359000  1.0
  H  H46  1  0.19701000  0.12814000  0.58587000  1.0
  H  H47  1  0.28423000  0.97966000  0.56974000  1.0
  H  H48  1  0.49680000  0.69504000  0.64145000  1.0
  H  H49  1  0.42807000  0.80143000  0.62500000  1.0
  H  H50  1  0.37474000  0.81605000  0.78323000  1.0
  H  H51  1  0.44836000  0.90640000  0.82214000  1.0
  H  H52  1  0.62764000  0.89534000  0.69499000  1.0
  H  H53  1  0.55668000  0.80507000  0.65557000  1.0
  H  H54  1  0.44397000  0.22933000  0.77912000  1.0
  H  H55  1  0.15494000  0.22291000  0.62837000  1.0
  H  H56  1  0.67322000  0.32435000  0.90742000  1.0
  H  H57  1  0.67429000  0.38710000  0.98636000  1.0
  H  H58  1  0.60383000  0.17093000  0.06627000  1.0
  H  H59  1  0.60703000  0.10698000  0.98630000  1.0
  H  H60  1  0.74083000  0.36478000  0.05825000  1.0
  H  H61  1  0.63672000  0.43854000  0.07387000  1.0
  H  H62  1  0.63045000  0.35479000  0.20884000  1.0
  H  H63  1  0.58555000  0.32222000  0.15951000  1.0
  H  H64  1  0.48706000  0.34910000  0.22135000  1.0
  H  H65  1  0.34136000  0.39433000  0.25918000  1.0
  H  H66  1  0.31069000  0.65594000  0.19305000  1.0
  H  H67  1  0.45923000  0.60893000  0.15385000  1.0
  H  H68  1  0.73825000  0.22088000  0.13989000  1.0
  H  H69  1  0.77996000  0.26462000  0.18650000  1.0
  H  H70  1  0.87670000  0.13547000  0.18758000  1.0
  H  H71  1  0.02651000  0.04707000  0.20360000  1.0
  H  H72  1  0.12815000  0.19700000  0.08588000  1.0
  H  H73  1  0.97967000  0.28424000  0.06976000  1.0
  H  H74  1  0.69504000  0.49679000  0.14145000  1.0
  H  H75  1  0.80143000  0.42807000  0.12500000  1.0
  H  H76  1  0.81606000  0.37474000  0.28323000  1.0
  H  H77  1  0.90640000  0.44836000  0.32215000  1.0
  H  H78  1  0.89534000  0.62764000  0.19498000  1.0
  H  H79  1  0.80508000  0.55667000  0.15557000  1.0
  H  H80  1  0.22934000  0.44395000  0.27913000  1.0
  H  H81  1  0.22291000  0.15494000  0.12838000  1.0
  H  H82  1  0.67566000  0.32679000  0.59258000  1.0
  H  H83  1  0.61290000  0.32572000  0.51364000  1.0
  H  H84  1  0.82907000  0.39617000  0.43372000  1.0
  H  H85  1  0.89303000  0.39296000  0.51370000  1.0
  H  H86  1  0.63521000  0.25918000  0.44175000  1.0
  H  H87  1  0.56144000  0.36328000  0.42613000  1.0
  H  H88  1  0.64521000  0.36954000  0.29116000  1.0
  H  H89  1  0.67778000  0.41444000  0.34049000  1.0
  H  H90  1  0.65090000  0.51294000  0.27865000  1.0
  H  H91  1  0.60567000  0.65864000  0.24083000  1.0
  H  H92  1  0.34406000  0.68931000  0.30696000  1.0
  H  H93  1  0.39106000  0.54076000  0.34615000  1.0
  H  H94  1  0.77912000  0.26177000  0.36011000  1.0
  H  H95  1  0.73539000  0.22003000  0.31351000  1.0
  H  H96  1  0.86455000  0.12331000  0.31243000  1.0
  H  H97  1  0.95291000  0.97350000  0.29641000  1.0
  H  H98  1  0.80298000  0.87187000  0.41413000  1.0
  H  H99  1  0.71577000  0.02034000  0.43026000  1.0
  H  H100  1  0.50321000  0.30495000  0.35855000  1.0
  H  H101  1  0.57194000  0.19856000  0.37500000  1.0
  H  H102  1  0.62526000  0.18393000  0.21677000  1.0
  H  H103  1  0.55164000  0.09359000  0.17786000  1.0
  H  H104  1  0.37235000  0.10466000  0.30502000  1.0
  H  H105  1  0.44332000  0.19493000  0.34443000  1.0
  H  H106  1  0.55605000  0.77067000  0.22088000  1.0
  H  H107  1  0.84505000  0.77710000  0.37164000  1.0
  C  C108  1  0.35559000  0.82868000  0.10514000  1.0
  C  C109  1  0.35919000  0.78850000  0.05803000  1.0
  C  C110  1  0.34134000  0.70935000  0.05763000  1.0
  C  C111  1  0.34058000  0.67419000  0.01331000  1.0
  C  C112  1  0.35948000  0.71866000  0.96893000  1.0
  C  C113  1  0.38043000  0.79656000  0.96885000  1.0
  C  C114  1  0.37913000  0.83144000  0.01306000  1.0
  C  C115  1  0.31918000  0.62631000  0.91747000  1.0
  C  C116  1  0.29894000  0.63788000  0.86313000  1.0
  C  C117  1  0.38261000  0.63166000  0.83028000  1.0
  C  C118  1  0.51774000  0.52407000  0.81561000  1.0
  C  C119  1  0.55120000  0.58408000  0.78559000  1.0
  C  C120  1  0.63528000  0.55702000  0.76427000  1.0
  C  C121  1  0.68635000  0.47116000  0.77189000  1.0
  C  C122  1  0.65112000  0.41149000  0.80157000  1.0
  C  C123  1  0.56776000  0.43761000  0.82339000  1.0
  C  C124  1  0.77407000  0.43972000  0.74822000  1.0
  C  C125  1  0.23507000  0.72741000  0.85221000  1.0
  C  C126  1  0.08050000  0.78288000  0.87174000  1.0
  C  C127  1  0.06827000  0.85011000  0.83405000  1.0
  C  C128  1  0.98458000  0.89962000  0.82500000  1.0
  C  C129  1  0.91257000  0.88241000  0.85234000  1.0
  C  C130  1  0.92610000  0.81579000  0.89054000  1.0
  C  C131  1  0.00892000  0.76692000  0.90046000  1.0
  C  C132  1  0.82509000  0.93558000  0.84069000  1.0
  C  C133  1  0.25927000  0.56778000  0.85192000  1.0
  C  C134  1  0.19451000  0.53906000  0.78269000  1.0
  C  C135  1  0.16696000  0.56905000  0.73547000  1.0
  C  C136  1  0.11699000  0.52861000  0.71412000  1.0
  C  C137  1  0.09390000  0.45768000  0.73925000  1.0
  C  C138  1  0.12302000  0.42751000  0.78591000  1.0
  C  C139  1  0.17330000  0.46749000  0.80794000  1.0
  C  C140  1  0.03647000  0.41727000  0.71694000  1.0
  C  C141  1  0.17133000  0.64442000  0.39486000  1.0
  C  C142  1  0.21151000  0.64082000  0.44196000  1.0
  C  C143  1  0.29066000  0.65866000  0.44237000  1.0
  C  C144  1  0.32582000  0.65943000  0.48669000  1.0
  C  C145  1  0.28135000  0.64052000  0.53107000  1.0
  C  C146  1  0.20344000  0.61957000  0.53115000  1.0
  C  C147  1  0.16856000  0.62087000  0.48693000  1.0
  C  C148  1  0.37370000  0.68081000  0.58253000  1.0
  C  C149  1  0.36212000  0.70106000  0.63687000  1.0
  C  C150  1  0.36834000  0.61739000  0.66972000  1.0
  C  C151  1  0.47593000  0.48226000  0.68439000  1.0
  C  C152  1  0.41592000  0.44880000  0.71441000  1.0
  C  C153  1  0.44298000  0.36472000  0.73573000  1.0
  C  C154  1  0.52883000  0.31365000  0.72811000  1.0
  C  C155  1  0.58852000  0.34888000  0.69843000  1.0
  C  C156  1  0.56239000  0.43224000  0.67661000  1.0
  C  C157  1  0.56029000  0.22593000  0.75177000  1.0
  C  C158  1  0.27259000  0.76493000  0.64779000  1.0
  C  C159  1  0.21712000  0.91949000  0.62825000  1.0
  C  C160  1  0.14989000  0.93173000  0.66594000  1.0
  C  C161  1  0.10038000  0.01542000  0.67498000  1.0
  C  C162  1  0.11759000  0.08742000  0.64764000  1.0
  C  C163  1  0.18422000  0.07389000  0.60945000  1.0
  C  C164  1  0.23308000  0.99107000  0.59953000  1.0
  C  C165  1  0.06443000  0.17490000  0.65931000  1.0
  C  C166  1  0.43223000  0.74072000  0.64808000  1.0
  C  C167  1  0.46095000  0.80547000  0.71731000  1.0
  C  C168  1  0.43095000  0.83303000  0.76453000  1.0
  C  C169  1  0.47139000  0.88300000  0.78588000  1.0
  C  C170  1  0.54232000  0.90610000  0.76075000  1.0
  C  C171  1  0.57249000  0.87698000  0.71409000  1.0
  C  C172  1  0.53252000  0.82668000  0.69206000  1.0
  C  C173  1  0.58272000  0.96353000  0.78306000  1.0
  C  C174  1  0.64441000  0.17133000  0.89485000  1.0
  C  C175  1  0.64081000  0.21152000  0.94196000  1.0
  C  C176  1  0.65866000  0.29066000  0.94237000  1.0
  C  C177  1  0.65942000  0.32582000  0.98668000  1.0
  C  C178  1  0.64052000  0.28135000  0.03107000  1.0
  C  C179  1  0.61957000  0.20345000  0.03115000  1.0
  C  C180  1  0.62086000  0.16856000  0.98693000  1.0
  C  C181  1  0.68082000  0.37369000  0.08253000  1.0
  C  C182  1  0.70106000  0.36212000  0.13687000  1.0
  C  C183  1  0.61738000  0.36834000  0.16972000  1.0
  C  C184  1  0.48226000  0.47593000  0.18439000  1.0
  C  C185  1  0.44880000  0.41591000  0.21441000  1.0
  C  C186  1  0.36472000  0.44297000  0.23573000  1.0
  C  C187  1  0.31366000  0.52883000  0.22812000  1.0
  C  C188  1  0.34887000  0.58851000  0.19844000  1.0
  C  C189  1  0.43223000  0.56239000  0.17661000  1.0
  C  C190  1  0.22594000  0.56027000  0.25179000  1.0
  C  C191  1  0.76493000  0.27259000  0.14779000  1.0
  C  C192  1  0.91950000  0.21713000  0.12826000  1.0
  C  C193  1  0.93173000  0.14990000  0.16595000  1.0
  C  C194  1  0.01542000  0.10038000  0.17500000  1.0
  C  C195  1  0.08743000  0.11759000  0.14766000  1.0
  C  C196  1  0.07390000  0.18422000  0.10946000  1.0
  C  C197  1  0.99108000  0.23309000  0.09954000  1.0
  C  C198  1  0.17491000  0.06442000  0.15931000  1.0
  C  C199  1  0.74072000  0.43222000  0.14808000  1.0
  C  C200  1  0.80548000  0.46094000  0.21731000  1.0
  C  C201  1  0.83304000  0.43095000  0.26453000  1.0
  C  C202  1  0.88301000  0.47139000  0.28588000  1.0
  C  C203  1  0.90610000  0.54232000  0.26075000  1.0
  C  C204  1  0.87698000  0.57249000  0.21409000  1.0
  C  C205  1  0.82669000  0.53251000  0.19206000  1.0
  C  C206  1  0.96353000  0.58273000  0.28306000  1.0
  C  C207  1  0.82868000  0.35558000  0.60515000  1.0
  C  C208  1  0.78849000  0.35918000  0.55804000  1.0
  C  C209  1  0.70934000  0.34134000  0.55763000  1.0
  C  C210  1  0.67418000  0.34058000  0.51332000  1.0
  C  C211  1  0.71865000  0.35948000  0.46893000  1.0
  C  C212  1  0.79655000  0.38043000  0.46885000  1.0
  C  C213  1  0.83144000  0.37912000  0.51307000  1.0
  C  C214  1  0.62629000  0.31919000  0.41747000  1.0
  C  C215  1  0.63788000  0.29894000  0.36313000  1.0
  C  C216  1  0.63166000  0.38261000  0.33028000  1.0
  C  C217  1  0.52407000  0.51774000  0.31561000  1.0
  C  C218  1  0.58409000  0.55120000  0.28559000  1.0
  C  C219  1  0.55703000  0.63528000  0.26427000  1.0
  C  C220  1  0.47117000  0.68634000  0.27188000  1.0
  C  C221  1  0.41149000  0.65112000  0.30156000  1.0
  C  C222  1  0.43761000  0.56776000  0.32339000  1.0
  C  C223  1  0.43972000  0.77406000  0.24822000  1.0
  C  C224  1  0.72742000  0.23508000  0.35222000  1.0
  C  C225  1  0.78289000  0.08051000  0.37176000  1.0
  C  C226  1  0.85011000  0.06827000  0.33407000  1.0
  C  C227  1  0.89962000  0.98458000  0.32502000  1.0
  C  C228  1  0.88240000  0.91258000  0.35236000  1.0
  C  C229  1  0.81577000  0.92611000  0.39055000  1.0
  C  C230  1  0.76692000  0.00893000  0.40047000  1.0
  C  C231  1  0.93556000  0.82510000  0.34070000  1.0
  C  C232  1  0.56778000  0.25927000  0.35192000  1.0
  C  C233  1  0.53906000  0.19452000  0.28269000  1.0
  C  C234  1  0.56905000  0.16696000  0.23548000  1.0
  C  C235  1  0.52861000  0.11699000  0.21412000  1.0
  C  C236  1  0.45768000  0.09390000  0.23925000  1.0
  C  C237  1  0.42751000  0.12302000  0.28591000  1.0
  C  C238  1  0.46749000  0.17331000  0.30794000  1.0
  C  C239  1  0.41728000  0.03647000  0.21694000  1.0
  O  O240  1  0.34888000  0.91010000  0.10177000  1.0
  O  O241  1  0.35883000  0.78347000  0.14600000  1.0
  O  O242  1  0.35958000  0.69158000  0.92314000  1.0
  O  O243  1  0.43669000  0.54470000  0.83854000  1.0
  O  O244  1  0.81759000  0.36327000  0.75066000  1.0
  O  O245  1  0.80985000  0.49746000  0.72114000  1.0
  O  O246  1  0.15830000  0.72969000  0.88404000  1.0
  O  O247  1  0.75754000  0.90415000  0.85673000  1.0
  O  O248  1  0.80997000  0.00684000  0.81726000  1.0
  O  O249  1  0.24204000  0.58430000  0.80099000  1.0
  O  O250  1  0.01899000  0.35098000  0.74030000  1.0
  O  O251  1  0.00598000  0.45092000  0.67615000  1.0
  O  O252  1  0.08990000  0.65113000  0.39822000  1.0
  O  O253  1  0.21653000  0.64119000  0.35399000  1.0
  O  O254  1  0.30842000  0.64042000  0.57685000  1.0
  O  O255  1  0.45530000  0.56331000  0.66146000  1.0
  O  O256  1  0.63674000  0.18241000  0.74933000  1.0
  O  O257  1  0.50254000  0.19014000  0.77886000  1.0
  O  O258  1  0.27030000  0.84169000  0.61594000  1.0
  O  O259  1  0.09585000  0.24245000  0.64327000  1.0
  O  O260  1  0.99317000  0.19001000  0.68274000  1.0
  O  O261  1  0.41571000  0.75794000  0.69901000  1.0
  O  O262  1  0.64901000  0.98102000  0.75970000  1.0
  O  O263  1  0.54907000  0.99402000  0.82385000  1.0
  O  O264  1  0.65111000  0.08992000  0.89822000  1.0
  O  O265  1  0.64118000  0.21653000  0.85399000  1.0
  O  O266  1  0.64042000  0.30842000  0.07685000  1.0
  O  O267  1  0.56331000  0.45529000  0.16146000  1.0
  O  O268  1  0.18241000  0.63672000  0.24935000  1.0
  O  O269  1  0.19016000  0.50252000  0.27888000  1.0
  O  O270  1  0.84170000  0.27031000  0.11596000  1.0
  O  O271  1  0.24246000  0.09585000  0.14327000  1.0
  O  O272  1  0.19002000  0.99316000  0.18274000  1.0
  O  O273  1  0.75795000  0.41570000  0.19901000  1.0
  O  O274  1  0.98101000  0.64902000  0.25970000  1.0
  O  O275  1  0.99401000  0.54909000  0.32385000  1.0
  O  O276  1  0.91010000  0.34886000  0.60178000  1.0
  O  O277  1  0.78347000  0.35882000  0.64601000  1.0
  O  O278  1  0.69157000  0.35959000  0.42315000  1.0
  O  O279  1  0.54470000  0.43669000  0.33854000  1.0
  O  O280  1  0.36328000  0.81758000  0.25065000  1.0
  O  O281  1  0.49747000  0.80984000  0.22113000  1.0
  O  O282  1  0.72971000  0.15831000  0.38407000  1.0
  O  O283  1  0.90414000  0.75756000  0.35674000  1.0
  O  O284  1  0.00682000  0.80999000  0.31726000  1.0
  O  O285  1  0.58430000  0.24205000  0.30099000  1.0
  O  O286  1  0.35098000  0.01898000  0.24030000  1.0
  O  O287  1  0.45092000  0.00598000  0.17615000  1.0
