# generated using pymatgen
data_CdH28C35(N2O3)2
_symmetry_space_group_name_H-M   'P 1'
_cell_length_a   8.63403000
_cell_length_b   11.99280000
_cell_length_c   16.32341476
_cell_angle_alpha   104.04138389
_cell_angle_beta   102.89169683
_cell_angle_gamma   105.82900000
_symmetry_Int_Tables_number   1
_chemical_formula_structural   CdH28C35(N2O3)2
_chemical_formula_sum   'Cd2 H56 C70 N8 O12'
_cell_volume   1499.85595782
_cell_formula_units_Z   2
loop_
 _symmetry_equiv_pos_site_id
 _symmetry_equiv_pos_as_xyz
  1  'x, y, z'
loop_
 _atom_site_type_symbol
 _atom_site_label
 _atom_site_symmetry_multiplicity
 _atom_site_fract_x
 _atom_site_fract_y
 _atom_site_fract_z
 _atom_site_occupancy
  Cd  Cd0  1  0.27778000  0.00472000  0.34362000  1.0
  Cd  Cd1  1  0.72222000  0.99528000  0.65638000  1.0
  H  H2  1  0.19837000  0.43836000  0.41705000  1.0
  H  H3  1  0.80163000  0.56164000  0.58295000  1.0
  H  H4  1  0.98910000  0.43868000  0.39669000  1.0
  H  H5  1  0.01090000  0.56132000  0.60331000  1.0
  H  H6  1  0.33357000  0.56992000  0.29993000  1.0
  H  H7  1  0.66643000  0.43008000  0.70007000  1.0
  H  H8  1  0.01107000  0.64790000  0.45739000  1.0
  H  H9  1  0.98893000  0.35211000  0.54261000  1.0
  H  H10  1  0.41380000  0.78496000  0.30170000  1.0
  H  H11  1  0.58620000  0.21504000  0.69830000  1.0
  H  H12  1  0.10667000  0.86226000  0.45312000  1.0
  H  H13  1  0.89333000  0.13774000  0.54688000  1.0
  H  H14  1  0.63228000  0.80912000  0.16790000  1.0
  H  H15  1  0.36772000  0.19089000  0.83211000  1.0
  H  H16  1  0.46124000  0.86924000  0.91933000  1.0
  H  H17  1  0.53875000  0.13075000  0.08066000  1.0
  H  H18  1  0.75722000  0.98678000  0.93378000  1.0
  H  H19  1  0.24278000  0.01322000  0.06622000  1.0
  H  H20  1  0.99223000  0.01702000  0.06902000  1.0
  H  H21  1  0.00776000  0.98298000  0.93097000  1.0
  H  H22  1  0.08538000  0.68475000  0.18327000  1.0
  H  H23  1  0.91462000  0.31525000  0.81673000  1.0
  H  H24  1  0.61087000  0.49958000  0.97184000  1.0
  H  H25  1  0.38914000  0.50042000  0.02816000  1.0
  H  H26  1  0.74543000  0.58024000  0.86881000  1.0
  H  H27  1  0.25458000  0.41976000  0.13119000  1.0
  H  H28  1  0.05163000  0.70370000  0.92055000  1.0
  H  H29  1  0.94838000  0.29630000  0.07945000  1.0
  H  H30  1  0.78699000  0.80118000  0.35591000  1.0
  H  H31  1  0.21302000  0.19882000  0.64409000  1.0
  H  H32  1  0.58045000  0.57780000  0.50092000  1.0
  H  H33  1  0.41956000  0.42220000  0.49908000  1.0
  H  H34  1  0.52364000  0.38748000  0.37509000  1.0
  H  H35  1  0.47637000  0.61252000  0.62491000  1.0
  H  H36  1  0.60043000  0.40802000  0.23951000  1.0
  H  H37  1  0.39958000  0.59199000  0.76049000  1.0
  H  H38  1  0.66746000  0.99756000  0.40162000  1.0
  H  H39  1  0.33254000  0.00244000  0.59838000  1.0
  H  H40  1  0.94107000  0.08553000  0.37741000  1.0
  H  H41  1  0.05893000  0.91447000  0.62259000  1.0
  H  H42  1  0.69793000  0.26173000  0.21393000  1.0
  H  H43  1  0.30208000  0.73828000  0.78608000  1.0
  H  H44  1  0.43021000  0.16388000  0.24280000  1.0
  H  H45  1  0.56979000  0.83612000  0.75720000  1.0
  H  H46  1  0.99254000  0.17787000  0.20609000  1.0
  H  H47  1  0.00747000  0.82214000  0.79392000  1.0
  H  H48  1  0.11065000  0.22103000  0.31807000  1.0
  H  H49  1  0.88936000  0.77897000  0.68193000  1.0
  H  H50  1  0.16443000  0.38923000  0.25396000  1.0
  H  H51  1  0.83557000  0.61077000  0.74604000  1.0
  H  H52  1  0.95308000  0.38396000  0.23301000  1.0
  H  H53  1  0.04691000  0.61604000  0.76699000  1.0
  H  H54  1  0.29880000  0.69718000  0.96649000  1.0
  H  H55  1  0.70120000  0.30281000  0.03351000  1.0
  H  H56  1  0.82112000  0.71533000  0.22576000  1.0
  H  H57  1  0.17888000  0.28467000  0.77424000  1.0
  C  C58  1  0.09924000  0.45636000  0.37212000  1.0
  C  C59  1  0.90077000  0.54365000  0.62789000  1.0
  C  C60  1  0.16128000  0.58849000  0.37728000  1.0
  C  C61  1  0.83872000  0.41151000  0.62272000  1.0
  C  C62  1  0.27906000  0.63062000  0.33502000  1.0
  C  C63  1  0.72094000  0.36938000  0.66498000  1.0
  C  C64  1  0.10234000  0.67451000  0.42286000  1.0
  C  C65  1  0.89766000  0.32549000  0.57714000  1.0
  C  C66  1  0.32711000  0.75146000  0.33670000  1.0
  C  C67  1  0.67289000  0.24854000  0.66330000  1.0
  C  C68  1  0.15477000  0.79404000  0.42124000  1.0
  C  C69  1  0.84523000  0.20596000  0.57876000  1.0
  C  C70  1  0.96977000  0.92884000  0.20338000  1.0
  C  C71  1  0.03023000  0.07116000  0.79662000  1.0
  C  C72  1  0.82715000  0.91252000  0.12484000  1.0
  C  C73  1  0.17285000  0.08748000  0.87516000  1.0
  C  C74  1  0.66015000  0.84666000  0.11643000  1.0
  C  C75  1  0.33985000  0.15334000  0.88357000  1.0
  C  C76  1  0.52920000  0.83070000  0.04185000  1.0
  C  C77  1  0.47080000  0.16930000  0.95815000  1.0
  C  C78  1  0.56526000  0.88047000  0.97606000  1.0
  C  C79  1  0.43474000  0.11953000  0.02394000  1.0
  C  C80  1  0.73120000  0.94710000  0.98490000  1.0
  C  C81  1  0.26879000  0.05290000  0.01510000  1.0
  C  C82  1  0.86180000  0.96398000  0.05962000  1.0
  C  C83  1  0.13819000  0.03603000  0.94038000  1.0
  C  C84  1  0.27614000  0.76947000  0.09039000  1.0
  C  C85  1  0.72386000  0.23053000  0.90961000  1.0
  C  C86  1  0.08969000  0.69812000  0.05502000  1.0
  C  C87  1  0.91031000  0.30188000  0.94498000  1.0
  C  C88  1  0.01006000  0.65976000  0.11421000  1.0
  C  C89  1  0.98993000  0.34023000  0.88578000  1.0
  C  C90  1  0.83876000  0.58790000  0.08450000  1.0
  C  C91  1  0.16125000  0.41210000  0.91550000  1.0
  C  C92  1  0.74422000  0.55684000  0.99529000  1.0
  C  C93  1  0.25578000  0.44316000  0.00471000  1.0
  C  C94  1  0.82073000  0.60068000  0.93729000  1.0
  C  C95  1  0.17925000  0.39931000  0.06270000  1.0
  C  C96  1  0.99310000  0.67009000  0.96659000  1.0
  C  C97  1  0.00691000  0.32991000  0.03341000  1.0
  C  C98  1  0.75817000  0.53777000  0.14630000  1.0
  C  C99  1  0.24183000  0.46223000  0.85370000  1.0
  C  C100  1  0.70290000  0.60511000  0.28997000  1.0
  C  C101  1  0.29710000  0.39489000  0.71003000  1.0
  C  C102  1  0.72928000  0.71049000  0.35988000  1.0
  C  C103  1  0.27072000  0.28951000  0.64012000  1.0
  C  C104  1  0.68544000  0.69925000  0.43544000  1.0
  C  C105  1  0.31457000  0.30075000  0.56456000  1.0
  C  C106  1  0.61367000  0.58277000  0.44125000  1.0
  C  C107  1  0.38633000  0.41723000  0.55875000  1.0
  C  C108  1  0.58232000  0.47820000  0.37109000  1.0
  C  C109  1  0.41767000  0.52179000  0.62890000  1.0
  C  C110  1  0.62494000  0.48852000  0.29492000  1.0
  C  C111  1  0.37506000  0.51148000  0.70508000  1.0
  C  C112  1  0.71096000  0.81038000  0.51044000  1.0
  C  C113  1  0.28903000  0.18962000  0.48956000  1.0
  C  C114  1  0.67773000  0.05629000  0.35989000  1.0
  C  C115  1  0.32228000  0.94371000  0.64011000  1.0
  C  C116  1  0.83188000  0.10679000  0.34656000  1.0
  C  C117  1  0.16812000  0.89321000  0.65344000  1.0
  C  C118  1  0.84422000  0.18207000  0.29306000  1.0
  C  C119  1  0.15579000  0.81793000  0.70694000  1.0
  C  C120  1  0.69662000  0.20333000  0.25571000  1.0
  C  C121  1  0.30338000  0.79665000  0.74428000  1.0
  C  C122  1  0.54732000  0.14988000  0.27187000  1.0
  C  C123  1  0.45268000  0.85012000  0.72813000  1.0
  C  C124  1  0.00600000  0.23379000  0.27342000  1.0
  C  C125  1  0.99400000  0.76621000  0.72658000  1.0
  C  C126  1  0.05426000  0.36814000  0.27811000  1.0
  C  C127  1  0.94574000  0.63186000  0.72189000  1.0
  N  N128  1  0.26384000  0.83173000  0.37787000  1.0
  N  N129  1  0.73615000  0.16828000  0.62213000  1.0
  N  N130  1  0.53739000  0.07743000  0.32332000  1.0
  N  N131  1  0.46261000  0.92257000  0.67668000  1.0
  N  N132  1  0.35816000  0.76303000  0.02799000  1.0
  N  N133  1  0.64184000  0.23697000  0.97201000  1.0
  N  N134  1  0.76083000  0.62363000  0.21873000  1.0
  N  N135  1  0.23917000  0.37637000  0.78127000  1.0
  O  O136  1  0.11600000  0.00387000  0.21372000  1.0
  O  O137  1  0.88400000  0.99614000  0.78628000  1.0
  O  O138  1  0.94305000  0.87051000  0.25737000  1.0
  O  O139  1  0.05695000  0.12949000  0.74263000  1.0
  O  O140  1  0.67361000  0.79221000  0.57909000  1.0
  O  O141  1  0.32639000  0.20779000  0.42091000  1.0
  O  O142  1  0.76677000  0.91647000  0.50419000  1.0
  O  O143  1  0.23322000  0.08353000  0.49581000  1.0
  O  O144  1  0.34704000  0.82973000  0.17037000  1.0
  O  O145  1  0.65296000  0.17027000  0.82963000  1.0
  O  O146  1  0.69517000  0.42449000  0.12978000  1.0
  O  O147  1  0.30483000  0.57550000  0.87022000  1.0
