# generated using pymatgen
data_H10PbC13S(N2O)3
_symmetry_space_group_name_H-M   'P 1'
_cell_length_a   9.97744000
_cell_length_b   13.53750000
_cell_length_c   16.72464067
_cell_angle_alpha   107.55664457
_cell_angle_beta   107.35911935
_cell_angle_gamma   89.98650000
_symmetry_Int_Tables_number   1
_chemical_formula_structural   H10PbC13S(N2O)3
_chemical_formula_sum   'H40 Pb4 C52 S4 N24 O12'
_cell_volume   2045.64263617
_cell_formula_units_Z   4
loop_
 _symmetry_equiv_pos_site_id
 _symmetry_equiv_pos_as_xyz
  1  'x, y, z'
loop_
 _atom_site_type_symbol
 _atom_site_label
 _atom_site_symmetry_multiplicity
 _atom_site_fract_x
 _atom_site_fract_y
 _atom_site_fract_z
 _atom_site_occupancy
  H  H0  1  0.18214000  0.09092000  0.58850000  1.0
  H  H1  1  0.59381000  0.40910000  0.41142000  1.0
  H  H2  1  0.81786000  0.90902000  0.41146000  1.0
  H  H3  1  0.40620000  0.59096000  0.58859000  1.0
  H  H4  1  0.13986000  0.08914000  0.72728000  1.0
  H  H5  1  0.41286000  0.41071000  0.27251000  1.0
  H  H6  1  0.86008000  0.91086000  0.27268000  1.0
  H  H7  1  0.58712000  0.58928000  0.72749000  1.0
  H  H8  1  0.59074000  0.15686000  0.85643000  1.0
  H  H9  1  0.73495000  0.34312000  0.14369000  1.0
  H  H10  1  0.40920000  0.84312000  0.14357000  1.0
  H  H11  1  0.26503000  0.65692000  0.85631000  1.0
  H  H12  1  0.61333000  0.15758000  0.71027000  1.0
  H  H13  1  0.90358000  0.34246000  0.28995000  1.0
  H  H14  1  0.38666000  0.84233000  0.28972000  1.0
  H  H15  1  0.09643000  0.65763000  0.71006000  1.0
  H  H16  1  0.23339000  0.11592000  0.88816000  1.0
  H  H17  1  0.34592000  0.38419000  0.11176000  1.0
  H  H18  1  0.76652000  0.88416000  0.11183000  1.0
  H  H19  1  0.65405000  0.61582000  0.88824000  1.0
  H  H20  1  0.62249000  0.12070000  0.08737000  1.0
  H  H21  1  0.53548000  0.37927000  0.91250000  1.0
  H  H22  1  0.37745000  0.87935000  0.91262000  1.0
  H  H23  1  0.46447000  0.62069000  0.08748000  1.0
  H  H24  1  0.26689000  0.10552000  0.12808000  1.0
  H  H25  1  0.13894000  0.39428000  0.87176000  1.0
  H  H26  1  0.73306000  0.89442000  0.87191000  1.0
  H  H27  1  0.86101000  0.60572000  0.12823000  1.0
  H  H28  1  0.24723000  0.10308000  0.27409000  1.0
  H  H29  1  0.97334000  0.39700000  0.72585000  1.0
  H  H30  1  0.75278000  0.89683000  0.72590000  1.0
  H  H31  1  0.02664000  0.60307000  0.27415000  1.0
  H  H32  1  0.68196000  0.12549000  0.38335000  1.0
  H  H33  1  0.29868000  0.37446000  0.61654000  1.0
  H  H34  1  0.31807000  0.87451000  0.61662000  1.0
  H  H35  1  0.70130000  0.62560000  0.38347000  1.0
  H  H36  1  0.72033000  0.12826000  0.24398000  1.0
  H  H37  1  0.47646000  0.37146000  0.75586000  1.0
  H  H38  1  0.27964000  0.87180000  0.75599000  1.0
  H  H39  1  0.52350000  0.62852000  0.24413000  1.0
  Pb  Pb40  1  0.41843000  0.14387000  0.49257000  1.0
  Pb  Pb41  1  0.92587000  0.35612000  0.50745000  1.0
  Pb  Pb42  1  0.58167000  0.85608000  0.50746000  1.0
  Pb  Pb43  1  0.07417000  0.64392000  0.49255000  1.0
  C  C44  1  0.76160000  0.09710000  0.56026000  1.0
  C  C45  1  0.20142000  0.40292000  0.43977000  1.0
  C  C46  1  0.23854000  0.90286000  0.43977000  1.0
  C  C47  1  0.79865000  0.59708000  0.56027000  1.0
  C  C48  1  0.27003000  0.10600000  0.64940000  1.0
  C  C49  1  0.62089000  0.39396000  0.35055000  1.0
  C  C50  1  0.72995000  0.89396000  0.35057000  1.0
  C  C51  1  0.37910000  0.60608000  0.64945000  1.0
  C  C52  1  0.24700000  0.10523000  0.72733000  1.0
  C  C53  1  0.52000000  0.39461000  0.27255000  1.0
  C  C54  1  0.75296000  0.89476000  0.27265000  1.0
  C  C55  1  0.47999000  0.60540000  0.72745000  1.0
  C  C56  1  0.36332000  0.12349000  0.80380000  1.0
  C  C57  1  0.56009000  0.37643000  0.19616000  1.0
  C  C58  1  0.63661000  0.87651000  0.19618000  1.0
  C  C59  1  0.43989000  0.62358000  0.80384000  1.0
  C  C60  1  0.49835000  0.14277000  0.79824000  1.0
  C  C61  1  0.70068000  0.35715000  0.20184000  1.0
  C  C62  1  0.50160000  0.85720000  0.20175000  1.0
  C  C63  1  0.29930000  0.64288000  0.79816000  1.0
  C  C64  1  0.51097000  0.14297000  0.71786000  1.0
  C  C65  1  0.79360000  0.35701000  0.28227000  1.0
  C  C66  1  0.48901000  0.85696000  0.28212000  1.0
  C  C67  1  0.20640000  0.64306000  0.71773000  1.0
  C  C68  1  0.34200000  0.12071000  0.88556000  1.0
  C  C69  1  0.45712000  0.37924000  0.11436000  1.0
  C  C70  1  0.65792000  0.87931000  0.11443000  1.0
  C  C71  1  0.54284000  0.62075000  0.88563000  1.0
  C  C72  1  0.51467000  0.11883000  0.09156000  1.0
  C  C73  1  0.42346000  0.38098000  0.90830000  1.0
  C  C74  1  0.48527000  0.88119000  0.90842000  1.0
  C  C75  1  0.57650000  0.61899000  0.09169000  1.0
  C  C76  1  0.49528000  0.11683000  0.17402000  1.0
  C  C77  1  0.32146000  0.38297000  0.82586000  1.0
  C  C78  1  0.50469000  0.88318000  0.82597000  1.0
  C  C79  1  0.67850000  0.61702000  0.17413000  1.0
  C  C80  1  0.36057000  0.10964000  0.18340000  1.0
  C  C81  1  0.17735000  0.39016000  0.81647000  1.0
  C  C82  1  0.63940000  0.89032000  0.81659000  1.0
  C  C83  1  0.82262000  0.60985000  0.18353000  1.0
  C  C84  1  0.34969000  0.10812000  0.26378000  1.0
  C  C85  1  0.08611000  0.39189000  0.73614000  1.0
  C  C86  1  0.65030000  0.89182000  0.73621000  1.0
  C  C87  1  0.91386000  0.60816000  0.26386000  1.0
  C  C88  1  0.59224000  0.12092000  0.32539000  1.0
  C  C89  1  0.26696000  0.37905000  0.67451000  1.0
  C  C90  1  0.40777000  0.87908000  0.67459000  1.0
  C  C91  1  0.73301000  0.62100000  0.32549000  1.0
  C  C92  1  0.61310000  0.12246000  0.24701000  1.0
  C  C93  1  0.36619000  0.37733000  0.75283000  1.0
  C  C94  1  0.38689000  0.87758000  0.75297000  1.0
  C  C95  1  0.63376000  0.62267000  0.24715000  1.0
  S  S96  1  0.91871000  0.14474000  0.57829000  1.0
  S  S97  1  0.34043000  0.35524000  0.42159000  1.0
  S  S98  1  0.08138000  0.85530000  0.42175000  1.0
  S  S99  1  0.65962000  0.64473000  0.57845000  1.0
  N  N100  1  0.64401000  0.06052000  0.54615000  1.0
  N  N101  1  0.09799000  0.43953000  0.45398000  1.0
  N  N102  1  0.35614000  0.93940000  0.45386000  1.0
  N  N103  1  0.90209000  0.56049000  0.54605000  1.0
  N  N104  1  0.39891000  0.12506000  0.64463000  1.0
  N  N105  1  0.75465000  0.37509000  0.35547000  1.0
  N  N106  1  0.60109000  0.87487000  0.35535000  1.0
  N  N107  1  0.24535000  0.62497000  0.64454000  1.0
  N  N108  1  0.44845000  0.12260000  0.95325000  1.0
  N  N109  1  0.49579000  0.37712000  0.04659000  1.0
  N  N110  1  0.55146000  0.87737000  0.04672000  1.0
  N  N111  1  0.50416000  0.62285000  0.95339000  1.0
  N  N112  1  0.40783000  0.11941000  0.02483000  1.0
  N  N113  1  0.38347000  0.38028000  0.97504000  1.0
  N  N114  1  0.59210000  0.88057000  0.97515000  1.0
  N  N115  1  0.61649000  0.61969000  0.02495000  1.0
  N  N116  1  0.46342000  0.11331000  0.33375000  1.0
  N  N117  1  0.12984000  0.38696000  0.66621000  1.0
  N  N118  1  0.53659000  0.88665000  0.66623000  1.0
  N  N119  1  0.87013000  0.61312000  0.33379000  1.0
  N  N120  1  0.66158000  0.33924000  0.59176000  1.0
  N  N121  1  0.06987000  0.16069000  0.40821000  1.0
  N  N122  1  0.33848000  0.66068000  0.40825000  1.0
  N  N123  1  0.93029000  0.83938000  0.59188000  1.0
  O  O124  1  0.64334000  0.28948000  0.51024000  1.0
  O  O125  1  0.13332000  0.21044000  0.48971000  1.0
  O  O126  1  0.35668000  0.71047000  0.48976000  1.0
  O  O127  1  0.86681000  0.78963000  0.51038000  1.0
  O  O128  1  0.76172000  0.40990000  0.63373000  1.0
  O  O129  1  0.12794000  0.08997000  0.36619000  1.0
  O  O130  1  0.23828000  0.59008000  0.36626000  1.0
  O  O131  1  0.87220000  0.91006000  0.63393000  1.0
  O  O132  1  0.57774000  0.31574000  0.62884000  1.0
  O  O133  1  0.94890000  0.18425000  0.37120000  1.0
  O  O134  1  0.42242000  0.68410000  0.37120000  1.0
  O  O135  1  0.05131000  0.81587000  0.62885000  1.0
