# generated using pymatgen
data_ZnH12C14N2O5
_symmetry_space_group_name_H-M   'P 1'
_cell_length_a   5.34134000
_cell_length_b   14.71790000
_cell_length_c   16.44900000
_cell_angle_alpha   90.00000000
_cell_angle_beta   93.45020000
_cell_angle_gamma   90.00000000
_symmetry_Int_Tables_number   1
_chemical_formula_structural   ZnH12C14N2O5
_chemical_formula_sum   'Zn4 H48 C56 N8 O20'
_cell_volume   1290.76651890
_cell_formula_units_Z   4
loop_
 _symmetry_equiv_pos_site_id
 _symmetry_equiv_pos_as_xyz
  1  'x, y, z'
loop_
 _atom_site_type_symbol
 _atom_site_label
 _atom_site_symmetry_multiplicity
 _atom_site_fract_x
 _atom_site_fract_y
 _atom_site_fract_z
 _atom_site_occupancy
  Zn  Zn0  1  0.69387000  0.43729000  0.77111000  1.0
  Zn  Zn1  1  0.30611000  0.93729000  0.72888000  1.0
  Zn  Zn2  1  0.30611000  0.56271000  0.22889000  1.0
  Zn  Zn3  1  0.69389000  0.06271000  0.27111000  1.0
  H  H4  1  0.78912000  0.71174000  0.78642000  1.0
  H  H5  1  0.21089000  0.21175000  0.71358000  1.0
  H  H6  1  0.21090000  0.28825000  0.21358000  1.0
  H  H7  1  0.78910000  0.78825000  0.28642000  1.0
  H  H8  1  0.26769000  0.72324000  0.00462000  1.0
  H  H9  1  0.73230000  0.22324000  0.49538000  1.0
  H  H10  1  0.73232000  0.27676000  0.99538000  1.0
  H  H11  1  0.26770000  0.77676000  0.50462000  1.0
  H  H12  1  0.01598000  0.59624000  0.51547000  1.0
  H  H13  1  0.98402000  0.09624000  0.98453000  1.0
  H  H14  1  0.98401000  0.40376000  0.48453000  1.0
  H  H15  1  0.01599000  0.90376000  0.01547000  1.0
  H  H16  1  0.64790000  0.53690000  0.98984000  1.0
  H  H17  1  0.35209000  0.03690000  0.51015000  1.0
  H  H18  1  0.35211000  0.46310000  0.01015000  1.0
  H  H19  1  0.64790000  0.96309000  0.48984000  1.0
  H  H20  1  0.40716000  0.72763000  0.63099000  1.0
  H  H21  1  0.59284000  0.22763000  0.86901000  1.0
  H  H22  1  0.59283000  0.27237000  0.36901000  1.0
  H  H23  1  0.40716000  0.77237000  0.13099000  1.0
  H  H24  1  0.22770000  0.57335000  0.74380000  1.0
  H  H25  1  0.77230000  0.07336000  0.75620000  1.0
  H  H26  1  0.77230000  0.42665000  0.25620000  1.0
  H  H27  1  0.22769000  0.92665000  0.24380000  1.0
  H  H28  1  0.34799000  0.68194000  0.77018000  1.0
  H  H29  1  0.65199000  0.18194000  0.72982000  1.0
  H  H30  1  0.65201000  0.31807000  0.22982000  1.0
  H  H31  1  0.34800000  0.81806000  0.27018000  1.0
  H  H32  1  0.03471000  0.48325000  0.62974000  1.0
  H  H33  1  0.96528000  0.98326000  0.87026000  1.0
  H  H34  1  0.96528000  0.51675000  0.37025000  1.0
  H  H35  1  0.03472000  0.01674000  0.12975000  1.0
  H  H36  1  0.68238000  0.71732000  0.51359000  1.0
  H  H37  1  0.31763000  0.21732000  0.98641000  1.0
  H  H38  1  0.31762000  0.28268000  0.48641000  1.0
  H  H39  1  0.68238000  0.78268000  0.01359000  1.0
  H  H40  1  0.38460000  0.53288000  0.86506000  1.0
  H  H41  1  0.61540000  0.03287000  0.63494000  1.0
  H  H42  1  0.61540000  0.46712000  0.13494000  1.0
  H  H43  1  0.38459000  0.96712000  0.36506000  1.0
  H  H44  1  0.20849000  0.37280000  0.72448000  1.0
  H  H45  1  0.79150000  0.87280000  0.77552000  1.0
  H  H46  1  0.79151000  0.62720000  0.27552000  1.0
  H  H47  1  0.20850000  0.12720000  0.22448000  1.0
  H  H48  1  0.43241000  0.37351000  0.66051000  1.0
  H  H49  1  0.56758000  0.87352000  0.83949000  1.0
  H  H50  1  0.56758000  0.62648000  0.33949000  1.0
  H  H51  1  0.43242000  0.12648000  0.16051000  1.0
  C  C52  1  0.03217000  0.59519000  0.09110000  1.0
  C  C53  1  0.96784000  0.09519000  0.40890000  1.0
  C  C54  1  0.96786000  0.40481000  0.90890000  1.0
  C  C55  1  0.03214000  0.90481000  0.59110000  1.0
  C  C56  1  0.18466000  0.80202000  0.85820000  1.0
  C  C57  1  0.81534000  0.30202000  0.64180000  1.0
  C  C58  1  0.81534000  0.19798000  0.14180000  1.0
  C  C59  1  0.18466000  0.69798000  0.35820000  1.0
  C  C60  1  0.96145000  0.62747000  0.00633000  1.0
  C  C61  1  0.03855000  0.12747000  0.49367000  1.0
  C  C62  1  0.03857000  0.37253000  0.99367000  1.0
  C  C63  1  0.96143000  0.87253000  0.50633000  1.0
  C  C64  1  0.83309000  0.68733000  0.84804000  1.0
  C  C65  1  0.16691000  0.18733000  0.65196000  1.0
  C  C66  1  0.16691000  0.31266000  0.15196000  1.0
  C  C67  1  0.83308000  0.81266000  0.34804000  1.0
  C  C68  1  0.69694000  0.61599000  0.88083000  1.0
  C  C69  1  0.30307000  0.11599000  0.61916000  1.0
  C  C70  1  0.30307000  0.38401000  0.11916000  1.0
  C  C71  1  0.69693000  0.88400000  0.38084000  1.0
  C  C72  1  0.10487000  0.69481000  0.97119000  1.0
  C  C73  1  0.89513000  0.19481000  0.52881000  1.0
  C  C74  1  0.89515000  0.30518000  0.02881000  1.0
  C  C75  1  0.10486000  0.80518000  0.47119000  1.0
  C  C76  1  0.03498000  0.72695000  0.89326000  1.0
  C  C77  1  0.96503000  0.22695000  0.60674000  1.0
  C  C78  1  0.96503000  0.27305000  0.10674000  1.0
  C  C79  1  0.03498000  0.77305000  0.39326000  1.0
  C  C80  1  0.88320000  0.60024000  0.56306000  1.0
  C  C81  1  0.11680000  0.10024000  0.93694000  1.0
  C  C82  1  0.11679000  0.39976000  0.43694000  1.0
  C  C83  1  0.88320000  0.89977000  0.06306000  1.0
  C  C84  1  0.75629000  0.58967000  0.96182000  1.0
  C  C85  1  0.24372000  0.08968000  0.53818000  1.0
  C  C86  1  0.24373000  0.41032000  0.03817000  1.0
  C  C87  1  0.75627000  0.91032000  0.46182000  1.0
  C  C88  1  0.54439000  0.67299000  0.62745000  1.0
  C  C89  1  0.45560000  0.17299000  0.87255000  1.0
  C  C90  1  0.45561000  0.32701000  0.37255000  1.0
  C  C91  1  0.54439000  0.82701000  0.12745000  1.0
  C  C92  1  0.56853000  0.60806000  0.68923000  1.0
  C  C93  1  0.43147000  0.10806000  0.81077000  1.0
  C  C94  1  0.43147000  0.39195000  0.31077000  1.0
  C  C95  1  0.56852000  0.89195000  0.18923000  1.0
  C  C96  1  0.40131000  0.61079000  0.76013000  1.0
  C  C97  1  0.59869000  0.11079000  0.73987000  1.0
  C  C98  1  0.59869000  0.38921000  0.23987000  1.0
  C  C99  1  0.40130000  0.88921000  0.26013000  1.0
  C  C100  1  0.89541000  0.53748000  0.62619000  1.0
  C  C101  1  0.10458000  0.03748000  0.87381000  1.0
  C  C102  1  0.10458000  0.46252000  0.37381000  1.0
  C  C103  1  0.89541000  0.96252000  0.12619000  1.0
  C  C104  1  0.70134000  0.66837000  0.56303000  1.0
  C  C105  1  0.29867000  0.16837000  0.93697000  1.0
  C  C106  1  0.29866000  0.33163000  0.43697000  1.0
  C  C107  1  0.70133000  0.83163000  0.06303000  1.0
  N  N108  1  0.51401000  0.56793000  0.83324000  1.0
  N  N109  1  0.48599000  0.06793000  0.66676000  1.0
  N  N110  1  0.48600000  0.43207000  0.16676000  1.0
  N  N111  1  0.51400000  0.93206000  0.33324000  1.0
  N  N112  1  0.74033000  0.54109000  0.68786000  1.0
  N  N113  1  0.25966000  0.04109000  0.81214000  1.0
  N  N114  1  0.25967000  0.45891000  0.31214000  1.0
  N  N115  1  0.74033000  0.95891000  0.18786000  1.0
  O  O116  1  0.25323000  0.61940000  0.12033000  1.0
  O  O117  1  0.74677000  0.11939000  0.37967000  1.0
  O  O118  1  0.74679000  0.38061000  0.87967000  1.0
  O  O119  1  0.25321000  0.88061000  0.62033000  1.0
  O  O120  1  0.88707000  0.54693000  0.13033000  1.0
  O  O121  1  0.11294000  0.04693000  0.36967000  1.0
  O  O122  1  0.11296000  0.45307000  0.86967000  1.0
  O  O123  1  0.88705000  0.95307000  0.63033000  1.0
  O  O124  1  0.10597000  0.83470000  0.78807000  1.0
  O  O125  1  0.89404000  0.33470000  0.71193000  1.0
  O  O126  1  0.89403000  0.16530000  0.21193000  1.0
  O  O127  1  0.10597000  0.66530000  0.28807000  1.0
  O  O128  1  0.38104000  0.82834000  0.89795000  1.0
  O  O129  1  0.61895000  0.32833000  0.60205000  1.0
  O  O130  1  0.61895000  0.17167000  0.10205000  1.0
  O  O131  1  0.38105000  0.67167000  0.39795000  1.0
  O  O132  1  0.35854000  0.40617000  0.70810000  1.0
  O  O133  1  0.64145000  0.90618000  0.79190000  1.0
  O  O134  1  0.64145000  0.59383000  0.29190000  1.0
  O  O135  1  0.35855000  0.09383000  0.20810000  1.0
