# generated using pymatgen
data_ZnH11C9Br(NO)2
_symmetry_space_group_name_H-M   'P 1'
_cell_length_a   10.23470000
_cell_length_b   17.78090000
_cell_length_c   17.77857471
_cell_angle_alpha   60.01102406
_cell_angle_beta   89.99990001
_cell_angle_gamma   89.99970000
_symmetry_Int_Tables_number   1
_chemical_formula_structural   ZnH11C9Br(NO)2
_chemical_formula_sum   'Zn6 H66 C54 Br6 N12 O12'
_cell_volume   2802.23570633
_cell_formula_units_Z   6
loop_
 _symmetry_equiv_pos_site_id
 _symmetry_equiv_pos_as_xyz
  1  'x, y, z'
loop_
 _atom_site_type_symbol
 _atom_site_label
 _atom_site_symmetry_multiplicity
 _atom_site_fract_x
 _atom_site_fract_y
 _atom_site_fract_z
 _atom_site_occupancy
  Zn  Zn0  1  0.86687000  0.46535000  0.07918000  1.0
  Zn  Zn1  1  0.70019000  0.54437000  0.53485000  1.0
  Zn  Zn2  1  0.53375000  0.07928000  0.45541000  1.0
  Zn  Zn3  1  0.36687000  0.53465000  0.92082000  1.0
  Zn  Zn4  1  0.20019000  0.45563000  0.46515000  1.0
  Zn  Zn5  1  0.03376000  0.92072000  0.54458000  1.0
  H  H6  1  0.98272000  0.54504000  0.93636000  1.0
  H  H7  1  0.81605000  0.48132000  0.45501000  1.0
  H  H8  1  0.64964000  0.93646000  0.51865000  1.0
  H  H9  1  0.48272000  0.45496000  0.06364000  1.0
  H  H10  1  0.31606000  0.51868000  0.54499000  1.0
  H  H11  1  0.14963000  0.06355000  0.48134000  1.0
  H  H12  1  0.94934000  0.64905000  0.97988000  1.0
  H  H13  1  0.78289000  0.62892000  0.35103000  1.0
  H  H14  1  0.61664000  0.97983000  0.37110000  1.0
  H  H15  1  0.44933000  0.35094000  0.02012000  1.0
  H  H16  1  0.28290000  0.37107000  0.64898000  1.0
  H  H17  1  0.11663000  0.02018000  0.62889000  1.0
  H  H18  1  0.78150000  0.65697000  0.95038000  1.0
  H  H19  1  0.61505000  0.60741000  0.34303000  1.0
  H  H20  1  0.44878000  0.95034000  0.39256000  1.0
  H  H21  1  0.28149000  0.34303000  0.04962000  1.0
  H  H22  1  0.11505000  0.39258000  0.65698000  1.0
  H  H23  1  0.94878000  0.04967000  0.60743000  1.0
  H  H24  1  0.76835000  0.59990000  0.83506000  1.0
  H  H25  1  0.60181000  0.43511000  0.39988000  1.0
  H  H26  1  0.43533000  0.83515000  0.56486000  1.0
  H  H27  1  0.26835000  0.40010000  0.16494000  1.0
  H  H28  1  0.10181000  0.56488000  0.60013000  1.0
  H  H29  1  0.93532000  0.16485000  0.43514000  1.0
  H  H30  1  0.80376000  0.89563000  0.66203000  1.0
  H  H31  1  0.63703000  0.55764000  0.10438000  1.0
  H  H32  1  0.47045000  0.66210000  0.44233000  1.0
  H  H33  1  0.30375000  0.10438000  0.33796000  1.0
  H  H34  1  0.13702000  0.44236000  0.89562000  1.0
  H  H35  1  0.97044000  0.33789000  0.55768000  1.0
  H  H36  1  0.10675000  0.65948000  0.84461000  1.0
  H  H37  1  0.94019000  0.50402000  0.34050000  1.0
  H  H38  1  0.77382000  0.84427000  0.49631000  1.0
  H  H39  1  0.60675000  0.34052000  0.15539000  1.0
  H  H40  1  0.44020000  0.49597000  0.65950000  1.0
  H  H41  1  0.27381000  0.15573000  0.50369000  1.0
  H  H42  1  0.73581000  0.78864000  0.81461000  1.0
  H  H43  1  0.56932000  0.60337000  0.21134000  1.0
  H  H44  1  0.40307000  0.81481000  0.39656000  1.0
  H  H45  1  0.23580000  0.21136000  0.18539000  1.0
  H  H46  1  0.06932000  0.39663000  0.78866000  1.0
  H  H47  1  0.90307000  0.18518000  0.60345000  1.0
  H  H48  1  0.15670000  0.77022000  0.69132000  1.0
  H  H49  1  0.98990000  0.46134000  0.22981000  1.0
  H  H50  1  0.82319000  0.69087000  0.53906000  1.0
  H  H51  1  0.65670000  0.22977000  0.30868000  1.0
  H  H52  1  0.48990000  0.53866000  0.77019000  1.0
  H  H53  1  0.32319000  0.30913000  0.46094000  1.0
  H  H54  1  0.93025000  0.49986000  0.83036000  1.0
  H  H55  1  0.76328000  0.33023000  0.50017000  1.0
  H  H56  1  0.59696000  0.83047000  0.66966000  1.0
  H  H57  1  0.43026000  0.50014000  0.16963000  1.0
  H  H58  1  0.26328000  0.66977000  0.49984000  1.0
  H  H59  1  0.09696000  0.16953000  0.33033000  1.0
  H  H60  1  0.77043000  0.45868000  0.83752000  1.0
  H  H61  1  0.60334000  0.29640000  0.54118000  1.0
  H  H62  1  0.43711000  0.83766000  0.70363000  1.0
  H  H63  1  0.27044000  0.54132000  0.16248000  1.0
  H  H64  1  0.10333000  0.70359000  0.45883000  1.0
  H  H65  1  0.93711000  0.16234000  0.29637000  1.0
  H  H66  1  0.87230000  0.41258000  0.93196000  1.0
  H  H67  1  0.70518000  0.34467000  0.58737000  1.0
  H  H68  1  0.53903000  0.93207000  0.65538000  1.0
  H  H69  1  0.37230000  0.58743000  0.06803000  1.0
  H  H70  1  0.20519000  0.65533000  0.41264000  1.0
  H  H71  1  0.03902000  0.06793000  0.34462000  1.0
  C  C72  1  0.91531000  0.71415000  0.84227000  1.0
  C  C73  1  0.74880000  0.55646000  0.28584000  1.0
  C  C74  1  0.58243000  0.84221000  0.44370000  1.0
  C  C75  1  0.41530000  0.28586000  0.15772000  1.0
  C  C76  1  0.24881000  0.44354000  0.71416000  1.0
  C  C77  1  0.08243000  0.15780000  0.55629000  1.0
  C  C78  1  0.66275000  0.50797000  0.94616000  1.0
  C  C79  1  0.49595000  0.45443000  0.49163000  1.0
  C  C80  1  0.32952000  0.94615000  0.54564000  1.0
  C  C81  1  0.16275000  0.49203000  0.05384000  1.0
  C  C82  1  0.99594000  0.54557000  0.50837000  1.0
  C  C83  1  0.82952000  0.05385000  0.45436000  1.0
  C  C84  1  0.88050000  0.64589000  0.93392000  1.0
  C  C85  1  0.71403000  0.57985000  0.35412000  1.0
  C  C86  1  0.54773000  0.93390000  0.42018000  1.0
  C  C87  1  0.38050000  0.35411000  0.06608000  1.0
  C  C88  1  0.21404000  0.42014000  0.64589000  1.0
  C  C89  1  0.04773000  0.06611000  0.57981000  1.0
  C  C90  1  0.79194000  0.53959000  0.89582000  1.0
  C  C91  1  0.62523000  0.43554000  0.46025000  1.0
  C  C92  1  0.45880000  0.89591000  0.56445000  1.0
  C  C93  1  0.29193000  0.46041000  0.10418000  1.0
  C  C94  1  0.12523000  0.56445000  0.53976000  1.0
  C  C95  1  0.95880000  0.10409000  0.43555000  1.0
  C  C96  1  0.86672000  0.84169000  0.70522000  1.0
  C  C97  1  0.70003000  0.54689000  0.15831000  1.0
  C  C98  1  0.53348000  0.70518000  0.45322000  1.0
  C  C99  1  0.36671000  0.15832000  0.29477000  1.0
  C  C100  1  0.20003000  0.45311000  0.84169000  1.0
  C  C101  1  0.03348000  0.29482000  0.54678000  1.0
  C  C102  1  0.03487000  0.70955000  0.80643000  1.0
  C  C103  1  0.86826000  0.51594000  0.29044000  1.0
  C  C104  1  0.70177000  0.80618000  0.48438000  1.0
  C  C105  1  0.53486000  0.29045000  0.19357000  1.0
  C  C106  1  0.36827000  0.48406000  0.70956000  1.0
  C  C107  1  0.20177000  0.19382000  0.51562000  1.0
  C  C108  1  0.83052000  0.78225000  0.79011000  1.0
  C  C109  1  0.66396000  0.57242000  0.21774000  1.0
  C  C110  1  0.49758000  0.79016000  0.42764000  1.0
  C  C111  1  0.33051000  0.21775000  0.20988000  1.0
  C  C112  1  0.16396000  0.42758000  0.78226000  1.0
  C  C113  1  0.99757000  0.20984000  0.57236000  1.0
  C  C114  1  0.06399000  0.77069000  0.72115000  1.0
  C  C115  1  0.89726000  0.49173000  0.22932000  1.0
  C  C116  1  0.73062000  0.72083000  0.50862000  1.0
  C  C117  1  0.56398000  0.22930000  0.27885000  1.0
  C  C118  1  0.39727000  0.50827000  0.77068000  1.0
  C  C119  1  0.23061000  0.27917000  0.49138000  1.0
  C  C120  1  0.84467000  0.47313000  0.87295000  1.0
  C  C121  1  0.67768000  0.34619000  0.52680000  1.0
  C  C122  1  0.51140000  0.87307000  0.65380000  1.0
  C  C123  1  0.34467000  0.52687000  0.12705000  1.0
  C  C124  1  0.17768000  0.65380000  0.47321000  1.0
  C  C125  1  0.01140000  0.12693000  0.34620000  1.0
  Br  Br126  1  0.89486000  0.31573000  0.12756000  1.0
  Br  Br127  1  0.72654000  0.44271000  0.68456000  1.0
  Br  Br128  1  0.56036000  0.12784000  0.55665000  1.0
  Br  Br129  1  0.39486000  0.68427000  0.87245000  1.0
  Br  Br130  1  0.22654000  0.55729000  0.31544000  1.0
  Br  Br131  1  0.06035000  0.87217000  0.44334000  1.0
  N  N132  1  0.88773000  0.55697000  0.94727000  1.0
  N  N133  1  0.72111000  0.50425000  0.44303000  1.0
  N  N134  1  0.55469000  0.94736000  0.49571000  1.0
  N  N135  1  0.38773000  0.44304000  0.05272000  1.0
  N  N136  1  0.22111000  0.49574000  0.55697000  1.0
  N  N137  1  0.05468000  0.05263000  0.50429000  1.0
  N  N138  1  0.98086000  0.83566000  0.67083000  1.0
  N  N139  1  0.81408000  0.50640000  0.16435000  1.0
  N  N140  1  0.64738000  0.67060000  0.49388000  1.0
  N  N141  1  0.48086000  0.16433000  0.32917000  1.0
  N  N142  1  0.31407000  0.49360000  0.83565000  1.0
  N  N143  1  0.14737000  0.32939000  0.50613000  1.0
  O  O144  1  0.66132000  0.48504000  0.02672000  1.0
  O  O145  1  0.49443000  0.51204000  0.51456000  1.0
  O  O146  1  0.32799000  0.02669000  0.48806000  1.0
  O  O147  1  0.16131000  0.51496000  0.97328000  1.0
  O  O148  1  0.99444000  0.48797000  0.48543000  1.0
  O  O149  1  0.82798000  0.97332000  0.51194000  1.0
  O  O150  1  0.56581000  0.50650000  0.90290000  1.0
  O  O151  1  0.39897000  0.40980000  0.49289000  1.0
  O  O152  1  0.23261000  0.90275000  0.59028000  1.0
  O  O153  1  0.06582000  0.49350000  0.09710000  1.0
  O  O154  1  0.89898000  0.59020000  0.50711000  1.0
  O  O155  1  0.73261000  0.09726000  0.40972000  1.0
