# generated using pymatgen
data_CdH6C2N5Cl3
_symmetry_space_group_name_H-M   'P 1'
_cell_length_a   6.56794000
_cell_length_b   11.40770000
_cell_length_c   11.73360000
_cell_angle_alpha   90.00020000
_cell_angle_beta   101.73200000
_cell_angle_gamma   90.00010000
_symmetry_Int_Tables_number   1
_chemical_formula_structural   CdH6C2N5Cl3
_chemical_formula_sum   'Cd4 H24 C8 N20 Cl12'
_cell_volume   860.77524248
_cell_formula_units_Z   4
loop_
 _symmetry_equiv_pos_site_id
 _symmetry_equiv_pos_as_xyz
  1  'x, y, z'
loop_
 _atom_site_type_symbol
 _atom_site_label
 _atom_site_symmetry_multiplicity
 _atom_site_fract_x
 _atom_site_fract_y
 _atom_site_fract_z
 _atom_site_occupancy
  Cd  Cd0  1  0.73738000  0.05906000  0.44516000  1.0
  Cd  Cd1  1  0.26262000  0.55905000  0.05484000  1.0
  Cd  Cd2  1  0.26262000  0.94095000  0.55484000  1.0
  Cd  Cd3  1  0.73738000  0.44094000  0.94516000  1.0
  H  H4  1  0.28880000  0.22385000  0.27676000  1.0
  H  H5  1  0.71121000  0.72384000  0.22324000  1.0
  H  H6  1  0.71122000  0.77616000  0.72324000  1.0
  H  H7  1  0.28878000  0.27615000  0.77676000  1.0
  H  H8  1  0.63846000  0.30805000  0.60276000  1.0
  H  H9  1  0.36154000  0.80805000  0.89723000  1.0
  H  H10  1  0.36154000  0.69196000  0.39723000  1.0
  H  H11  1  0.63846000  0.19195000  0.10276000  1.0
  H  H12  1  0.94817000  0.32570000  0.32544000  1.0
  H  H13  1  0.05184000  0.82570000  0.17456000  1.0
  H  H14  1  0.05184000  0.67430000  0.67456000  1.0
  H  H15  1  0.94816000  0.17430000  0.82544000  1.0
  H  H16  1  0.05151000  0.45432000  0.29607000  1.0
  H  H17  1  0.94849000  0.95432000  0.20393000  1.0
  H  H18  1  0.94850000  0.54568000  0.70393000  1.0
  H  H19  1  0.05150000  0.04568000  0.79606000  1.0
  H  H20  1  0.15847000  0.49951000  0.56726000  1.0
  H  H21  1  0.84153000  0.99952000  0.93274000  1.0
  H  H22  1  0.84154000  0.50049000  0.43274000  1.0
  H  H23  1  0.15846000  0.00048000  0.06726000  1.0
  H  H24  1  0.38051000  0.46645000  0.66897000  1.0
  H  H25  1  0.61950000  0.96646000  0.83102000  1.0
  H  H26  1  0.61950000  0.53354000  0.33103000  1.0
  H  H27  1  0.38050000  0.03354000  0.16897000  1.0
  C  C28  1  0.34593000  0.26428000  0.36071000  1.0
  C  C29  1  0.65407000  0.76427000  0.13929000  1.0
  C  C30  1  0.65407000  0.73573000  0.63929000  1.0
  C  C31  1  0.34593000  0.23572000  0.86071000  1.0
  C  C32  1  0.34935000  0.37777000  0.51396000  1.0
  C  C33  1  0.65065000  0.87776000  0.98604000  1.0
  C  C34  1  0.65065000  0.62224000  0.48604000  1.0
  C  C35  1  0.34934000  0.12223000  0.01396000  1.0
  N  N36  1  0.23822000  0.35066000  0.40543000  1.0
  N  N37  1  0.76179000  0.85066000  0.09457000  1.0
  N  N38  1  0.76179000  0.64935000  0.59457000  1.0
  N  N39  1  0.23821000  0.14934000  0.90543000  1.0
  N  N40  1  0.51682000  0.23820000  0.43500000  1.0
  N  N41  1  0.48319000  0.73819000  0.06500000  1.0
  N  N42  1  0.48319000  0.76181000  0.56500000  1.0
  N  N43  1  0.51681000  0.26180000  0.93500000  1.0
  N  N44  1  0.51823000  0.30913000  0.52951000  1.0
  N  N45  1  0.48177000  0.80913000  0.97049000  1.0
  N  N46  1  0.48177000  0.69087000  0.47049000  1.0
  N  N47  1  0.51822000  0.19087000  0.02951000  1.0
  N  N48  1  0.04004000  0.39529000  0.36117000  1.0
  N  N49  1  0.95997000  0.89529000  0.13883000  1.0
  N  N50  1  0.95997000  0.60471000  0.63883000  1.0
  N  N51  1  0.04003000  0.10471000  0.86117000  1.0
  N  N52  1  0.30099000  0.45910000  0.58458000  1.0
  N  N53  1  0.69902000  0.95909000  0.91542000  1.0
  N  N54  1  0.69902000  0.54091000  0.41542000  1.0
  N  N55  1  0.30098000  0.04090000  0.08458000  1.0
  Cl  Cl56  1  0.61147000  0.03948000  0.65171000  1.0
  Cl  Cl57  1  0.38852000  0.53948000  0.84829000  1.0
  Cl  Cl58  1  0.38853000  0.96052000  0.34829000  1.0
  Cl  Cl59  1  0.61147000  0.46052000  0.15171000  1.0
  Cl  Cl60  1  0.07765000  0.14483000  0.56669000  1.0
  Cl  Cl61  1  0.92235000  0.64484000  0.93331000  1.0
  Cl  Cl62  1  0.92235000  0.85517000  0.43331000  1.0
  Cl  Cl63  1  0.07765000  0.35516000  0.06669000  1.0
  Cl  Cl64  1  0.83530000  0.13865000  0.25324000  1.0
  Cl  Cl65  1  0.16471000  0.63865000  0.24676000  1.0
  Cl  Cl66  1  0.16471000  0.86135000  0.74676000  1.0
  Cl  Cl67  1  0.83530000  0.36135000  0.75324000  1.0
