# generated using pymatgen
data_AlH6C18N4O15
_symmetry_space_group_name_H-M   'P 1'
_cell_length_a   6.70273000
_cell_length_b   21.20160000
_cell_length_c   25.08050000
_cell_angle_alpha   97.11380000
_cell_angle_beta   93.77970000
_cell_angle_gamma   95.36340000
_symmetry_Int_Tables_number   1
_chemical_formula_structural   AlH6C18N4O15
_chemical_formula_sum   'Al4 H24 C72 N16 O60'
_cell_volume   3510.38452046
_cell_formula_units_Z   4
loop_
 _symmetry_equiv_pos_site_id
 _symmetry_equiv_pos_as_xyz
  1  'x, y, z'
loop_
 _atom_site_type_symbol
 _atom_site_label
 _atom_site_symmetry_multiplicity
 _atom_site_fract_x
 _atom_site_fract_y
 _atom_site_fract_z
 _atom_site_occupancy
  Al  Al0  1  0.25909000  0.75161000  0.74957000  1.0
  Al  Al1  1  0.75977000  0.25173000  0.24518000  1.0
  Al  Al2  1  0.76194000  0.75400000  0.75424000  1.0
  Al  Al3  1  0.25880000  0.24708000  0.24879000  1.0
  H  H4  1  0.45182000  0.58945000  0.45889000  1.0
  H  H5  1  0.57620000  0.41368000  0.54099000  1.0
  H  H6  1  0.24427000  0.86627000  0.06561000  1.0
  H  H7  1  0.48215000  0.13406000  0.92930000  1.0
  H  H8  1  0.70213000  0.96251000  0.58176000  1.0
  H  H9  1  0.31224000  0.08998000  0.45357000  1.0
  H  H10  1  0.15211000  0.53317000  0.91055000  1.0
  H  H11  1  0.72005000  0.40463000  0.02635000  1.0
  H  H12  1  0.70553000  0.88708000  0.65025000  1.0
  H  H13  1  0.31248000  0.15893000  0.37960000  1.0
  H  H14  1  0.17143000  0.61078000  0.84347000  1.0
  H  H15  1  0.75607000  0.33201000  0.09683000  1.0
  H  H16  1  0.17545000  0.66265000  0.63273000  1.0
  H  H17  1  0.85455000  0.34204000  0.36193000  1.0
  H  H18  1  0.67085000  0.83819000  0.89390000  1.0
  H  H19  1  0.70339000  0.14696000  0.14198000  1.0
  H  H20  1  0.33443000  0.83174000  0.65446000  1.0
  H  H21  1  0.65453000  0.15554000  0.32696000  1.0
  H  H22  1  0.83103000  0.67844000  0.85066000  1.0
  H  H23  1  0.05640000  0.40371000  0.15056000  1.0
  H  H24  1  0.51269000  0.75078000  0.68085000  1.0
  H  H25  1  0.53703000  0.30586000  0.30400000  1.0
  H  H26  1  0.05217000  0.79170000  0.81864000  1.0
  H  H27  1  0.01278000  0.26210000  0.18150000  1.0
  C  C28  1  0.49465000  0.68168000  0.81983000  1.0
  C  C29  1  0.50313000  0.30540000  0.17058000  1.0
  C  C30  1  0.00906000  0.82122000  0.68008000  1.0
  C  C31  1  0.99625000  0.18823000  0.32098000  1.0
  C  C32  1  0.55165000  0.85585000  0.80615000  1.0
  C  C33  1  0.45673000  0.14224000  0.20113000  1.0
  C  C34  1  0.95506000  0.65060000  0.69618000  1.0
  C  C35  1  0.07161000  0.35536000  0.29949000  1.0
  C  C36  1  0.10519000  0.41700000  0.33623000  1.0
  C  C37  1  0.92782000  0.58832000  0.66088000  1.0
  C  C38  1  0.43203000  0.07886000  0.16776000  1.0
  C  C39  1  0.55366000  0.91975000  0.84001000  1.0
  C  C40  1  0.28444000  0.52206000  0.36445000  1.0
  C  C41  1  0.74650000  0.48343000  0.63502000  1.0
  C  C42  1  0.30257000  0.96691000  0.14837000  1.0
  C  C43  1  0.50257000  0.03207000  0.85154000  1.0
  C  C44  1  0.24051000  0.46847000  0.32656000  1.0
  C  C45  1  0.80133000  0.53632000  0.67285000  1.0
  C  C46  1  0.31322000  0.02543000  0.18071000  1.0
  C  C47  1  0.51641000  0.97568000  0.81815000  1.0
  C  C48  1  0.00945000  0.42114000  0.38478000  1.0
  C  C49  1  0.01849000  0.58365000  0.61176000  1.0
  C  C50  1  0.52375000  0.07345000  0.11869000  1.0
  C  C51  1  0.56002000  0.91951000  0.89568000  1.0
  C  C52  1  0.05451000  0.47505000  0.42539000  1.0
  C  C53  1  0.97211000  0.52860000  0.57253000  1.0
  C  C54  1  0.45232000  0.02198000  0.07761000  1.0
  C  C55  1  0.50246000  0.97253000  0.92936000  1.0
  C  C56  1  0.20901000  0.52242000  0.41638000  1.0
  C  C57  1  0.81559000  0.48193000  0.58226000  1.0
  C  C58  1  0.36304000  0.96491000  0.09457000  1.0
  C  C59  1  0.49878000  0.03165000  0.90781000  1.0
  C  C60  1  0.96461000  0.48066000  0.47658000  1.0
  C  C61  1  0.06336000  0.52152000  0.52178000  1.0
  C  C62  1  0.47060000  0.02639000  0.02131000  1.0
  C  C63  1  0.45233000  0.96950000  0.98417000  1.0
  C  C64  1  0.25217000  0.55474000  0.51275000  1.0
  C  C65  1  0.77739000  0.44702000  0.48623000  1.0
  C  C66  1  0.36610000  0.91274000  0.00309000  1.0
  C  C67  1  0.48469000  0.08555000  0.99822000  1.0
  C  C68  1  0.31146000  0.56076000  0.46241000  1.0
  C  C69  1  0.71675000  0.44191000  0.53673000  1.0
  C  C70  1  0.31976000  0.91018000  0.05520000  1.0
  C  C71  1  0.48990000  0.08821000  0.94418000  1.0
  C  C72  1  0.83262000  0.93732000  0.58963000  1.0
  C  C73  1  0.17423000  0.09739000  0.43122000  1.0
  C  C74  1  0.29429000  0.55871000  0.90363000  1.0
  C  C75  1  0.60562000  0.39850000  0.05461000  1.0
  C  C76  1  0.83638000  0.89563000  0.62776000  1.0
  C  C77  1  0.17225000  0.13602000  0.39084000  1.0
  C  C78  1  0.30650000  0.60166000  0.86658000  1.0
  C  C79  1  0.62376000  0.35787000  0.09356000  1.0
  C  C80  1  0.00823000  0.86474000  0.63914000  1.0
  C  C81  1  0.99152000  0.14635000  0.36300000  1.0
  C  C82  1  0.49088000  0.63505000  0.85816000  1.0
  C  C83  1  0.47475000  0.34801000  0.12892000  1.0
  C  C84  1  0.18104000  0.87629000  0.61033000  1.0
  C  C85  1  0.80625000  0.11655000  0.37682000  1.0
  C  C86  1  0.67030000  0.62357000  0.88745000  1.0
  C  C87  1  0.29943000  0.38060000  0.12549000  1.0
  C  C88  1  0.17060000  0.91649000  0.57020000  1.0
  C  C89  1  0.81320000  0.07709000  0.41753000  1.0
  C  C90  1  0.65421000  0.57996000  0.92515000  1.0
  C  C91  1  0.29030000  0.42662000  0.08866000  1.0
  C  C92  1  0.00065000  0.94845000  0.55967000  1.0
  C  C93  1  0.99327000  0.06668000  0.44523000  1.0
  C  C94  1  0.46891000  0.54765000  0.93424000  1.0
  C  C95  1  0.44022000  0.43444000  0.05174000  1.0
  C  C96  1  0.99682000  0.99014000  0.52005000  1.0
  C  C97  1  0.99399000  0.02601000  0.48568000  1.0
  C  C98  1  0.45497000  0.50717000  0.97464000  1.0
  C  C99  1  0.43357000  0.47551000  0.01170000  1.0
  N  N100  1  0.71952000  0.54224000  0.72675000  1.0
  N  N101  1  0.33194000  0.46386000  0.27376000  1.0
  N  N102  1  0.48585000  0.97205000  0.75920000  1.0
  N  N103  1  0.21319000  0.03353000  0.23208000  1.0
  N  N104  1  0.41396000  0.57749000  0.35262000  1.0
  N  N105  1  0.61793000  0.42970000  0.65064000  1.0
  N  N106  1  0.23309000  0.90814000  0.16986000  1.0
  N  N107  1  0.50054000  0.09396000  0.83009000  1.0
  N  N108  1  0.41033000  0.57447000  0.55704000  1.0
  N  N109  1  0.61838000  0.42681000  0.44230000  1.0
  N  N110  1  0.27537000  0.85640000  0.96490000  1.0
  N  N111  1  0.44663000  0.14720000  0.02909000  1.0
  N  N112  1  0.34815000  0.92766000  0.54034000  1.0
  N  N113  1  0.62473000  0.04947000  0.43529000  1.0
  N  N114  1  0.83724000  0.56719000  0.95553000  1.0
  N  N115  1  0.12942000  0.46732000  0.08988000  1.0
  O  O116  1  0.71812000  0.83365000  0.79807000  1.0
  O  O117  1  0.30932000  0.16090000  0.22512000  1.0
  O  O118  1  0.13170000  0.68108000  0.69942000  1.0
  O  O119  1  0.89193000  0.32617000  0.29501000  1.0
  O  O120  1  0.32980000  0.69458000  0.79771000  1.0
  O  O121  1  0.68319000  0.30172000  0.19017000  1.0
  O  O122  1  0.84339000  0.79970000  0.69673000  1.0
  O  O123  1  0.16347000  0.21599000  0.31043000  1.0
  O  O124  1  0.37646000  0.82738000  0.79484000  1.0
  O  O125  1  0.62732000  0.17551000  0.20031000  1.0
  O  O126  1  0.80482000  0.67108000  0.71762000  1.0
  O  O127  1  0.22129000  0.33424000  0.27829000  1.0
  O  O128  1  0.18287000  0.80550000  0.69709000  1.0
  O  O129  1  0.82590000  0.19653000  0.29643000  1.0
  O  O130  1  0.66857000  0.70965000  0.81109000  1.0
  O  O131  1  0.34682000  0.27435000  0.18428000  1.0
  O  O132  1  0.50425000  0.74502000  0.71844000  1.0
  O  O133  1  0.52482000  0.26532000  0.28062000  1.0
  O  O134  1  0.02424000  0.76237000  0.78542000  1.0
  O  O135  1  0.99850000  0.23955000  0.21291000  1.0
  O  O136  1  0.13629000  0.63318000  0.59880000  1.0
  O  O137  1  0.88790000  0.37160000  0.39612000  1.0
  O  O138  1  0.61336000  0.86888000  0.91938000  1.0
  O  O139  1  0.67115000  0.11555000  0.10820000  1.0
  O  O140  1  0.84517000  0.55085000  0.76591000  1.0
  O  O141  1  0.53572000  0.54059000  0.72783000  1.0
  O  O142  1  0.49009000  0.43905000  0.27084000  1.0
  O  O143  1  0.23310000  0.48300000  0.23691000  1.0
  O  O144  1  0.39471000  0.01329000  0.74053000  1.0
  O  O145  1  0.55001000  0.92598000  0.73238000  1.0
  O  O146  1  0.03660000  0.04515000  0.22761000  1.0
  O  O147  1  0.31809000  0.03157000  0.27380000  1.0
  O  O148  1  0.40680000  0.62897000  0.38169000  1.0
  O  O149  1  0.51927000  0.56992000  0.31405000  1.0
  O  O150  1  0.47963000  0.40278000  0.61817000  1.0
  O  O151  1  0.66011000  0.41509000  0.69598000  1.0
  O  O152  1  0.11695000  0.91257000  0.20620000  1.0
  O  O153  1  0.29929000  0.85810000  0.15082000  1.0
  O  O154  1  0.65387000  0.11299000  0.80980000  1.0
  O  O155  1  0.34947000  0.12237000  0.83660000  1.0
  O  O156  1  0.54203000  0.61784000  0.55208000  1.0
  O  O157  1  0.40675000  0.54263000  0.59529000  1.0
  O  O158  1  0.61426000  0.46080000  0.40542000  1.0
  O  O159  1  0.49349000  0.38123000  0.44618000  1.0
  O  O160  1  0.18203000  0.86806000  0.92319000  1.0
  O  O161  1  0.28777000  0.80297000  0.97827000  1.0
  O  O162  1  0.30403000  0.14561000  0.05815000  1.0
  O  O163  1  0.55089000  0.19581000  0.02126000  1.0
  O  O164  1  0.35406000  0.85106000  0.62056000  1.0
  O  O165  1  0.62600000  0.12614000  0.35432000  1.0
  O  O166  1  0.85244000  0.65151000  0.88009000  1.0
  O  O167  1  0.15159000  0.36974000  0.15722000  1.0
  O  O168  1  0.42764000  0.98348000  0.54514000  1.0
  O  O169  1  0.40700000  0.88116000  0.51341000  1.0
  O  O170  1  0.52099000  0.00695000  0.40490000  1.0
  O  O171  1  0.58429000  0.07257000  0.48081000  1.0
  O  O172  1  0.87325000  0.51039000  0.95236000  1.0
  O  O173  1  0.94303000  0.61307000  0.98136000  1.0
  O  O174  1  0.99248000  0.45786000  0.12197000  1.0
  O  O175  1  0.12688000  0.51003000  0.06099000  1.0
