# generated using pymatgen
data_MnH16C24(N2O5)2
_symmetry_space_group_name_H-M   'P 1'
_cell_length_a   6.75718000
_cell_length_b   12.58560000
_cell_length_c   14.71820000
_cell_angle_alpha   115.30400000
_cell_angle_beta   99.05510000
_cell_angle_gamma   90.00760000
_symmetry_Int_Tables_number   1
_chemical_formula_structural   MnH16C24(N2O5)2
_chemical_formula_sum   'Mn2 H32 C48 N8 O20'
_cell_volume   1114.29511756
_cell_formula_units_Z   2
loop_
 _symmetry_equiv_pos_site_id
 _symmetry_equiv_pos_as_xyz
  1  'x, y, z'
loop_
 _atom_site_type_symbol
 _atom_site_label
 _atom_site_symmetry_multiplicity
 _atom_site_fract_x
 _atom_site_fract_y
 _atom_site_fract_z
 _atom_site_occupancy
  Mn  Mn0  1  0.74980000  0.37016000  0.00001000  1.0
  Mn  Mn1  1  0.25022000  0.62985000  0.99999000  1.0
  H  H2  1  0.55402000  0.67534000  0.86752000  1.0
  H  H3  1  0.94614000  0.80803000  0.13198000  1.0
  H  H4  1  0.44597000  0.32463000  0.13249000  1.0
  H  H5  1  0.05390000  0.19194000  0.86802000  1.0
  H  H6  1  0.64937000  0.29826000  0.70793000  1.0
  H  H7  1  0.85051000  0.59052000  0.29148000  1.0
  H  H8  1  0.35068000  0.70172000  0.29208000  1.0
  H  H9  1  0.14945000  0.40948000  0.70852000  1.0
  H  H10  1  0.71554000  0.44342000  0.49624000  1.0
  H  H11  1  0.78462000  0.94732000  0.50327000  1.0
  H  H12  1  0.28444000  0.55658000  0.50378000  1.0
  H  H13  1  0.21541000  0.05268000  0.49673000  1.0
  H  H14  1  0.65215000  0.64110000  0.62348000  1.0
  H  H15  1  0.84818000  0.01778000  0.37610000  1.0
  H  H16  1  0.34782000  0.35890000  0.37654000  1.0
  H  H17  1  0.15185000  0.98221000  0.62388000  1.0
  H  H18  1  0.76378000  0.00192000  0.08116000  1.0
  H  H19  1  0.73559000  0.92077000  0.91885000  1.0
  H  H20  1  0.23620000  0.99810000  0.91885000  1.0
  H  H21  1  0.26438000  0.07924000  0.08114000  1.0
  H  H22  1  0.88464000  0.10879000  0.26709000  1.0
  H  H23  1  0.61553000  0.84177000  0.73286000  1.0
  H  H24  1  0.11536000  0.89123000  0.73292000  1.0
  H  H25  1  0.38444000  0.15824000  0.26713000  1.0
  H  H26  1  0.97301000  0.32713000  0.34478000  1.0
  H  H27  1  0.52761000  0.98242000  0.65511000  1.0
  H  H28  1  0.02701000  0.67289000  0.65522000  1.0
  H  H29  1  0.47239000  0.01760000  0.34488000  1.0
  H  H30  1  0.94518000  0.42694000  0.22760000  1.0
  H  H31  1  0.55492000  0.19938000  0.77234000  1.0
  H  H32  1  0.05480000  0.57307000  0.77239000  1.0
  H  H33  1  0.44512000  0.80064000  0.22765000  1.0
  C  C34  1  0.57967000  0.49882000  0.86492000  1.0
  C  C35  1  0.92021000  0.63411000  0.13458000  1.0
  C  C36  1  0.42034000  0.50117000  0.13507000  1.0
  C  C37  1  0.07977000  0.36588000  0.86543000  1.0
  C  C38  1  0.61518000  0.48397000  0.76303000  1.0
  C  C39  1  0.88485000  0.72117000  0.23647000  1.0
  C  C40  1  0.38483000  0.51601000  0.23697000  1.0
  C  C41  1  0.11512000  0.27882000  0.76353000  1.0
  C  C42  1  0.64821000  0.37361000  0.69024000  1.0
  C  C43  1  0.85180000  0.68357000  0.30924000  1.0
  C  C44  1  0.35181000  0.62637000  0.30976000  1.0
  C  C45  1  0.14818000  0.31642000  0.69075000  1.0
  C  C46  1  0.68081000  0.35927000  0.59474000  1.0
  C  C47  1  0.81928000  0.76467000  0.40477000  1.0
  C  C48  1  0.31919000  0.64072000  0.40526000  1.0
  C  C49  1  0.18072000  0.23533000  0.59524000  1.0
  C  C50  1  0.68567000  0.45560000  0.57040000  1.0
  C  C51  1  0.81445000  0.88532000  0.42911000  1.0
  C  C52  1  0.31430000  0.54439000  0.42960000  1.0
  C  C53  1  0.18556000  0.11467000  0.57088000  1.0
  C  C54  1  0.65015000  0.56563000  0.64140000  1.0
  C  C55  1  0.85013000  0.92441000  0.35815000  1.0
  C  C56  1  0.34983000  0.43437000  0.35861000  1.0
  C  C57  1  0.14988000  0.07559000  0.64184000  1.0
  C  C58  1  0.61378000  0.58160000  0.73805000  1.0
  C  C59  1  0.88648000  0.84378000  0.26147000  1.0
  C  C60  1  0.38621000  0.41839000  0.26196000  1.0
  C  C61  1  0.11353000  0.15621000  0.73852000  1.0
  C  C62  1  0.78770000  0.15867000  0.05567000  1.0
  C  C63  1  0.71163000  0.10302000  0.94436000  1.0
  C  C64  1  0.21230000  0.84134000  0.94433000  1.0
  C  C65  1  0.28836000  0.89699000  0.05563000  1.0
  C  C66  1  0.80502000  0.09617000  0.11516000  1.0
  C  C67  1  0.69445000  0.98103000  0.88484000  1.0
  C  C68  1  0.19497000  0.90384000  0.88484000  1.0
  C  C69  1  0.30552000  0.01898000  0.11516000  1.0
  C  C70  1  0.87195000  0.15624000  0.21997000  1.0
  C  C71  1  0.62806000  0.93634000  0.77999000  1.0
  C  C72  1  0.12805000  0.84377000  0.78003000  1.0
  C  C73  1  0.37192000  0.06368000  0.22001000  1.0
  C  C74  1  0.92146000  0.27719000  0.26310000  1.0
  C  C75  1  0.57880000  0.01414000  0.73682000  1.0
  C  C76  1  0.07855000  0.72283000  0.73690000  1.0
  C  C77  1  0.42119000  0.98588000  0.26317000  1.0
  C  C78  1  0.90450000  0.33303000  0.19880000  1.0
  C  C79  1  0.59544000  0.13427000  0.80117000  1.0
  C  C80  1  0.09550000  0.66699000  0.80120000  1.0
  C  C81  1  0.40457000  0.86575000  0.19883000  1.0
  N  N82  1  0.83870000  0.27612000  0.09794000  1.0
  N  N83  1  0.66076000  0.17817000  0.90205000  1.0
  N  N84  1  0.16130000  0.72389000  0.90205000  1.0
  N  N85  1  0.33924000  0.82185000  0.09794000  1.0
  N  N86  1  0.70610000  0.24214000  0.51986000  1.0
  N  N87  1  0.79393000  0.72234000  0.47962000  1.0
  N  N88  1  0.29390000  0.75786000  0.48014000  1.0
  N  N89  1  0.20608000  0.27764000  0.52038000  1.0
  O  O90  1  0.60057000  0.41198000  0.88671000  1.0
  O  O91  1  0.89922000  0.52549000  0.11281000  1.0
  O  O92  1  0.39949000  0.58798000  0.11328000  1.0
  O  O93  1  0.10071000  0.47450000  0.88720000  1.0
  O  O94  1  0.52491000  0.59981000  0.92430000  1.0
  O  O95  1  0.97505000  0.67570000  0.07518000  1.0
  O  O96  1  0.47507000  0.40015000  0.07569000  1.0
  O  O97  1  0.02499000  0.32428000  0.92483000  1.0
  O  O98  1  0.68312000  0.15740000  0.54116000  1.0
  O  O99  1  0.81674000  0.61630000  0.45827000  1.0
  O  O100  1  0.31688000  0.84259000  0.45883000  1.0
  O  O101  1  0.18327000  0.38372000  0.54175000  1.0
  O  O102  1  0.74879000  0.23023000  0.43659000  1.0
  O  O103  1  0.75136000  0.79370000  0.56293000  1.0
  O  O104  1  0.25122000  0.76977000  0.56342000  1.0
  O  O105  1  0.24864000  0.20632000  0.43708000  1.0
  O  O106  1  0.58306000  0.68901000  0.80637000  1.0
  O  O107  1  0.91722000  0.88287000  0.19314000  1.0
  O  O108  1  0.41693000  0.31097000  0.19364000  1.0
  O  O109  1  0.08281000  0.11711000  0.80685000  1.0
