# generated using pymatgen
data_Al2Zn3H60C60N6(ClO2)6
_symmetry_space_group_name_H-M   'P 1'
_cell_length_a   13.62630000
_cell_length_b   16.69370000
_cell_length_c   22.90410806
_cell_angle_alpha   83.75794157
_cell_angle_beta   72.70429900
_cell_angle_gamma   65.92430000
_symmetry_Int_Tables_number   1
_chemical_formula_structural   Al2Zn3H60C60N6(ClO2)6
_chemical_formula_sum   'Al4 Zn6 H120 C120 N12 Cl12 O24'
_cell_volume   4541.27561895
_cell_formula_units_Z   2
loop_
 _symmetry_equiv_pos_site_id
 _symmetry_equiv_pos_as_xyz
  1  'x, y, z'
loop_
 _atom_site_type_symbol
 _atom_site_label
 _atom_site_symmetry_multiplicity
 _atom_site_fract_x
 _atom_site_fract_y
 _atom_site_fract_z
 _atom_site_occupancy
  Al  Al0  1  0.70931000  0.10567000  0.96963000  1.0
  Al  Al1  1  0.28475000  0.39420000  0.53013000  1.0
  Al  Al2  1  0.29070000  0.89433000  0.03037000  1.0
  Al  Al3  1  0.71525000  0.60580000  0.46987000  1.0
  Zn  Zn4  1  0.97582000  0.54937000  0.82287000  1.0
  Zn  Zn5  1  0.84787000  0.95057000  0.67727000  1.0
  Zn  Zn6  1  0.02418000  0.45063000  0.17713000  1.0
  Zn  Zn7  1  0.15213000  0.04943000  0.32273000  1.0
  Zn  Zn8  1  0.46632000  0.74988000  0.75001000  1.0
  Zn  Zn9  1  0.53369000  0.25013000  0.24998000  1.0
  H  H10  1  0.80509000  0.17261000  0.78126000  1.0
  H  H11  1  0.25916000  0.32745000  0.71869000  1.0
  H  H12  1  0.19491000  0.82739000  0.21874000  1.0
  H  H13  1  0.74084000  0.67255000  0.28131000  1.0
  H  H14  1  0.86461000  0.24406000  0.79459000  1.0
  H  H15  1  0.40342000  0.25600000  0.70534000  1.0
  H  H16  1  0.13539000  0.75594000  0.20541000  1.0
  H  H17  1  0.59658000  0.74400000  0.29466000  1.0
  H  H18  1  0.72578000  0.28873000  0.78968000  1.0
  H  H19  1  0.30430000  0.21134000  0.71024000  1.0
  H  H20  1  0.27422000  0.71127000  0.21032000  1.0
  H  H21  1  0.69570000  0.78867000  0.28976000  1.0
  H  H22  1  0.57521000  0.36067000  0.05977000  1.0
  H  H23  1  0.49560000  0.13917000  0.44026000  1.0
  H  H24  1  0.42479000  0.63933000  0.94023000  1.0
  H  H25  1  0.50440000  0.86083000  0.55974000  1.0
  H  H26  1  0.62567000  0.42244000  0.99751000  1.0
  H  H27  1  0.54557000  0.07741000  0.50253000  1.0
  H  H28  1  0.37435000  0.57756000  0.00249000  1.0
  H  H29  1  0.45444000  0.92260000  0.49747000  1.0
  H  H30  1  0.71715000  0.34817000  0.03782000  1.0
  H  H31  1  0.60320000  0.15161000  0.46219000  1.0
  H  H32  1  0.28285000  0.65182000  0.96218000  1.0
  H  H33  1  0.39680000  0.84839000  0.53780000  1.0
  H  H34  1  0.74082000  0.56041000  0.85074000  1.0
  H  H35  1  0.65179000  0.93964000  0.64932000  1.0
  H  H36  1  0.25918000  0.43959000  0.14926000  1.0
  H  H37  1  0.34822000  0.06037000  0.35068000  1.0
  H  H38  1  0.63799000  0.46229000  0.88279000  1.0
  H  H39  1  0.48297000  0.03782000  0.61726000  1.0
  H  H40  1  0.36201000  0.53771000  0.11721000  1.0
  H  H41  1  0.51703000  0.96218000  0.38274000  1.0
  H  H42  1  0.94788000  0.25390000  0.89708000  1.0
  H  H43  1  0.59913000  0.24606000  0.60283000  1.0
  H  H44  1  0.05212000  0.74610000  0.10292000  1.0
  H  H45  1  0.40087000  0.75395000  0.39717000  1.0
  H  H46  1  0.04073000  0.36090000  0.86172000  1.0
  H  H47  1  0.76358000  0.13896000  0.63820000  1.0
  H  H48  1  0.95928000  0.63910000  0.13828000  1.0
  H  H49  1  0.23641000  0.86104000  0.36181000  1.0
  H  H50  1  0.37607000  0.15214000  0.96887000  1.0
  H  H51  1  0.99672000  0.34798000  0.53112000  1.0
  H  H52  1  0.62393000  0.84786000  0.03113000  1.0
  H  H53  1  0.00328000  0.65202000  0.46888000  1.0
  H  H54  1  0.31609000  0.19423000  0.04559000  1.0
  H  H55  1  0.05545000  0.30582000  0.45441000  1.0
  H  H56  1  0.68391000  0.80577000  0.95441000  1.0
  H  H57  1  0.94455000  0.69418000  0.54559000  1.0
  H  H58  1  0.34190000  0.08448000  0.03145000  1.0
  H  H59  1  0.95763000  0.41565000  0.46850000  1.0
  H  H60  1  0.65810000  0.91552000  0.96855000  1.0
  H  H61  1  0.04237000  0.58435000  0.53150000  1.0
  H  H62  1  0.72469000  0.99707000  0.14822000  1.0
  H  H63  1  0.36989000  0.50267000  0.35153000  1.0
  H  H64  1  0.27531000  0.00293000  0.85178000  1.0
  H  H65  1  0.63011000  0.49733000  0.64847000  1.0
  H  H66  1  0.61861000  0.95510000  0.15964000  1.0
  H  H67  1  0.23329000  0.54462000  0.34009000  1.0
  H  H68  1  0.38139000  0.04490000  0.84036000  1.0
  H  H69  1  0.76670000  0.45538000  0.65991000  1.0
  H  H70  1  0.58240000  0.06016000  0.18816000  1.0
  H  H71  1  0.33057000  0.43952000  0.31164000  1.0
  H  H72  1  0.41760000  0.93984000  0.81184000  1.0
  H  H73  1  0.66943000  0.56048000  0.68836000  1.0
  H  H74  1  0.83144000  0.85215000  0.88140000  1.0
  H  H75  1  0.06515000  0.64765000  0.61849000  1.0
  H  H76  1  0.16856000  0.14785000  0.11860000  1.0
  H  H77  1  0.93485000  0.35235000  0.38151000  1.0
  H  H78  1  0.97414000  0.81190000  0.88151000  1.0
  H  H79  1  0.16777000  0.68785000  0.61838000  1.0
  H  H80  1  0.02586000  0.18810000  0.11849000  1.0
  H  H81  1  0.83223000  0.31214000  0.38162000  1.0
  H  H82  1  0.93153000  0.87573000  0.82009000  1.0
  H  H83  1  0.12765000  0.62396000  0.67976000  1.0
  H  H84  1  0.06848000  0.12426000  0.17991000  1.0
  H  H85  1  0.87235000  0.37604000  0.32024000  1.0
  H  H86  1  0.01447000  0.13432000  0.95826000  1.0
  H  H87  1  0.60720000  0.36569000  0.54161000  1.0
  H  H88  1  0.98553000  0.86568000  0.04174000  1.0
  H  H89  1  0.39280000  0.63431000  0.45839000  1.0
  H  H90  1  0.08246000  0.09008000  0.88214000  1.0
  H  H91  1  0.55469000  0.40994000  0.61775000  1.0
  H  H92  1  0.91754000  0.90992000  0.11786000  1.0
  H  H93  1  0.44531000  0.59006000  0.38225000  1.0
  H  H94  1  0.11321000  0.02318000  0.94459000  1.0
  H  H95  1  0.58099000  0.47688000  0.55532000  1.0
  H  H96  1  0.88679000  0.97682000  0.05541000  1.0
  H  H97  1  0.41901000  0.52312000  0.44468000  1.0
  H  H98  1  0.33603000  0.77626000  0.88137000  1.0
  H  H99  1  0.49309000  0.72392000  0.61876000  1.0
  H  H100  1  0.66397000  0.22374000  0.11863000  1.0
  H  H101  1  0.50691000  0.27608000  0.38124000  1.0
  H  H102  1  0.14075000  0.86185000  0.94325000  1.0
  H  H103  1  0.44562000  0.63814000  0.55680000  1.0
  H  H104  1  0.85925000  0.13815000  0.05675000  1.0
  H  H105  1  0.55437000  0.36186000  0.44320000  1.0
  H  H106  1  0.06127000  0.96775000  0.77401000  1.0
  H  H107  1  0.30293000  0.53202000  0.72593000  1.0
  H  H108  1  0.93873000  0.03224000  0.22599000  1.0
  H  H109  1  0.69708000  0.46798000  0.27407000  1.0
  H  H110  1  0.26097000  0.87898000  0.71938000  1.0
  H  H111  1  0.35873000  0.62106000  0.78068000  1.0
  H  H112  1  0.73904000  0.12102000  0.28062000  1.0
  H  H113  1  0.64127000  0.37894000  0.21932000  1.0
  H  H114  1  0.42298000  0.95316000  0.10906000  1.0
  H  H115  1  0.98489000  0.54675000  0.39088000  1.0
  H  H116  1  0.57702000  0.04683000  0.89094000  1.0
  H  H117  1  0.01511000  0.45325000  0.60912000  1.0
  H  H118  1  0.27414000  0.94930000  0.20306000  1.0
  H  H119  1  0.92618000  0.55061000  0.29686000  1.0
  H  H120  1  0.72586000  0.05070000  0.79694000  1.0
  H  H121  1  0.07383000  0.44939000  0.70314000  1.0
  H  H122  1  0.24044000  0.18309000  0.26871000  1.0
  H  H123  1  0.19185000  0.31681000  0.23127000  1.0
  H  H124  1  0.75956000  0.81691000  0.73129000  1.0
  H  H125  1  0.80815000  0.68319000  0.76873000  1.0
  H  H126  1  0.38507000  0.20016000  0.17508000  1.0
  H  H127  1  0.25994000  0.29977000  0.32492000  1.0
  H  H128  1  0.61494000  0.79983000  0.82492000  1.0
  H  H129  1  0.74006000  0.70023000  0.67508000  1.0
  C  C130  1  0.78789000  0.23175000  0.80587000  1.0
  C  C131  1  0.32566000  0.26833000  0.69406000  1.0
  C  C132  1  0.21211000  0.76825000  0.19413000  1.0
  C  C133  1  0.67434000  0.73167000  0.30594000  1.0
  C  C134  1  0.74545000  0.22154000  0.87370000  1.0
  C  C135  1  0.34088000  0.27855000  0.62624000  1.0
  C  C136  1  0.25455000  0.77846000  0.12630000  1.0
  C  C137  1  0.65912000  0.72146000  0.37376000  1.0
  C  C138  1  0.73273000  0.28440000  0.91538000  1.0
  C  C139  1  0.43268000  0.21564000  0.58459000  1.0
  C  C140  1  0.26727000  0.71560000  0.08462000  1.0
  C  C141  1  0.56731000  0.78436000  0.41541000  1.0
  C  C142  1  0.67620000  0.28404000  0.97829000  1.0
  C  C143  1  0.43864000  0.21584000  0.52169000  1.0
  C  C144  1  0.32380000  0.71596000  0.02171000  1.0
  C  C145  1  0.56136000  0.78416000  0.47831000  1.0
  C  C146  1  0.64560000  0.35896000  0.02037000  1.0
  C  C147  1  0.52496000  0.14085000  0.47964000  1.0
  C  C148  1  0.35441000  0.64104000  0.97963000  1.0
  C  C149  1  0.47504000  0.85915000  0.52036000  1.0
  C  C150  1  0.78416000  0.49182000  0.86128000  1.0
  C  C151  1  0.63718000  0.00820000  0.63878000  1.0
  C  C152  1  0.21584000  0.50818000  0.13872000  1.0
  C  C153  1  0.36281000  0.99180000  0.36123000  1.0
  C  C154  1  0.72699000  0.43665000  0.87956000  1.0
  C  C155  1  0.54317000  0.06340000  0.62048000  1.0
  C  C156  1  0.27302000  0.56335000  0.12044000  1.0
  C  C157  1  0.45683000  0.93659000  0.37952000  1.0
  C  C158  1  0.78471000  0.34909000  0.89341000  1.0
  C  C159  1  0.52729000  0.15095000  0.60661000  1.0
  C  C160  1  0.21530000  0.65091000  0.10659000  1.0
  C  C161  1  0.47271000  0.84905000  0.39339000  1.0
  C  C162  1  0.89971000  0.32140000  0.88678000  1.0
  C  C163  1  0.60803000  0.17859000  0.61321000  1.0
  C  C164  1  0.10030000  0.67860000  0.11322000  1.0
  C  C165  1  0.39197000  0.82141000  0.38679000  1.0
  C  C166  1  0.95150000  0.37985000  0.86765000  1.0
  C  C167  1  0.69910000  0.12011000  0.63234000  1.0
  C  C168  1  0.04850000  0.62015000  0.13235000  1.0
  C  C169  1  0.30090000  0.87989000  0.36766000  1.0
  C  C170  1  0.37453000  0.13592000  0.01665000  1.0
  C  C171  1  0.02681000  0.36414000  0.48332000  1.0
  C  C172  1  0.62547000  0.86408000  0.98335000  1.0
  C  C173  1  0.97319000  0.63586000  0.51668000  1.0
  C  C174  1  0.48936000  0.10865000  0.02403000  1.0
  C  C175  1  0.12190000  0.39124000  0.47589000  1.0
  C  C176  1  0.51065000  0.89135000  0.97597000  1.0
  C  C177  1  0.87810000  0.60876000  0.52411000  1.0
  C  C178  1  0.50966000  0.08047000  0.08145000  1.0
  C  C179  1  0.17137000  0.41943000  0.41845000  1.0
  C  C180  1  0.49035000  0.91952000  0.91855000  1.0
  C  C181  1  0.82863000  0.58057000  0.58155000  1.0
  C  C182  1  0.61713000  0.05248000  0.08981000  1.0
  C  C183  1  0.25931000  0.44733000  0.41000000  1.0
  C  C184  1  0.38286000  0.94752000  0.91020000  1.0
  C  C185  1  0.74068000  0.55267000  0.59000000  1.0
  C  C186  1  0.63746000  0.01410000  0.14985000  1.0
  C  C187  1  0.30133000  0.48563000  0.34990000  1.0
  C  C188  1  0.36254000  0.98590000  0.85015000  1.0
  C  C189  1  0.69867000  0.51437000  0.65010000  1.0
  C  C190  1  0.41738000  0.07686000  0.13487000  1.0
  C  C191  1  0.12881000  0.42308000  0.36507000  1.0
  C  C192  1  0.58262000  0.92313000  0.86513000  1.0
  C  C193  1  0.87119000  0.57692000  0.63493000  1.0
  C  C194  1  0.90518000  0.86792000  0.86991000  1.0
  C  C195  1  0.14322000  0.63183000  0.62993000  1.0
  C  C196  1  0.09482000  0.13208000  0.13009000  1.0
  C  C197  1  0.85678000  0.36817000  0.37007000  1.0
  C  C198  1  0.88030000  0.95036000  0.90214000  1.0
  C  C199  1  0.23297000  0.54944000  0.59766000  1.0
  C  C200  1  0.11971000  0.04964000  0.09786000  1.0
  C  C201  1  0.76703000  0.45056000  0.40234000  1.0
  C  C202  1  0.96829000  0.97661000  0.89953000  1.0
  C  C203  1  0.34455000  0.52315000  0.60037000  1.0
  C  C204  1  0.03171000  0.02339000  0.10047000  1.0
  C  C205  1  0.65545000  0.47685000  0.39963000  1.0
  C  C206  1  0.95005000  0.05047000  0.93239000  1.0
  C  C207  1  0.43306000  0.44941000  0.56743000  1.0
  C  C208  1  0.04996000  0.94952000  0.06761000  1.0
  C  C209  1  0.56694000  0.55059000  0.43257000  1.0
  C  C210  1  0.04525000  0.07587000  0.92965000  1.0
  C  C211  1  0.55088000  0.42412000  0.57022000  1.0
  C  C212  1  0.95475000  0.92413000  0.07035000  1.0
  C  C213  1  0.44912000  0.57588000  0.42978000  1.0
  C  C214  1  0.27184000  0.81881000  0.85969000  1.0
  C  C215  1  0.44995000  0.68125000  0.64040000  1.0
  C  C216  1  0.72816000  0.18119000  0.14031000  1.0
  C  C217  1  0.55005000  0.31875000  0.35960000  1.0
  C  C218  1  0.16290000  0.86649000  0.89358000  1.0
  C  C219  1  0.42280000  0.63344000  0.60645000  1.0
  C  C220  1  0.83710000  0.13350000  0.10642000  1.0
  C  C221  1  0.57720000  0.36656000  0.39355000  1.0
  C  C222  1  0.08417000  0.92238000  0.86383000  1.0
  C  C223  1  0.37038000  0.57741000  0.63614000  1.0
  C  C224  1  0.91584000  0.07762000  0.13616000  1.0
  C  C225  1  0.62961000  0.42259000  0.36387000  1.0
  C  C226  1  0.11932000  0.92636000  0.79978000  1.0
  C  C227  1  0.34532000  0.57347000  0.70021000  1.0
  C  C228  1  0.88068000  0.07364000  0.20022000  1.0
  C  C229  1  0.65468000  0.42653000  0.29979000  1.0
  C  C230  1  0.22984000  0.87665000  0.76902000  1.0
  C  C231  1  0.37511000  0.62332000  0.73104000  1.0
  C  C232  1  0.77017000  0.12335000  0.23097000  1.0
  C  C233  1  0.62489000  0.37668000  0.26896000  1.0
  C  C234  1  0.38515000  0.00569000  0.14323000  1.0
  C  C235  1  0.03377000  0.49422000  0.35671000  1.0
  C  C236  1  0.61485000  0.99430000  0.85677000  1.0
  C  C237  1  0.96623000  0.50577000  0.64329000  1.0
  C  C238  1  0.30271000  0.00286000  0.19545000  1.0
  C  C239  1  0.00074000  0.49707000  0.30448000  1.0
  C  C240  1  0.69728000  0.99714000  0.80455000  1.0
  C  C241  1  0.99926000  0.50293000  0.69552000  1.0
  C  C242  1  0.28298000  0.13493000  0.23137000  1.0
  C  C243  1  0.14892000  0.36497000  0.26861000  1.0
  C  C244  1  0.71703000  0.86507000  0.76863000  1.0
  C  C245  1  0.85108000  0.63503000  0.73139000  1.0
  C  C246  1  0.36329000  0.14323000  0.17986000  1.0
  C  C247  1  0.18606000  0.35669000  0.32009000  1.0
  C  C248  1  0.63672000  0.85677000  0.82014000  1.0
  C  C249  1  0.81394000  0.64330000  0.67991000  1.0
  N  N250  1  0.89438000  0.46398000  0.85542000  1.0
  N  N251  1  0.71379000  0.03599000  0.64460000  1.0
  N  N252  1  0.10562000  0.53602000  0.14458000  1.0
  N  N253  1  0.28621000  0.96401000  0.35540000  1.0
  N  N254  1  0.25334000  0.06602000  0.23910000  1.0
  N  N255  1  0.05818000  0.43390000  0.26083000  1.0
  N  N256  1  0.74666000  0.93398000  0.76090000  1.0
  N  N257  1  0.94182000  0.56610000  0.73917000  1.0
  N  N258  1  0.30496000  0.82403000  0.79841000  1.0
  N  N259  1  0.42697000  0.67599000  0.70168000  1.0
  N  N260  1  0.69504000  0.17597000  0.20159000  1.0
  N  N261  1  0.57303000  0.32401000  0.29832000  1.0
  Cl  Cl262  1  0.86844000  0.67267000  0.87617000  1.0
  Cl  Cl263  1  0.91722000  0.82723000  0.62400000  1.0
  Cl  Cl264  1  0.13156000  0.32733000  0.12383000  1.0
  Cl  Cl265  1  0.08278000  0.17277000  0.37600000  1.0
  Cl  Cl266  1  0.15886000  0.47037000  0.80594000  1.0
  Cl  Cl267  1  0.93508000  0.02950000  0.69423000  1.0
  Cl  Cl268  1  0.84114000  0.52964000  0.19406000  1.0
  Cl  Cl269  1  0.06492000  0.97050000  0.30577000  1.0
  Cl  Cl270  1  0.55457000  0.66331000  0.81552000  1.0
  Cl  Cl271  1  0.53355000  0.83632000  0.68438000  1.0
  Cl  Cl272  1  0.44544000  0.33669000  0.18447000  1.0
  Cl  Cl273  1  0.46645000  0.16369000  0.31562000  1.0
  O  O274  1  0.71849000  0.15551000  0.89047000  1.0
  O  O275  1  0.26476000  0.34458000  0.60942000  1.0
  O  O276  1  0.28151000  0.84449000  0.10953000  1.0
  O  O277  1  0.73524000  0.65542000  0.39058000  1.0
  O  O278  1  0.64906000  0.22056000  0.00346000  1.0
  O  O279  1  0.37311000  0.27923000  0.49649000  1.0
  O  O280  1  0.35094000  0.77944000  0.99654000  1.0
  O  O281  1  0.62689000  0.72078000  0.50351000  1.0
  O  O282  1  0.56586000  0.11245000  0.97596000  1.0
  O  O283  1  0.15435000  0.38732000  0.52392000  1.0
  O  O284  1  0.43414000  0.88755000  0.02404000  1.0
  O  O285  1  0.84565000  0.61268000  0.47608000  1.0
  O  O286  1  0.70269000  0.05584000  0.04790000  1.0
  O  O287  1  0.30650000  0.44391000  0.45184000  1.0
  O  O288  1  0.29731000  0.94416000  0.95210000  1.0
  O  O289  1  0.69350000  0.55609000  0.54816000  1.0
  O  O290  1  0.77794000  0.99333000  0.93195000  1.0
  O  O291  1  0.20340000  0.50658000  0.56774000  1.0
  O  O292  1  0.22207000  0.00667000  0.06805000  1.0
  O  O293  1  0.79660000  0.49342000  0.43226000  1.0
  O  O294  1  0.85343000  0.10058000  0.96556000  1.0
  O  O295  1  0.41976000  0.39941000  0.53413000  1.0
  O  O296  1  0.14657000  0.89941000  0.03444000  1.0
  O  O297  1  0.58024000  0.60059000  0.46587000  1.0
