# generated using pymatgen
data_Sr2H23C31N5O19
_symmetry_space_group_name_H-M   'P 1'
_cell_length_a   13.66160000
_cell_length_b   16.19110000
_cell_length_c   26.85984134
_cell_angle_alpha   107.53888033
_cell_angle_beta   103.23912633
_cell_angle_gamma   90.01010000
_symmetry_Int_Tables_number   1
_chemical_formula_structural   Sr2H23C31N5O19
_chemical_formula_sum   'Sr8 H92 C124 N20 O76'
_cell_volume   5499.19686398
_cell_formula_units_Z   4
loop_
 _symmetry_equiv_pos_site_id
 _symmetry_equiv_pos_as_xyz
  1  'x, y, z'
loop_
 _atom_site_type_symbol
 _atom_site_label
 _atom_site_symmetry_multiplicity
 _atom_site_fract_x
 _atom_site_fract_y
 _atom_site_fract_z
 _atom_site_occupancy
  Sr  Sr0  1  0.29642000  0.19311000  0.23377000  1.0
  Sr  Sr1  1  0.79613000  0.04044000  0.23377000  1.0
  Sr  Sr2  1  0.31881000  0.38670000  0.81253000  1.0
  Sr  Sr3  1  0.81890000  0.42626000  0.81255000  1.0
  Sr  Sr4  1  0.52236000  0.42134000  0.73094000  1.0
  Sr  Sr5  1  0.02231000  0.30995000  0.73081000  1.0
  Sr  Sr6  1  0.02549000  0.06232000  0.16134000  1.0
  Sr  Sr7  1  0.52540000  0.09874000  0.16127000  1.0
  H  H8  1  0.33681000  0.98328000  0.04544000  1.0
  H  H9  1  0.83688000  0.06195000  0.04545000  1.0
  H  H10  1  0.15299000  0.88655000  0.12893000  1.0
  H  H11  1  0.65294000  0.24202000  0.12889000  1.0
  H  H12  1  0.12373000  0.74399000  0.05685000  1.0
  H  H13  1  0.62374000  0.31258000  0.05685000  1.0
  H  H14  1  0.00767000  0.60968000  0.84969000  1.0
  H  H15  1  0.50757000  0.24014000  0.84970000  1.0
  H  H16  1  0.06721000  0.74997000  0.92157000  1.0
  H  H17  1  0.56697000  0.17150000  0.92146000  1.0
  H  H18  1  0.23854000  0.48249000  0.93088000  1.0
  H  H19  1  0.73894000  0.44809000  0.93093000  1.0
  H  H20  1  0.38519000  0.11450000  0.80749000  1.0
  H  H21  1  0.88560000  0.69322000  0.80747000  1.0
  H  H22  1  0.40953000  0.96945000  0.81995000  1.0
  H  H23  1  0.90994000  0.85075000  0.82002000  1.0
  H  H24  1  0.09432000  0.01950000  0.70153000  1.0
  H  H25  1  0.59460000  0.68246000  0.70164000  1.0
  H  H26  1  0.41300000  0.81757000  0.74121000  1.0
  H  H27  1  0.91358000  0.92419000  0.74139000  1.0
  H  H28  1  0.46299000  0.67733000  0.75592000  1.0
  H  H29  1  0.96337000  0.07917000  0.75612000  1.0
  H  H30  1  0.22006000  0.67465000  0.83210000  1.0
  H  H31  1  0.72016000  0.15774000  0.83208000  1.0
  H  H32  1  0.90542000  0.34280000  0.12805000  1.0
  H  H33  1  0.40500000  0.78510000  0.12809000  1.0
  H  H34  1  0.91076000  0.50168000  0.14195000  1.0
  H  H35  1  0.41055000  0.63995000  0.14179000  1.0
  H  H36  1  0.19881000  0.37422000  0.23449000  1.0
  H  H37  1  0.69821000  0.86031000  0.23468000  1.0
  H  H38  1  0.07218000  0.39096000  0.63045000  1.0
  H  H39  1  0.57195000  0.23964000  0.63039000  1.0
  H  H40  1  0.27805000  0.19751000  0.52070000  1.0
  H  H41  1  0.77826000  0.32299000  0.52068000  1.0
  H  H42  1  0.34193000  0.25515000  0.61963000  1.0
  H  H43  1  0.84187000  0.36463000  0.61963000  1.0
  H  H44  1  0.96257000  0.07750000  0.34833000  1.0
  H  H45  1  0.46322000  0.27084000  0.34826000  1.0
  H  H46  1  0.19749000  0.26055000  0.35629000  1.0
  H  H47  1  0.69763000  0.09532000  0.35624000  1.0
  H  H48  1  0.22639000  0.31489000  0.45568000  1.0
  H  H49  1  0.72641000  0.14035000  0.45565000  1.0
  H  H50  1  0.88683000  0.77724000  0.24353000  1.0
  H  H51  1  0.38712000  0.46578000  0.24347000  1.0
  H  H52  1  0.93065000  0.62859000  0.24493000  1.0
  H  H53  1  0.43081000  0.61585000  0.24484000  1.0
  H  H54  1  0.11345000  0.78771000  0.15842000  1.0
  H  H55  1  0.61379000  0.37043000  0.15835000  1.0
  H  H56  1  0.66008000  0.55620000  0.02466000  1.0
  H  H57  1  0.16012000  0.46825000  0.02450000  1.0
  H  H58  1  0.57564000  0.49882000  0.04632000  1.0
  H  H59  1  0.07608000  0.54752000  0.04638000  1.0
  H  H60  1  0.55986000  0.61028000  0.05134000  1.0
  H  H61  1  0.05984000  0.44100000  0.05121000  1.0
  H  H62  1  0.50391000  0.64537000  0.96404000  1.0
  H  H63  1  0.00344000  0.31899000  0.96390000  1.0
  H  H64  1  0.44896000  0.55779000  0.90506000  1.0
  H  H65  1  0.94841000  0.34780000  0.90501000  1.0
  H  H66  1  0.58325000  0.57711000  0.92714000  1.0
  H  H67  1  0.08269000  0.35021000  0.92690000  1.0
  H  H68  1  0.46489000  0.41165000  0.98564000  1.0
  H  H69  1  0.96527000  0.57445000  0.98581000  1.0
  H  H70  1  0.99241000  0.90652000  0.98955000  1.0
  H  H71  1  0.49229000  0.08281000  0.98946000  1.0
  H  H72  1  0.13538000  0.13818000  0.99928000  1.0
  H  H73  1  0.63532000  0.86089000  0.99896000  1.0
  H  H74  1  0.04170000  0.14749000  0.03732000  1.0
  H  H75  1  0.54137000  0.88900000  0.03687000  1.0
  H  H76  1  0.16188000  0.11233000  0.06096000  1.0
  H  H77  1  0.66136000  0.94817000  0.06073000  1.0
  H  H78  1  0.15587000  0.98643000  0.93746000  1.0
  H  H79  1  0.65558000  0.95094000  0.93734000  1.0
  H  H80  1  0.04376000  0.91793000  0.92154000  1.0
  H  H81  1  0.54352000  0.00359000  0.92145000  1.0
  H  H82  1  0.03542000  0.02324000  0.91389000  1.0
  H  H83  1  0.53507000  0.89057000  0.91365000  1.0
  H  H84  1  0.43150000  0.23771000  0.71467000  1.0
  H  H85  1  0.93125000  0.47718000  0.71463000  1.0
  H  H86  1  0.54150000  0.21319000  0.71437000  1.0
  H  H87  1  0.04108000  0.50136000  0.71410000  1.0
  H  H88  1  0.48882000  0.42976000  0.59803000  1.0
  H  H89  1  0.98856000  0.16839000  0.59793000  1.0
  H  H90  1  0.55272000  0.49404000  0.65260000  1.0
  H  H91  1  0.05256000  0.15880000  0.65251000  1.0
  H  H92  1  0.24770000  0.10391000  0.29936000  1.0
  H  H93  1  0.74789000  0.19555000  0.29930000  1.0
  H  H94  1  0.34347000  0.05036000  0.29804000  1.0
  H  H95  1  0.84373000  0.24761000  0.29788000  1.0
  H  H96  1  0.30034000  0.39302000  0.31189000  1.0
  H  H97  1  0.80055000  0.91865000  0.31187000  1.0
  H  H98  1  0.33711000  0.34491000  0.35464000  1.0
  H  H99  1  0.83693000  0.00956000  0.35468000  1.0
  C  C100  1  0.28936000  0.93140000  0.04803000  1.0
  C  C101  1  0.78934000  0.11633000  0.04802000  1.0
  C  C102  1  0.26683000  0.02779000  0.13743000  1.0
  C  C103  1  0.76671000  0.10936000  0.13738000  1.0
  C  C104  1  0.24794000  0.94346000  0.09235000  1.0
  C  C105  1  0.74783000  0.14854000  0.09230000  1.0
  C  C106  1  0.18752000  0.87578000  0.09490000  1.0
  C  C107  1  0.68742000  0.21876000  0.09486000  1.0
  C  C108  1  0.17077000  0.79625000  0.05438000  1.0
  C  C109  1  0.67066000  0.25777000  0.05433000  1.0
  C  C110  1  0.21416000  0.78136000  0.01034000  1.0
  C  C111  1  0.71404000  0.22861000  0.01029000  1.0
  C  C112  1  0.27195000  0.85132000  0.00783000  1.0
  C  C113  1  0.77194000  0.15621000  0.00781000  1.0
  C  C114  1  0.08687000  0.45456000  0.83986000  1.0
  C  C115  1  0.58707000  0.38559000  0.84000000  1.0
  C  C116  1  0.11990000  0.53743000  0.88508000  1.0
  C  C117  1  0.62009000  0.34758000  0.88506000  1.0
  C  C118  1  0.07126000  0.61292000  0.88336000  1.0
  C  C119  1  0.57129000  0.27040000  0.88333000  1.0
  C  C120  1  0.10463000  0.69128000  0.92370000  1.0
  C  C121  1  0.60456000  0.23226000  0.92362000  1.0
  C  C122  1  0.18708000  0.69690000  0.96691000  1.0
  C  C123  1  0.68702000  0.26971000  0.96687000  1.0
  C  C124  1  0.23129000  0.61920000  0.96897000  1.0
  C  C125  1  0.73143000  0.34944000  0.96894000  1.0
  C  C126  1  0.19963000  0.54047000  0.92869000  1.0
  C  C127  1  0.69992000  0.38794000  0.92868000  1.0
  C  C128  1  0.22067000  0.16772000  0.75011000  1.0
  C  C129  1  0.72086000  0.58273000  0.75006000  1.0
  C  C130  1  0.23742000  0.07785000  0.75473000  1.0
  C  C131  1  0.73776000  0.67722000  0.75474000  1.0
  C  C132  1  0.32655000  0.06185000  0.78722000  1.0
  C  C133  1  0.82699000  0.72561000  0.78719000  1.0
  C  C134  1  0.34009000  0.98035000  0.79397000  1.0
  C  C135  1  0.84056000  0.81388000  0.79399000  1.0
  C  C136  1  0.26583000  0.91133000  0.76839000  1.0
  C  C137  1  0.76628000  0.85740000  0.76847000  1.0
  C  C138  1  0.17859000  0.92779000  0.73405000  1.0
  C  C139  1  0.67901000  0.80663000  0.73412000  1.0
  C  C140  1  0.16360000  0.00953000  0.72782000  1.0
  C  C141  1  0.66399000  0.71866000  0.72785000  1.0
  C  C142  1  0.28818000  0.82717000  0.77842000  1.0
  C  C143  1  0.78862000  0.95161000  0.77853000  1.0
  C  C144  1  0.37130000  0.78716000  0.76192000  1.0
  C  C145  1  0.87182000  0.97523000  0.76212000  1.0
  C  C146  1  0.39880000  0.70816000  0.76948000  1.0
  C  C147  1  0.89919000  0.06181000  0.76966000  1.0
  C  C148  1  0.34386000  0.66635000  0.79412000  1.0
  C  C149  1  0.84416000  0.12824000  0.79421000  1.0
  C  C150  1  0.26189000  0.70560000  0.81180000  1.0
  C  C151  1  0.76218000  0.10658000  0.81186000  1.0
  C  C152  1  0.23529000  0.78485000  0.80431000  1.0
  C  C153  1  0.73563000  0.01979000  0.80435000  1.0
  C  C154  1  0.05239000  0.25124000  0.16704000  1.0
  C  C155  1  0.55176000  0.91583000  0.16726000  1.0
  C  C156  1  0.05293000  0.34796000  0.17911000  1.0
  C  C157  1  0.55249000  0.83108000  0.17918000  1.0
  C  C158  1  0.97055000  0.38490000  0.15473000  1.0
  C  C159  1  0.47021000  0.76964000  0.15469000  1.0
  C  C160  1  0.97338000  0.47411000  0.16324000  1.0
  C  C161  1  0.47318000  0.68882000  0.16306000  1.0
  C  C162  1  0.05613000  0.52961000  0.19801000  1.0
  C  C163  1  0.55596000  0.66806000  0.19780000  1.0
  C  C164  1  0.13399000  0.49159000  0.22600000  1.0
  C  C165  1  0.63370000  0.73416000  0.22589000  1.0
  C  C166  1  0.13439000  0.40196000  0.21518000  1.0
  C  C167  1  0.63392000  0.81314000  0.21524000  1.0
  C  C168  1  0.24689000  0.35797000  0.69199000  1.0
  C  C169  1  0.74679000  0.33430000  0.69199000  1.0
  C  C170  1  0.21112000  0.32630000  0.63194000  1.0
  C  C171  1  0.71100000  0.30584000  0.63196000  1.0
  C  C172  1  0.11865000  0.34909000  0.60702000  1.0
  C  C173  1  0.61853000  0.25810000  0.60700000  1.0
  C  C174  1  0.08434000  0.31751000  0.55130000  1.0
  C  C175  1  0.58438000  0.23377000  0.55126000  1.0
  C  C176  1  0.13935000  0.26077000  0.51893000  1.0
  C  C177  1  0.63952000  0.25795000  0.51887000  1.0
  C  C178  1  0.23332000  0.24051000  0.54485000  1.0
  C  C179  1  0.73343000  0.30421000  0.54483000  1.0
  C  C180  1  0.26923000  0.27287000  0.60043000  1.0
  C  C181  1  0.76920000  0.32762000  0.60043000  1.0
  C  C182  1  0.06164000  0.13405000  0.28578000  1.0
  C  C183  1  0.56207000  0.15159000  0.28575000  1.0
  C  C184  1  0.11207000  0.22689000  0.45927000  1.0
  C  C185  1  0.61229000  0.23209000  0.45921000  1.0
  C  C186  1  0.03836000  0.15907000  0.42757000  1.0
  C  C187  1  0.53883000  0.26839000  0.42751000  1.0
  C  C188  1  0.02006000  0.12970000  0.37170000  1.0
  C  C189  1  0.52060000  0.24196000  0.37165000  1.0
  C  C190  1  0.07792000  0.16582000  0.34585000  1.0
  C  C191  1  0.57834000  0.17987000  0.34582000  1.0
  C  C192  1  0.15265000  0.23219000  0.37656000  1.0
  C  C193  1  0.65289000  0.14406000  0.37652000  1.0
  C  C194  1  0.16861000  0.26250000  0.43230000  1.0
  C  C195  1  0.66876000  0.16943000  0.43226000  1.0
  C  C196  1  0.96353000  0.87921000  0.19594000  1.0
  C  C197  1  0.46397000  0.31628000  0.19577000  1.0
  C  C198  1  0.99572000  0.79167000  0.20010000  1.0
  C  C199  1  0.49602000  0.40802000  0.20000000  1.0
  C  C200  1  0.94629000  0.74656000  0.22527000  1.0
  C  C201  1  0.44655000  0.47823000  0.22519000  1.0
  C  C202  1  0.97174000  0.66378000  0.22634000  1.0
  C  C203  1  0.47189000  0.56209000  0.22622000  1.0
  C  C204  1  0.04788000  0.62297000  0.20283000  1.0
  C  C205  1  0.54785000  0.57946000  0.20261000  1.0
  C  C206  1  0.09852000  0.67036000  0.17868000  1.0
  C  C207  1  0.59858000  0.50800000  0.17849000  1.0
  C  C208  1  0.07319000  0.75330000  0.17754000  1.0
  C  C209  1  0.57344000  0.42392000  0.17743000  1.0
  C  C210  1  0.37145000  0.57940000  0.80074000  1.0
  C  C211  1  0.87171000  0.22177000  0.80075000  1.0
  C  C212  1  0.58146000  0.54864000  0.02692000  1.0
  C  C213  1  0.08158000  0.47829000  0.02686000  1.0
  C  C214  1  0.51260000  0.57862000  0.94039000  1.0
  C  C215  1  0.01217000  0.36212000  0.94026000  1.0
  C  C216  1  0.45545000  0.44754000  0.95593000  1.0
  C  C217  1  0.95567000  0.50894000  0.95602000  1.0
  C  C218  1  0.01953000  0.97315000  0.01603000  1.0
  C  C219  1  0.51927000  0.04261000  0.01593000  1.0
  C  C220  1  0.10339000  0.10961000  0.02469000  1.0
  C  C221  1  0.60303000  0.91463000  0.02438000  1.0
  C  C222  1  0.07613000  0.98532000  0.93872000  1.0
  C  C223  1  0.57580000  0.95327000  0.93855000  1.0
  N  N224  1  0.14963000  0.82309000  0.82456000  1.0
  N  N225  1  0.64987000  0.00176000  0.82451000  1.0
  N  N226  1  0.31857000  0.84103000  0.96249000  1.0
  N  N227  1  0.81862000  0.12122000  0.96248000  1.0
  N  N228  1  0.31647000  0.61877000  0.01329000  1.0
  N  N229  1  0.81656000  0.39427000  0.01328000  1.0
  N  N230  1  0.09851000  0.85848000  0.70296000  1.0
  N  N231  1  0.59899000  0.84486000  0.70303000  1.0
  N  N232  1  0.21787000  0.54475000  0.26745000  1.0
  N  N233  1  0.71755000  0.72247000  0.26735000  1.0
  N  N234  1  0.98672000  0.34547000  0.52823000  1.0
  N  N235  1  0.48681000  0.18264000  0.52813000  1.0
  N  N236  1  0.17778000  0.63334000  0.15175000  1.0
  N  N237  1  0.67779000  0.51819000  0.15154000  1.0
  N  N238  1  0.51433000  0.52150000  0.97335000  1.0
  N  N239  1  0.01430000  0.45218000  0.97332000  1.0
  N  N240  1  0.06613000  0.01996000  0.99385000  1.0
  N  N241  1  0.56573000  0.97359000  0.99366000  1.0
  N  N242  1  0.97731000  0.11810000  0.45315000  1.0
  N  N243  1  0.47776000  0.33491000  0.45311000  1.0
  O  O244  1  0.09126000  0.77541000  0.83533000  1.0
  O  O245  1  0.59137000  0.06013000  0.83512000  1.0
  O  O246  1  0.21412000  0.03824000  0.17218000  1.0
  O  O247  1  0.71394000  0.13362000  0.17210000  1.0
  O  O248  1  0.11794000  0.78207000  0.69854000  1.0
  O  O249  1  0.61863000  0.91668000  0.69842000  1.0
  O  O250  1  0.33243000  0.08539000  0.13969000  1.0
  O  O251  1  0.83242000  0.05415000  0.13972000  1.0
  O  O252  1  0.32604000  0.55151000  0.02665000  1.0
  O  O253  1  0.82594000  0.47491000  0.02669000  1.0
  O  O254  1  0.33423000  0.90719000  0.95007000  1.0
  O  O255  1  0.83465000  0.04273000  0.95017000  1.0
  O  O256  1  0.34039000  0.76732000  0.93912000  1.0
  O  O257  1  0.84011000  0.17154000  0.93901000  1.0
  O  O258  1  0.99886000  0.44833000  0.80956000  1.0
  O  O259  1  0.49894000  0.36184000  0.80979000  1.0
  O  O260  1  0.14745000  0.39488000  0.83248000  1.0
  O  O261  1  0.64776000  0.43788000  0.83267000  1.0
  O  O262  1  0.29220000  0.22597000  0.77535000  1.0
  O  O263  1  0.79234000  0.54958000  0.77523000  1.0
  O  O264  1  0.13877000  0.90158000  0.83073000  1.0
  O  O265  1  0.63904000  0.92950000  0.83077000  1.0
  O  O266  1  0.13599000  0.17987000  0.72246000  1.0
  O  O267  1  0.63610000  0.54306000  0.72243000  1.0
  O  O268  1  0.37536000  0.68493000  0.03430000  1.0
  O  O269  1  0.87562000  0.34919000  0.03424000  1.0
  O  O270  1  0.01547000  0.88025000  0.68246000  1.0
  O  O271  1  0.51581000  0.80277000  0.68270000  1.0
  O  O272  1  0.31989000  0.54603000  0.82472000  1.0
  O  O273  1  0.81997000  0.27909000  0.82460000  1.0
  O  O274  1  0.44377000  0.54506000  0.78151000  1.0
  O  O275  1  0.94414000  0.23688000  0.78160000  1.0
  O  O276  1  0.01475000  0.91770000  0.17445000  1.0
  O  O277  1  0.51514000  0.25641000  0.17413000  1.0
  O  O278  1  0.96866000  0.20702000  0.14670000  1.0
  O  O279  1  0.46790000  0.93969000  0.14713000  1.0
  O  O280  1  0.13666000  0.21831000  0.17820000  1.0
  O  O281  1  0.63596000  0.96000000  0.17826000  1.0
  O  O282  1  0.22951000  0.62269000  0.27175000  1.0
  O  O283  1  0.72936000  0.64880000  0.27155000  1.0
  O  O284  1  0.27477000  0.50928000  0.29736000  1.0
  O  O285  1  0.77423000  0.78794000  0.29737000  1.0
  O  O286  1  0.34116000  0.36283000  0.71259000  1.0
  O  O287  1  0.84109000  0.34973000  0.71256000  1.0
  O  O288  1  0.18206000  0.37736000  0.72017000  1.0
  O  O289  1  0.68199000  0.34347000  0.72020000  1.0
  O  O290  1  0.95578000  0.41132000  0.55605000  1.0
  O  O291  1  0.45571000  0.14472000  0.55597000  1.0
  O  O292  1  0.97564000  0.10102000  0.25668000  1.0
  O  O293  1  0.47612000  0.15567000  0.25668000  1.0
  O  O294  1  0.13667000  0.14173000  0.26620000  1.0
  O  O295  1  0.63707000  0.12426000  0.26618000  1.0
  O  O296  1  0.88740000  0.90660000  0.21383000  1.0
  O  O297  1  0.38796000  0.30657000  0.21371000  1.0
  O  O298  1  0.20311000  0.55977000  0.15197000  1.0
  O  O299  1  0.70301000  0.59202000  0.15176000  1.0
  O  O300  1  0.21580000  0.67735000  0.12904000  1.0
  O  O301  1  0.71590000  0.45154000  0.12883000  1.0
  O  O302  1  0.39426000  0.41887000  0.91119000  1.0
  O  O303  1  0.89449000  0.49314000  0.91129000  1.0
  O  O304  1  0.49790000  0.44753000  0.63684000  1.0
  O  O305  1  0.99779000  0.18957000  0.63674000  1.0
  O  O306  1  0.48724000  0.24305000  0.69840000  1.0
  O  O307  1  0.98671000  0.45561000  0.69811000  1.0
  O  O308  1  0.32224000  0.10905000  0.30858000  1.0
  O  O309  1  0.82241000  0.19970000  0.30862000  1.0
  O  O310  1  0.30376000  0.33538000  0.31671000  1.0
  O  O311  1  0.80384000  0.98112000  0.31671000  1.0
  O  O312  1  0.00654000  0.00044000  0.06260000  1.0
  O  O313  1  0.50626000  0.06186000  0.06248000  1.0
  O  O314  1  0.00628000  0.12919000  0.50207000  1.0
  O  O315  1  0.50671000  0.37267000  0.50204000  1.0
  O  O316  1  0.93920000  0.30110000  0.48246000  1.0
  O  O317  1  0.43949000  0.18099000  0.48227000  1.0
  O  O318  1  0.89781000  0.07395000  0.42491000  1.0
  O  O319  1  0.39825000  0.35078000  0.42488000  1.0
