# generated using pymatgen
data_CuH7C7INO2
_symmetry_space_group_name_H-M   'P 1'
_cell_length_a   4.03671000
_cell_length_b   9.17881000
_cell_length_c   24.04110000
_cell_angle_alpha   89.99910000
_cell_angle_beta   89.99880000
_cell_angle_gamma   83.77550000
_symmetry_Int_Tables_number   1
_chemical_formula_structural   CuH7C7INO2
_chemical_formula_sum   'Cu4 H28 C28 I4 N4 O8'
_cell_volume   885.52410767
_cell_formula_units_Z   4
loop_
 _symmetry_equiv_pos_site_id
 _symmetry_equiv_pos_as_xyz
  1  'x, y, z'
loop_
 _atom_site_type_symbol
 _atom_site_label
 _atom_site_symmetry_multiplicity
 _atom_site_fract_x
 _atom_site_fract_y
 _atom_site_fract_z
 _atom_site_occupancy
  Cu  Cu0  1  0.23637000  0.54148000  0.03173000  1.0
  Cu  Cu1  1  0.76361000  0.95853000  0.53173000  1.0
  Cu  Cu2  1  0.76365000  0.45851000  0.96827000  1.0
  Cu  Cu3  1  0.23634000  0.04149000  0.46827000  1.0
  H  H4  1  0.64779000  0.28047000  0.20972000  1.0
  H  H5  1  0.35225000  0.21954000  0.70972000  1.0
  H  H6  1  0.35222000  0.71954000  0.79029000  1.0
  H  H7  1  0.64778000  0.78047000  0.29028000  1.0
  H  H8  1  0.58217000  0.32000000  0.10695000  1.0
  H  H9  1  0.41785000  0.18001000  0.60696000  1.0
  H  H10  1  0.41784000  0.67999000  0.89305000  1.0
  H  H11  1  0.58216000  0.82000000  0.39305000  1.0
  H  H12  1  0.92117000  0.69227000  0.13067000  1.0
  H  H13  1  0.07884000  0.80773000  0.63066000  1.0
  H  H14  1  0.07886000  0.30772000  0.86933000  1.0
  H  H15  1  0.92118000  0.19228000  0.36933000  1.0
  H  H16  1  0.96402000  0.67194000  0.23281000  1.0
  H  H17  1  0.03603000  0.82806000  0.73280000  1.0
  H  H18  1  0.03597000  0.32806000  0.76718000  1.0
  H  H19  1  0.96405000  0.17195000  0.26719000  1.0
  H  H20  1  0.06799000  0.43159000  0.39307000  1.0
  H  H21  1  0.93197000  0.06840000  0.89306000  1.0
  H  H22  1  0.93193000  0.56843000  0.60694000  1.0
  H  H23  1  0.06804000  0.93157000  0.10694000  1.0
  H  H24  1  0.02595000  0.62861000  0.39851000  1.0
  H  H25  1  0.97402000  0.87137000  0.89851000  1.0
  H  H26  1  0.97397000  0.37140000  0.60149000  1.0
  H  H27  1  0.02601000  0.12860000  0.10148000  1.0
  H  H28  1  0.43095000  0.52699000  0.39523000  1.0
  H  H29  1  0.56901000  0.97300000  0.89522000  1.0
  H  H30  1  0.56895000  0.47303000  0.60478000  1.0
  H  H31  1  0.43101000  0.02697000  0.10477000  1.0
  C  C32  1  0.35486000  0.45276000  0.29126000  1.0
  C  C33  1  0.64517000  0.04722000  0.79126000  1.0
  C  C34  1  0.64511000  0.54725000  0.70874000  1.0
  C  C35  1  0.35485000  0.95276000  0.20874000  1.0
  C  C36  1  0.31208000  0.47379000  0.23017000  1.0
  C  C37  1  0.68796000  0.02621000  0.73017000  1.0
  C  C38  1  0.68790000  0.52623000  0.76983000  1.0
  C  C39  1  0.31209000  0.97379000  0.26983000  1.0
  C  C40  1  0.48547000  0.37336000  0.19378000  1.0
  C  C41  1  0.51458000  0.12664000  0.69378000  1.0
  C  C42  1  0.51454000  0.62664000  0.80622000  1.0
  C  C43  1  0.48546000  0.87336000  0.30622000  1.0
  C  C44  1  0.45012000  0.39449000  0.13688000  1.0
  C  C45  1  0.54989000  0.10552000  0.63688000  1.0
  C  C46  1  0.54989000  0.60550000  0.86312000  1.0
  C  C47  1  0.45012000  0.89449000  0.36311000  1.0
  C  C48  1  0.08359000  0.60355000  0.14968000  1.0
  C  C49  1  0.91642000  0.89646000  0.64967000  1.0
  C  C50  1  0.91643000  0.39644000  0.85032000  1.0
  C  C51  1  0.08360000  0.10355000  0.35032000  1.0
  C  C52  1  0.10686000  0.59063000  0.20713000  1.0
  C  C53  1  0.89317000  0.90938000  0.70713000  1.0
  C  C54  1  0.89314000  0.40938000  0.79287000  1.0
  C  C55  1  0.10687000  0.09063000  0.29287000  1.0
  C  C56  1  0.17235000  0.53241000  0.38091000  1.0
  C  C57  1  0.82762000  0.96757000  0.88091000  1.0
  C  C58  1  0.82757000  0.46760000  0.61909000  1.0
  C  C59  1  0.17240000  0.03240000  0.11909000  1.0
  I  I60  1  0.69105000  0.72453000  0.01152000  1.0
  I  I61  1  0.30895000  0.77547000  0.51152000  1.0
  I  I62  1  0.30897000  0.27546000  0.98848000  1.0
  I  I63  1  0.69101000  0.22455000  0.48848000  1.0
  N  N64  1  0.25267000  0.50793000  0.11469000  1.0
  N  N65  1  0.74733000  0.99209000  0.61468000  1.0
  N  N66  1  0.74735000  0.49206000  0.88532000  1.0
  N  N67  1  0.25267000  0.00792000  0.38532000  1.0
  O  O68  1  0.55181000  0.35723000  0.31218000  1.0
  O  O69  1  0.44825000  0.14275000  0.81218000  1.0
  O  O70  1  0.44818000  0.64278000  0.68782000  1.0
  O  O71  1  0.55181000  0.85721000  0.18782000  1.0
  O  O72  1  0.15355000  0.55082000  0.32104000  1.0
  O  O73  1  0.84644000  0.94917000  0.82104000  1.0
  O  O74  1  0.84640000  0.44918000  0.67896000  1.0
  O  O75  1  0.15356000  0.05082000  0.17896000  1.0
