# generated using pymatgen
data_Zn2H50C49(N2O3)3
_symmetry_space_group_name_H-M   'P 1'
_cell_length_a   15.80930000
_cell_length_b   16.02820000
_cell_length_c   16.96320000
_cell_angle_alpha   85.72790000
_cell_angle_beta   89.81320000
_cell_angle_gamma   88.03070000
_symmetry_Int_Tables_number   1
_chemical_formula_structural   Zn2H50C49(N2O3)3
_chemical_formula_sum   'Zn2 H50 C49 N6 O9'
_cell_volume   4283.90800746
_cell_formula_units_Z   1
loop_
 _symmetry_equiv_pos_site_id
 _symmetry_equiv_pos_as_xyz
  1  'x, y, z'
loop_
 _atom_site_type_symbol
 _atom_site_label
 _atom_site_symmetry_multiplicity
 _atom_site_fract_x
 _atom_site_fract_y
 _atom_site_fract_z
 _atom_site_occupancy
  Zn  Zn0  1  0.50282000  0.59718000  0.50062000  1.0
  Zn  Zn1  1  0.50293000  0.41646000  0.49891000  1.0
  H  H2  1  0.07372000  0.55536000  0.38443000  1.0
  H  H3  1  0.93790000  0.63162000  0.48660000  1.0
  H  H4  1  0.06455000  0.45616000  0.62499000  1.0
  H  H5  1  0.53287000  0.61189000  0.74670000  1.0
  H  H6  1  0.51024000  0.60332000  0.89408000  1.0
  H  H7  1  0.53455000  0.63256000  0.10048000  1.0
  H  H8  1  0.52931000  0.63611000  0.24911000  1.0
  H  H9  1  0.52151000  0.34509000  0.74744000  1.0
  H  H10  1  0.49667000  0.33619000  0.89538000  1.0
  H  H11  1  0.93297000  0.60332000  0.38797000  1.0
  H  H12  1  0.38131000  0.41641000  0.26220000  1.0
  H  H13  1  0.55792000  0.91260000  0.42557000  1.0
  H  H14  1  0.54444000  0.13064000  0.37892000  1.0
  H  H15  1  0.42911000  0.70380000  0.61064000  1.0
  H  H16  1  0.42530000  0.12115000  0.60841000  1.0
  H  H17  1  0.41102000  0.85667000  0.63620000  1.0
  H  H18  1  0.43501000  0.27882000  0.60361000  1.0
  H  H19  1  0.93739000  0.36855000  0.45085000  1.0
  H  H20  1  0.96570000  0.44096000  0.37244000  1.0
  H  H21  1  0.10591000  0.40986000  0.41575000  1.0
  H  H22  1  0.07279000  0.36704000  0.50929000  1.0
  H  H23  1  0.90041000  0.52852000  0.59982000  1.0
  H  H24  1  0.92686000  0.42206000  0.58901000  1.0
  H  H25  1  0.04273000  0.56439000  0.60644000  1.0
  H  H26  1  0.20799000  0.77699000  0.50206000  1.0
  H  H27  1  0.10952000  0.82887000  0.47732000  1.0
  H  H28  1  0.14129000  0.81296000  0.57793000  1.0
  H  H29  1  0.03332000  0.70870000  0.54831000  1.0
  H  H30  1  0.13223000  0.65824000  0.57227000  1.0
  H  H31  1  0.16713000  0.65018000  0.43096000  1.0
  H  H32  1  0.07186000  0.70426000  0.40237000  1.0
  H  H33  1  0.26523000  0.34988000  0.97844000  1.0
  H  H34  1  0.20379000  0.33577000  0.06609000  1.0
  H  H35  1  0.17510000  0.41628000  0.99240000  1.0
  H  H36  1  0.24737000  0.47826000  0.10509000  1.0
  H  H37  1  0.30807000  0.49082000  0.01789000  1.0
  H  H38  1  0.39737000  0.36271000  0.06451000  1.0
  H  H39  1  0.33720000  0.35467000  0.15319000  1.0
  H  H40  1  0.71129000  0.64924000  0.32614000  1.0
  H  H41  1  0.71394000  0.74989000  0.27459000  1.0
  H  H42  1  0.79796000  0.71410000  0.33940000  1.0
  H  H43  1  0.70324000  0.81523000  0.40746000  1.0
  H  H44  1  0.69790000  0.71311000  0.45519000  1.0
  H  H45  1  0.56641000  0.69004000  0.37545000  1.0
  H  H46  1  0.56986000  0.79497000  0.33535000  1.0
  H  H47  1  0.55082000  0.23423000  0.27597000  1.0
  H  H48  1  0.64907000  0.22192000  0.32884000  1.0
  H  H49  1  0.67666000  0.37460000  0.29264000  1.0
  H  H50  1  0.66675000  0.31719000  0.20685000  1.0
  H  H51  1  0.58134000  0.38353000  0.23621000  1.0
  C  C52  1  0.46327000  0.52008000  0.35220000  1.0
  C  C53  1  0.05632000  0.57613000  0.44308000  1.0
  C  C54  1  0.08575000  0.50173000  0.50302000  1.0
  C  C55  1  0.03593000  0.50358000  0.58206000  1.0
  C  C56  1  0.94206000  0.48631000  0.56789000  1.0
  C  C57  1  0.17576000  0.50273000  0.51794000  1.0
  C  C58  1  0.83161000  0.49854000  0.46700000  1.0
  C  C59  1  0.75474000  0.50000000  0.46325000  1.0
  C  C60  1  0.45768000  0.52419000  0.26398000  1.0
  C  C61  1  0.41542000  0.46315000  0.22569000  1.0
  C  C62  1  0.41607000  0.46004000  0.14362000  1.0
  C  C63  1  0.66339000  0.50495000  0.46891000  1.0
  C  C64  1  0.46431000  0.52090000  0.09960000  1.0
  C  C65  1  0.50143000  0.58567000  0.13759000  1.0
  C  C66  1  0.49882000  0.58748000  0.21911000  1.0
  C  C67  1  0.51242000  0.54754000  0.86111000  1.0
  C  C68  1  0.52513000  0.55199000  0.78019000  1.0
  C  C69  1  0.50053000  0.46922000  0.90219000  1.0
  C  C70  1  0.52692000  0.47910000  0.73877000  1.0
  C  C71  1  0.51865000  0.40098000  0.78030000  1.0
  C  C72  1  0.50507000  0.39599000  0.86165000  1.0
  C  C73  1  0.45929000  0.24259000  0.55594000  1.0
  C  C74  1  0.53147000  0.48660000  0.65028000  1.0
  C  C75  1  0.45372000  0.15626000  0.55841000  1.0
  C  C76  1  0.48623000  0.11601000  0.49340000  1.0
  C  C77  1  0.52100000  0.16266000  0.42930000  1.0
  C  C78  1  0.52544000  0.24950000  0.43271000  1.0
  C  C79  1  0.52857000  0.86755000  0.46736000  1.0
  C  C80  1  0.53645000  0.78221000  0.45673000  1.0
  C  C81  1  0.48254000  0.89568000  0.53127000  1.0
  C  C82  1  0.45650000  0.75272000  0.57133000  1.0
  C  C83  1  0.44654000  0.83683000  0.58536000  1.0
  C  C84  1  0.34260000  0.50859000  0.53146000  1.0
  C  C85  1  0.95893000  0.58380000  0.44678000  1.0
  C  C86  1  0.96962000  0.42746000  0.43688000  1.0
  C  C87  1  0.06260000  0.42018000  0.46512000  1.0
  C  C88  1  0.25147000  0.50571000  0.52900000  1.0
  C  C89  1  0.92255000  0.49882000  0.47794000  1.0
  C  C90  1  0.10043000  0.65954000  0.44827000  1.0
  C  C91  1  0.09889000  0.70001000  0.52727000  1.0
  C  C92  1  0.14165000  0.78444000  0.52095000  1.0
  C  C93  1  0.36096000  0.39895000  0.10613000  1.0
  C  C94  1  0.28487000  0.44360000  0.06255000  1.0
  C  C95  1  0.22912000  0.38309000  0.02277000  1.0
  C  C96  1  0.58595000  0.75270000  0.38785000  1.0
  C  C97  1  0.68252000  0.75127000  0.40028000  1.0
  C  C98  1  0.72903000  0.71435000  0.33115000  1.0
  C  C99  1  0.59834000  0.26725000  0.30826000  1.0
  C  C100  1  0.63284000  0.34032000  0.25797000  1.0
  N  N101  1  0.48034000  0.52653000  0.01787000  1.0
  N  N102  1  0.48307000  0.45853000  0.98412000  1.0
  N  N103  1  0.49508000  0.28811000  0.49540000  1.0
  N  N104  1  0.48841000  0.02893000  0.48411000  1.0
  N  N105  1  0.47314000  0.98209000  0.54526000  1.0
  N  N106  1  0.50010000  0.72584000  0.50896000  1.0
  O  O107  1  0.48547000  0.58642000  0.38254000  1.0
  O  O108  1  0.44863000  0.45064000  0.38991000  1.0
  O  O109  1  0.63132000  0.57589000  0.48430000  1.0
  O  O110  1  0.62366000  0.43858000  0.45938000  1.0
  O  O111  1  0.52013000  0.56038000  0.61763000  1.0
  O  O112  1  0.54330000  0.41990000  0.61486000  1.0
  O  O113  1  0.37395000  0.58053000  0.51775000  1.0
  O  O114  1  0.38294000  0.43881000  0.54495000  1.0
  O  O115  1  0.55860000  0.30111000  0.37648000  1.0
