# generated using pymatgen
data_CdH8C14I3N5O4
_symmetry_space_group_name_H-M   'P 1'
_cell_length_a   7.86835000
_cell_length_b   14.69390000
_cell_length_c   17.03290000
_cell_angle_alpha   90.00030000
_cell_angle_beta   90.00010000
_cell_angle_gamma   89.99970000
_symmetry_Int_Tables_number   1
_chemical_formula_structural   CdH8C14I3N5O4
_chemical_formula_sum   'Cd4 H32 C56 I12 N20 O16'
_cell_volume   1969.28850806
_cell_formula_units_Z   4
loop_
 _symmetry_equiv_pos_site_id
 _symmetry_equiv_pos_as_xyz
  1  'x, y, z'
loop_
 _atom_site_type_symbol
 _atom_site_label
 _atom_site_symmetry_multiplicity
 _atom_site_fract_x
 _atom_site_fract_y
 _atom_site_fract_z
 _atom_site_occupancy
  Cd  Cd0  1  0.88050000  0.21386000  0.40746000  1.0
  Cd  Cd1  1  0.11952000  0.71386000  0.59253000  1.0
  Cd  Cd2  1  0.61953000  0.21386000  0.90747000  1.0
  Cd  Cd3  1  0.38048000  0.71386000  0.09253000  1.0
  H  H4  1  0.63749000  0.65938000  0.57222000  1.0
  H  H5  1  0.36252000  0.15939000  0.42779000  1.0
  H  H6  1  0.86251000  0.65939000  0.07222000  1.0
  H  H7  1  0.13750000  0.15938000  0.92777000  1.0
  H  H8  1  0.50783000  0.73524000  0.52475000  1.0
  H  H9  1  0.49218000  0.23525000  0.47526000  1.0
  H  H10  1  0.99216000  0.73524000  0.02475000  1.0
  H  H11  1  0.00785000  0.23524000  0.97524000  1.0
  H  H12  1  0.90457000  0.11036000  0.69561000  1.0
  H  H13  1  0.09542000  0.61036000  0.30439000  1.0
  H  H14  1  0.59543000  0.11036000  0.19561000  1.0
  H  H15  1  0.40454000  0.61037000  0.80439000  1.0
  H  H16  1  0.84616000  0.95345000  0.60696000  1.0
  H  H17  1  0.15381000  0.45344000  0.39305000  1.0
  H  H18  1  0.65380000  0.95344000  0.10695000  1.0
  H  H19  1  0.34618000  0.45345000  0.89305000  1.0
  H  H20  1  0.13418000  0.23220000  0.71615000  1.0
  H  H21  1  0.86580000  0.73221000  0.28384000  1.0
  H  H22  1  0.36581000  0.23220000  0.21615000  1.0
  H  H23  1  0.63417000  0.73220000  0.78385000  1.0
  H  H24  1  0.15545000  0.31850000  0.57127000  1.0
  H  H25  1  0.84456000  0.81851000  0.42873000  1.0
  H  H26  1  0.34456000  0.31850000  0.07127000  1.0
  H  H27  1  0.65542000  0.81850000  0.92873000  1.0
  H  H28  1  0.64819000  0.87418000  0.50972000  1.0
  H  H29  1  0.35179000  0.37418000  0.49029000  1.0
  H  H30  1  0.85180000  0.87417000  0.00971000  1.0
  H  H31  1  0.14820000  0.37418000  0.99029000  1.0
  H  H32  1  0.62821000  0.99575000  0.38406000  1.0
  H  H33  1  0.37178000  0.49575000  0.61594000  1.0
  H  H34  1  0.87178000  0.99575000  0.88407000  1.0
  H  H35  1  0.12820000  0.49575000  0.11594000  1.0
  C  C36  1  0.75778000  0.39058000  0.39852000  1.0
  C  C37  1  0.24223000  0.89058000  0.60148000  1.0
  C  C38  1  0.74221000  0.39058000  0.89852000  1.0
  C  C39  1  0.25779000  0.89058000  0.10147000  1.0
  C  C40  1  0.67228000  0.48299000  0.39503000  1.0
  C  C41  1  0.32773000  0.98300000  0.60498000  1.0
  C  C42  1  0.82771000  0.48301000  0.89502000  1.0
  C  C43  1  0.17230000  0.98300000  0.10496000  1.0
  C  C44  1  0.58257000  0.50932000  0.32754000  1.0
  C  C45  1  0.41743000  0.00932000  0.67246000  1.0
  C  C46  1  0.91742000  0.50933000  0.82754000  1.0
  C  C47  1  0.08260000  0.00933000  0.17245000  1.0
  C  C48  1  0.51182000  0.59652000  0.32080000  1.0
  C  C49  1  0.48819000  0.09651000  0.67921000  1.0
  C  C50  1  0.98815000  0.59653000  0.82079000  1.0
  C  C51  1  0.01186000  0.09653000  0.17919000  1.0
  C  C52  1  0.52358000  0.65584000  0.38459000  1.0
  C  C53  1  0.47643000  0.15583000  0.61542000  1.0
  C  C54  1  0.97641000  0.65584000  0.88459000  1.0
  C  C55  1  0.02360000  0.15584000  0.11541000  1.0
  C  C56  1  0.59916000  0.62992000  0.45682000  1.0
  C  C57  1  0.40086000  0.12993000  0.54319000  1.0
  C  C58  1  0.90083000  0.62993000  0.95682000  1.0
  C  C59  1  0.09917000  0.12992000  0.04316000  1.0
  C  C60  1  0.67828000  0.54314000  0.45862000  1.0
  C  C61  1  0.32172000  0.04314000  0.54138000  1.0
  C  C62  1  0.82172000  0.54314000  0.95862000  1.0
  C  C63  1  0.17830000  0.04314000  0.04137000  1.0
  C  C64  1  0.42590000  0.62734000  0.24555000  1.0
  C  C65  1  0.57413000  0.12733000  0.75445000  1.0
  C  C66  1  0.07408000  0.62736000  0.74555000  1.0
  C  C67  1  0.92594000  0.12736000  0.25445000  1.0
  C  C68  1  0.07428000  0.21676000  0.66049000  1.0
  C  C69  1  0.92571000  0.71677000  0.33951000  1.0
  C  C70  1  0.42572000  0.21676000  0.16049000  1.0
  C  C71  1  0.57425000  0.71676000  0.83952000  1.0
  C  C72  1  0.08538000  0.25812000  0.58789000  1.0
  C  C73  1  0.91462000  0.75812000  0.41211000  1.0
  C  C74  1  0.41462000  0.25812000  0.08789000  1.0
  C  C75  1  0.58535000  0.75812000  0.91211000  1.0
  C  C76  1  0.92695000  0.13813000  0.57399000  1.0
  C  C77  1  0.07306000  0.63812000  0.42601000  1.0
  C  C78  1  0.57306000  0.13812000  0.07399000  1.0
  C  C79  1  0.42692000  0.63813000  0.92601000  1.0
  C  C80  1  0.82660000  0.07019000  0.53529000  1.0
  C  C81  1  0.17340000  0.57018000  0.46470000  1.0
  C  C82  1  0.67341000  0.07018000  0.03530000  1.0
  C  C83  1  0.32657000  0.57019000  0.96471000  1.0
  C  C84  1  0.69914000  0.94205000  0.50209000  1.0
  C  C85  1  0.30084000  0.44206000  0.49791000  1.0
  C  C86  1  0.80085000  0.94205000  0.00209000  1.0
  C  C87  1  0.19915000  0.44206000  0.99791000  1.0
  C  C88  1  0.68782000  0.00343000  0.44098000  1.0
  C  C89  1  0.31218000  0.50343000  0.55901000  1.0
  C  C90  1  0.81219000  0.00343000  0.94098000  1.0
  C  C91  1  0.18780000  0.50343000  0.05901000  1.0
  I  I92  1  0.79486000  0.50119000  0.56510000  1.0
  I  I93  1  0.20515000  0.00119000  0.43491000  1.0
  I  I94  1  0.70513000  0.50119000  0.06509000  1.0
  I  I95  1  0.29488000  0.00119000  0.93490000  1.0
  I  I96  1  0.42083000  0.78826000  0.37482000  1.0
  I  I97  1  0.57916000  0.28826000  0.62520000  1.0
  I  I98  1  0.07914000  0.78827000  0.87482000  1.0
  I  I99  1  0.92087000  0.28827000  0.12517000  1.0
  I  I100  1  0.54086000  0.41225000  0.23818000  1.0
  I  I101  1  0.45915000  0.91225000  0.76182000  1.0
  I  I102  1  0.95913000  0.41226000  0.73817000  1.0
  I  I103  1  0.04090000  0.91227000  0.26182000  1.0
  N  N104  1  0.60116000  0.68730000  0.52021000  1.0
  N  N105  1  0.39885000  0.18730000  0.47980000  1.0
  N  N106  1  0.89883000  0.68730000  0.02021000  1.0
  N  N107  1  0.10116000  0.18730000  0.97977000  1.0
  N  N108  1  0.99419000  0.20828000  0.53418000  1.0
  N  N109  1  0.00581000  0.70828000  0.46582000  1.0
  N  N110  1  0.50582000  0.20828000  0.03417000  1.0
  N  N111  1  0.49416000  0.70828000  0.96583000  1.0
  N  N112  1  0.97268000  0.14127000  0.65079000  1.0
  N  N113  1  0.02731000  0.64126000  0.34920000  1.0
  N  N114  1  0.52733000  0.14126000  0.15079000  1.0
  N  N115  1  0.47265000  0.64127000  0.84921000  1.0
  N  N116  1  0.78764000  0.98530000  0.56101000  1.0
  N  N117  1  0.21236000  0.48530000  0.43900000  1.0
  N  N118  1  0.71236000  0.98529000  0.06101000  1.0
  N  N119  1  0.28763000  0.48531000  0.93900000  1.0
  N  N120  1  0.76635000  0.08307000  0.46258000  1.0
  N  N121  1  0.23365000  0.58307000  0.53742000  1.0
  N  N122  1  0.73366000  0.08307000  0.96258000  1.0
  N  N123  1  0.26632000  0.58307000  0.03742000  1.0
  O  O124  1  0.66500000  0.32156000  0.41522000  1.0
  O  O125  1  0.33502000  0.82157000  0.58478000  1.0
  O  O126  1  0.83502000  0.32156000  0.91520000  1.0
  O  O127  1  0.16500000  0.82157000  0.08478000  1.0
  O  O128  1  0.91497000  0.38456000  0.38353000  1.0
  O  O129  1  0.08504000  0.88455000  0.61647000  1.0
  O  O130  1  0.58503000  0.38456000  0.88354000  1.0
  O  O131  1  0.41499000  0.88456000  0.11646000  1.0
  O  O132  1  0.52414000  0.66989000  0.19779000  1.0
  O  O133  1  0.47587000  0.16989000  0.80222000  1.0
  O  O134  1  0.97580000  0.66990000  0.69778000  1.0
  O  O135  1  0.02421000  0.16990000  0.30221000  1.0
  O  O136  1  0.27092000  0.61066000  0.23418000  1.0
  O  O137  1  0.72908000  0.11065000  0.76583000  1.0
  O  O138  1  0.22903000  0.61070000  0.73417000  1.0
  O  O139  1  0.77098000  0.11070000  0.26583000  1.0
