# generated using pymatgen
data_Zn2H27C37N4O11
_symmetry_space_group_name_H-M   'P 1'
_cell_length_a   15.00870000
_cell_length_b   15.00860000
_cell_length_c   20.93440000
_cell_angle_alpha   83.71960000
_cell_angle_beta   83.71940000
_cell_angle_gamma   67.50800000
_symmetry_Int_Tables_number   1
_chemical_formula_structural   Zn2H27C37N4O11
_chemical_formula_sum   'Zn8 H108 C148 N16 O44'
_cell_volume   4319.08778927
_cell_formula_units_Z   4
loop_
 _symmetry_equiv_pos_site_id
 _symmetry_equiv_pos_as_xyz
  1  'x, y, z'
loop_
 _atom_site_type_symbol
 _atom_site_label
 _atom_site_symmetry_multiplicity
 _atom_site_fract_x
 _atom_site_fract_y
 _atom_site_fract_z
 _atom_site_occupancy
  Zn  Zn0  1  0.98539000  0.99178000  0.31862000  1.0
  Zn  Zn1  1  0.00822000  0.01460000  0.18137000  1.0
  Zn  Zn2  1  0.01460000  0.00822000  0.68137000  1.0
  Zn  Zn3  1  0.99178000  0.98538000  0.81863000  1.0
  Zn  Zn4  1  0.56590000  0.04913000  0.99359000  1.0
  Zn  Zn5  1  0.95087000  0.43409000  0.50642000  1.0
  Zn  Zn6  1  0.43410000  0.95086000  0.00642000  1.0
  Zn  Zn7  1  0.04913000  0.56591000  0.49358000  1.0
  H  H8  1  0.89446000  0.31861000  0.15552000  1.0
  H  H9  1  0.68140000  0.10554000  0.34446000  1.0
  H  H10  1  0.10553000  0.68139000  0.84446000  1.0
  H  H11  1  0.31862000  0.89446000  0.65553000  1.0
  H  H12  1  0.84628000  0.49760000  0.15231000  1.0
  H  H13  1  0.50241000  0.15374000  0.34768000  1.0
  H  H14  1  0.15374000  0.50240000  0.84768000  1.0
  H  H15  1  0.49760000  0.84627000  0.65232000  1.0
  H  H16  1  0.88213000  0.47401000  0.35572000  1.0
  H  H17  1  0.52599000  0.11790000  0.14426000  1.0
  H  H18  1  0.11788000  0.52597000  0.64427000  1.0
  H  H19  1  0.47400000  0.88212000  0.85573000  1.0
  H  H20  1  0.93184000  0.29484000  0.35800000  1.0
  H  H21  1  0.70516000  0.06816000  0.14198000  1.0
  H  H22  1  0.06814000  0.70514000  0.64199000  1.0
  H  H23  1  0.29483000  0.93184000  0.85801000  1.0
  H  H24  1  0.58022000  0.73177000  0.13671000  1.0
  H  H25  1  0.26821000  0.41980000  0.36329000  1.0
  H  H26  1  0.41979000  0.26820000  0.86330000  1.0
  H  H27  1  0.73176000  0.58022000  0.63670000  1.0
  H  H28  1  0.68287000  0.59501000  0.20869000  1.0
  H  H29  1  0.40499000  0.31717000  0.29131000  1.0
  H  H30  1  0.31716000  0.40497000  0.79131000  1.0
  H  H31  1  0.59500000  0.68286000  0.70869000  1.0
  H  H32  1  0.87499000  0.74444000  0.21597000  1.0
  H  H33  1  0.25560000  0.12501000  0.28404000  1.0
  H  H34  1  0.12501000  0.25558000  0.78403000  1.0
  H  H35  1  0.74442000  0.87499000  0.71597000  1.0
  H  H36  1  0.77041000  0.88227000  0.14518000  1.0
  H  H37  1  0.11777000  0.22956000  0.35483000  1.0
  H  H38  1  0.22957000  0.11774000  0.85483000  1.0
  H  H39  1  0.88225000  0.77043000  0.64518000  1.0
  H  H40  1  0.44637000  0.88958000  0.38909000  1.0
  H  H41  1  0.11042000  0.55361000  0.11092000  1.0
  H  H42  1  0.55362000  0.11040000  0.61092000  1.0
  H  H43  1  0.88958000  0.44638000  0.88909000  1.0
  H  H44  1  0.27320000  0.91865000  0.37747000  1.0
  H  H45  1  0.08136000  0.72678000  0.12252000  1.0
  H  H46  1  0.72679000  0.08134000  0.62253000  1.0
  H  H47  1  0.91865000  0.27320000  0.87749000  1.0
  H  H48  1  0.31637000  0.96812000  0.17232000  1.0
  H  H49  1  0.03188000  0.68365000  0.32767000  1.0
  H  H50  1  0.68363000  0.03189000  0.82768000  1.0
  H  H51  1  0.96811000  0.31636000  0.67233000  1.0
  H  H52  1  0.48793000  0.93954000  0.18353000  1.0
  H  H53  1  0.06046000  0.51208000  0.31648000  1.0
  H  H54  1  0.51207000  0.06046000  0.81648000  1.0
  H  H55  1  0.93952000  0.48792000  0.68353000  1.0
  H  H56  1  0.86403000  0.79712000  0.36524000  1.0
  H  H57  1  0.20290000  0.13596000  0.13476000  1.0
  H  H58  1  0.13597000  0.20290000  0.63476000  1.0
  H  H59  1  0.79711000  0.86402000  0.86525000  1.0
  H  H60  1  0.72714000  0.91971000  0.30717000  1.0
  H  H61  1  0.08030000  0.27285000  0.19284000  1.0
  H  H62  1  0.27285000  0.08031000  0.69284000  1.0
  H  H63  1  0.91970000  0.72713000  0.80717000  1.0
  H  H64  1  0.56477000  0.73507000  0.34866000  1.0
  H  H65  1  0.26494000  0.43524000  0.15134000  1.0
  H  H66  1  0.43523000  0.26494000  0.65134000  1.0
  H  H67  1  0.73505000  0.56476000  0.84867000  1.0
  H  H68  1  0.69946000  0.61504000  0.40718000  1.0
  H  H69  1  0.38496000  0.30055000  0.09281000  1.0
  H  H70  1  0.30055000  0.38497000  0.59282000  1.0
  H  H71  1  0.61503000  0.69946000  0.90719000  1.0
  H  H72  1  0.75246000  0.05379000  0.92076000  1.0
  H  H73  1  0.94620000  0.24753000  0.57924000  1.0
  H  H74  1  0.24755000  0.94620000  0.07924000  1.0
  H  H75  1  0.05380000  0.75246000  0.42075000  1.0
  H  H76  1  0.81764000  0.18087000  0.87893000  1.0
  H  H77  1  0.81912000  0.18234000  0.62106000  1.0
  H  H78  1  0.18236000  0.81913000  0.12106000  1.0
  H  H79  1  0.18088000  0.81764000  0.37892000  1.0
  H  H80  1  0.72305000  0.35275000  0.90787000  1.0
  H  H81  1  0.64724000  0.27694000  0.59212000  1.0
  H  H82  1  0.27695000  0.64724000  0.09213000  1.0
  H  H83  1  0.35276000  0.72306000  0.40787000  1.0
  H  H84  1  0.51415000  0.25017000  0.01626000  1.0
  H  H85  1  0.74984000  0.48584000  0.48374000  1.0
  H  H86  1  0.48584000  0.74983000  0.98374000  1.0
  H  H87  1  0.25017000  0.51417000  0.51626000  1.0
  H  H88  1  0.82544000  0.96187000  0.40200000  1.0
  H  H89  1  0.03815000  0.17456000  0.09800000  1.0
  H  H90  1  0.17455000  0.03812000  0.59800000  1.0
  H  H91  1  0.96187000  0.82544000  0.90201000  1.0
  H  H92  1  0.74005000  0.92969000  0.55530000  1.0
  H  H93  1  0.07034000  0.25997000  0.94471000  1.0
  H  H94  1  0.25997000  0.07031000  0.44471000  1.0
  H  H95  1  0.92968000  0.74006000  0.05530000  1.0
  H  H96  1  0.79929000  0.81478000  0.52264000  1.0
  H  H97  1  0.18524000  0.20071000  0.97736000  1.0
  H  H98  1  0.20072000  0.18521000  0.47736000  1.0
  H  H99  1  0.81477000  0.79930000  0.02265000  1.0
  H  H100  1  0.73198000  0.91688000  0.47197000  1.0
  H  H101  1  0.08315000  0.26802000  0.02804000  1.0
  H  H102  1  0.26802000  0.08312000  0.52804000  1.0
  H  H103  1  0.91687000  0.73200000  0.97197000  1.0
  H  H104  1  0.89721000  0.91779000  0.58925000  1.0
  H  H105  1  0.08218000  0.10282000  0.91075000  1.0
  H  H106  1  0.10281000  0.08219000  0.41074000  1.0
  H  H107  1  0.91780000  0.89722000  0.08925000  1.0
  H  H108  1  0.98639000  0.92728000  0.52834000  1.0
  H  H109  1  0.07268000  0.01365000  0.97165000  1.0
  H  H110  1  0.01364000  0.07268000  0.47165000  1.0
  H  H111  1  0.92729000  0.98640000  0.02835000  1.0
  H  H112  1  0.97402000  0.81291000  0.54942000  1.0
  H  H113  1  0.18706000  0.02600000  0.95056000  1.0
  H  H114  1  0.02599000  0.18706000  0.45057000  1.0
  H  H115  1  0.81292000  0.97403000  0.04943000  1.0
  C  C116  1  0.91673000  0.29529000  0.25671000  1.0
  C  C117  1  0.70471000  0.08327000  0.24328000  1.0
  C  C118  1  0.08325000  0.70470000  0.74328000  1.0
  C  C119  1  0.29529000  0.91672000  0.75671000  1.0
  C  C120  1  0.89106000  0.35345000  0.19922000  1.0
  C  C121  1  0.64656000  0.10894000  0.30076000  1.0
  C  C122  1  0.10894000  0.64655000  0.80077000  1.0
  C  C123  1  0.35345000  0.89106000  0.69923000  1.0
  C  C124  1  0.86373000  0.45317000  0.19738000  1.0
  C  C125  1  0.54684000  0.13629000  0.30260000  1.0
  C  C126  1  0.13628000  0.54683000  0.80261000  1.0
  C  C127  1  0.45317000  0.86372000  0.69738000  1.0
  C  C128  1  0.86136000  0.49536000  0.25430000  1.0
  C  C129  1  0.50465000  0.13867000  0.24568000  1.0
  C  C130  1  0.13865000  0.50463000  0.74569000  1.0
  C  C131  1  0.49535000  0.86135000  0.75431000  1.0
  C  C132  1  0.88458000  0.43905000  0.31229000  1.0
  C  C133  1  0.56095000  0.11545000  0.18769000  1.0
  C  C134  1  0.11543000  0.56094000  0.68770000  1.0
  C  C135  1  0.43905000  0.88457000  0.81230000  1.0
  C  C136  1  0.91209000  0.33945000  0.31325000  1.0
  C  C137  1  0.66056000  0.08792000  0.18674000  1.0
  C  C138  1  0.08791000  0.66054000  0.68675000  1.0
  C  C139  1  0.33943000  0.91209000  0.81325000  1.0
  C  C140  1  0.95196000  0.18796000  0.25652000  1.0
  C  C141  1  0.81205000  0.04799000  0.24347000  1.0
  C  C142  1  0.04799000  0.81203000  0.74348000  1.0
  C  C143  1  0.18795000  0.95198000  0.75652000  1.0
  C  C144  1  0.67044000  0.81402000  0.13496000  1.0
  C  C145  1  0.18599000  0.32957000  0.36504000  1.0
  C  C146  1  0.32956000  0.18599000  0.86504000  1.0
  C  C147  1  0.81400000  0.67044000  0.63496000  1.0
  C  C148  1  0.64557000  0.73332000  0.15379000  1.0
  C  C149  1  0.26667000  0.35445000  0.34621000  1.0
  C  C150  1  0.35444000  0.26667000  0.84621000  1.0
  C  C151  1  0.73332000  0.64557000  0.65379000  1.0
  C  C152  1  0.70262000  0.65722000  0.19358000  1.0
  C  C153  1  0.34279000  0.29741000  0.30641000  1.0
  C  C154  1  0.29739000  0.34278000  0.80641000  1.0
  C  C155  1  0.65721000  0.70261000  0.69359000  1.0
  C  C156  1  0.78621000  0.66167000  0.21447000  1.0
  C  C157  1  0.33833000  0.21382000  0.28552000  1.0
  C  C158  1  0.21382000  0.33831000  0.78552000  1.0
  C  C159  1  0.66167000  0.78619000  0.71448000  1.0
  C  C160  1  0.81085000  0.74248000  0.19744000  1.0
  C  C161  1  0.25754000  0.18916000  0.30256000  1.0
  C  C162  1  0.18914000  0.25753000  0.80256000  1.0
  C  C163  1  0.74246000  0.81085000  0.69745000  1.0
  C  C164  1  0.75271000  0.81842000  0.15815000  1.0
  C  C165  1  0.18160000  0.24729000  0.34186000  1.0
  C  C166  1  0.24729000  0.18157000  0.84186000  1.0
  C  C167  1  0.81841000  0.75271000  0.65814000  1.0
  C  C168  1  0.61016000  0.89232000  0.08983000  1.0
  C  C169  1  0.10769000  0.38983000  0.41017000  1.0
  C  C170  1  0.38982000  0.10768000  0.91018000  1.0
  C  C171  1  0.89231000  0.61017000  0.58983000  1.0
  C  C172  1  0.47756000  0.91088000  0.28632000  1.0
  C  C173  1  0.08913000  0.52244000  0.21367000  1.0
  C  C174  1  0.52243000  0.08913000  0.71368000  1.0
  C  C175  1  0.91087000  0.47755000  0.78633000  1.0
  C  C176  1  0.41794000  0.90480000  0.34167000  1.0
  C  C177  1  0.09519000  0.58205000  0.15833000  1.0
  C  C178  1  0.58205000  0.09520000  0.65834000  1.0
  C  C179  1  0.90480000  0.41794000  0.84168000  1.0
  C  C180  1  0.32152000  0.92086000  0.33500000  1.0
  C  C181  1  0.07915000  0.67846000  0.16498000  1.0
  C  C182  1  0.67847000  0.07914000  0.66500000  1.0
  C  C183  1  0.92086000  0.32153000  0.83502000  1.0
  C  C184  1  0.28394000  0.94272000  0.27413000  1.0
  C  C185  1  0.05730000  0.71606000  0.22585000  1.0
  C  C186  1  0.71606000  0.05729000  0.72587000  1.0
  C  C187  1  0.94270000  0.28394000  0.77415000  1.0
  C  C188  1  0.34494000  0.94893000  0.21961000  1.0
  C  C189  1  0.05107000  0.65506000  0.28038000  1.0
  C  C190  1  0.65506000  0.05107000  0.78039000  1.0
  C  C191  1  0.94892000  0.34494000  0.71963000  1.0
  C  C192  1  0.44099000  0.93332000  0.22558000  1.0
  C  C193  1  0.06668000  0.55901000  0.27441000  1.0
  C  C194  1  0.55901000  0.06669000  0.77442000  1.0
  C  C195  1  0.93331000  0.44098000  0.72559000  1.0
  C  C196  1  0.17974000  0.96284000  0.26758000  1.0
  C  C197  1  0.03718000  0.82026000  0.23241000  1.0
  C  C198  1  0.82025000  0.03718000  0.73241000  1.0
  C  C199  1  0.96284000  0.17973000  0.76760000  1.0
  C  C200  1  0.79017000  0.69879000  0.39139000  1.0
  C  C201  1  0.30122000  0.20983000  0.10861000  1.0
  C  C202  1  0.20984000  0.30122000  0.60861000  1.0
  C  C203  1  0.69877000  0.79017000  0.89140000  1.0
  C  C204  1  0.79727000  0.78521000  0.36309000  1.0
  C  C205  1  0.21481000  0.20271000  0.13691000  1.0
  C  C206  1  0.20272000  0.21480000  0.63691000  1.0
  C  C207  1  0.78518000  0.79727000  0.86310000  1.0
  C  C208  1  0.72168000  0.85358000  0.33082000  1.0
  C  C209  1  0.14644000  0.27831000  0.16919000  1.0
  C  C210  1  0.27832000  0.14643000  0.66919000  1.0
  C  C211  1  0.85355000  0.72168000  0.83082000  1.0
  C  C212  1  0.63768000  0.83588000  0.32581000  1.0
  C  C213  1  0.16413000  0.36232000  0.17419000  1.0
  C  C214  1  0.36232000  0.16413000  0.67419000  1.0
  C  C215  1  0.83586000  0.63767000  0.82582000  1.0
  C  C216  1  0.62903000  0.75008000  0.35358000  1.0
  C  C217  1  0.24994000  0.37096000  0.14642000  1.0
  C  C218  1  0.37096000  0.24993000  0.64643000  1.0
  C  C219  1  0.75005000  0.62904000  0.85358000  1.0
  C  C220  1  0.70544000  0.68235000  0.38615000  1.0
  C  C221  1  0.31765000  0.29456000  0.11384000  1.0
  C  C222  1  0.29457000  0.31765000  0.61385000  1.0
  C  C223  1  0.68233000  0.70544000  0.88615000  1.0
  C  C224  1  0.87234000  0.62568000  0.42541000  1.0
  C  C225  1  0.37431000  0.12768000  0.07459000  1.0
  C  C226  1  0.12767000  0.37432000  0.57459000  1.0
  C  C227  1  0.62569000  0.87233000  0.92542000  1.0
  C  C228  1  0.55244000  0.41350000  0.98373000  1.0
  C  C229  1  0.58650000  0.44756000  0.51627000  1.0
  C  C230  1  0.44756000  0.58650000  0.01628000  1.0
  C  C231  1  0.41350000  0.55244000  0.48373000  1.0
  C  C232  1  0.71476000  0.12854000  0.93284000  1.0
  C  C233  1  0.87146000  0.28522000  0.56715000  1.0
  C  C234  1  0.28523000  0.87146000  0.06716000  1.0
  C  C235  1  0.12854000  0.71477000  0.43283000  1.0
  C  C236  1  0.75028000  0.20014000  0.90956000  1.0
  C  C237  1  0.79986000  0.24971000  0.59043000  1.0
  C  C238  1  0.24972000  0.79986000  0.09044000  1.0
  C  C239  1  0.20014000  0.75028000  0.40956000  1.0
  C  C240  1  0.69804000  0.29469000  0.92567000  1.0
  C  C241  1  0.70531000  0.30195000  0.57432000  1.0
  C  C242  1  0.30196000  0.70531000  0.07433000  1.0
  C  C243  1  0.29469000  0.69804000  0.42566000  1.0
  C  C244  1  0.61157000  0.31516000  0.96512000  1.0
  C  C245  1  0.68484000  0.38842000  0.53488000  1.0
  C  C246  1  0.38843000  0.68484000  0.03488000  1.0
  C  C247  1  0.31517000  0.61157000  0.46512000  1.0
  C  C248  1  0.58107000  0.23890000  0.98630000  1.0
  C  C249  1  0.76111000  0.41892000  0.51370000  1.0
  C  C250  1  0.41893000  0.76110000  0.01370000  1.0
  C  C251  1  0.23890000  0.58108000  0.48630000  1.0
  C  C252  1  0.88328000  0.94677000  0.43452000  1.0
  C  C253  1  0.05323000  0.11673000  0.06548000  1.0
  C  C254  1  0.11673000  0.05322000  0.56548000  1.0
  C  C255  1  0.94677000  0.88328000  0.93452000  1.0
  C  C256  1  0.77893000  0.89310000  0.51210000  1.0
  C  C257  1  0.10692000  0.22109000  0.98791000  1.0
  C  C258  1  0.22108000  0.10690000  0.48790000  1.0
  C  C259  1  0.89309000  0.77894000  0.01210000  1.0
  C  C260  1  0.93532000  0.89167000  0.54311000  1.0
  C  C261  1  0.10831000  0.06471000  0.95688000  1.0
  C  C262  1  0.06470000  0.10831000  0.45688000  1.0
  C  C263  1  0.89168000  0.93533000  0.04312000  1.0
  N  N264  1  0.58070000  0.48662000  0.95900000  1.0
  N  N265  1  0.51337000  0.41931000  0.54100000  1.0
  N  N266  1  0.41931000  0.51337000  0.04101000  1.0
  N  N267  1  0.48663000  0.58070000  0.45900000  1.0
  N  N268  1  0.47266000  0.42549000  0.02444000  1.0
  N  N269  1  0.57451000  0.52734000  0.47556000  1.0
  N  N270  1  0.52735000  0.57450000  0.97557000  1.0
  N  N271  1  0.42549000  0.47267000  0.52444000  1.0
  N  N272  1  0.63165000  0.14798000  0.97039000  1.0
  N  N273  1  0.85202000  0.36834000  0.52961000  1.0
  N  N274  1  0.36835000  0.85202000  0.02960000  1.0
  N  N275  1  0.14798000  0.63166000  0.47040000  1.0
  N  N276  1  0.86541000  0.91500000  0.49451000  1.0
  N  N277  1  0.08501000  0.13461000  0.00549000  1.0
  N  N278  1  0.13460000  0.08500000  0.50549000  1.0
  N  N279  1  0.91499000  0.86542000  0.99452000  1.0
  O  O280  1  0.84438000  0.59202000  0.25630000  1.0
  O  O281  1  0.40799000  0.15565000  0.24369000  1.0
  O  O282  1  0.15564000  0.40797000  0.74370000  1.0
  O  O283  1  0.59201000  0.84437000  0.75631000  1.0
  O  O284  1  0.96830000  0.13734000  0.30994000  1.0
  O  O285  1  0.86268000  0.03165000  0.19005000  1.0
  O  O286  1  0.03165000  0.86267000  0.69006000  1.0
  O  O287  1  0.13733000  0.96829000  0.80994000  1.0
  O  O288  1  0.96447000  0.15449000  0.20109000  1.0
  O  O289  1  0.84551000  0.03549000  0.29890000  1.0
  O  O290  1  0.03548000  0.84549000  0.79891000  1.0
  O  O291  1  0.15450000  0.96447000  0.70108000  1.0
  O  O292  1  0.64032000  0.95939000  0.06748000  1.0
  O  O293  1  0.04063000  0.35966000  0.43253000  1.0
  O  O294  1  0.35965000  0.04062000  0.93254000  1.0
  O  O295  1  0.95937000  0.64032000  0.56748000  1.0
  O  O296  1  0.53209000  0.88627000  0.07608000  1.0
  O  O297  1  0.11372000  0.46792000  0.42392000  1.0
  O  O298  1  0.46791000  0.11370000  0.92391000  1.0
  O  O299  1  0.88626000  0.53208000  0.57608000  1.0
  O  O300  1  0.57136000  0.90458000  0.28799000  1.0
  O  O301  1  0.09543000  0.42863000  0.21203000  1.0
  O  O302  1  0.42863000  0.09544000  0.71202000  1.0
  O  O303  1  0.90456000  0.57135000  0.78798000  1.0
  O  O304  1  0.12955000  0.95316000  0.31968000  1.0
  O  O305  1  0.04688000  0.87043000  0.18030000  1.0
  O  O306  1  0.87043000  0.04686000  0.68031000  1.0
  O  O307  1  0.95316000  0.12955000  0.81971000  1.0
  O  O308  1  0.14782000  0.98856000  0.21200000  1.0
  O  O309  1  0.01147000  0.85218000  0.28799000  1.0
  O  O310  1  0.85218000  0.01146000  0.78800000  1.0
  O  O311  1  0.98854000  0.14781000  0.71201000  1.0
  O  O312  1  0.94283000  0.64975000  0.43418000  1.0
  O  O313  1  0.35028000  0.05718000  0.06583000  1.0
  O  O314  1  0.05717000  0.35026000  0.56582000  1.0
  O  O315  1  0.64974000  0.94282000  0.93419000  1.0
  O  O316  1  0.86698000  0.54367000  0.44378000  1.0
  O  O317  1  0.45633000  0.13302000  0.05621000  1.0
  O  O318  1  0.13303000  0.45634000  0.55621000  1.0
  O  O319  1  0.54366000  0.86699000  0.94378000  1.0
  O  O320  1  0.96040000  0.95969000  0.41471000  1.0
  O  O321  1  0.04030000  0.03962000  0.08528000  1.0
  O  O322  1  0.03961000  0.04030000  0.58528000  1.0
  O  O323  1  0.95971000  0.96038000  0.91472000  1.0
