# generated using pymatgen
data_ZnH6C18Br3NO5
_symmetry_space_group_name_H-M   'P 1'
_cell_length_a   11.75240000
_cell_length_b   13.14360000
_cell_length_c   16.16840000
_cell_angle_alpha   89.89700000
_cell_angle_beta   85.16370000
_cell_angle_gamma   85.83820000
_symmetry_Int_Tables_number   1
_chemical_formula_structural   ZnH6C18Br3NO5
_chemical_formula_sum   'Zn2 H12 C36 Br6 N2 O10'
_cell_volume   2482.03628493
_cell_formula_units_Z   2
loop_
 _symmetry_equiv_pos_site_id
 _symmetry_equiv_pos_as_xyz
  1  'x, y, z'
loop_
 _atom_site_type_symbol
 _atom_site_label
 _atom_site_symmetry_multiplicity
 _atom_site_fract_x
 _atom_site_fract_y
 _atom_site_fract_z
 _atom_site_occupancy
  Zn  Zn0  1  0.61679000  0.50176000  0.49074000  1.0
  Zn  Zn1  1  0.38320000  0.49775000  0.50884000  1.0
  H  H2  1  0.35793000  0.17960000  0.50552000  1.0
  H  H3  1  0.21974000  0.36664000  0.60690000  1.0
  H  H4  1  0.90747000  0.31323000  0.64016000  1.0
  H  H5  1  0.09435000  0.66890000  0.34487000  1.0
  H  H6  1  0.64183000  0.81988000  0.49385000  1.0
  H  H7  1  0.72471000  0.17326000  0.49315000  1.0
  H  H8  1  0.27509000  0.82618000  0.50640000  1.0
  H  H9  1  0.26139000  0.01665000  0.50752000  1.0
  H  H10  1  0.73829000  0.98277000  0.49194000  1.0
  H  H11  1  0.80726000  0.40672000  0.56936000  1.0
  H  H12  1  0.19255000  0.59223000  0.42985000  1.0
  H  H13  1  0.78066000  0.63122000  0.39147000  1.0
  C  C14  1  0.46837000  0.69875000  0.49938000  1.0
  C  C15  1  0.44497000  0.02779000  0.50170000  1.0
  C  C16  1  0.04554000  0.39988000  0.57652000  1.0
  C  C17  1  0.95516000  0.59674000  0.42097000  1.0
  C  C18  1  0.16190000  0.41246000  0.56993000  1.0
  C  C19  1  0.83854000  0.58540000  0.42841000  1.0
  C  C20  1  0.14619000  0.53964000  0.46997000  1.0
  C  C21  1  0.85401000  0.45823000  0.52850000  1.0
  C  C22  1  0.02616000  0.53402000  0.47093000  1.0
  C  C23  1  0.97436000  0.46246000  0.52653000  1.0
  C  C24  1  0.49451000  0.50041000  0.33748000  1.0
  C  C25  1  0.53152000  0.30070000  0.50004000  1.0
  C  C26  1  0.50549000  0.49921000  0.66200000  1.0
  C  C27  1  0.50250000  0.59684000  0.97047000  1.0
  C  C28  1  0.49755000  0.40292000  0.02902000  1.0
  C  C29  1  0.40421000  0.55620000  0.03075000  1.0
  C  C30  1  0.59584000  0.44354000  0.96874000  1.0
  C  C31  1  0.49344000  0.50142000  0.24807000  1.0
  C  C32  1  0.50653000  0.49837000  0.75141000  1.0
  C  C33  1  0.59451000  0.54216000  0.02358000  1.0
  C  C34  1  0.40552000  0.45760000  0.97592000  1.0
  C  C35  1  0.49619000  0.50181000  0.08570000  1.0
  C  C36  1  0.34452000  0.97339000  0.50444000  1.0
  C  C37  1  0.50388000  0.49795000  0.91379000  1.0
  C  C38  1  0.49330000  0.50208000  0.17287000  1.0
  C  C39  1  0.50670000  0.49770000  0.82661000  1.0
  C  C40  1  0.53958000  0.18672000  0.49982000  1.0
  C  C41  1  0.46018000  0.81275000  0.49970000  1.0
  C  C42  1  0.00143000  0.32105000  0.63495000  1.0
  C  C43  1  0.00006000  0.67299000  0.36043000  1.0
  C  C44  1  0.65521000  0.02608000  0.49502000  1.0
  C  C45  1  0.35166000  0.86845000  0.50367000  1.0
  C  C46  1  0.64809000  0.13101000  0.49586000  1.0
  C  C47  1  0.55934000  0.86394000  0.49667000  1.0
  C  C48  1  0.44041000  0.13551000  0.50276000  1.0
  C  C49  1  0.55478000  0.97166000  0.49772000  1.0
  Br  Br50  1  0.27137000  0.63458000  0.07384000  1.0
  Br  Br51  1  0.72872000  0.36527000  0.92569000  1.0
  Br  Br52  1  0.50592000  0.73106000  0.92916000  1.0
  Br  Br53  1  0.49414000  0.26880000  0.07051000  1.0
  Br  Br54  1  0.27501000  0.39908000  0.94191000  1.0
  Br  Br55  1  0.72510000  0.60066000  0.05751000  1.0
  N  N56  1  0.79041000  0.51718000  0.48103000  1.0
  N  N57  1  0.20980000  0.48143000  0.51793000  1.0
  O  O58  1  0.56871000  0.65377000  0.49372000  1.0
  O  O59  1  0.93758000  0.73693000  0.32806000  1.0
  O  O60  1  0.43121000  0.34570000  0.50569000  1.0
  O  O61  1  0.37522000  0.65400000  0.50515000  1.0
  O  O62  1  0.62470000  0.34545000  0.49428000  1.0
  O  O63  1  0.59256000  0.49905000  0.36561000  1.0
  O  O64  1  0.40747000  0.50062000  0.63387000  1.0
  O  O65  1  0.39765000  0.50084000  0.37914000  1.0
  O  O66  1  0.60239000  0.49865000  0.62036000  1.0
  O  O67  1  0.06405000  0.26625000  0.67552000  1.0
