# generated using pymatgen
data_CuH12(C7N2)3
_symmetry_space_group_name_H-M   'P 1'
_cell_length_a   8.69088000
_cell_length_b   17.63960000
_cell_length_c   22.87970000
_cell_angle_alpha   97.14010000
_cell_angle_beta   89.99970000
_cell_angle_gamma   89.99980000
_symmetry_Int_Tables_number   1
_chemical_formula_structural   CuH12(C7N2)3
_chemical_formula_sum   'Cu4 H48 C84 N24'
_cell_volume   3480.34112778
_cell_formula_units_Z   4
loop_
 _symmetry_equiv_pos_site_id
 _symmetry_equiv_pos_as_xyz
  1  'x, y, z'
loop_
 _atom_site_type_symbol
 _atom_site_label
 _atom_site_symmetry_multiplicity
 _atom_site_fract_x
 _atom_site_fract_y
 _atom_site_fract_z
 _atom_site_occupancy
  Cu  Cu0  1  0.95602000  0.43290000  0.24739000  1.0
  Cu  Cu1  1  0.45603000  0.56711000  0.25261000  1.0
  Cu  Cu2  1  0.04397000  0.56710000  0.75261000  1.0
  Cu  Cu3  1  0.54398000  0.43289000  0.74739000  1.0
  H  H4  1  0.23683000  0.30722000  0.49339000  1.0
  H  H5  1  0.83071000  0.30341000  0.30533000  1.0
  H  H6  1  0.92477000  0.20894000  0.37027000  1.0
  H  H7  1  0.34276000  0.34245000  0.39483000  1.0
  H  H8  1  0.23399000  0.42829000  0.32572000  1.0
  H  H9  1  0.34191000  0.04453000  0.43850000  1.0
  H  H10  1  0.38958000  0.27285000  0.72485000  1.0
  H  H11  1  0.29432000  0.18767000  0.63813000  1.0
  H  H12  1  0.50513000  0.34142000  0.52815000  1.0
  H  H13  1  0.59620000  0.41920000  0.62033000  1.0
  H  H14  1  0.02660000  0.13803000  0.53643000  1.0
  H  H15  1  0.80506000  0.06422000  0.56887000  1.0
  H  H16  1  0.73683000  0.69278000  0.00660000  1.0
  H  H17  1  0.33071000  0.69659000  0.19467000  1.0
  H  H18  1  0.42478000  0.79106000  0.12973000  1.0
  H  H19  1  0.84276000  0.65755000  0.10517000  1.0
  H  H20  1  0.73399000  0.57170000  0.17428000  1.0
  H  H21  1  0.84191000  0.95547000  0.06150000  1.0
  H  H22  1  0.88957000  0.72715000  0.77515000  1.0
  H  H23  1  0.79432000  0.81233000  0.86187000  1.0
  H  H24  1  0.00513000  0.65858000  0.97186000  1.0
  H  H25  1  0.09620000  0.58080000  0.87967000  1.0
  H  H26  1  0.52661000  0.86197000  0.96357000  1.0
  H  H27  1  0.30506000  0.93578000  0.93113000  1.0
  H  H28  1  0.76318000  0.69278000  0.50660000  1.0
  H  H29  1  0.16928000  0.69658000  0.69467000  1.0
  H  H30  1  0.07523000  0.79105000  0.62972000  1.0
  H  H31  1  0.65724000  0.65755000  0.60517000  1.0
  H  H32  1  0.76599000  0.57170000  0.67428000  1.0
  H  H33  1  0.65810000  0.95546000  0.56150000  1.0
  H  H34  1  0.61044000  0.72715000  0.27514000  1.0
  H  H35  1  0.70569000  0.81233000  0.36187000  1.0
  H  H36  1  0.49487000  0.65858000  0.47185000  1.0
  H  H37  1  0.40380000  0.58081000  0.37967000  1.0
  H  H38  1  0.97340000  0.86197000  0.46357000  1.0
  H  H39  1  0.19495000  0.93579000  0.43113000  1.0
  H  H40  1  0.26317000  0.30722000  0.99340000  1.0
  H  H41  1  0.66928000  0.30341000  0.80532000  1.0
  H  H42  1  0.57522000  0.20894000  0.87027000  1.0
  H  H43  1  0.15725000  0.34246000  0.89483000  1.0
  H  H44  1  0.26600000  0.42830000  0.82572000  1.0
  H  H45  1  0.15810000  0.04453000  0.93850000  1.0
  H  H46  1  0.11042000  0.27285000  0.22485000  1.0
  H  H47  1  0.20567000  0.18767000  0.13813000  1.0
  H  H48  1  0.99487000  0.34142000  0.02815000  1.0
  H  H49  1  0.90381000  0.41920000  0.12033000  1.0
  H  H50  1  0.47339000  0.13803000  0.03644000  1.0
  H  H51  1  0.69494000  0.06421000  0.06888000  1.0
  C  C52  1  0.94399000  0.30946000  0.32601000  1.0
  C  C53  1  0.99630000  0.25736000  0.36235000  1.0
  C  C54  1  0.14140000  0.26857000  0.38882000  1.0
  C  C55  1  0.22750000  0.33213000  0.37665000  1.0
  C  C56  1  0.16807000  0.38023000  0.33847000  1.0
  C  C57  1  0.20150000  0.21613000  0.42872000  1.0
  C  C58  1  0.20648000  0.13849000  0.41596000  1.0
  C  C59  1  0.25961000  0.08626000  0.46041000  1.0
  C  C60  1  0.34000000  0.13313000  0.51199000  1.0
  C  C61  1  0.32981000  0.21100000  0.52253000  1.0
  C  C62  1  0.41427000  0.28608000  0.68052000  1.0
  C  C63  1  0.36055000  0.23849000  0.63187000  1.0
  C  C64  1  0.39006000  0.25780000  0.57533000  1.0
  C  C65  1  0.47538000  0.32452000  0.57101000  1.0
  C  C66  1  0.52707000  0.36787000  0.62210000  1.0
  C  C67  1  0.16216000  0.10281000  0.35962000  1.0
  C  C68  1  0.42613000  0.09199000  0.54988000  1.0
  C  C69  1  0.12488000  0.04156000  0.48137000  1.0
  C  C70  1  0.01488000  0.07740000  0.52019000  1.0
  C  C71  1  0.89096000  0.03632000  0.53873000  1.0
  C  C72  1  0.75508000  0.47089000  0.25243000  1.0
  C  C73  1  0.44399000  0.69054000  0.17399000  1.0
  C  C74  1  0.49630000  0.74265000  0.13765000  1.0
  C  C75  1  0.64140000  0.73144000  0.11118000  1.0
  C  C76  1  0.72751000  0.66787000  0.12336000  1.0
  C  C77  1  0.66806000  0.61977000  0.16153000  1.0
  C  C78  1  0.70150000  0.78386000  0.07128000  1.0
  C  C79  1  0.70649000  0.86151000  0.08404000  1.0
  C  C80  1  0.75962000  0.91374000  0.03959000  1.0
  C  C81  1  0.84002000  0.86687000  0.98802000  1.0
  C  C82  1  0.82982000  0.78900000  0.97747000  1.0
  C  C83  1  0.91426000  0.71392000  0.81948000  1.0
  C  C84  1  0.86054000  0.76152000  0.86813000  1.0
  C  C85  1  0.89007000  0.74220000  0.92467000  1.0
  C  C86  1  0.97538000  0.67548000  0.92899000  1.0
  C  C87  1  0.02706000  0.63213000  0.87790000  1.0
  C  C88  1  0.66218000  0.89718000  0.14039000  1.0
  C  C89  1  0.92615000  0.90802000  0.95013000  1.0
  C  C90  1  0.62488000  0.95844000  0.01863000  1.0
  C  C91  1  0.51488000  0.92260000  0.97981000  1.0
  C  C92  1  0.39096000  0.96368000  0.96127000  1.0
  C  C93  1  0.25509000  0.52912000  0.24757000  1.0
  C  C94  1  0.05600000  0.69054000  0.67399000  1.0
  C  C95  1  0.00370000  0.74263000  0.63765000  1.0
  C  C96  1  0.85860000  0.73143000  0.61117000  1.0
  C  C97  1  0.77249000  0.66786000  0.62335000  1.0
  C  C98  1  0.83192000  0.61977000  0.66153000  1.0
  C  C99  1  0.79851000  0.78386000  0.57127000  1.0
  C  C100  1  0.79353000  0.86150000  0.58404000  1.0
  C  C101  1  0.74039000  0.91374000  0.53959000  1.0
  C  C102  1  0.66000000  0.86687000  0.48801000  1.0
  C  C103  1  0.67019000  0.78900000  0.47747000  1.0
  C  C104  1  0.58574000  0.71392000  0.31948000  1.0
  C  C105  1  0.63945000  0.76151000  0.36812000  1.0
  C  C106  1  0.60994000  0.74221000  0.42466000  1.0
  C  C107  1  0.52462000  0.67548000  0.42899000  1.0
  C  C108  1  0.47293000  0.63213000  0.37790000  1.0
  C  C109  1  0.83784000  0.89717000  0.64038000  1.0
  C  C110  1  0.57387000  0.90802000  0.45012000  1.0
  C  C111  1  0.87513000  0.95845000  0.51862000  1.0
  C  C112  1  0.98513000  0.92260000  0.47981000  1.0
  C  C113  1  0.10904000  0.96368000  0.46127000  1.0
  C  C114  1  0.24491000  0.52911000  0.74756000  1.0
  C  C115  1  0.55600000  0.30946000  0.82601000  1.0
  C  C116  1  0.50369000  0.25736000  0.86235000  1.0
  C  C117  1  0.35860000  0.26857000  0.88882000  1.0
  C  C118  1  0.27250000  0.33214000  0.87665000  1.0
  C  C119  1  0.33193000  0.38023000  0.83848000  1.0
  C  C120  1  0.29850000  0.21614000  0.92873000  1.0
  C  C121  1  0.29352000  0.13850000  0.91596000  1.0
  C  C122  1  0.24039000  0.08626000  0.96041000  1.0
  C  C123  1  0.15999000  0.13313000  0.01199000  1.0
  C  C124  1  0.17019000  0.21100000  0.02253000  1.0
  C  C125  1  0.08573000  0.28608000  0.18052000  1.0
  C  C126  1  0.13945000  0.23849000  0.13188000  1.0
  C  C127  1  0.10993000  0.25779000  0.07533000  1.0
  C  C128  1  0.02462000  0.32452000  0.07101000  1.0
  C  C129  1  0.97294000  0.36788000  0.12210000  1.0
  C  C130  1  0.33784000  0.10282000  0.85962000  1.0
  C  C131  1  0.07386000  0.09198000  0.04987000  1.0
  C  C132  1  0.37513000  0.04156000  0.98138000  1.0
  C  C133  1  0.48512000  0.07740000  0.02020000  1.0
  C  C134  1  0.60903000  0.03632000  0.03873000  1.0
  C  C135  1  0.74492000  0.47089000  0.75244000  1.0
  N  N136  1  0.02791000  0.36978000  0.31354000  1.0
  N  N137  1  0.26048000  0.25112000  0.48155000  1.0
  N  N138  1  0.49622000  0.35012000  0.67654000  1.0
  N  N139  1  0.12692000  0.07111000  0.31354000  1.0
  N  N140  1  0.49670000  0.05517000  0.57964000  1.0
  N  N141  1  0.63372000  0.50094000  0.25555000  1.0
  N  N142  1  0.52791000  0.63022000  0.18646000  1.0
  N  N143  1  0.76048000  0.74888000  0.01845000  1.0
  N  N144  1  0.99622000  0.64988000  0.82346000  1.0
  N  N145  1  0.62696000  0.92888000  0.18647000  1.0
  N  N146  1  0.99672000  0.94484000  0.92037000  1.0
  N  N147  1  0.13372000  0.49907000  0.24445000  1.0
  N  N148  1  0.97208000  0.63021000  0.68646000  1.0
  N  N149  1  0.73953000  0.74888000  0.51844000  1.0
  N  N150  1  0.50378000  0.64988000  0.32346000  1.0
  N  N151  1  0.87306000  0.92888000  0.68647000  1.0
  N  N152  1  0.50329000  0.94484000  0.42036000  1.0
  N  N153  1  0.36627000  0.49906000  0.74445000  1.0
  N  N154  1  0.47208000  0.36979000  0.81354000  1.0
  N  N155  1  0.23953000  0.25112000  0.98155000  1.0
  N  N156  1  0.00378000  0.35013000  0.17654000  1.0
  N  N157  1  0.37307000  0.07112000  0.81354000  1.0
  N  N158  1  0.00329000  0.05516000  0.07964000  1.0
  N  N159  1  0.86627000  0.50094000  0.75555000  1.0
