# generated using pymatgen
data_Cu2H26C23(NO4)2
_symmetry_space_group_name_H-M   'P 1'
_cell_length_a   8.59400000
_cell_length_b   13.21250000
_cell_length_c   15.24780000
_cell_angle_alpha   115.65600000
_cell_angle_beta   103.17000000
_cell_angle_gamma   90.01420000
_symmetry_Int_Tables_number   1
_chemical_formula_structural   Cu2H26C23(NO4)2
_chemical_formula_sum   'Cu4 H52 C46 N4 O16'
_cell_volume   1509.94012022
_cell_formula_units_Z   2
loop_
 _symmetry_equiv_pos_site_id
 _symmetry_equiv_pos_as_xyz
  1  'x, y, z'
loop_
 _atom_site_type_symbol
 _atom_site_label
 _atom_site_symmetry_multiplicity
 _atom_site_fract_x
 _atom_site_fract_y
 _atom_site_fract_z
 _atom_site_occupancy
  Cu  Cu0  1  0.91778000  0.00446000  0.42002000  1.0
  Cu  Cu1  1  0.58227000  0.58444000  0.57995000  1.0
  Cu  Cu2  1  0.08222000  0.99554000  0.57998000  1.0
  Cu  Cu3  1  0.41773000  0.41555000  0.42004000  1.0
  H  H4  1  0.79992000  0.19319000  0.36185000  1.0
  H  H5  1  0.70032000  0.83128000  0.63818000  1.0
  H  H6  1  0.20007000  0.80681000  0.63815000  1.0
  H  H7  1  0.29968000  0.16872000  0.36183000  1.0
  H  H8  1  0.58172000  0.22230000  0.23978000  1.0
  H  H9  1  0.91854000  0.98240000  0.76023000  1.0
  H  H10  1  0.41828000  0.77770000  0.76022000  1.0
  H  H11  1  0.08146000  0.01760000  0.23977000  1.0
  H  H12  1  0.43918000  0.86175000  0.09716000  1.0
  H  H13  1  0.06063000  0.76455000  0.90308000  1.0
  H  H14  1  0.56082000  0.13825000  0.90283000  1.0
  H  H15  1  0.93938000  0.23545000  0.09692000  1.0
  H  H16  1  0.66547000  0.84913000  0.22636000  1.0
  H  H17  1  0.83432000  0.62279000  0.77387000  1.0
  H  H18  1  0.33453000  0.15087000  0.77364000  1.0
  H  H19  1  0.16568000  0.37721000  0.22613000  1.0
  H  H20  1  0.29653000  0.12703000  0.11621000  1.0
  H  H21  1  0.20352000  0.01072000  0.88375000  1.0
  H  H22  1  0.70348000  0.87297000  0.88379000  1.0
  H  H23  1  0.79648000  0.98928000  0.11625000  1.0
  H  H24  1  0.42631000  0.09283000  0.03719000  1.0
  H  H25  1  0.07374000  0.05555000  0.96276000  1.0
  H  H26  1  0.57369000  0.90717000  0.96281000  1.0
  H  H27  1  0.92626000  0.94445000  0.03724000  1.0
  H  H28  1  0.18329000  0.92507000  0.03946000  1.0
  H  H29  1  0.31680000  0.88568000  0.96068000  1.0
  H  H30  1  0.81671000  0.07493000  0.96054000  1.0
  H  H31  1  0.68320000  0.11432000  0.03931000  1.0
  H  H32  1  0.32364000  0.85836000  0.28353000  1.0
  H  H33  1  0.17639000  0.57469000  0.71645000  1.0
  H  H34  1  0.67636000  0.14165000  0.71647000  1.0
  H  H35  1  0.82362000  0.42531000  0.28355000  1.0
  H  H36  1  0.46183000  0.96785000  0.38582000  1.0
  H  H37  1  0.03828000  0.58198000  0.61417000  1.0
  H  H38  1  0.53817000  0.03216000  0.61419000  1.0
  H  H39  1  0.96172000  0.41801000  0.38583000  1.0
  H  H40  1  0.55573000  0.78553000  0.36463000  1.0
  H  H41  1  0.94425000  0.42080000  0.63533000  1.0
  H  H42  1  0.44428000  0.21447000  0.63538000  1.0
  H  H43  1  0.05576000  0.57920000  0.36467000  1.0
  H  H44  1  0.50689000  0.85503000  0.48134000  1.0
  H  H45  1  0.99307000  0.37371000  0.51861000  1.0
  H  H46  1  0.49311000  0.14497000  0.51866000  1.0
  H  H47  1  0.00694000  0.62628000  0.48140000  1.0
  H  H48  1  0.29372000  0.65954000  0.29264000  1.0
  H  H49  1  0.20620000  0.36676000  0.70728000  1.0
  H  H50  1  0.70628000  0.34047000  0.70736000  1.0
  H  H51  1  0.79380000  0.63324000  0.29273000  1.0
  H  H52  1  0.23295000  0.74118000  0.40406000  1.0
  H  H53  1  0.26700000  0.33711000  0.59587000  1.0
  H  H54  1  0.76705000  0.25882000  0.59594000  1.0
  H  H55  1  0.73301000  0.66289000  0.40414000  1.0
  C  C56  1  0.71817000  0.12182000  0.30089000  1.0
  C  C57  1  0.78197000  0.82086000  0.69916000  1.0
  C  C58  1  0.28183000  0.87818000  0.69911000  1.0
  C  C59  1  0.21803000  0.17914000  0.30084000  1.0
  C  C60  1  0.59613000  0.13694000  0.23174000  1.0
  C  C61  1  0.90405000  0.90509000  0.76829000  1.0
  C  C62  1  0.40387000  0.86306000  0.76826000  1.0
  C  C63  1  0.09595000  0.09491000  0.23171000  1.0
  C  C64  1  0.49264000  0.04333000  0.15465000  1.0
  C  C65  1  0.00743000  0.88859000  0.84543000  1.0
  C  C66  1  0.50736000  0.95667000  0.84535000  1.0
  C  C67  1  0.99256000  0.11141000  0.15456000  1.0
  C  C68  1  0.51670000  0.93803000  0.15360000  1.0
  C  C69  1  0.98325000  0.78440000  0.84658000  1.0
  C  C70  1  0.48331000  0.06197000  0.84640000  1.0
  C  C71  1  0.01675000  0.21560000  0.15342000  1.0
  C  C72  1  0.64294000  0.92996000  0.22531000  1.0
  C  C73  1  0.85699000  0.70463000  0.77486000  1.0
  C  C74  1  0.35706000  0.07004000  0.77469000  1.0
  C  C75  1  0.14302000  0.29537000  0.22515000  1.0
  C  C76  1  0.36556000  0.05919000  0.07699000  1.0
  C  C77  1  0.13452000  0.98213000  0.92303000  1.0
  C  C78  1  0.63444000  0.94081000  0.92301000  1.0
  C  C79  1  0.86548000  0.01787000  0.07697000  1.0
  C  C80  1  0.25004000  0.95524000  0.00005000  1.0
  C  C81  1  0.74996000  0.04476000  0.99995000  1.0
  C  C82  1  0.23628000  0.94321000  0.41483000  1.0
  C  C83  1  0.26377000  0.52835000  0.58514000  1.0
  C  C84  1  0.76372000  0.05679000  0.58517000  1.0
  C  C85  1  0.73624000  0.47165000  0.41485000  1.0
  C  C86  1  0.37238000  0.89652000  0.36552000  1.0
  C  C87  1  0.12766000  0.53093000  0.63446000  1.0
  C  C88  1  0.62762000  0.10348000  0.63448000  1.0
  C  C89  1  0.87234000  0.46907000  0.36554000  1.0
  C  C90  1  0.45517000  0.81253000  0.39980000  1.0
  C  C91  1  0.04480000  0.41266000  0.60014000  1.0
  C  C92  1  0.54483000  0.18747000  0.60020000  1.0
  C  C93  1  0.95520000  0.58734000  0.39986000  1.0
  C  C94  1  0.33837000  0.71074000  0.37431000  1.0
  C  C95  1  0.16158000  0.33635000  0.62561000  1.0
  C  C96  1  0.66163000  0.28926000  0.62569000  1.0
  C  C97  1  0.83842000  0.66365000  0.37440000  1.0
  C  C98  1  0.40273000  0.63284000  0.42021000  1.0
  C  C99  1  0.09728000  0.21256000  0.57972000  1.0
  C  C100  1  0.59727000  0.36716000  0.57979000  1.0
  C  C101  1  0.90273000  0.78744000  0.42029000  1.0
  N  N102  1  0.74389000  0.01972000  0.29739000  1.0
  N  N103  1  0.75615000  0.72227000  0.70269000  1.0
  N  N104  1  0.25612000  0.98028000  0.70261000  1.0
  N  N105  1  0.24385000  0.27773000  0.29731000  1.0
  O  O106  1  0.11103000  0.96142000  0.36245000  1.0
  O  O107  1  0.38901000  0.59895000  0.63747000  1.0
  O  O108  1  0.88897000  0.03859000  0.63755000  1.0
  O  O109  1  0.61099000  0.40104000  0.36252000  1.0
  O  O110  1  0.25711000  0.95965000  0.50553000  1.0
  O  O111  1  0.24294000  0.45404000  0.49447000  1.0
  O  O112  1  0.74288000  0.04034000  0.49446000  1.0
  O  O113  1  0.75705000  0.54595000  0.50552000  1.0
  O  O114  1  0.49629000  0.67718000  0.50850000  1.0
  O  O115  1  0.00385000  0.16859000  0.49139000  1.0
  O  O116  1  0.50370000  0.32281000  0.49150000  1.0
  O  O117  1  0.99614000  0.83141000  0.50862000  1.0
  O  O118  1  0.35339000  0.52781000  0.36715000  1.0
  O  O119  1  0.14656000  0.16063000  0.63284000  1.0
  O  O120  1  0.64661000  0.47219000  0.63284000  1.0
  O  O121  1  0.85344000  0.83936000  0.36716000  1.0
