# generated using pymatgen
data_BiH17C22S2Br3
_symmetry_space_group_name_H-M   'P 1'
_cell_length_a   10.90040000
_cell_length_b   14.59140000
_cell_length_c   15.09377232
_cell_angle_alpha   89.76281031
_cell_angle_beta   69.00221556
_cell_angle_gamma   89.68960000
_symmetry_Int_Tables_number   1
_chemical_formula_structural   BiH17C22S2Br3
_chemical_formula_sum   'Bi4 H68 C88 S8 Br12'
_cell_volume   2241.23708090
_cell_formula_units_Z   4
loop_
 _symmetry_equiv_pos_site_id
 _symmetry_equiv_pos_as_xyz
  1  'x, y, z'
loop_
 _atom_site_type_symbol
 _atom_site_label
 _atom_site_symmetry_multiplicity
 _atom_site_fract_x
 _atom_site_fract_y
 _atom_site_fract_z
 _atom_site_occupancy
  Bi  Bi0  1  0.56799000  0.02375000  0.11194000  1.0
  Bi  Bi1  1  0.42386000  0.97835000  0.89354000  1.0
  Bi  Bi2  1  0.06959000  0.47982000  0.11124000  1.0
  Bi  Bi3  1  0.92480000  0.52241000  0.89153000  1.0
  H  H4  1  0.97501000  0.18129000  0.34196000  1.0
  H  H5  1  0.92601000  0.03376000  0.28740000  1.0
  H  H6  1  0.08407000  0.28178000  0.60743000  1.0
  H  H7  1  0.06662000  0.91037000  0.18275000  1.0
  H  H8  1  0.99626000  0.89564000  0.04657000  1.0
  H  H9  1  0.62921000  0.77802000  0.22927000  1.0
  H  H10  1  0.70079000  0.79375000  0.36604000  1.0
  H  H11  1  0.93914000  0.82655000  0.91279000  1.0
  H  H12  1  0.90049000  0.94461000  0.94789000  1.0
  H  H13  1  0.81493000  0.88652000  0.88302000  1.0
  H  H14  1  0.20453000  0.35694000  0.43908000  1.0
  H  H15  1  0.16946000  0.50014000  0.36415000  1.0
  H  H16  1  0.77759000  0.41068000  0.39725000  1.0
  H  H17  1  0.81408000  0.26893000  0.47072000  1.0
  H  H18  1  0.73404000  0.57775000  0.40273000  1.0
  H  H19  1  0.77789000  0.63127000  0.28863000  1.0
  H  H20  1  0.75548000  0.50986000  0.29846000  1.0
  H  H21  1  0.01943000  0.82287000  0.66303000  1.0
  H  H22  1  0.06724000  0.97063000  0.71808000  1.0
  H  H23  1  0.91392000  0.72228000  0.39605000  1.0
  H  H24  1  0.92719000  0.09546000  0.82198000  1.0
  H  H25  1  0.99734000  0.10949000  0.95833000  1.0
  H  H26  1  0.36678000  0.22400000  0.77563000  1.0
  H  H27  1  0.29581000  0.20835000  0.63850000  1.0
  H  H28  1  0.09301000  0.05918000  0.05787000  1.0
  H  H29  1  0.17634000  0.11933000  0.12304000  1.0
  H  H30  1  0.05293000  0.17756000  0.09091000  1.0
  H  H31  1  0.79361000  0.64631000  0.56371000  1.0
  H  H32  1  0.83011000  0.50276000  0.63736000  1.0
  H  H33  1  0.22098000  0.59371000  0.60526000  1.0
  H  H34  1  0.18318000  0.73567000  0.53264000  1.0
  H  H35  1  0.26548000  0.42649000  0.60017000  1.0
  H  H36  1  0.22115000  0.37317000  0.71441000  1.0
  H  H37  1  0.24253000  0.49470000  0.70445000  1.0
  H  H38  1  0.39612000  0.56041000  0.94604000  1.0
  H  H39  1  0.31255000  0.62399000  0.88247000  1.0
  H  H40  1  0.43735000  0.67896000  0.91463000  1.0
  H  H41  1  0.70101000  0.14027000  0.44296000  1.0
  H  H42  1  0.66346000  0.99779000  0.36905000  1.0
  H  H43  1  0.27774000  0.09675000  0.39350000  1.0
  H  H44  1  0.31600000  0.23696000  0.46725000  1.0
  H  H45  1  0.23142000  0.92916000  0.40544000  1.0
  H  H46  1  0.27256000  0.87272000  0.29326000  1.0
  H  H47  1  0.25173000  0.99448000  0.29931000  1.0
  H  H48  1  0.51957000  0.67652000  0.66211000  1.0
  H  H49  1  0.56743000  0.52804000  0.71729000  1.0
  H  H50  1  0.41486000  0.78026000  0.39488000  1.0
  H  H51  1  0.42813000  0.40420000  0.82168000  1.0
  H  H52  1  0.50025000  0.39097000  0.95721000  1.0
  H  H53  1  0.86983000  0.27561000  0.77391000  1.0
  H  H54  1  0.79665000  0.29018000  0.63768000  1.0
  H  H55  1  0.59682000  0.44043000  0.05786000  1.0
  H  H56  1  0.67972000  0.37684000  0.12190000  1.0
  H  H57  1  0.55679000  0.32151000  0.08795000  1.0
  H  H58  1  0.29301000  0.85482000  0.56263000  1.0
  H  H59  1  0.32702000  0.99721000  0.63789000  1.0
  H  H60  1  0.71727000  0.90429000  0.60876000  1.0
  H  H61  1  0.68216000  0.76382000  0.53406000  1.0
  H  H62  1  0.76062000  0.07067000  0.59937000  1.0
  H  H63  1  0.71797000  0.12683000  0.71180000  1.0
  H  H64  1  0.73974000  0.00515000  0.70545000  1.0
  H  H65  1  0.48235000  0.32162000  0.33848000  1.0
  H  H66  1  0.43421000  0.47005000  0.28337000  1.0
  H  H67  1  0.58139000  0.21753000  0.60813000  1.0
  H  H68  1  0.56917000  0.59477000  0.17962000  1.0
  H  H69  1  0.49552000  0.60966000  0.04489000  1.0
  H  H70  1  0.12790000  0.72569000  0.23041000  1.0
  H  H71  1  0.20202000  0.70848000  0.36600000  1.0
  C  C72  1  0.97592000  0.11965000  0.38271000  1.0
  C  C73  1  0.94972000  0.03683000  0.35158000  1.0
  C  C74  1  0.95251000  0.95374000  0.40142000  1.0
  C  C75  1  0.98385000  0.95868000  0.48597000  1.0
  C  C76  1  0.00508000  0.12743000  0.46764000  1.0
  C  C77  1  0.03058000  0.21317000  0.50177000  1.0
  C  C78  1  0.06623000  0.21522000  0.58185000  1.0
  C  C79  1  0.92448000  0.86726000  0.37034000  1.0
  C  C80  1  0.88711000  0.85648000  0.28566000  1.0
  C  C81  1  0.96913000  0.88301000  0.19417000  1.0
  C  C82  1  0.92913000  0.87491000  0.11650000  1.0
  C  C83  1  0.80399000  0.84069000  0.12935000  1.0
  C  C84  1  0.72468000  0.80812000  0.21924000  1.0
  C  C85  1  0.76574000  0.81626000  0.29604000  1.0
  C  C86  1  0.86122000  0.87863000  0.93626000  1.0
  C  C87  1  0.01284000  0.30073000  0.45817000  1.0
  C  C88  1  0.11047000  0.36840000  0.43048000  1.0
  C  C89  1  0.09138000  0.44933000  0.38800000  1.0
  C  C90  1  0.97250000  0.46417000  0.37377000  1.0
  C  C91  1  0.87145000  0.39985000  0.40572000  1.0
  C  C92  1  0.89285000  0.31902000  0.44690000  1.0
  C  C93  1  0.78950000  0.56969000  0.32672000  1.0
  C  C94  1  0.01849000  0.88457000  0.62234000  1.0
  C  C95  1  0.04415000  0.96748000  0.65363000  1.0
  C  C96  1  0.04187000  0.05055000  0.60359000  1.0
  C  C97  1  0.01057000  0.04560000  0.51903000  1.0
  C  C98  1  0.98996000  0.87679000  0.53712000  1.0
  C  C99  1  0.96595000  0.79102000  0.50230000  1.0
  C  C100  1  0.93055000  0.78892000  0.42212000  1.0
  C  C101  1  0.07083000  0.13696000  0.63423000  1.0
  C  C102  1  0.10802000  0.14761000  0.71902000  1.0
  C  C103  1  0.02513000  0.12193000  0.81060000  1.0
  C  C104  1  0.06500000  0.12969000  0.88837000  1.0
  C  C105  1  0.19062000  0.16290000  0.87556000  1.0
  C  C106  1  0.27087000  0.19467000  0.78557000  1.0
  C  C107  1  0.23011000  0.18668000  0.70859000  1.0
  C  C108  1  0.13129000  0.12572000  0.06895000  1.0
  C  C109  1  0.98461000  0.70335000  0.54528000  1.0
  C  C110  1  0.88769000  0.63517000  0.57236000  1.0
  C  C111  1  0.90750000  0.55410000  0.61428000  1.0
  C  C112  1  0.02640000  0.53960000  0.62857000  1.0
  C  C113  1  0.12694000  0.60432000  0.59696000  1.0
  C  C114  1  0.10480000  0.68528000  0.55628000  1.0
  C  C115  1  0.20939000  0.43454000  0.67610000  1.0
  C  C116  1  0.35841000  0.62799000  0.93622000  1.0
  C  C117  1  0.51237000  0.20071000  0.45799000  1.0
  C  C118  1  0.60780000  0.13095000  0.43268000  1.0
  C  C119  1  0.58744000  0.05062000  0.39064000  1.0
  C  C120  1  0.46976000  0.03866000  0.37423000  1.0
  C  C121  1  0.37067000  0.10518000  0.40384000  1.0
  C  C122  1  0.39317000  0.18518000  0.44494000  1.0
  C  C123  1  0.28567000  0.93507000  0.32903000  1.0
  C  C124  1  0.51955000  0.61525000  0.62110000  1.0
  C  C125  1  0.54524000  0.53196000  0.65248000  1.0
  C  C126  1  0.54334000  0.44936000  0.60234000  1.0
  C  C127  1  0.51335000  0.45531000  0.51723000  1.0
  C  C128  1  0.49198000  0.62403000  0.53552000  1.0
  C  C129  1  0.46725000  0.71024000  0.50100000  1.0
  C  C130  1  0.43249000  0.71332000  0.42054000  1.0
  C  C131  1  0.57097000  0.36244000  0.63375000  1.0
  C  C132  1  0.60860000  0.35129000  0.71843000  1.0
  C  C133  1  0.52640000  0.37745000  0.80998000  1.0
  C  C134  1  0.56744000  0.37021000  0.88732000  1.0
  C  C135  1  0.69365000  0.33700000  0.87411000  1.0
  C  C136  1  0.77334000  0.30482000  0.78423000  1.0
  C  C137  1  0.73135000  0.31222000  0.70770000  1.0
  C  C138  1  0.63508000  0.37298000  0.06744000  1.0
  C  C139  1  0.48415000  0.79717000  0.54507000  1.0
  C  C140  1  0.38649000  0.86537000  0.57215000  1.0
  C  C141  1  0.40490000  0.94577000  0.61495000  1.0
  C  C142  1  0.52301000  0.95951000  0.63027000  1.0
  C  C143  1  0.62401000  0.89449000  0.59927000  1.0
  C  C144  1  0.60334000  0.81432000  0.55755000  1.0
  C  C145  1  0.70571000  0.06447000  0.67568000  1.0
  C  C146  1  0.48170000  0.38284000  0.37974000  1.0
  C  C147  1  0.45593000  0.46614000  0.34836000  1.0
  C  C148  1  0.45686000  0.54867000  0.39889000  1.0
  C  C149  1  0.48716000  0.54270000  0.48387000  1.0
  C  C150  1  0.50826000  0.37396000  0.46574000  1.0
  C  C151  1  0.53124000  0.28768000  0.50109000  1.0
  C  C152  1  0.56529000  0.28456000  0.58188000  1.0
  C  C153  1  0.42784000  0.63554000  0.36819000  1.0
  C  C154  1  0.38938000  0.64724000  0.28397000  1.0
  C  C155  1  0.47081000  0.62168000  0.19204000  1.0
  C  C156  1  0.42900000  0.63000000  0.11514000  1.0
  C  C157  1  0.30285000  0.66389000  0.12920000  1.0
  C  C158  1  0.22416000  0.69580000  0.21947000  1.0
  C  C159  1  0.26674000  0.68699000  0.29559000  1.0
  S  S160  1  0.73192000  0.83968000  0.04174000  1.0
  S  S161  1  0.96174000  0.56191000  0.30780000  1.0
  S  S162  1  0.26185000  0.16375000  0.96366000  1.0
  S  S163  1  0.03733000  0.44165000  0.69420000  1.0
  S  S164  1  0.45831000  0.94142000  0.30874000  1.0
  S  S165  1  0.53329000  0.05738000  0.69531000  1.0
  S  S166  1  0.22917000  0.66557000  0.04252000  1.0
  S  S167  1  0.76605000  0.33652000  0.96155000  1.0
  Br  Br168  1  0.34502000  0.91249000  0.08246000  1.0
  Br  Br169  1  0.39580000  0.16447000  0.17777000  1.0
  Br  Br170  1  0.76999000  0.09999000  0.14720000  1.0
  Br  Br171  1  0.64758000  0.08964000  0.92286000  1.0
  Br  Br172  1  0.59574000  0.83764000  0.82785000  1.0
  Br  Br173  1  0.22109000  0.90248000  0.85904000  1.0
  Br  Br174  1  0.15013000  0.41333000  0.92293000  1.0
  Br  Br175  1  0.09347000  0.66426000  0.82468000  1.0
  Br  Br176  1  0.71955000  0.59624000  0.85713000  1.0
  Br  Br177  1  0.84387000  0.58886000  0.07993000  1.0
  Br  Br178  1  0.90008000  0.33854000  0.17887000  1.0
  Br  Br179  1  0.27537000  0.40533000  0.14423000  1.0
