# generated using pymatgen
data_NiH12C14(NO3)2
_symmetry_space_group_name_H-M   'P 1'
_cell_length_a   7.93024000
_cell_length_b   11.25110000
_cell_length_c   18.05380000
_cell_angle_alpha   89.99950000
_cell_angle_beta   93.07000000
_cell_angle_gamma   89.99770000
_symmetry_Int_Tables_number   1
_chemical_formula_structural   NiH12C14(NO3)2
_chemical_formula_sum   'Ni4 H48 C56 N8 O24'
_cell_volume   1608.51907898
_cell_formula_units_Z   4
loop_
 _symmetry_equiv_pos_site_id
 _symmetry_equiv_pos_as_xyz
  1  'x, y, z'
loop_
 _atom_site_type_symbol
 _atom_site_label
 _atom_site_symmetry_multiplicity
 _atom_site_fract_x
 _atom_site_fract_y
 _atom_site_fract_z
 _atom_site_occupancy
  Ni  Ni0  1  0.50000000  0.00000000  0.50000000  1.0
  Ni  Ni1  1  0.00000000  0.50000000  0.50000000  1.0
  Ni  Ni2  1  0.00000000  0.50000000  0.00000000  1.0
  Ni  Ni3  1  0.50000000  0.00000000  0.00000000  1.0
  H  H4  1  0.29227000  0.83932000  0.43493000  1.0
  H  H5  1  0.79227000  0.66069000  0.43493000  1.0
  H  H6  1  0.70772000  0.16068000  0.56507000  1.0
  H  H7  1  0.20773000  0.33931000  0.56507000  1.0
  H  H8  1  0.47596000  0.77464000  0.43290000  1.0
  H  H9  1  0.97596000  0.72535000  0.43289000  1.0
  H  H10  1  0.52404000  0.22536000  0.56710000  1.0
  H  H11  1  0.02404000  0.27465000  0.56711000  1.0
  H  H12  1  0.00079000  0.29027000  0.92931000  1.0
  H  H13  1  0.50077000  0.20973000  0.92931000  1.0
  H  H14  1  0.99922000  0.70973000  0.07069000  1.0
  H  H15  1  0.49923000  0.79027000  0.07069000  1.0
  H  H16  1  0.18549000  0.34857000  0.92685000  1.0
  H  H17  1  0.68548000  0.15142000  0.92685000  1.0
  H  H18  1  0.81451000  0.65143000  0.07315000  1.0
  H  H19  1  0.31452000  0.84858000  0.07315000  1.0
  H  H20  1  0.23148000  0.35091000  0.36077000  1.0
  H  H21  1  0.73147000  0.14911000  0.36078000  1.0
  H  H22  1  0.76852000  0.64909000  0.63923000  1.0
  H  H23  1  0.26853000  0.85089000  0.63922000  1.0
  H  H24  1  0.33585000  0.23141000  0.46848000  1.0
  H  H25  1  0.83582000  0.26859000  0.46849000  1.0
  H  H26  1  0.66416000  0.76859000  0.53152000  1.0
  H  H27  1  0.16419000  0.73141000  0.53151000  1.0
  H  H28  1  0.46142000  0.94850000  0.33584000  1.0
  H  H29  1  0.96142000  0.55148000  0.33583000  1.0
  H  H30  1  0.53858000  0.05150000  0.66416000  1.0
  H  H31  1  0.03858000  0.44852000  0.66417000  1.0
  H  H32  1  0.35047000  0.05242000  0.22117000  1.0
  H  H33  1  0.85049000  0.44756000  0.22116000  1.0
  H  H34  1  0.64952000  0.94757000  0.77883000  1.0
  H  H35  1  0.14951000  0.55244000  0.77884000  1.0
  H  H36  1  0.09293000  0.12841000  0.16052000  1.0
  H  H37  1  0.59290000  0.37159000  0.16053000  1.0
  H  H38  1  0.90707000  0.87159000  0.83948000  1.0
  H  H39  1  0.40710000  0.62841000  0.83947000  1.0
  H  H40  1  0.97743000  0.25063000  0.05416000  1.0
  H  H41  1  0.47741000  0.24940000  0.05416000  1.0
  H  H42  1  0.02257000  0.74937000  0.94584000  1.0
  H  H43  1  0.52259000  0.75060000  0.94584000  1.0
  H  H44  1  0.20399000  0.55569000  0.13869000  1.0
  H  H45  1  0.70404000  0.94430000  0.13871000  1.0
  H  H46  1  0.79601000  0.44431000  0.86131000  1.0
  H  H47  1  0.29596000  0.05570000  0.86129000  1.0
  H  H48  1  0.32048000  0.44935000  0.25162000  1.0
  H  H49  1  0.82052000  0.05066000  0.25162000  1.0
  H  H50  1  0.67952000  0.55065000  0.74838000  1.0
  H  H51  1  0.17948000  0.94934000  0.74838000  1.0
  C  C52  1  0.12413000  0.01399000  0.52139000  1.0
  C  C53  1  0.62413000  0.48600000  0.52138000  1.0
  C  C54  1  0.87587000  0.98601000  0.47861000  1.0
  C  C55  1  0.37587000  0.51400000  0.47862000  1.0
  C  C56  1  0.04317000  0.93772000  0.46248000  1.0
  C  C57  1  0.54315000  0.56229000  0.46248000  1.0
  C  C58  1  0.95683000  0.06229000  0.53752000  1.0
  C  C59  1  0.45685000  0.43772000  0.53752000  1.0
  C  C60  1  0.37900000  0.53806000  0.99927000  1.0
  C  C61  1  0.87901000  0.96193000  0.99927000  1.0
  C  C62  1  0.62100000  0.46194000  0.00073000  1.0
  C  C63  1  0.12099000  0.03806000  0.00072000  1.0
  C  C64  1  0.45114000  0.42700000  0.97039000  1.0
  C  C65  1  0.95113000  0.07299000  0.97039000  1.0
  C  C66  1  0.54886000  0.57300000  0.02961000  1.0
  C  C67  1  0.04888000  0.92700000  0.02960000  1.0
  C  C68  1  0.28181000  0.21170000  0.28094000  1.0
  C  C69  1  0.78182000  0.28830000  0.28094000  1.0
  C  C70  1  0.71818000  0.78830000  0.71906000  1.0
  C  C71  1  0.21819000  0.71171000  0.71906000  1.0
  C  C72  1  0.28136000  0.26215000  0.35189000  1.0
  C  C73  1  0.78137000  0.23786000  0.35190000  1.0
  C  C74  1  0.71864000  0.73785000  0.64811000  1.0
  C  C75  1  0.21863000  0.76214000  0.64810000  1.0
  C  C76  1  0.34094000  0.19612000  0.41267000  1.0
  C  C77  1  0.84094000  0.30388000  0.41268000  1.0
  C  C78  1  0.65906000  0.80388000  0.58733000  1.0
  C  C79  1  0.15906000  0.69612000  0.58732000  1.0
  C  C80  1  0.40732000  0.03728000  0.33843000  1.0
  C  C81  1  0.90732000  0.46271000  0.33843000  1.0
  C  C82  1  0.59268000  0.96272000  0.66157000  1.0
  C  C83  1  0.09268000  0.53729000  0.66157000  1.0
  C  C84  1  0.34500000  0.09583000  0.27495000  1.0
  C  C85  1  0.84499000  0.40416000  0.27495000  1.0
  C  C86  1  0.65500000  0.90417000  0.72505000  1.0
  C  C87  1  0.15501000  0.59584000  0.72506000  1.0
  C  C88  1  0.21714000  0.27862000  0.21542000  1.0
  C  C89  1  0.71714000  0.22137000  0.21542000  1.0
  C  C90  1  0.78286000  0.72137000  0.78458000  1.0
  C  C91  1  0.28286000  0.77863000  0.78458000  1.0
  C  C92  1  0.12185000  0.22284000  0.15798000  1.0
  C  C93  1  0.62185000  0.27716000  0.15798000  1.0
  C  C94  1  0.87814000  0.77716000  0.84202000  1.0
  C  C95  1  0.37815000  0.72284000  0.84202000  1.0
  C  C96  1  0.05812000  0.28982000  0.09820000  1.0
  C  C97  1  0.55812000  0.21017000  0.09821000  1.0
  C  C98  1  0.94188000  0.71018000  0.90180000  1.0
  C  C99  1  0.44188000  0.78983000  0.90179000  1.0
  C  C100  1  0.18254000  0.46108000  0.14626000  1.0
  C  C101  1  0.68254000  0.03894000  0.14627000  1.0
  C  C102  1  0.81746000  0.53892000  0.85374000  1.0
  C  C103  1  0.31746000  0.96106000  0.85373000  1.0
  C  C104  1  0.24638000  0.40113000  0.20880000  1.0
  C  C105  1  0.74639000  0.09887000  0.20880000  1.0
  C  C106  1  0.75361000  0.59887000  0.79120000  1.0
  C  C107  1  0.25361000  0.90113000  0.79120000  1.0
  N  N108  1  0.40525000  0.08605000  0.40649000  1.0
  N  N109  1  0.90525000  0.41395000  0.40649000  1.0
  N  N110  1  0.59475000  0.91395000  0.59351000  1.0
  N  N111  1  0.09475000  0.58605000  0.59351000  1.0
  N  N112  1  0.08919000  0.40660000  0.09155000  1.0
  N  N113  1  0.58921000  0.09340000  0.09156000  1.0
  N  N114  1  0.91080000  0.59339000  0.90845000  1.0
  N  N115  1  0.41079000  0.90660000  0.90844000  1.0
  O  O116  1  0.27073000  0.03315000  0.54963000  1.0
  O  O117  1  0.77073000  0.46683000  0.54962000  1.0
  O  O118  1  0.72927000  0.96685000  0.45037000  1.0
  O  O119  1  0.22927000  0.53317000  0.45038000  1.0
  O  O120  1  0.09219000  0.86042000  0.41756000  1.0
  O  O121  1  0.59216000  0.63960000  0.41755000  1.0
  O  O122  1  0.90781000  0.13958000  0.58244000  1.0
  O  O123  1  0.40784000  0.36040000  0.58245000  1.0
  O  O124  1  0.41116000  0.83705000  0.45750000  1.0
  O  O125  1  0.91115000  0.66295000  0.45750000  1.0
  O  O126  1  0.58884000  0.16295000  0.54250000  1.0
  O  O127  1  0.08885000  0.33705000  0.54250000  1.0
  O  O128  1  0.23582000  0.58661000  0.99925000  1.0
  O  O129  1  0.73583000  0.91338000  0.99925000  1.0
  O  O130  1  0.76419000  0.41339000  0.00075000  1.0
  O  O131  1  0.26417000  0.08662000  0.00075000  1.0
  O  O132  1  0.39201000  0.33851000  0.93479000  1.0
  O  O133  1  0.89198000  0.16148000  0.93479000  1.0
  O  O134  1  0.60800000  0.66149000  0.06521000  1.0
  O  O135  1  0.10802000  0.83852000  0.06521000  1.0
  O  O136  1  0.06171000  0.36736000  0.92493000  1.0
  O  O137  1  0.56169000  0.13263000  0.92493000  1.0
  O  O138  1  0.93829000  0.63264000  0.07507000  1.0
  O  O139  1  0.43831000  0.86737000  0.07507000  1.0
