# generated using pymatgen
data_ZnH8C6N2O7
_symmetry_space_group_name_H-M   'P 1'
_cell_length_a   7.26431000
_cell_length_b   7.79847726
_cell_length_c   9.80741506
_cell_angle_alpha   104.05630274
_cell_angle_beta   101.76916545
_cell_angle_gamma   114.71247514
_symmetry_Int_Tables_number   1
_chemical_formula_structural   ZnH8C6N2O7
_chemical_formula_sum   'Zn2 H16 C12 N4 O14'
_cell_volume   459.23551618
_cell_formula_units_Z   2
loop_
 _symmetry_equiv_pos_site_id
 _symmetry_equiv_pos_as_xyz
  1  'x, y, z'
loop_
 _atom_site_type_symbol
 _atom_site_label
 _atom_site_symmetry_multiplicity
 _atom_site_fract_x
 _atom_site_fract_y
 _atom_site_fract_z
 _atom_site_occupancy
  Zn  Zn0  1  0.31143000  0.23203000  0.22754000  1.0
  Zn  Zn1  1  0.58414000  0.00467000  0.77257000  1.0
  H  H2  1  0.26300000  0.38119000  0.00746000  1.0
  H  H3  1  0.75490000  0.37346000  0.99269000  1.0
  H  H4  1  0.34872000  0.23556000  0.94009000  1.0
  H  H5  1  0.90868000  0.29574000  0.05980000  1.0
  H  H6  1  0.90386000  0.93959000  0.13700000  1.0
  H  H7  1  0.26691000  0.80252000  0.86297000  1.0
  H  H8  1  0.03341000  0.87342000  0.04152000  1.0
  H  H9  1  0.49184000  0.83177000  0.95845000  1.0
  H  H10  1  0.03011000  0.33850000  0.30151000  1.0
  H  H11  1  0.22852000  0.03668000  0.69838000  1.0
  H  H12  1  0.18879000  0.51973000  0.25898000  1.0
  H  H13  1  0.42968000  0.26054000  0.74103000  1.0
  H  H14  1  0.06715000  0.91166000  0.38873000  1.0
  H  H15  1  0.17852000  0.52320000  0.61099000  1.0
  H  H16  1  0.71385000  0.60761000  0.19953000  1.0
  H  H17  1  0.01489000  0.40851000  0.80043000  1.0
  C  C18  1  0.49145000  0.40444000  0.55665000  1.0
  C  C19  1  0.43513000  0.84813000  0.44352000  1.0
  C  C20  1  0.65064000  0.56000000  0.51276000  1.0
  C  C21  1  0.63822000  0.04753000  0.48733000  1.0
  C  C22  1  0.83743000  0.73606000  0.61759000  1.0
  C  C23  1  0.72000000  0.11863000  0.38240000  1.0
  C  C24  1  0.88773000  0.80865000  0.78560000  1.0
  C  C25  1  0.60215000  0.02308000  0.21441000  1.0
  C  C26  1  0.94560000  0.81116000  0.42374000  1.0
  C  C27  1  0.02207000  0.38774000  0.57612000  1.0
  C  C28  1  0.75433000  0.64213000  0.31952000  1.0
  C  C29  1  0.93524000  0.32295000  0.68043000  1.0
  N  N30  1  0.61123000  0.51733000  0.36538000  1.0
  N  N31  1  0.74631000  0.15227000  0.63469000  1.0
  N  N32  1  0.98464000  0.85730000  0.57108000  1.0
  N  N33  1  0.91364000  0.28641000  0.42879000  1.0
  O  O34  1  0.33671000  0.24398000  0.45093000  1.0
  O  O35  1  0.38625000  0.79338000  0.54926000  1.0
  O  O36  1  0.53010000  0.44398000  0.69525000  1.0
  O  O37  1  0.33502000  0.74908000  0.30494000  1.0
  O  O38  1  0.81300000  0.91896000  0.83872000  1.0
  O  O39  1  0.47430000  0.08024000  0.16135000  1.0
  O  O40  1  0.01538000  0.76903000  0.86353000  1.0
  O  O41  1  0.65177000  0.90540000  0.13647000  1.0
  O  O42  1  0.34962000  0.32013000  0.03605000  1.0
  O  O43  1  0.81342000  0.28428000  0.96393000  1.0
  O  O44  1  0.04507000  0.94526000  0.14557000  1.0
  O  O45  1  0.39956000  0.79960000  0.85442000  1.0
  O  O46  1  0.09968000  0.36416000  0.22318000  1.0
  O  O47  1  0.37634000  0.14064000  0.77672000  1.0
