# generated using pymatgen
data_CuH10C14(NO)4
_symmetry_space_group_name_H-M   'P 1'
_cell_length_a   7.90675000
_cell_length_b   9.17939000
_cell_length_c   10.02840000
_cell_angle_alpha   77.31380000
_cell_angle_beta   78.54760000
_cell_angle_gamma   81.19430000
_symmetry_Int_Tables_number   1
_chemical_formula_structural   CuH10C14(NO)4
_chemical_formula_sum   'Cu2 H20 C28 N8 O8'
_cell_volume   691.36920198
_cell_formula_units_Z   2
loop_
 _symmetry_equiv_pos_site_id
 _symmetry_equiv_pos_as_xyz
  1  'x, y, z'
loop_
 _atom_site_type_symbol
 _atom_site_label
 _atom_site_symmetry_multiplicity
 _atom_site_fract_x
 _atom_site_fract_y
 _atom_site_fract_z
 _atom_site_occupancy
  Cu  Cu0  1  0.59848000  0.82987000  0.85323000  1.0
  Cu  Cu1  1  0.40151000  0.17013000  0.14676000  1.0
  H  H2  1  0.74983000  0.51149000  0.16478000  1.0
  H  H3  1  0.25018000  0.48852000  0.83522000  1.0
  H  H4  1  0.83039000  0.33354000  0.37539000  1.0
  H  H5  1  0.16963000  0.66647000  0.62460000  1.0
  H  H6  1  0.78859000  0.42281000  0.59869000  1.0
  H  H7  1  0.21143000  0.57719000  0.40131000  1.0
  H  H8  1  0.58372000  0.86224000  0.40066000  1.0
  H  H9  1  0.41625000  0.13775000  0.59935000  1.0
  H  H10  1  0.25217000  0.87115000  0.74399000  1.0
  H  H11  1  0.74781000  0.12886000  0.25602000  1.0
  H  H12  1  0.06527000  0.57252000  0.10827000  1.0
  H  H13  1  0.93473000  0.42746000  0.89172000  1.0
  H  H14  1  0.41199000  0.59574000  0.10349000  1.0
  H  H15  1  0.58802000  0.40422000  0.89649000  1.0
  H  H16  1  0.85426000  0.94124000  0.57161000  1.0
  H  H17  1  0.14568000  0.05883000  0.42839000  1.0
  H  H18  1  0.04621000  0.19014000  0.80149000  1.0
  H  H19  1  0.95381000  0.80987000  0.19853000  1.0
  H  H20  1  0.79295000  0.02187000  0.97799000  1.0
  H  H21  1  0.20709000  0.97809000  0.02203000  1.0
  C  C22  1  0.62592000  0.80805000  0.14240000  1.0
  C  C23  1  0.37406000  0.19194000  0.85760000  1.0
  C  C24  1  0.66172000  0.69638000  0.27049000  1.0
  C  C25  1  0.33828000  0.30361000  0.72952000  1.0
  C  C26  1  0.72912000  0.54727000  0.26376000  1.0
  C  C27  1  0.27088000  0.45273000  0.73624000  1.0
  C  C28  1  0.77378000  0.44826000  0.38151000  1.0
  C  C29  1  0.22624000  0.55175000  0.61848000  1.0
  C  C30  1  0.75076000  0.49755000  0.50628000  1.0
  C  C31  1  0.24925000  0.50245000  0.49371000  1.0
  C  C32  1  0.68094000  0.64622000  0.51407000  1.0
  C  C33  1  0.31907000  0.35378000  0.48592000  1.0
  C  C34  1  0.63541000  0.74601000  0.39643000  1.0
  C  C35  1  0.36459000  0.25399000  0.60357000  1.0
  C  C36  1  0.66717000  0.69194000  0.65040000  1.0
  C  C37  1  0.33284000  0.30806000  0.34959000  1.0
  C  C38  1  0.24473000  0.79306000  0.84273000  1.0
  C  C39  1  0.75526000  0.20694000  0.15727000  1.0
  C  C40  1  0.15085000  0.64310000  0.03159000  1.0
  C  C41  1  0.84915000  0.35689000  0.96840000  1.0
  C  C42  1  0.32808000  0.65253000  0.03040000  1.0
  C  C43  1  0.67193000  0.34745000  0.96958000  1.0
  C  C44  1  0.87127000  0.98848000  0.65766000  1.0
  C  C45  1  0.12870000  0.01155000  0.34234000  1.0
  C  C46  1  0.96746000  0.11610000  0.77700000  1.0
  C  C47  1  0.03254000  0.88390000  0.22301000  1.0
  C  C48  1  0.84214000  0.02982000  0.86821000  1.0
  C  C49  1  0.15789000  0.97016000  0.13180000  1.0
  N  N50  1  0.38460000  0.74582000  0.90941000  1.0
  N  N51  1  0.61540000  0.25418000  0.09057000  1.0
  N  N52  1  0.10163000  0.73157000  0.91478000  1.0
  N  N53  1  0.89836000  0.26843000  0.08522000  1.0
  N  N54  1  0.78419000  0.95017000  0.79053000  1.0
  N  N55  1  0.21580000  0.04984000  0.20948000  1.0
  N  N56  1  0.98273000  0.08950000  0.64680000  1.0
  N  N57  1  0.01723000  0.91053000  0.35320000  1.0
  O  O58  1  0.65347000  0.74978000  0.03147000  1.0
  O  O59  1  0.34653000  0.25021000  0.96854000  1.0
  O  O60  1  0.58130000  0.94273000  0.14771000  1.0
  O  O61  1  0.41868000  0.05727000  0.85228000  1.0
  O  O62  1  0.58370000  0.82537000  0.66352000  1.0
  O  O63  1  0.41631000  0.17461000  0.33649000  1.0
  O  O64  1  0.73356000  0.60680000  0.74580000  1.0
  O  O65  1  0.26645000  0.39320000  0.25420000  1.0
