# generated using pymatgen
data_Zn3H12C18(N5O4)2
_symmetry_space_group_name_H-M   'P 1'
_cell_length_a   6.83950000
_cell_length_b   14.33200000
_cell_length_c   14.76513469
_cell_angle_alpha   119.03853408
_cell_angle_beta   94.99173280
_cell_angle_gamma   89.98240000
_symmetry_Int_Tables_number   1
_chemical_formula_structural   Zn3H12C18(N5O4)2
_chemical_formula_sum   'Zn6 H24 C36 N20 O16'
_cell_volume   1259.13326247
_cell_formula_units_Z   2
loop_
 _symmetry_equiv_pos_site_id
 _symmetry_equiv_pos_as_xyz
  1  'x, y, z'
loop_
 _atom_site_type_symbol
 _atom_site_label
 _atom_site_symmetry_multiplicity
 _atom_site_fract_x
 _atom_site_fract_y
 _atom_site_fract_z
 _atom_site_occupancy
  Zn  Zn0  1  0.75016000  0.41583000  0.99996000  1.0
  Zn  Zn1  1  0.24984000  0.58416000  0.00003000  1.0
  Zn  Zn2  1  0.16580000  0.44151000  0.30699000  1.0
  Zn  Zn3  1  0.33465000  0.13443000  0.69282000  1.0
  Zn  Zn4  1  0.83420000  0.55849000  0.69301000  1.0
  Zn  Zn5  1  0.66535000  0.86557000  0.30718000  1.0
  H  H6  1  0.10574000  0.84043000  0.42821000  1.0
  H  H7  1  0.39397000  0.41220000  0.57170000  1.0
  H  H8  1  0.89426000  0.15957000  0.57179000  1.0
  H  H9  1  0.60602000  0.58781000  0.42830000  1.0
  H  H10  1  0.19989000  0.76208000  0.67513000  1.0
  H  H11  1  0.30096000  0.08690000  0.32465000  1.0
  H  H12  1  0.80010000  0.23793000  0.32488000  1.0
  H  H13  1  0.69904000  0.91310000  0.67535000  1.0
  H  H14  1  0.18309000  0.56834000  0.53858000  1.0
  H  H15  1  0.31743000  0.02966000  0.46113000  1.0
  H  H16  1  0.81691000  0.43167000  0.46143000  1.0
  H  H17  1  0.68257000  0.97034000  0.53887000  1.0
  H  H18  1  0.07823000  0.64326000  0.30105000  1.0
  H  H19  1  0.42158000  0.34214000  0.69879000  1.0
  H  H20  1  0.92176000  0.35674000  0.69895000  1.0
  H  H21  1  0.57841000  0.65786000  0.30121000  1.0
  H  H22  1  0.57228000  0.24630000  0.08017000  1.0
  H  H23  1  0.92856000  0.16624000  0.91970000  1.0
  H  H24  1  0.42772000  0.75370000  0.91983000  1.0
  H  H25  1  0.07144000  0.83376000  0.08030000  1.0
  H  H26  1  0.54013000  0.30571000  0.21479000  1.0
  H  H27  1  0.96056000  0.09098000  0.78507000  1.0
  H  H28  1  0.45987000  0.69429000  0.78521000  1.0
  H  H29  1  0.03944000  0.90902000  0.21493000  1.0
  C  C30  1  0.12038000  0.78189000  0.45496000  1.0
  C  C31  1  0.37951000  0.32689000  0.54489000  1.0
  C  C32  1  0.87962000  0.21811000  0.54504000  1.0
  C  C33  1  0.62048000  0.67312000  0.45511000  1.0
  C  C34  1  0.17470000  0.73833000  0.59282000  1.0
  C  C35  1  0.32585000  0.14545000  0.40697000  1.0
  C  C36  1  0.82530000  0.26167000  0.40718000  1.0
  C  C37  1  0.67414000  0.85456000  0.59304000  1.0
  C  C38  1  0.16258000  0.63103000  0.51760000  1.0
  C  C39  1  0.33789000  0.11336000  0.48217000  1.0
  C  C40  1  0.83742000  0.36898000  0.48241000  1.0
  C  C41  1  0.66212000  0.88664000  0.51783000  1.0
  C  C42  1  0.10469000  0.67333000  0.38457000  1.0
  C  C43  1  0.39529000  0.28871000  0.61526000  1.0
  C  C44  1  0.89531000  0.32666000  0.61543000  1.0
  C  C45  1  0.60471000  0.71130000  0.38474000  1.0
  C  C46  1  0.15873000  0.81563000  0.56114000  1.0
  C  C47  1  0.34159000  0.25443000  0.43868000  1.0
  C  C48  1  0.84126000  0.18437000  0.43886000  1.0
  C  C49  1  0.65841000  0.74557000  0.56132000  1.0
  C  C50  1  0.19099000  0.93275000  0.63965000  1.0
  C  C51  1  0.30952000  0.29308000  0.36020000  1.0
  C  C52  1  0.80900000  0.06725000  0.36035000  1.0
  C  C53  1  0.69049000  0.70693000  0.63981000  1.0
  C  C54  1  0.46929000  0.40301000  0.14551000  1.0
  C  C55  1  0.03127000  0.25761000  0.85433000  1.0
  C  C56  1  0.53071000  0.59698000  0.85449000  1.0
  C  C57  1  0.96873000  0.74239000  0.14567000  1.0
  C  C58  1  0.59014000  0.32133000  0.15481000  1.0
  C  C59  1  0.91057000  0.16663000  0.84505000  1.0
  C  C60  1  0.40986000  0.67867000  0.84519000  1.0
  C  C61  1  0.08943000  0.83338000  0.15496000  1.0
  C  C62  1  0.80739000  0.35859000  0.17684000  1.0
  C  C63  1  0.69326000  0.18182000  0.82309000  1.0
  C  C64  1  0.19261000  0.64142000  0.82316000  1.0
  C  C65  1  0.30674000  0.81818000  0.17691000  1.0
  N  N66  1  0.13080000  0.59881000  0.41485000  1.0
  N  N67  1  0.36941000  0.18387000  0.58494000  1.0
  N  N68  1  0.86920000  0.40119000  0.58516000  1.0
  N  N69  1  0.63059000  0.81614000  0.41506000  1.0
  N  N70  1  0.49745000  0.44208000  0.08124000  1.0
  N  N71  1  0.00286000  0.36092000  0.91857000  1.0
  N  N72  1  0.50254000  0.55792000  0.91876000  1.0
  N  N73  1  0.99714000  0.63907000  0.08142000  1.0
  N  N74  1  0.36229000  0.51604000  0.09929000  1.0
  N  N75  1  0.13793000  0.41686000  0.90056000  1.0
  N  N76  1  0.63771000  0.48397000  0.90072000  1.0
  N  N77  1  0.86207000  0.58314000  0.09944000  1.0
  N  N78  1  0.25547000  0.52264000  0.17073000  1.0
  N  N79  1  0.24488000  0.35203000  0.82914000  1.0
  N  N80  1  0.74453000  0.47736000  0.82927000  1.0
  N  N81  1  0.75512000  0.64796000  0.17086000  1.0
  N  N82  1  0.31970000  0.45271000  0.20172000  1.0
  N  N83  1  0.18086000  0.25109000  0.79815000  1.0
  N  N84  1  0.68030000  0.54730000  0.79829000  1.0
  N  N85  1  0.81914000  0.74890000  0.20185000  1.0
  O  O86  1  0.20164000  0.96370000  0.73447000  1.0
  O  O87  1  0.29940000  0.22924000  0.26536000  1.0
  O  O88  1  0.79835000  0.03630000  0.26553000  1.0
  O  O89  1  0.70061000  0.77075000  0.73463000  1.0
  O  O90  1  0.21014000  0.99365000  0.59763000  1.0
  O  O91  1  0.29007000  0.39598000  0.40226000  1.0
  O  O92  1  0.78986000  0.00635000  0.40238000  1.0
  O  O93  1  0.70994000  0.60401000  0.59773000  1.0
  O  O94  1  0.88728000  0.37316000  0.11062000  1.0
  O  O95  1  0.61335000  0.26260000  0.88934000  1.0
  O  O96  1  0.11272000  0.62684000  0.88937000  1.0
  O  O97  1  0.38665000  0.73739000  0.11066000  1.0
  O  O98  1  0.89490000  0.37472000  0.26379000  1.0
  O  O99  1  0.60557000  0.11096000  0.73621000  1.0
  O  O100  1  0.10510000  0.62528000  0.73621000  1.0
  O  O101  1  0.39444000  0.88905000  0.26378000  1.0
