# generated using pymatgen
data_CaH14C12(N2O3)2
_symmetry_space_group_name_H-M   'P 1'
_cell_length_a   7.78156000
_cell_length_b   8.70202000
_cell_length_c   11.93960000
_cell_angle_alpha   81.95100000
_cell_angle_beta   78.08160000
_cell_angle_gamma   69.00080000
_symmetry_Int_Tables_number   1
_chemical_formula_structural   CaH14C12(N2O3)2
_chemical_formula_sum   'Ca2 H28 C24 N8 O12'
_cell_volume   736.59533654
_cell_formula_units_Z   2
loop_
 _symmetry_equiv_pos_site_id
 _symmetry_equiv_pos_as_xyz
  1  'x, y, z'
loop_
 _atom_site_type_symbol
 _atom_site_label
 _atom_site_symmetry_multiplicity
 _atom_site_fract_x
 _atom_site_fract_y
 _atom_site_fract_z
 _atom_site_occupancy
  Ca  Ca0  1  0.22575000  0.52231000  0.05593000  1.0
  Ca  Ca1  1  0.77425000  0.47770000  0.94407000  1.0
  H  H2  1  0.13128000  0.60608000  0.83788000  1.0
  H  H3  1  0.86871000  0.39392000  0.16212000  1.0
  H  H4  1  0.95927000  0.74362000  0.90371000  1.0
  H  H5  1  0.04073000  0.25638000  0.09629000  1.0
  H  H6  1  0.51757000  0.21333000  0.99062000  1.0
  H  H7  1  0.48242000  0.78667000  0.00938000  1.0
  H  H8  1  0.34120000  0.14885000  0.03770000  1.0
  H  H9  1  0.65880000  0.85115000  0.96229000  1.0
  H  H10  1  0.53043000  0.32703000  0.45453000  1.0
  H  H11  1  0.46958000  0.67296000  0.54547000  1.0
  H  H12  1  0.96729000  0.39390000  0.31112000  1.0
  H  H13  1  0.03272000  0.60608000  0.68888000  1.0
  H  H14  1  0.03017000  0.11042000  0.54534000  1.0
  H  H15  1  0.96983000  0.88957000  0.45466000  1.0
  H  H16  1  0.84864000  0.27875000  0.49110000  1.0
  H  H17  1  0.15137000  0.72125000  0.50890000  1.0
  H  H18  1  0.93718000  0.29650000  0.61415000  1.0
  H  H19  1  0.06283000  0.70350000  0.38585000  1.0
  H  H20  1  0.85351000  0.14692000  0.22692000  1.0
  H  H21  1  0.14649000  0.85308000  0.77308000  1.0
  H  H22  1  0.74223000  0.63788000  0.21526000  1.0
  H  H23  1  0.25777000  0.36212000  0.78475000  1.0
  H  H24  1  0.38688000  0.93744000  0.39854000  1.0
  H  H25  1  0.61312000  0.06256000  0.60146000  1.0
  H  H26  1  0.43614000  0.75488000  0.32639000  1.0
  H  H27  1  0.56386000  0.24513000  0.67360000  1.0
  H  H28  1  0.33686000  0.95419000  0.25782000  1.0
  H  H29  1  0.66314000  0.04582000  0.74218000  1.0
  C  C30  1  0.54779000  0.42737000  0.22522000  1.0
  C  C31  1  0.45222000  0.57263000  0.77478000  1.0
  C  C32  1  0.38798000  0.39564000  0.30845000  1.0
  C  C33  1  0.61202000  0.60435000  0.69155000  1.0
  C  C34  1  0.40452000  0.33805000  0.42269000  1.0
  C  C35  1  0.59549000  0.66194000  0.57731000  1.0
  C  C36  1  0.11889000  0.30603000  0.45359000  1.0
  C  C37  1  0.88112000  0.69396000  0.54641000  1.0
  C  C38  1  0.09661000  0.37415000  0.34172000  1.0
  C  C39  1  0.90340000  0.62584000  0.65828000  1.0
  C  C40  1  0.97432000  0.24557000  0.52992000  1.0
  C  C41  1  0.02568000  0.75443000  0.47009000  1.0
  C  C42  1  0.14634000  0.91665000  0.10051000  1.0
  C  C43  1  0.85366000  0.08336000  0.89949000  1.0
  C  C44  1  0.96324000  0.90357000  0.16336000  1.0
  C  C45  1  0.03676000  0.09643000  0.83664000  1.0
  C  C46  1  0.82661000  0.03432000  0.22050000  1.0
  C  C47  1  0.17338000  0.96568000  0.77950000  1.0
  C  C48  1  0.62557000  0.88906000  0.26560000  1.0
  C  C49  1  0.37443000  0.11094000  0.73440000  1.0
  C  C50  1  0.76739000  0.75347000  0.21340000  1.0
  C  C51  1  0.23261000  0.24654000  0.78661000  1.0
  C  C52  1  0.43577000  0.88221000  0.31554000  1.0
  C  C53  1  0.56423000  0.11780000  0.68446000  1.0
  N  N54  1  0.23070000  0.41705000  0.26906000  1.0
  N  N55  1  0.76931000  0.58294000  0.73094000  1.0
  N  N56  1  0.27290000  0.29237000  0.49464000  1.0
  N  N57  1  0.72711000  0.70763000  0.50536000  1.0
  N  N58  1  0.93420000  0.75983000  0.16208000  1.0
  N  N59  1  0.06580000  0.24017000  0.83793000  1.0
  N  N60  1  0.65795000  0.02902000  0.27030000  1.0
  N  N61  1  0.34204000  0.97099000  0.72970000  1.0
  O  O62  1  0.52925000  0.46425000  0.12054000  1.0
  O  O63  1  0.47075000  0.53575000  0.87946000  1.0
  O  O64  1  0.69223000  0.41115000  0.26632000  1.0
  O  O65  1  0.30777000  0.58886000  0.73367000  1.0
  O  O66  1  0.26168000  0.78934000  0.05224000  1.0
  O  O67  1  0.73832000  0.21066000  0.94776000  1.0
  O  O68  1  0.17472000  0.05172000  0.09977000  1.0
  O  O69  1  0.82528000  0.94829000  0.90023000  1.0
  O  O70  1  0.02698000  0.62190000  0.90636000  1.0
  O  O71  1  0.97302000  0.37810000  0.09363000  1.0
  O  O72  1  0.37869000  0.24624000  0.00980000  1.0
  O  O73  1  0.62131000  0.75377000  0.99020000  1.0
