# generated using pymatgen
data_HgH3C5BrN6
_symmetry_space_group_name_H-M   'P 1'
_cell_length_a   6.51796000
_cell_length_b   11.63100000
_cell_length_c   23.85500000
_cell_angle_alpha   90.00000000
_cell_angle_beta   90.00000000
_cell_angle_gamma   90.00000000
_symmetry_Int_Tables_number   1
_chemical_formula_structural   HgH3C5BrN6
_chemical_formula_sum   'Hg8 H24 C40 Br8 N48'
_cell_volume   1808.45691929
_cell_formula_units_Z   8
loop_
 _symmetry_equiv_pos_site_id
 _symmetry_equiv_pos_as_xyz
  1  'x, y, z'
loop_
 _atom_site_type_symbol
 _atom_site_label
 _atom_site_symmetry_multiplicity
 _atom_site_fract_x
 _atom_site_fract_y
 _atom_site_fract_z
 _atom_site_occupancy
  Hg  Hg0  1  0.67843000  0.21415000  0.61484000  1.0
  Hg  Hg1  1  0.17842000  0.28585000  0.38516000  1.0
  Hg  Hg2  1  0.32157000  0.71415000  0.88516000  1.0
  Hg  Hg3  1  0.82158000  0.78585000  0.11484000  1.0
  Hg  Hg4  1  0.32158000  0.78585000  0.38516000  1.0
  Hg  Hg5  1  0.82159000  0.71415000  0.61484000  1.0
  Hg  Hg6  1  0.67842000  0.28585000  0.11484000  1.0
  Hg  Hg7  1  0.17842000  0.21415000  0.88516000  1.0
  H  H8  1  0.05319000  0.91841000  0.54718000  1.0
  H  H9  1  0.55319000  0.58159000  0.45282000  1.0
  H  H10  1  0.94681000  0.41841000  0.95282000  1.0
  H  H11  1  0.44682000  0.08159000  0.04718000  1.0
  H  H12  1  0.94681000  0.08159000  0.45282000  1.0
  H  H13  1  0.44682000  0.41841000  0.54718000  1.0
  H  H14  1  0.05319000  0.58159000  0.04718000  1.0
  H  H15  1  0.55318000  0.91841000  0.95282000  1.0
  H  H16  1  0.13391000  0.84170000  0.71642000  1.0
  H  H17  1  0.63390000  0.65830000  0.28358000  1.0
  H  H18  1  0.86609000  0.34169000  0.78358000  1.0
  H  H19  1  0.36609000  0.15831000  0.21643000  1.0
  H  H20  1  0.86609000  0.15831000  0.28357000  1.0
  H  H21  1  0.36610000  0.34169000  0.71642000  1.0
  H  H22  1  0.13391000  0.65831000  0.21642000  1.0
  H  H23  1  0.63390000  0.84169000  0.78358000  1.0
  H  H24  1  0.40657000  0.99593000  0.72303000  1.0
  H  H25  1  0.90656000  0.50407000  0.27697000  1.0
  H  H26  1  0.59343000  0.49593000  0.77697000  1.0
  H  H27  1  0.09343000  0.00407000  0.22303000  1.0
  H  H28  1  0.59342000  0.00407000  0.27697000  1.0
  H  H29  1  0.09343000  0.49593000  0.72303000  1.0
  H  H30  1  0.40657000  0.50407000  0.22303000  1.0
  H  H31  1  0.90656000  0.99593000  0.77697000  1.0
  C  C32  1  0.34713000  0.08456000  0.54118000  1.0
  C  C33  1  0.84713000  0.41544000  0.45882000  1.0
  C  C34  1  0.65286000  0.58456000  0.95882000  1.0
  C  C35  1  0.15286000  0.91544000  0.04118000  1.0
  C  C36  1  0.65286000  0.91544000  0.45882000  1.0
  C  C37  1  0.15287000  0.58456000  0.54118000  1.0
  C  C38  1  0.34713000  0.41544000  0.04118000  1.0
  C  C39  1  0.84713000  0.08456000  0.95882000  1.0
  C  C40  1  0.28694000  0.01824000  0.59031000  1.0
  C  C41  1  0.78694000  0.48176000  0.40969000  1.0
  C  C42  1  0.71306000  0.51824000  0.90969000  1.0
  C  C43  1  0.21306000  0.98176000  0.09031000  1.0
  C  C44  1  0.71306000  0.98176000  0.40969000  1.0
  C  C45  1  0.21307000  0.51824000  0.59031000  1.0
  C  C46  1  0.28694000  0.48176000  0.09031000  1.0
  C  C47  1  0.78693000  0.01824000  0.90969000  1.0
  C  C48  1  0.13355000  0.93418000  0.58650000  1.0
  C  C49  1  0.63355000  0.56582000  0.41350000  1.0
  C  C50  1  0.86645000  0.43418000  0.91350000  1.0
  C  C51  1  0.36645000  0.06582000  0.08650000  1.0
  C  C52  1  0.86645000  0.06582000  0.41350000  1.0
  C  C53  1  0.36646000  0.43418000  0.58650000  1.0
  C  C54  1  0.13356000  0.56582000  0.08650000  1.0
  C  C55  1  0.63354000  0.93418000  0.91350000  1.0
  C  C56  1  0.17666000  0.89343000  0.68009000  1.0
  C  C57  1  0.67665000  0.60657000  0.31992000  1.0
  C  C58  1  0.82334000  0.39343000  0.81991000  1.0
  C  C59  1  0.32335000  0.10657000  0.18009000  1.0
  C  C60  1  0.82334000  0.10657000  0.31991000  1.0
  C  C61  1  0.32335000  0.39343000  0.68009000  1.0
  C  C62  1  0.17665000  0.60657000  0.18008000  1.0
  C  C63  1  0.67665000  0.89343000  0.81991000  1.0
  C  C64  1  0.32890000  0.97779000  0.68346000  1.0
  C  C65  1  0.82889000  0.52221000  0.31653000  1.0
  C  C66  1  0.67110000  0.47779000  0.81653000  1.0
  C  C67  1  0.17111000  0.02221000  0.18347000  1.0
  C  C68  1  0.67110000  0.02221000  0.31653000  1.0
  C  C69  1  0.17111000  0.47779000  0.68346000  1.0
  C  C70  1  0.32890000  0.52221000  0.18346000  1.0
  C  C71  1  0.82889000  0.97779000  0.81654000  1.0
  Br  Br72  1  0.91050000  0.18925000  0.69605000  1.0
  Br  Br73  1  0.41050000  0.31076000  0.30395000  1.0
  Br  Br74  1  0.08950000  0.68925000  0.80395000  1.0
  Br  Br75  1  0.58954000  0.81076000  0.19606000  1.0
  Br  Br76  1  0.08950000  0.81075000  0.30395000  1.0
  Br  Br77  1  0.58950000  0.68924000  0.69605000  1.0
  Br  Br78  1  0.91050000  0.31076000  0.19605000  1.0
  Br  Br79  1  0.41050000  0.18925000  0.80395000  1.0
  N  N80  1  0.49648000  0.16504000  0.54104000  1.0
  N  N81  1  0.99648000  0.33496000  0.45895000  1.0
  N  N82  1  0.50352000  0.66504000  0.95896000  1.0
  N  N83  1  0.00352000  0.83496000  0.04105000  1.0
  N  N84  1  0.50352000  0.83496000  0.45895000  1.0
  N  N85  1  0.00353000  0.66504000  0.54104000  1.0
  N  N86  1  0.49648000  0.33496000  0.04105000  1.0
  N  N87  1  0.99647000  0.16504000  0.95896000  1.0
  N  N88  1  0.50726000  0.20795000  0.48913000  1.0
  N  N89  1  0.00726000  0.29205000  0.51087000  1.0
  N  N90  1  0.49274000  0.70795000  0.01088000  1.0
  N  N91  1  0.99273000  0.79205000  0.98913000  1.0
  N  N92  1  0.49274000  0.79205000  0.51087000  1.0
  N  N93  1  0.99274000  0.70795000  0.48913000  1.0
  N  N94  1  0.50726000  0.29205000  0.98913000  1.0
  N  N95  1  0.00726000  0.20795000  0.01087000  1.0
  N  N96  1  0.36788000  0.15350000  0.45882000  1.0
  N  N97  1  0.86788000  0.34650000  0.54118000  1.0
  N  N98  1  0.63212000  0.65350000  0.04118000  1.0
  N  N99  1  0.13212000  0.84650000  0.95882000  1.0
  N  N100  1  0.63213000  0.84650000  0.54118000  1.0
  N  N101  1  0.13212000  0.65350000  0.45882000  1.0
  N  N102  1  0.36788000  0.34650000  0.95882000  1.0
  N  N103  1  0.86788000  0.15350000  0.04118000  1.0
  N  N104  1  0.26567000  0.07569000  0.48990000  1.0
  N  N105  1  0.76567000  0.42431000  0.51010000  1.0
  N  N106  1  0.73433000  0.57569000  0.01010000  1.0
  N  N107  1  0.23433000  0.92431000  0.98991000  1.0
  N  N108  1  0.73433000  0.92431000  0.51009000  1.0
  N  N109  1  0.23433000  0.57569000  0.48990000  1.0
  N  N110  1  0.26567000  0.42431000  0.98991000  1.0
  N  N111  1  0.76567000  0.07569000  0.01010000  1.0
  N  N112  1  0.38399000  0.03993000  0.63892000  1.0
  N  N113  1  0.88400000  0.46007000  0.36108000  1.0
  N  N114  1  0.61600000  0.53993000  0.86108000  1.0
  N  N115  1  0.11601000  0.96007000  0.13893000  1.0
  N  N116  1  0.61600000  0.96007000  0.36107000  1.0
  N  N117  1  0.11601000  0.53993000  0.63892000  1.0
  N  N118  1  0.38400000  0.46007000  0.13892000  1.0
  N  N119  1  0.88399000  0.03993000  0.86108000  1.0
  N  N120  1  0.07958000  0.87266000  0.63151000  1.0
  N  N121  1  0.57957000  0.62734000  0.36849000  1.0
  N  N122  1  0.92042000  0.37266000  0.86849000  1.0
  N  N123  1  0.42042000  0.12734000  0.13151000  1.0
  N  N124  1  0.92042000  0.12734000  0.36849000  1.0
  N  N125  1  0.42043000  0.37266000  0.63151000  1.0
  N  N126  1  0.07958000  0.62734000  0.13151000  1.0
  N  N127  1  0.57957000  0.87266000  0.86849000  1.0
