# generated using pymatgen
data_ZnH34C36NO6
_symmetry_space_group_name_H-M   'P 1'
_cell_length_a   18.69610000
_cell_length_b   19.50840000
_cell_length_c   19.51710000
_cell_angle_alpha   85.34430000
_cell_angle_beta   89.66200000
_cell_angle_gamma   89.64650000
_symmetry_Int_Tables_number   1
_chemical_formula_structural   ZnH34C36NO6
_chemical_formula_sum   'Zn2 H68 C72 N2 O12'
_cell_volume   7094.76436283
_cell_formula_units_Z   2
loop_
 _symmetry_equiv_pos_site_id
 _symmetry_equiv_pos_as_xyz
  1  'x, y, z'
loop_
 _atom_site_type_symbol
 _atom_site_label
 _atom_site_symmetry_multiplicity
 _atom_site_fract_x
 _atom_site_fract_y
 _atom_site_fract_z
 _atom_site_occupancy
  Zn  Zn0  1  0.58229000  0.49857000  0.49928000  1.0
  Zn  Zn1  1  0.41829000  0.49968000  0.49984000  1.0
  H  H2  1  0.44648000  0.42180000  0.86127000  1.0
  H  H3  1  0.59500000  0.41154000  0.17342000  1.0
  H  H4  1  0.45332000  0.58516000  0.13926000  1.0
  H  H5  1  0.59940000  0.58431000  0.82438000  1.0
  H  H6  1  0.55251000  0.13782000  0.57910000  1.0
  H  H7  1  0.40485000  0.82526000  0.58629000  1.0
  H  H8  1  0.54932000  0.85985000  0.41509000  1.0
  H  H9  1  0.40221000  0.17461000  0.41428000  1.0
  H  H10  1  0.53407000  0.39076000  0.94361000  1.0
  H  H11  1  0.54166000  0.60995000  0.05537000  1.0
  H  H12  1  0.53380000  0.38881000  0.07044000  1.0
  H  H13  1  0.54025000  0.61198000  0.92854000  1.0
  H  H14  1  0.46430000  0.05510000  0.60863000  1.0
  H  H15  1  0.46107000  0.94385000  0.38902000  1.0
  H  H16  1  0.46494000  0.92824000  0.61023000  1.0
  H  H17  1  0.46212000  0.07069000  0.38745000  1.0
  H  H18  1  0.93090000  0.40652000  0.47393000  1.0
  H  H19  1  0.06913000  0.60809000  0.53825000  1.0
  H  H20  1  0.93649000  0.61099000  0.54165000  1.0
  H  H21  1  0.06366000  0.40257000  0.47297000  1.0
  H  H22  1  0.72750000  0.38650000  0.63372000  1.0
  H  H23  1  0.67239000  0.45813000  0.65003000  1.0
  H  H24  1  0.64519000  0.40264000  0.58853000  1.0
  H  H25  1  0.27547000  0.63651000  0.38748000  1.0
  H  H26  1  0.32705000  0.64771000  0.46153000  1.0
  H  H27  1  0.35739000  0.58970000  0.40291000  1.0
  H  H28  1  0.72601000  0.60196000  0.35546000  1.0
  H  H29  1  0.67148000  0.52772000  0.35778000  1.0
  H  H30  1  0.64502000  0.59643000  0.40509000  1.0
  H  H31  1  0.27508000  0.36545000  0.61426000  1.0
  H  H32  1  0.32455000  0.35373000  0.53838000  1.0
  H  H33  1  0.35762000  0.40992000  0.59676000  1.0
  H  H34  1  0.80197000  0.49474000  0.69044000  1.0
  H  H35  1  0.88791000  0.52151000  0.65623000  1.0
  H  H36  1  0.87978000  0.44234000  0.70935000  1.0
  H  H37  1  0.17656000  0.57378000  0.33046000  1.0
  H  H38  1  0.10616000  0.63574000  0.33916000  1.0
  H  H39  1  0.09312000  0.54763000  0.37054000  1.0
  H  H40  1  0.80007000  0.67284000  0.41028000  1.0
  H  H41  1  0.87121000  0.66779000  0.34860000  1.0
  H  H42  1  0.89065000  0.65920000  0.43881000  1.0
  H  H43  1  0.17926000  0.42894000  0.67542000  1.0
  H  H44  1  0.10715000  0.36958000  0.66739000  1.0
  H  H45  1  0.09549000  0.45870000  0.63865000  1.0
  H  H46  1  0.42864000  0.37798000  0.69005000  1.0
  H  H47  1  0.39106000  0.37164000  0.77432000  1.0
  H  H48  1  0.36093000  0.43597000  0.71081000  1.0
  H  H49  1  0.63170000  0.41834000  0.33782000  1.0
  H  H50  1  0.55269000  0.37137000  0.35128000  1.0
  H  H51  1  0.60938000  0.35499000  0.28098000  1.0
  H  H52  1  0.43649000  0.62539000  0.31324000  1.0
  H  H53  1  0.40217000  0.63877000  0.22831000  1.0
  H  H54  1  0.36522000  0.57463000  0.28810000  1.0
  H  H55  1  0.63851000  0.57233000  0.66246000  1.0
  H  H56  1  0.56214000  0.62271000  0.64475000  1.0
  H  H57  1  0.61640000  0.63898000  0.71617000  1.0
  H  H58  1  0.56988000  0.31014000  0.62176000  1.0
  H  H59  1  0.60618000  0.22534000  0.63063000  1.0
  H  H60  1  0.63897000  0.28726000  0.56611000  1.0
  H  H61  1  0.36799000  0.66103000  0.57797000  1.0
  H  H62  1  0.44597000  0.64719000  0.62646000  1.0
  H  H63  1  0.38908000  0.71768000  0.64196000  1.0
  H  H64  1  0.56629000  0.68653000  0.37381000  1.0
  H  H65  1  0.60196000  0.77109000  0.36239000  1.0
  H  H66  1  0.63678000  0.70981000  0.42656000  1.0
  H  H67  1  0.36210000  0.33548000  0.42562000  1.0
  H  H68  1  0.43913000  0.35488000  0.37673000  1.0
  H  H69  1  0.38652000  0.28287000  0.35883000  1.0
  C  C70  1  0.50878000  0.63229000  0.49827000  1.0
  C  C71  1  0.50820000  0.36616000  0.50005000  1.0
  C  C72  1  0.49193000  0.50008000  0.36641000  1.0
  C  C73  1  0.49267000  0.49925000  0.63283000  1.0
  C  C74  1  0.53534000  0.43905000  0.96812000  1.0
  C  C75  1  0.53958000  0.56169000  0.03087000  1.0
  C  C76  1  0.53602000  0.43793000  0.03948000  1.0
  C  C77  1  0.53959000  0.56279000  0.95948000  1.0
  C  C78  1  0.46406000  0.03071000  0.56026000  1.0
  C  C79  1  0.46222000  0.96819000  0.43741000  1.0
  C  C80  1  0.46356000  0.95931000  0.56116000  1.0
  C  C81  1  0.46198000  0.03959000  0.43653000  1.0
  C  C82  1  0.53564000  0.49941000  0.07233000  1.0
  C  C83  1  0.53497000  0.50149000  0.92668000  1.0
  C  C84  1  0.46524000  0.92658000  0.49964000  1.0
  C  C85  1  0.46551000  0.07230000  0.49795000  1.0
  C  C86  1  0.07530000  0.50530000  0.50508000  1.0
  C  C87  1  0.92486000  0.50927000  0.50687000  1.0
  C  C88  1  0.73173000  0.46845000  0.55475000  1.0
  C  C89  1  0.26892000  0.55307000  0.46538000  1.0
  C  C90  1  0.73213000  0.53677000  0.44931000  1.0
  C  C91  1  0.26853000  0.45001000  0.53742000  1.0
  C  C92  1  0.80657000  0.47287000  0.55836000  1.0
  C  C93  1  0.19383000  0.55454000  0.46549000  1.0
  C  C94  1  0.80699000  0.54231000  0.45154000  1.0
  C  C95  1  0.19346000  0.45094000  0.53978000  1.0
  C  C96  1  0.46313000  0.45665000  0.75520000  1.0
  C  C97  1  0.54863000  0.44889000  0.26442000  1.0
  C  C98  1  0.46690000  0.54736000  0.24485000  1.0
  C  C99  1  0.55143000  0.54857000  0.73404000  1.0
  C  C100  1  0.53666000  0.24389000  0.54357000  1.0
  C  C101  1  0.45171000  0.73429000  0.54929000  1.0
  C  C102  1  0.53509000  0.75408000  0.45226000  1.0
  C  C103  1  0.44983000  0.26499000  0.45033000  1.0
  C  C104  1  0.47649000  0.45680000  0.82548000  1.0
  C  C105  1  0.55907000  0.44962000  0.19337000  1.0
  C  C106  1  0.48073000  0.54751000  0.17447000  1.0
  C  C107  1  0.56124000  0.54846000  0.80504000  1.0
  C  C108  1  0.52322000  0.17360000  0.54345000  1.0
  C  C109  1  0.44141000  0.80538000  0.54870000  1.0
  C  C110  1  0.52134000  0.82451000  0.45216000  1.0
  C  C111  1  0.43995000  0.19396000  0.45051000  1.0
  C  C112  1  0.52520000  0.50223000  0.85167000  1.0
  C  C113  1  0.52626000  0.49896000  0.14749000  1.0
  C  C114  1  0.47526000  0.14736000  0.49735000  1.0
  C  C115  1  0.47494000  0.85141000  0.50003000  1.0
  C  C116  1  0.96139000  0.45060000  0.48818000  1.0
  C  C117  1  0.03880000  0.56385000  0.52424000  1.0
  C  C118  1  0.96426000  0.56557000  0.52559000  1.0
  C  C119  1  0.03577000  0.44846000  0.48747000  1.0
  C  C120  1  0.84553000  0.50961000  0.50628000  1.0
  C  C121  1  0.15435000  0.50356000  0.50352000  1.0
  C  C122  1  0.50181000  0.50221000  0.70907000  1.0
  C  C123  1  0.50185000  0.49811000  0.29007000  1.0
  C  C124  1  0.49887000  0.28994000  0.49720000  1.0
  C  C125  1  0.49922000  0.70867000  0.50066000  1.0
  C  C126  1  0.69204000  0.42635000  0.60980000  1.0
  C  C127  1  0.30938000  0.60971000  0.42667000  1.0
  C  C128  1  0.69184000  0.56802000  0.38855000  1.0
  C  C129  1  0.30857000  0.39174000  0.57428000  1.0
  C  C130  1  0.85336000  0.47689000  0.67015000  1.0
  C  C131  1  0.13227000  0.58958000  0.36334000  1.0
  C  C132  1  0.85151000  0.64797000  0.39935000  1.0
  C  C133  1  0.13375000  0.41545000  0.64354000  1.0
  C  C134  1  0.40818000  0.40780000  0.73144000  1.0
  C  C135  1  0.58740000  0.39560000  0.31085000  1.0
  C  C136  1  0.41519000  0.59945000  0.26986000  1.0
  C  C137  1  0.59407000  0.59833000  0.68709000  1.0
  C  C138  1  0.59063000  0.26786000  0.59328000  1.0
  C  C139  1  0.41181000  0.68781000  0.60171000  1.0
  C  C140  1  0.58765000  0.72917000  0.40087000  1.0
  C  C141  1  0.40756000  0.31186000  0.40016000  1.0
  N  N142  1  0.69606000  0.50040000  0.50069000  1.0
  N  N143  1  0.30481000  0.50104000  0.50094000  1.0
  O  O144  1  0.57163000  0.60688000  0.49994000  1.0
  O  O145  1  0.45029000  0.40008000  0.50540000  1.0
  O  O146  1  0.57100000  0.39104000  0.49785000  1.0
  O  O147  1  0.45090000  0.59889000  0.49389000  1.0
  O  O148  1  0.42902000  0.49810000  0.39158000  1.0
  O  O149  1  0.55068000  0.49388000  0.59907000  1.0
  O  O150  1  0.42995000  0.50150000  0.60783000  1.0
  O  O151  1  0.54962000  0.50443000  0.40008000  1.0
  O  O152  1  0.84253000  0.43749000  0.61195000  1.0
  O  O153  1  0.15909000  0.60804000  0.42838000  1.0
  O  O154  1  0.84347000  0.57498000  0.39656000  1.0
  O  O155  1  0.15836000  0.39796000  0.57709000  1.0
