# generated using pymatgen
data_ZnH12C22N3O8
_symmetry_space_group_name_H-M   'P 1'
_cell_length_a   15.91450000
_cell_length_b   17.26630000
_cell_length_c   17.97690000
_cell_angle_alpha   89.77970000
_cell_angle_beta   87.59310000
_cell_angle_gamma   84.30600000
_symmetry_Int_Tables_number   1
_chemical_formula_structural   ZnH12C22N3O8
_chemical_formula_sum   'Zn2 H24 C44 N6 O16'
_cell_volume   4911.06430195
_cell_formula_units_Z   2
loop_
 _symmetry_equiv_pos_site_id
 _symmetry_equiv_pos_as_xyz
  1  'x, y, z'
loop_
 _atom_site_type_symbol
 _atom_site_label
 _atom_site_symmetry_multiplicity
 _atom_site_fract_x
 _atom_site_fract_y
 _atom_site_fract_z
 _atom_site_occupancy
  Zn  Zn0  1  0.41090000  0.50387000  0.50339000  1.0
  Zn  Zn1  1  0.58933000  0.49618000  0.49669000  1.0
  H  H2  1  0.71697000  0.57329000  0.57616000  1.0
  H  H3  1  0.87625000  0.57038000  0.57562000  1.0
  H  H4  1  0.88879000  0.39898000  0.40040000  1.0
  H  H5  1  0.72841000  0.40902000  0.40811000  1.0
  H  H6  1  0.11146000  0.59969000  0.60072000  1.0
  H  H7  1  0.12395000  0.43049000  0.42352000  1.0
  H  H8  1  0.28319000  0.42763000  0.42293000  1.0
  H  H9  1  0.27176000  0.58971000  0.59299000  1.0
  H  H10  1  0.62109000  0.74091000  0.49499000  1.0
  H  H11  1  0.61380000  0.88717000  0.49487000  1.0
  H  H12  1  0.34268000  0.89999000  0.50658000  1.0
  H  H13  1  0.35018000  0.75330000  0.50708000  1.0
  H  H14  1  0.65712000  0.10012000  0.49390000  1.0
  H  H15  1  0.38600000  0.11299000  0.50387000  1.0
  H  H16  1  0.37871000  0.25921000  0.50363000  1.0
  H  H17  1  0.64959000  0.24681000  0.49394000  1.0
  H  H18  1  0.36474000  0.51692000  0.26633000  1.0
  H  H19  1  0.63624000  0.48428000  0.25578000  1.0
  H  H20  1  0.36551000  0.49427000  0.74394000  1.0
  H  H21  1  0.63441000  0.50500000  0.73411000  1.0
  H  H22  1  0.61486000  0.41156000  0.03772000  1.0
  H  H23  1  0.38373000  0.59075000  0.04779000  1.0
  H  H24  1  0.60467000  0.57958000  0.95416000  1.0
  H  H25  1  0.39357000  0.41818000  0.96041000  1.0
  C  C26  1  0.49087000  0.65176000  0.50169000  1.0
  C  C27  1  0.50000000  0.49981000  0.64632000  1.0
  C  C28  1  0.50893000  0.34833000  0.49836000  1.0
  C  C29  1  0.50067000  0.50042000  0.35376000  1.0
  C  C30  1  0.75803000  0.53596000  0.53826000  1.0
  C  C31  1  0.84528000  0.53446000  0.53774000  1.0
  C  C32  1  0.89327000  0.48444000  0.48723000  1.0
  C  C33  1  0.85207000  0.43805000  0.43968000  1.0
  C  C34  1  0.76422000  0.44343000  0.44377000  1.0
  C  C35  1  0.14814000  0.56101000  0.56108000  1.0
  C  C36  1  0.10693000  0.51529000  0.51291000  1.0
  C  C37  1  0.15492000  0.46603000  0.46175000  1.0
  C  C38  1  0.24217000  0.46453000  0.46123000  1.0
  C  C39  1  0.23598000  0.55567000  0.55696000  1.0
  C  C40  1  0.48603000  0.73884000  0.50153000  1.0
  C  C41  1  0.56054000  0.77651000  0.49791000  1.0
  C  C42  1  0.55678000  0.85706000  0.49768000  1.0
  C  C43  1  0.47755000  0.90150000  0.50091000  1.0
  C  C44  1  0.40308000  0.86407000  0.50425000  1.0
  C  C45  1  0.40730000  0.78327000  0.50462000  1.0
  C  C46  1  0.59672000  0.13604000  0.49596000  1.0
  C  C47  1  0.52225000  0.09861000  0.49877000  1.0
  C  C48  1  0.44305000  0.14307000  0.50154000  1.0
  C  C49  1  0.43926000  0.22360000  0.50125000  1.0
  C  C50  1  0.51376000  0.26126000  0.49833000  1.0
  C  C51  1  0.59247000  0.21684000  0.49580000  1.0
  C  C52  1  0.50050000  0.50046000  0.26999000  1.0
  C  C53  1  0.42426000  0.51004000  0.23376000  1.0
  C  C54  1  0.42296000  0.51245000  0.15626000  1.0
  C  C55  1  0.50015000  0.50003000  0.11302000  1.0
  C  C56  1  0.57757000  0.48775000  0.15033000  1.0
  C  C57  1  0.57653000  0.49071000  0.22788000  1.0
  C  C58  1  0.49982000  0.49994000  0.03417000  1.0
  C  C59  1  0.49975000  0.50015000  0.96592000  1.0
  C  C60  1  0.49980000  0.50015000  0.88706000  1.0
  C  C61  1  0.42364000  0.49401000  0.84959000  1.0
  C  C62  1  0.42455000  0.49633000  0.77202000  1.0
  C  C63  1  0.49991000  0.49980000  0.73008000  1.0
  C  C64  1  0.57521000  0.50341000  0.76648000  1.0
  C  C65  1  0.57603000  0.50629000  0.84396000  1.0
  C  C66  1  0.66383000  0.47112000  0.11254000  1.0
  C  C67  1  0.33663000  0.52765000  0.12480000  1.0
  C  C68  1  0.66084000  0.51591000  0.87524000  1.0
  C  C69  1  0.33871000  0.48584000  0.88745000  1.0
  N  N70  1  0.71845000  0.49133000  0.49222000  1.0
  N  N71  1  0.98288000  0.47568000  0.48098000  1.0
  N  N72  1  0.01731000  0.52395000  0.51921000  1.0
  N  N73  1  0.28174000  0.50849000  0.50790000  1.0
  N  N74  1  0.46593000  0.98364000  0.50094000  1.0
  N  N75  1  0.53385000  0.01645000  0.49865000  1.0
  O  O76  1  0.42118000  0.62104000  0.50631000  1.0
  O  O77  1  0.56436000  0.61480000  0.49704000  1.0
  O  O78  1  0.57157000  0.49912000  0.61214000  1.0
  O  O79  1  0.42837000  0.50054000  0.61749000  1.0
  O  O80  1  0.57861000  0.37903000  0.49772000  1.0
  O  O81  1  0.43543000  0.38531000  0.49923000  1.0
  O  O82  1  0.42886000  0.50587000  0.38804000  1.0
  O  O83  1  0.57260000  0.49486000  0.38251000  1.0
  O  O84  1  0.67076000  0.42384000  0.05180000  1.0
  O  O85  1  0.72623000  0.49525000  0.13716000  1.0
  O  O86  1  0.32845000  0.57596000  0.06506000  1.0
  O  O87  1  0.27521000  0.50104000  0.15344000  1.0
  O  O88  1  0.66229000  0.56274000  0.93573000  1.0
  O  O89  1  0.72636000  0.48660000  0.84566000  1.0
  O  O90  1  0.33627000  0.43774000  0.94741000  1.0
  O  O91  1  0.27378000  0.51774000  0.86368000  1.0
