# generated using pymatgen
data_AgH6C7NO2
_symmetry_space_group_name_H-M   'P 1'
_cell_length_a   4.86948000
_cell_length_b   5.88843000
_cell_length_c   23.88020000
_cell_angle_alpha   89.99950000
_cell_angle_beta   90.00040000
_cell_angle_gamma   89.99980000
_symmetry_Int_Tables_number   1
_chemical_formula_structural   AgH6C7NO2
_chemical_formula_sum   'Ag4 H24 C28 N4 O8'
_cell_volume   684.73111441
_cell_formula_units_Z   4
loop_
 _symmetry_equiv_pos_site_id
 _symmetry_equiv_pos_as_xyz
  1  'x, y, z'
loop_
 _atom_site_type_symbol
 _atom_site_label
 _atom_site_symmetry_multiplicity
 _atom_site_fract_x
 _atom_site_fract_y
 _atom_site_fract_z
 _atom_site_occupancy
  Ag  Ag0  1  0.36690000  0.28339000  0.73261000  1.0
  Ag  Ag1  1  0.86691000  0.71664000  0.26739000  1.0
  Ag  Ag2  1  0.36691000  0.78338000  0.76738000  1.0
  Ag  Ag3  1  0.86692000  0.21662000  0.23261000  1.0
  H  H4  1  0.84452000  0.96447000  0.79784000  1.0
  H  H5  1  0.34454000  0.03553000  0.20216000  1.0
  H  H6  1  0.84452000  0.46451000  0.70215000  1.0
  H  H7  1  0.34451000  0.53553000  0.29785000  1.0
  H  H8  1  0.78447000  0.73754000  0.83685000  1.0
  H  H9  1  0.28449000  0.26243000  0.16314000  1.0
  H  H10  1  0.78449000  0.23760000  0.66314000  1.0
  H  H11  1  0.28448000  0.76244000  0.33686000  1.0
  H  H12  1  0.32809000  0.81103000  0.90085000  1.0
  H  H13  1  0.82813000  0.18892000  0.09914000  1.0
  H  H14  1  0.32810000  0.31109000  0.59914000  1.0
  H  H15  1  0.82809000  0.68896000  0.40086000  1.0
  H  H16  1  0.20888000  0.06555000  0.98051000  1.0
  H  H17  1  0.70890000  0.93437000  0.01949000  1.0
  H  H18  1  0.20887000  0.56563000  0.51948000  1.0
  H  H19  1  0.70884000  0.43441000  0.48052000  1.0
  H  H20  1  0.44326000  0.44235000  0.99018000  1.0
  H  H21  1  0.94328000  0.55755000  0.00984000  1.0
  H  H22  1  0.44325000  0.94245000  0.50983000  1.0
  H  H23  1  0.94320000  0.05759000  0.49017000  1.0
  H  H24  1  0.79639000  0.55474000  0.92029000  1.0
  H  H25  1  0.29642000  0.44520000  0.07972000  1.0
  H  H26  1  0.79640000  0.05480000  0.57971000  1.0
  H  H27  1  0.29635000  0.94523000  0.42029000  1.0
  C  C28  1  0.63040000  0.03819000  0.86665000  1.0
  C  C29  1  0.13043000  0.96177000  0.13335000  1.0
  C  C30  1  0.63039000  0.53825000  0.63335000  1.0
  C  C31  1  0.13038000  0.46180000  0.36665000  1.0
  C  C32  1  0.43183000  0.97406000  0.90612000  1.0
  C  C33  1  0.93186000  0.02589000  0.09388000  1.0
  C  C34  1  0.43182000  0.47413000  0.59388000  1.0
  C  C35  1  0.93180000  0.52592000  0.40612000  1.0
  C  C36  1  0.36421000  0.11791000  0.95029000  1.0
  C  C37  1  0.86422000  0.88203000  0.04971000  1.0
  C  C38  1  0.36419000  0.61799000  0.54970000  1.0
  C  C39  1  0.86414000  0.38206000  0.45029000  1.0
  C  C40  1  0.49426000  0.32862000  0.95575000  1.0
  C  C41  1  0.99429000  0.67132000  0.04426000  1.0
  C  C42  1  0.49426000  0.82869000  0.54425000  1.0
  C  C43  1  0.99421000  0.17135000  0.45574000  1.0
  C  C44  1  0.68997000  0.39267000  0.91658000  1.0
  C  C45  1  0.19000000  0.60727000  0.08343000  1.0
  C  C46  1  0.68997000  0.89274000  0.58342000  1.0
  C  C47  1  0.18994000  0.10730000  0.41658000  1.0
  C  C48  1  0.76151000  0.25176000  0.87144000  1.0
  C  C49  1  0.26154000  0.74819000  0.12856000  1.0
  C  C50  1  0.76151000  0.75183000  0.62856000  1.0
  C  C51  1  0.26150000  0.24823000  0.37144000  1.0
  C  C52  1  0.97747000  0.33781000  0.83179000  1.0
  C  C53  1  0.47750000  0.66217000  0.16822000  1.0
  C  C54  1  0.97748000  0.83786000  0.66820000  1.0
  C  C55  1  0.47747000  0.16219000  0.33179000  1.0
  N  N56  1  0.69594000  0.88557000  0.82201000  1.0
  N  N57  1  0.19596000  0.11441000  0.17798000  1.0
  N  N58  1  0.69594000  0.38561000  0.67798000  1.0
  N  N59  1  0.19594000  0.61443000  0.32202000  1.0
  O  O60  1  0.04385000  0.20631000  0.79037000  1.0
  O  O61  1  0.54387000  0.79368000  0.20963000  1.0
  O  O62  1  0.04386000  0.70635000  0.70962000  1.0
  O  O63  1  0.54385000  0.29368000  0.29038000  1.0
  O  O64  1  0.07887000  0.53151000  0.83998000  1.0
  O  O65  1  0.57890000  0.46846000  0.16002000  1.0
  O  O66  1  0.07889000  0.03157000  0.66001000  1.0
  O  O67  1  0.57886000  0.96849000  0.33999000  1.0
