# generated using pymatgen
data_ErH6(CO)8
_symmetry_space_group_name_H-M   'P 1'
_cell_length_a   8.79282000
_cell_length_b   8.79278000
_cell_length_c   12.55300000
_cell_angle_alpha   83.49940000
_cell_angle_beta   83.49900000
_cell_angle_gamma   87.02270000
_symmetry_Int_Tables_number   1
_chemical_formula_structural   ErH6(CO)8
_chemical_formula_sum   'Er4 H24 C32 O32'
_cell_volume   957.32144950
_cell_formula_units_Z   4
loop_
 _symmetry_equiv_pos_site_id
 _symmetry_equiv_pos_as_xyz
  1  'x, y, z'
loop_
 _atom_site_type_symbol
 _atom_site_label
 _atom_site_symmetry_multiplicity
 _atom_site_fract_x
 _atom_site_fract_y
 _atom_site_fract_z
 _atom_site_occupancy
  Er  Er0  1  0.19288000  0.26480000  0.22255000  1.0
  Er  Er1  1  0.73520000  0.80711000  0.27745000  1.0
  Er  Er2  1  0.80711000  0.73520000  0.77745000  1.0
  Er  Er3  1  0.26480000  0.19288000  0.72255000  1.0
  H  H4  1  0.18105000  0.55186000  0.97605000  1.0
  H  H5  1  0.44814000  0.81895000  0.52395000  1.0
  H  H6  1  0.81895000  0.44814000  0.02395000  1.0
  H  H7  1  0.55186000  0.18105000  0.47605000  1.0
  H  H8  1  0.38083000  0.59466000  0.96591000  1.0
  H  H9  1  0.40534000  0.61916000  0.53409000  1.0
  H  H10  1  0.61916000  0.40533000  0.03409000  1.0
  H  H11  1  0.59466000  0.38084000  0.46591000  1.0
  H  H12  1  0.21002000  0.73689000  0.10420000  1.0
  H  H13  1  0.26312000  0.78998000  0.39579000  1.0
  H  H14  1  0.78998000  0.26312000  0.89579000  1.0
  H  H15  1  0.73688000  0.21002000  0.60420000  1.0
  H  H16  1  0.36134000  0.62031000  0.15985000  1.0
  H  H17  1  0.37969000  0.63866000  0.34014000  1.0
  H  H18  1  0.63866000  0.37969000  0.84014000  1.0
  H  H19  1  0.62031000  0.36134000  0.65986000  1.0
  H  H20  1  0.31543000  0.32127000  0.98907000  1.0
  H  H21  1  0.67873000  0.68457000  0.51093000  1.0
  H  H22  1  0.68457000  0.67872000  0.01093000  1.0
  H  H23  1  0.32127000  0.31543000  0.48908000  1.0
  H  H24  1  0.07089000  0.58868000  0.23783000  1.0
  H  H25  1  0.41134000  0.92910000  0.26217000  1.0
  H  H26  1  0.92911000  0.41133000  0.76217000  1.0
  H  H27  1  0.58867000  0.07089000  0.73783000  1.0
  C  C28  1  0.08009000  0.43373000  0.45534000  1.0
  C  C29  1  0.56629000  0.91990000  0.04468000  1.0
  C  C30  1  0.91992000  0.56629000  0.54467000  1.0
  C  C31  1  0.43373000  0.08007000  0.95534000  1.0
  C  C32  1  0.97228000  0.56347000  0.42883000  1.0
  C  C33  1  0.43656000  0.02772000  0.07116000  1.0
  C  C34  1  0.02773000  0.43656000  0.57116000  1.0
  C  C35  1  0.56347000  0.97227000  0.92883000  1.0
  C  C36  1  0.03085000  0.08864000  0.04106000  1.0
  C  C37  1  0.91135000  0.96915000  0.45895000  1.0
  C  C38  1  0.96916000  0.91136000  0.95894000  1.0
  C  C39  1  0.08864000  0.03083000  0.54106000  1.0
  C  C40  1  0.97666000  0.93209000  0.07330000  1.0
  C  C41  1  0.06793000  0.02334000  0.42668000  1.0
  C  C42  1  0.02335000  0.06793000  0.92667000  1.0
  C  C43  1  0.93208000  0.97665000  0.57331000  1.0
  C  C44  1  0.80449000  0.30810000  0.25885000  1.0
  C  C45  1  0.69189000  0.19551000  0.24115000  1.0
  C  C46  1  0.19550000  0.69190000  0.74115000  1.0
  C  C47  1  0.30811000  0.80449000  0.75885000  1.0
  C  C48  1  0.68388000  0.43076000  0.25095000  1.0
  C  C49  1  0.56922000  0.31612000  0.24904000  1.0
  C  C50  1  0.31611000  0.56923000  0.74904000  1.0
  C  C51  1  0.43076000  0.68388000  0.75095000  1.0
  C  C52  1  0.28465000  0.54209000  0.01861000  1.0
  C  C53  1  0.45791000  0.71534000  0.48139000  1.0
  C  C54  1  0.71534000  0.45791000  0.98139000  1.0
  C  C55  1  0.54209000  0.28466000  0.51861000  1.0
  C  C56  1  0.25519000  0.61898000  0.12092000  1.0
  C  C57  1  0.38103000  0.74481000  0.37908000  1.0
  C  C58  1  0.74481000  0.38102000  0.87908000  1.0
  C  C59  1  0.61898000  0.25519000  0.62092000  1.0
  O  O60  1  0.17863000  0.35298000  0.40335000  1.0
  O  O61  1  0.64702000  0.82137000  0.09665000  1.0
  O  O62  1  0.82137000  0.64703000  0.59665000  1.0
  O  O63  1  0.35298000  0.17863000  0.90334000  1.0
  O  O64  1  0.94199000  0.64202000  0.34245000  1.0
  O  O65  1  0.35799000  0.05802000  0.15755000  1.0
  O  O66  1  0.05802000  0.35798000  0.65756000  1.0
  O  O67  1  0.64200000  0.94198000  0.84246000  1.0
  O  O68  1  0.06802000  0.19712000  0.08836000  1.0
  O  O69  1  0.80287000  0.93199000  0.41164000  1.0
  O  O70  1  0.93198000  0.80288000  0.91163000  1.0
  O  O71  1  0.19712000  0.06801000  0.58836000  1.0
  O  O72  1  0.94885000  0.84853000  0.16117000  1.0
  O  O73  1  0.15145000  0.05115000  0.33884000  1.0
  O  O74  1  0.05115000  0.15145000  0.83884000  1.0
  O  O75  1  0.84853000  0.94885000  0.66117000  1.0
  O  O76  1  0.94136000  0.30369000  0.27861000  1.0
  O  O77  1  0.69628000  0.05864000  0.22140000  1.0
  O  O78  1  0.05865000  0.69630000  0.72140000  1.0
  O  O79  1  0.30370000  0.94136000  0.77860000  1.0
  O  O80  1  0.67722000  0.57451000  0.24315000  1.0
  O  O81  1  0.42550000  0.32280000  0.25684000  1.0
  O  O82  1  0.32278000  0.42551000  0.75684000  1.0
  O  O83  1  0.57449000  0.67721000  0.74316000  1.0
  O  O84  1  0.32225000  0.38291000  0.05030000  1.0
  O  O85  1  0.61709000  0.67775000  0.44970000  1.0
  O  O86  1  0.67775000  0.61709000  0.94970000  1.0
  O  O87  1  0.38291000  0.32225000  0.55030000  1.0
  O  O88  1  0.14455000  0.52882000  0.19030000  1.0
  O  O89  1  0.47119000  0.85545000  0.30970000  1.0
  O  O90  1  0.85545000  0.47119000  0.80970000  1.0
  O  O91  1  0.52881000  0.14455000  0.69030000  1.0
