# generated using pymatgen
data_GaPH4CO4F
_symmetry_space_group_name_H-M   'P 1'
_cell_length_a   4.98805000
_cell_length_b   7.10550000
_cell_length_c   8.36661000
_cell_angle_alpha   108.70800000
_cell_angle_beta   91.43560000
_cell_angle_gamma   108.73100000
_symmetry_Int_Tables_number   1
_chemical_formula_structural   GaPH4CO4F
_chemical_formula_sum   'Ga2 P2 H8 C2 O8 F2'
_cell_volume   263.26709189
_cell_formula_units_Z   2
loop_
 _symmetry_equiv_pos_site_id
 _symmetry_equiv_pos_as_xyz
  1  'x, y, z'
loop_
 _atom_site_type_symbol
 _atom_site_label
 _atom_site_symmetry_multiplicity
 _atom_site_fract_x
 _atom_site_fract_y
 _atom_site_fract_z
 _atom_site_occupancy
  Ga  Ga0  1  0.00000000  0.50000000  0.00000000  1.0
  Ga  Ga1  1  0.50001000  0.00000000  0.00000000  1.0
  P  P2  1  0.47844000  0.46521000  0.22729000  1.0
  P  P3  1  0.52156000  0.53479000  0.77271000  1.0
  H  H4  1  0.81423000  0.54547000  0.46431000  1.0
  H  H5  1  0.18576000  0.45453000  0.53570000  1.0
  H  H6  1  0.63385000  0.73042000  0.50266000  1.0
  H  H7  1  0.36613000  0.26958000  0.49733000  1.0
  H  H8  1  0.76755000  0.85341000  0.17370000  1.0
  H  H9  1  0.23246000  0.14658000  0.82630000  1.0
  H  H10  1  0.98365000  0.07452000  0.17742000  1.0
  H  H11  1  0.01636000  0.92548000  0.82257000  1.0
  C  C12  1  0.60265000  0.56049000  0.45228000  1.0
  C  C13  1  0.39733000  0.43951000  0.54772000  1.0
  O  O14  1  0.71810000  0.58341000  0.14340000  1.0
  O  O15  1  0.28191000  0.41659000  0.85660000  1.0
  O  O16  1  0.40440000  0.22163000  0.16295000  1.0
  O  O17  1  0.59561000  0.77837000  0.83705000  1.0
  O  O18  1  0.20579000  0.51682000  0.20681000  1.0
  O  O19  1  0.79420000  0.48318000  0.79319000  1.0
  O  O20  1  0.78212000  0.00128000  0.18568000  1.0
  O  O21  1  0.21788000  0.99872000  0.81432000  1.0
  F  F22  1  0.80650000  0.19327000  0.93847000  1.0
  F  F23  1  0.19351000  0.80673000  0.06153000  1.0
