# generated using pymatgen
data_CoH20C18(NO3)2
_symmetry_space_group_name_H-M   'P 1'
_cell_length_a   9.42994000
_cell_length_b   13.61150000
_cell_length_c   18.87114066
_cell_angle_alpha   110.54055558
_cell_angle_beta   102.66297411
_cell_angle_gamma   91.32180000
_symmetry_Int_Tables_number   1
_chemical_formula_structural   CoH20C18(NO3)2
_chemical_formula_sum   'Co4 H80 C72 N8 O24'
_cell_volume   2199.75965741
_cell_formula_units_Z   4
loop_
 _symmetry_equiv_pos_site_id
 _symmetry_equiv_pos_as_xyz
  1  'x, y, z'
loop_
 _atom_site_type_symbol
 _atom_site_label
 _atom_site_symmetry_multiplicity
 _atom_site_fract_x
 _atom_site_fract_y
 _atom_site_fract_z
 _atom_site_occupancy
  Co  Co0  1  0.17047000  0.15690000  0.73335000  1.0
  Co  Co1  1  0.31808000  0.42109000  0.26665000  1.0
  Co  Co2  1  0.82195000  0.84486000  0.26832000  1.0
  Co  Co3  1  0.67837000  0.57515000  0.73383000  1.0
  H  H4  1  0.41078000  0.11934000  0.78063000  1.0
  H  H5  1  0.06427000  0.33926000  0.21450000  1.0
  H  H6  1  0.57134000  0.87162000  0.21314000  1.0
  H  H7  1  0.93136000  0.65899000  0.78823000  1.0
  H  H8  1  0.41401000  0.23647000  0.77554000  1.0
  H  H9  1  0.06999000  0.46110000  0.22114000  1.0
  H  H10  1  0.57016000  0.75828000  0.22263000  1.0
  H  H11  1  0.92606000  0.53596000  0.77776000  1.0
  H  H12  1  0.07082000  0.36183000  0.75310000  1.0
  H  H13  1  0.42941000  0.60188000  0.25075000  1.0
  H  H14  1  0.93290000  0.64812000  0.25167000  1.0
  H  H15  1  0.56441000  0.39420000  0.75065000  1.0
  H  H16  1  0.10429000  0.36581000  0.83815000  1.0
  H  H17  1  0.40981000  0.51179000  0.16979000  1.0
  H  H18  1  0.90263000  0.65809000  0.17016000  1.0
  H  H19  1  0.58752000  0.48536000  0.83122000  1.0
  H  H20  1  0.77747000  0.97263000  0.49343000  1.0
  H  H21  1  0.73020000  0.47954000  0.50910000  1.0
  H  H22  1  0.23792000  0.02829000  0.51107000  1.0
  H  H23  1  0.26959000  0.51799000  0.49061000  1.0
  H  H24  1  0.14469000  0.85727000  0.54633000  1.0
  H  H25  1  0.35097000  0.31141000  0.45440000  1.0
  H  H26  1  0.85716000  0.13967000  0.45220000  1.0
  H  H27  1  0.64455000  0.68589000  0.55142000  1.0
  H  H28  1  0.04952000  0.73460000  0.41002000  1.0
  H  H29  1  0.44470000  0.32159000  0.59082000  1.0
  H  H30  1  0.95064000  0.26565000  0.58939000  1.0
  H  H31  1  0.54342000  0.67323000  0.41349000  1.0
  H  H32  1  0.35378000  0.68969000  0.48550000  1.0
  H  H33  1  0.13571000  0.20061000  0.51479000  1.0
  H  H34  1  0.64600000  0.30674000  0.51135000  1.0
  H  H35  1  0.85241000  0.79471000  0.48590000  1.0
  H  H36  1  0.03287000  0.02984000  0.57501000  1.0
  H  H37  1  0.47532000  0.45516000  0.42835000  1.0
  H  H38  1  0.98226000  0.97313000  0.43016000  1.0
  H  H39  1  0.52395000  0.54015000  0.57166000  1.0
  H  H40  1  0.62997000  0.16356000  0.69479000  1.0
  H  H41  1  0.87971000  0.46469000  0.30518000  1.0
  H  H42  1  0.38249000  0.84326000  0.30711000  1.0
  H  H43  1  0.11761000  0.53631000  0.69451000  1.0
  H  H44  1  0.89023000  0.21345000  0.76686000  1.0
  H  H45  1  0.61958000  0.44225000  0.23393000  1.0
  H  H46  1  0.12159000  0.79549000  0.23560000  1.0
  H  H47  1  0.37726000  0.55746000  0.76626000  1.0
  H  H48  1  0.45545000  0.82844000  0.62482000  1.0
  H  H49  1  0.03733000  0.20005000  0.37812000  1.0
  H  H50  1  0.54795000  0.17165000  0.37384000  1.0
  H  H51  1  0.95895000  0.79700000  0.62308000  1.0
  H  H52  1  0.46990000  0.98939000  0.57386000  1.0
  H  H53  1  0.03427000  0.41427000  0.42909000  1.0
  H  H54  1  0.54539000  0.01217000  0.42976000  1.0
  H  H55  1  0.96454000  0.58514000  0.57034000  1.0
  H  H56  1  0.46882000  0.10651000  0.55488000  1.0
  H  H57  1  0.04304000  0.54921000  0.44482000  1.0
  H  H58  1  0.54354000  0.89516000  0.44873000  1.0
  H  H59  1  0.95583000  0.45017000  0.55451000  1.0
  H  H60  1  0.18603000  0.26135000  0.89726000  1.0
  H  H61  1  0.31570000  0.35112000  0.09237000  1.0
  H  H62  1  0.81756000  0.74100000  0.09440000  1.0
  H  H63  1  0.68102000  0.64753000  0.90856000  1.0
  H  H64  1  0.04639000  0.96219000  0.73180000  1.0
  H  H65  1  0.43785000  0.21961000  0.26067000  1.0
  H  H66  1  0.94610000  0.04141000  0.26015000  1.0
  H  H67  1  0.56000000  0.77717000  0.73907000  1.0
  H  H68  1  0.94904000  0.90310000  0.82381000  1.0
  H  H69  1  0.54562000  0.07526000  0.17352000  1.0
  H  H70  1  0.05314000  0.10044000  0.17097000  1.0
  H  H71  1  0.45540000  0.92379000  0.82607000  1.0
  H  H72  1  0.08235000  0.21864000  0.99577000  1.0
  H  H73  1  0.42845000  0.21641000  0.99857000  1.0
  H  H74  1  0.93101000  0.78369000  0.99909000  1.0
  H  H75  1  0.57017000  0.78412000  0.00214000  1.0
  H  H76  1  0.91018000  0.09392000  0.01717000  1.0
  H  H77  1  0.59846000  0.07517000  0.98138000  1.0
  H  H78  1  0.09930000  0.91039000  0.97875000  1.0
  H  H79  1  0.40259000  0.92595000  0.01887000  1.0
  H  H80  1  0.84929000  0.96634000  0.94486000  1.0
  H  H81  1  0.65391000  0.02162000  0.05522000  1.0
  H  H82  1  0.15925000  0.03779000  0.05157000  1.0
  H  H83  1  0.34753000  0.97921000  0.94486000  1.0
  C  C84  1  0.79605000  0.02574000  0.55404000  1.0
  C  C85  1  0.71178000  0.47080000  0.44801000  1.0
  C  C86  1  0.21840000  0.97713000  0.44993000  1.0
  C  C87  1  0.28739000  0.52706000  0.55174000  1.0
  C  C88  1  0.24493000  0.81860000  0.55000000  1.0
  C  C89  1  0.24928000  0.26764000  0.45080000  1.0
  C  C90  1  0.75737000  0.17876000  0.44797000  1.0
  C  C91  1  0.74494000  0.72924000  0.55296000  1.0
  C  C92  1  0.14917000  0.69562000  0.41550000  1.0
  C  C93  1  0.34283000  0.27657000  0.58536000  1.0
  C  C94  1  0.84992000  0.30316000  0.58281000  1.0
  C  C95  1  0.64469000  0.71840000  0.41836000  1.0
  C  C96  1  0.25505000  0.73009000  0.48277000  1.0
  C  C97  1  0.23687000  0.24460000  0.51801000  1.0
  C  C98  1  0.74569000  0.26744000  0.51492000  1.0
  C  C99  1  0.75266000  0.75104000  0.48476000  1.0
  C  C100  1  0.93927000  0.05745000  0.59825000  1.0
  C  C101  1  0.56904000  0.45796000  0.40381000  1.0
  C  C102  1  0.07508000  0.94633000  0.40562000  1.0
  C  C103  1  0.42977000  0.53879000  0.59613000  1.0
  C  C104  1  0.67975000  0.06246000  0.58753000  1.0
  C  C105  1  0.82841000  0.47313000  0.41359000  1.0
  C  C106  1  0.33394000  0.94107000  0.41564000  1.0
  C  C107  1  0.17029000  0.52606000  0.58607000  1.0
  C  C108  1  0.15913000  0.60397000  0.34616000  1.0
  C  C109  1  0.33279000  0.25443000  0.65535000  1.0
  C  C110  1  0.83718000  0.39451000  0.65184000  1.0
  C  C111  1  0.65571000  0.74182000  0.34872000  1.0
  C  C112  1  0.33505000  0.96101000  0.67933000  1.0
  C  C113  1  0.15212000  0.27982000  0.32021000  1.0
  C  C114  1  0.66057000  0.03633000  0.31789000  1.0
  C  C115  1  0.84640000  0.71817000  0.68281000  1.0
  C  C116  1  0.71561000  0.13125000  0.66574000  1.0
  C  C117  1  0.79362000  0.46233000  0.33493000  1.0
  C  C118  1  0.29736000  0.87466000  0.33683000  1.0
  C  C119  1  0.20419000  0.53760000  0.66487000  1.0
  C  C120  1  0.86036000  0.15971000  0.70632000  1.0
  C  C121  1  0.64865000  0.45034000  0.29503000  1.0
  C  C122  1  0.15192000  0.84740000  0.29677000  1.0
  C  C123  1  0.34880000  0.54876000  0.70502000  1.0
  C  C124  1  0.35126000  0.86155000  0.61657000  1.0
  C  C125  1  0.14162000  0.24310000  0.38469000  1.0
  C  C126  1  0.65075000  0.13671000  0.38136000  1.0
  C  C127  1  0.85530000  0.75432000  0.61792000  1.0
  C  C128  1  0.52158000  0.03312000  0.54510000  1.0
  C  C129  1  0.98598000  0.48693000  0.45617000  1.0
  C  C130  1  0.49222000  0.96907000  0.45835000  1.0
  C  C131  1  0.01295000  0.51254000  0.54330000  1.0
  C  C132  1  0.12768000  0.18449000  0.88343000  1.0
  C  C133  1  0.37217000  0.29011000  0.10855000  1.0
  C  C134  1  0.87586000  0.81869000  0.10967000  1.0
  C  C135  1  0.62538000  0.70861000  0.89207000  1.0
  C  C136  1  0.05061000  0.01609000  0.79068000  1.0
  C  C137  1  0.43842000  0.21565000  0.20206000  1.0
  C  C138  1  0.94548000  0.98701000  0.20176000  1.0
  C  C139  1  0.55999000  0.78211000  0.79796000  1.0
  C  C140  1  0.99584000  0.98486000  0.84279000  1.0
  C  C141  1  0.49958000  0.13596000  0.15287000  1.0
  C  C142  1  0.00616000  0.01860000  0.15145000  1.0
  C  C143  1  0.50065000  0.86316000  0.84710000  1.0
  C  C144  1  0.07168000  0.15918000  0.93776000  1.0
  C  C145  1  0.43345000  0.21427000  0.05635000  1.0
  C  C146  1  0.93702000  0.84339000  0.05654000  1.0
  C  C147  1  0.56553000  0.78565000  0.94423000  1.0
  C  C148  1  0.00240000  0.05765000  0.91767000  1.0
  C  C149  1  0.49992000  0.13504000  0.07849000  1.0
  C  C150  1  0.00470000  0.94557000  0.07736000  1.0
  C  C151  1  0.50054000  0.86509000  0.92176000  1.0
  C  C152  1  0.94518000  0.02561000  0.97528000  1.0
  C  C153  1  0.56004000  0.04781000  0.02299000  1.0
  C  C154  1  0.06376000  0.97837000  0.02058000  1.0
  C  C155  1  0.44120000  0.95295000  0.97715000  1.0
  N  N156  1  0.97228000  0.12332000  0.67363000  1.0
  N  N157  1  0.53659000  0.44790000  0.32835000  1.0
  N  N158  1  0.04092000  0.88220000  0.33008000  1.0
  N  N159  1  0.46129000  0.54944000  0.67171000  1.0
  N  N160  1  0.11411000  0.11514000  0.80999000  1.0
  N  N161  1  0.37615000  0.29255000  0.18093000  1.0
  N  N162  1  0.88181000  0.88828000  0.18184000  1.0
  N  N163  1  0.62102000  0.70506000  0.81940000  1.0
  O  O164  1  0.37084000  0.19141000  0.79997000  1.0
  O  O165  1  0.10433000  0.39134000  0.19463000  1.0
  O  O166  1  0.60854000  0.80005000  0.19496000  1.0
  O  O167  1  0.89121000  0.60482000  0.80622000  1.0
  O  O168  1  0.05331000  0.57985000  0.28506000  1.0
  O  O169  1  0.44219000  0.28879000  0.71486000  1.0
  O  O170  1  0.94434000  0.42140000  0.71236000  1.0
  O  O171  1  0.54810000  0.70638000  0.28831000  1.0
  O  O172  1  0.14007000  0.33840000  0.79113000  1.0
  O  O173  1  0.36395000  0.53602000  0.21339000  1.0
  O  O174  1  0.86457000  0.67727000  0.21653000  1.0
  O  O175  1  0.63114000  0.45966000  0.78685000  1.0
  O  O176  1  0.21164000  0.99778000  0.67006000  1.0
  O  O177  1  0.27578000  0.32798000  0.32591000  1.0
  O  O178  1  0.78219000  0.99549000  0.32567000  1.0
  O  O179  1  0.72360000  0.66843000  0.67643000  1.0
  O  O180  1  0.26983000  0.55239000  0.35171000  1.0
  O  O181  1  0.21692000  0.19980000  0.65204000  1.0
  O  O182  1  0.72320000  0.44293000  0.64679000  1.0
  O  O183  1  0.76976000  0.79842000  0.35341000  1.0
  O  O184  1  0.44584000  0.00428000  0.73648000  1.0
  O  O185  1  0.03867000  0.26387000  0.26528000  1.0
  O  O186  1  0.54833000  0.99627000  0.26195000  1.0
  O  O187  1  0.95897000  0.73585000  0.73846000  1.0
