# generated using pymatgen
data_Al2H30C38N3O19F7
_symmetry_space_group_name_H-M   'P 1'
_cell_length_a   6.61062000
_cell_length_b   22.66040000
_cell_length_c   25.43430000
_cell_angle_alpha   89.42410000
_cell_angle_beta   89.27610000
_cell_angle_gamma   89.82310000
_symmetry_Int_Tables_number   1
_chemical_formula_structural   Al2H30C38N3O19F7
_chemical_formula_sum   'Al4 H60 C76 N6 O38 F14'
_cell_volume   3809.52693150
_cell_formula_units_Z   2
loop_
 _symmetry_equiv_pos_site_id
 _symmetry_equiv_pos_as_xyz
  1  'x, y, z'
loop_
 _atom_site_type_symbol
 _atom_site_label
 _atom_site_symmetry_multiplicity
 _atom_site_fract_x
 _atom_site_fract_y
 _atom_site_fract_z
 _atom_site_occupancy
  Al  Al0  1  0.71714000  0.25242000  0.25190000  1.0
  Al  Al1  1  0.28609000  0.74933000  0.74829000  1.0
  Al  Al2  1  0.21793000  0.25330000  0.25294000  1.0
  Al  Al3  1  0.78621000  0.74627000  0.74739000  1.0
  H  H4  1  0.31246000  0.51140000  0.91684000  1.0
  H  H5  1  0.68759000  0.49317000  0.08761000  1.0
  H  H6  1  0.99438000  0.58045000  0.80060000  1.0
  H  H7  1  0.06690000  0.64250000  0.83846000  1.0
  H  H8  1  0.00134000  0.57362000  0.87098000  1.0
  H  H9  1  0.94029000  0.36515000  0.16841000  1.0
  H  H10  1  0.00066000  0.43166000  0.20221000  1.0
  H  H11  1  0.98844000  0.43266000  0.13187000  1.0
  H  H12  1  0.21594000  0.53226000  0.73599000  1.0
  H  H13  1  0.47677000  0.54681000  0.72275000  1.0
  H  H14  1  0.34319000  0.49414000  0.68327000  1.0
  H  H15  1  0.00273000  0.42382000  0.29718000  1.0
  H  H16  1  0.95381000  0.37054000  0.34889000  1.0
  H  H17  1  0.96942000  0.44776000  0.36373000  1.0
  H  H18  1  0.97971000  0.47500000  0.57218000  1.0
  H  H19  1  0.06664000  0.53002000  0.52646000  1.0
  H  H20  1  0.98209000  0.55114000  0.59152000  1.0
  H  H21  1  0.45362000  0.55975000  0.35827000  1.0
  H  H22  1  0.61608000  0.51683000  0.31583000  1.0
  H  H23  1  0.71274000  0.58088000  0.34773000  1.0
  H  H24  1  0.38372000  0.41402000  0.55913000  1.0
  H  H25  1  0.39328000  0.33637000  0.54353000  1.0
  H  H26  1  0.17216000  0.36783000  0.57418000  1.0
  H  H27  1  0.59752000  0.60593000  0.44074000  1.0
  H  H28  1  0.84595000  0.63130000  0.42405000  1.0
  H  H29  1  0.66478000  0.68173000  0.45218000  1.0
  H  H30  1  0.05894000  0.29314000  0.48481000  1.0
  H  H31  1  0.31416000  0.26506000  0.48243000  1.0
  H  H32  1  0.11940000  0.22901000  0.44660000  1.0
  H  H33  1  0.91090000  0.77220000  0.56031000  1.0
  H  H34  1  0.72507000  0.73991000  0.51899000  1.0
  H  H35  1  0.97575000  0.70863000  0.52196000  1.0
  H  H36  1  0.46570000  0.96654000  0.87088000  1.0
  H  H37  1  0.67115000  0.01455000  0.85235000  1.0
  H  H38  1  0.49677000  0.03552000  0.90369000  1.0
  H  H39  1  0.33680000  0.20540000  0.01242000  1.0
  H  H40  1  0.19263000  0.17133000  0.96131000  1.0
  H  H41  1  0.46211000  0.16123000  0.96367000  1.0
  H  H42  1  0.00124000  0.93333000  0.38210000  1.0
  H  H43  1  0.26487000  0.91817000  0.37011000  1.0
  H  H44  1  0.13455000  0.97070000  0.32939000  1.0
  H  H45  1  0.74293000  0.08474000  0.62951000  1.0
  H  H46  1  0.00455000  0.06854000  0.61577000  1.0
  H  H47  1  0.87648000  0.03284000  0.67025000  1.0
  H  H48  1  0.11850000  0.84472000  0.45716000  1.0
  H  H49  1  0.27561000  0.79855000  0.49801000  1.0
  H  H50  1  0.38581000  0.84052000  0.44454000  1.0
  H  H51  1  0.72540000  0.20344000  0.50196000  1.0
  H  H52  1  0.87981000  0.15709000  0.54332000  1.0
  H  H53  1  0.61208000  0.16183000  0.55521000  1.0
  H  H54  1  0.49937000  0.84003000  0.64709000  1.0
  H  H55  1  0.57359000  0.85330000  0.57932000  1.0
  H  H56  1  0.58343000  0.78018000  0.60763000  1.0
  H  H57  1  0.50627000  0.16034000  0.35201000  1.0
  H  H58  1  0.41700000  0.22052000  0.39033000  1.0
  H  H59  1  0.42755000  0.14781000  0.41950000  1.0
  H  H60  1  0.46629000  0.17894000  0.23234000  1.0
  H  H61  1  0.54240000  0.82023000  0.77039000  1.0
  H  H62  1  0.96333000  0.32501000  0.27444000  1.0
  H  H63  1  0.04591000  0.67852000  0.72075000  1.0
  C  C64  1  0.46388000  0.32486000  0.18118000  1.0
  C  C65  1  0.53495000  0.67724000  0.82024000  1.0
  C  C66  1  0.46921000  0.32066000  0.32513000  1.0
  C  C67  1  0.53349000  0.68058000  0.67498000  1.0
  C  C68  1  0.97155000  0.17913000  0.32130000  1.0
  C  C69  1  0.03254000  0.82247000  0.67917000  1.0
  C  C70  1  0.96903000  0.18540000  0.17976000  1.0
  C  C71  1  0.03271000  0.81501000  0.82142000  1.0
  C  C72  1  0.97889000  0.14428000  0.13416000  1.0
  C  C73  1  0.02362000  0.85588000  0.86730000  1.0
  C  C74  1  0.13751000  0.14704000  0.09710000  1.0
  C  C75  1  0.86570000  0.89702000  0.87362000  1.0
  C  C76  1  0.14565000  0.11099000  0.05280000  1.0
  C  C77  1  0.85125000  0.93547000  0.91647000  1.0
  C  C78  1  0.99345000  0.06819000  0.04628000  1.0
  C  C79  1  0.00404000  0.93208000  0.95500000  1.0
  C  C80  1  0.83860000  0.06345000  0.08423000  1.0
  C  C81  1  0.16015000  0.89079000  0.94934000  1.0
  C  C82  1  0.82973000  0.10148000  0.12684000  1.0
  C  C83  1  0.17164000  0.85344000  0.90638000  1.0
  C  C84  1  0.99946000  0.02980000  0.00052000  1.0
  C  C85  1  0.00034000  0.97058000  0.00081000  1.0
  C  C86  1  0.03805000  0.86569000  0.63425000  1.0
  C  C87  1  0.96379000  0.13602000  0.36622000  1.0
  C  C88  1  0.91279000  0.91531000  0.63363000  1.0
  C  C89  1  0.08920000  0.08647000  0.36702000  1.0
  C  C90  1  0.91440000  0.95689000  0.59262000  1.0
  C  C91  1  0.08679000  0.04490000  0.40805000  1.0
  C  C92  1  0.04884000  0.94758000  0.54960000  1.0
  C  C93  1  0.95164000  0.05442000  0.45092000  1.0
  C  C94  1  0.17706000  0.89753000  0.54933000  1.0
  C  C95  1  0.82339000  0.10446000  0.45095000  1.0
  C  C96  1  0.17352000  0.85747000  0.59176000  1.0
  C  C97  1  0.82776000  0.14445000  0.40849000  1.0
  C  C98  1  0.46727000  0.36581000  0.13449000  1.0
  C  C99  1  0.52993000  0.63811000  0.86812000  1.0
  C  C100  1  0.59535000  0.41603000  0.13190000  1.0
  C  C101  1  0.40172000  0.58802000  0.87163000  1.0
  C  C102  1  0.59209000  0.45405000  0.08874000  1.0
  C  C103  1  0.40820000  0.55041000  0.91493000  1.0
  C  C104  1  0.46380000  0.44361000  0.04617000  1.0
  C  C105  1  0.53947000  0.56134000  0.95681000  1.0
  C  C106  1  0.33807000  0.39376000  0.04823000  1.0
  C  C107  1  0.66379000  0.61151000  0.95414000  1.0
  C  C108  1  0.33936000  0.35618000  0.09196000  1.0
  C  C109  1  0.65850000  0.64887000  0.91022000  1.0
  C  C110  1  0.46292000  0.36348000  0.36955000  1.0
  C  C111  1  0.53175000  0.64015000  0.62892000  1.0
  C  C112  1  0.58463000  0.41386000  0.36624000  1.0
  C  C113  1  0.39551000  0.59267000  0.62832000  1.0
  C  C114  1  0.57326000  0.45793000  0.40483000  1.0
  C  C115  1  0.38573000  0.55503000  0.58481000  1.0
  C  C116  1  0.44894000  0.44849000  0.44995000  1.0
  C  C117  1  0.52062000  0.56405000  0.54155000  1.0
  C  C118  1  0.33135000  0.39614000  0.45415000  1.0
  C  C119  1  0.65772000  0.61224000  0.54231000  1.0
  C  C120  1  0.33361000  0.35438000  0.41361000  1.0
  C  C121  1  0.66356000  0.65040000  0.58552000  1.0
  C  C122  1  0.07302000  0.59426000  0.83607000  1.0
  C  C123  1  0.92328000  0.41336000  0.16822000  1.0
  C  C124  1  0.33094000  0.53587000  0.70482000  1.0
  C  C125  1  0.92150000  0.41548000  0.33439000  1.0
  C  C126  1  0.05945000  0.51714000  0.56812000  1.0
  C  C127  1  0.60899000  0.54345000  0.35162000  1.0
  C  C128  1  0.29636000  0.37594000  0.54606000  1.0
  C  C129  1  0.71950000  0.63566000  0.45203000  1.0
  C  C130  1  0.17411000  0.27180000  0.46011000  1.0
  C  C131  1  0.85525000  0.73063000  0.54440000  1.0
  C  C132  1  0.57611000  0.99847000  0.88519000  1.0
  C  C133  1  0.32366000  0.16650000  0.98729000  1.0
  C  C134  1  0.14742000  0.95237000  0.36942000  1.0
  C  C135  1  0.85926000  0.05021000  0.62997000  1.0
  C  C136  1  0.26833000  0.84009000  0.47535000  1.0
  C  C137  1  0.73080000  0.16193000  0.52472000  1.0
  C  C138  1  0.50189000  0.82214000  0.60723000  1.0
  C  C139  1  0.50014000  0.17884000  0.39163000  1.0
  N  N140  1  0.08003000  0.99003000  0.50955000  1.0
  N  N141  1  0.92003000  0.01210000  0.49103000  1.0
  N  N142  1  0.44950000  0.47924000  0.00086000  1.0
  N  N143  1  0.55573000  0.52580000  0.00216000  1.0
  N  N144  1  0.40769000  0.49136000  0.48834000  1.0
  N  N145  1  0.55737000  0.52261000  0.50164000  1.0
  O  O146  1  0.30173000  0.31001000  0.30309000  1.0
  O  O147  1  0.70273000  0.69061000  0.69634000  1.0
  O  O148  1  0.63212000  0.31238000  0.20199000  1.0
  O  O149  1  0.36650000  0.69115000  0.80029000  1.0
  O  O150  1  0.79644000  0.20603000  0.19185000  1.0
  O  O151  1  0.20711000  0.79853000  0.80617000  1.0
  O  O152  1  0.63935000  0.29907000  0.31164000  1.0
  O  O153  1  0.36490000  0.70208000  0.68976000  1.0
  O  O154  1  0.80633000  0.18974000  0.29801000  1.0
  O  O155  1  0.20016000  0.81119000  0.70097000  1.0
  O  O156  1  0.29089000  0.30650000  0.19609000  1.0
  O  O157  1  0.70929000  0.69220000  0.80345000  1.0
  O  O158  1  0.46790000  0.21638000  0.25048000  1.0
  O  O159  1  0.53770000  0.78428000  0.75006000  1.0
  O  O160  1  0.14337000  0.20089000  0.30993000  1.0
  O  O161  1  0.86100000  0.80137000  0.69190000  1.0
  O  O162  1  0.13416000  0.19610000  0.20255000  1.0
  O  O163  1  0.86654000  0.80013000  0.80125000  1.0
  O  O164  1  0.96583000  0.28920000  0.25389000  1.0
  O  O165  1  0.03884000  0.71116000  0.74529000  1.0
  O  O166  1  0.27968000  0.57409000  0.83022000  1.0
  O  O167  1  0.71316000  0.42977000  0.17410000  1.0
  O  O168  1  0.26652000  0.58312000  0.67044000  1.0
  O  O169  1  0.70911000  0.42170000  0.32287000  1.0
  O  O170  1  0.26039000  0.50711000  0.58828000  1.0
  O  O171  1  0.67483000  0.51016000  0.39716000  1.0
  O  O172  1  0.20213000  0.38772000  0.49628000  1.0
  O  O173  1  0.79791000  0.61963000  0.50250000  1.0
  O  O174  1  0.21449000  0.30528000  0.41277000  1.0
  O  O175  1  0.79430000  0.69638000  0.58973000  1.0
  O  O176  1  0.69764000  0.97358000  0.92649000  1.0
  O  O177  1  0.30502000  0.11283000  0.01809000  1.0
  O  O178  1  0.21027000  0.99643000  0.40613000  1.0
  O  O179  1  0.79054000  0.00536000  0.59487000  1.0
  O  O180  1  0.30908000  0.89004000  0.50787000  1.0
  O  O181  1  0.69032000  0.11200000  0.49220000  1.0
  O  O182  1  0.29754000  0.80883000  0.59093000  1.0
  O  O183  1  0.70282000  0.19291000  0.40881000  1.0
  F  F184  1  0.29024000  0.18579000  0.10348000  1.0
  F  F185  1  0.71860000  0.90010000  0.83673000  1.0
  F  F186  1  0.21216000  0.38137000  0.00845000  1.0
  F  F187  1  0.79190000  0.62418000  0.99322000  1.0
  F  F188  1  0.21445000  0.30910000  0.09091000  1.0
  F  F189  1  0.78056000  0.69660000  0.91018000  1.0
  F  F190  1  0.32659000  0.81462000  0.90441000  1.0
  F  F191  1  0.67593000  0.09486000  0.16190000  1.0
  F  F192  1  0.00608000  0.94221000  0.04833000  1.0
  F  F193  1  0.00855000  0.05849000  0.95283000  1.0
  F  F194  1  0.69184000  0.02269000  0.07948000  1.0
  F  F195  1  0.30741000  0.88784000  0.98561000  1.0
  F  F196  1  0.21744000  0.07668000  0.32563000  1.0
  F  F197  1  0.78588000  0.92534000  0.67530000  1.0
