# generated using pymatgen
data_NiH16C24N2O5
_symmetry_space_group_name_H-M   'P 1'
_cell_length_a   11.20820000
_cell_length_b   11.20830000
_cell_length_c   20.34580000
_cell_angle_alpha   76.57690000
_cell_angle_beta   76.57820000
_cell_angle_gamma   66.18760000
_symmetry_Int_Tables_number   1
_chemical_formula_structural   NiH16C24N2O5
_chemical_formula_sum   'Ni4 H64 C96 N8 O20'
_cell_volume   2246.80521332
_cell_formula_units_Z   4
loop_
 _symmetry_equiv_pos_site_id
 _symmetry_equiv_pos_as_xyz
  1  'x, y, z'
loop_
 _atom_site_type_symbol
 _atom_site_label
 _atom_site_symmetry_multiplicity
 _atom_site_fract_x
 _atom_site_fract_y
 _atom_site_fract_z
 _atom_site_occupancy
  Ni  Ni0  1  0.36641000  0.53312000  0.92907000  1.0
  Ni  Ni1  1  0.63360000  0.46688000  0.07093000  1.0
  Ni  Ni2  1  0.46664000  0.63384000  0.57092000  1.0
  Ni  Ni3  1  0.53336000  0.36616000  0.42908000  1.0
  H  H4  1  0.30530000  0.32242000  0.03014000  1.0
  H  H5  1  0.69472000  0.67758000  0.96986000  1.0
  H  H6  1  0.30301000  0.09789000  0.03464000  1.0
  H  H7  1  0.69699000  0.90211000  0.96536000  1.0
  H  H8  1  0.43032000  0.14294000  0.81546000  1.0
  H  H9  1  0.56967000  0.85706000  0.18454000  1.0
  H  H10  1  0.42841000  0.36324000  0.82200000  1.0
  H  H11  1  0.57158000  0.63676000  0.17799000  1.0
  H  H12  1  0.20495000  0.97972000  0.01056000  1.0
  H  H13  1  0.79504000  0.02029000  0.98944000  1.0
  H  H14  1  0.20992000  0.75700000  0.00832000  1.0
  H  H15  1  0.79008000  0.24300000  0.99169000  1.0
  H  H16  1  0.51006000  0.70038000  0.84258000  1.0
  H  H17  1  0.48994000  0.29961000  0.15743000  1.0
  H  H18  1  0.51860000  0.92058000  0.83680000  1.0
  H  H19  1  0.48140000  0.07941000  0.16320000  1.0
  H  H20  1  0.63623000  0.57240000  0.67804000  1.0
  H  H21  1  0.36376000  0.42759000  0.32196000  1.0
  H  H22  1  0.85661000  0.57045000  0.68457000  1.0
  H  H23  1  0.14338000  0.42954000  0.31543000  1.0
  H  H24  1  0.90233000  0.69617000  0.46527000  1.0
  H  H25  1  0.09766000  0.30384000  0.53473000  1.0
  H  H26  1  0.67763000  0.69423000  0.46981000  1.0
  H  H27  1  0.32236000  0.30578000  0.53019000  1.0
  H  H28  1  0.29941000  0.49031000  0.65744000  1.0
  H  H29  1  0.70058000  0.50969000  0.34256000  1.0
  H  H30  1  0.07932000  0.48149000  0.66319000  1.0
  H  H31  1  0.92067000  0.51851000  0.33681000  1.0
  H  H32  1  0.24268000  0.79029000  0.49161000  1.0
  H  H33  1  0.75732000  0.20971000  0.50839000  1.0
  H  H34  1  0.02005000  0.79493000  0.48934000  1.0
  H  H35  1  0.97995000  0.20508000  0.51066000  1.0
  H  H36  1  0.16542000  0.72302000  0.73467000  1.0
  H  H37  1  0.83458000  0.27698000  0.26533000  1.0
  H  H38  1  0.96576000  0.81841000  0.67539000  1.0
  H  H39  1  0.03425000  0.18159000  0.32462000  1.0
  H  H40  1  0.72239000  0.75665000  0.86698000  1.0
  H  H41  1  0.27761000  0.24335000  0.13302000  1.0
  H  H42  1  0.92145000  0.67172000  0.92730000  1.0
  H  H43  1  0.07856000  0.32828000  0.07271000  1.0
  H  H44  1  0.73404000  0.04775000  0.76766000  1.0
  H  H45  1  0.26594000  0.95226000  0.23234000  1.0
  H  H46  1  0.64463000  0.27546000  0.70134000  1.0
  H  H47  1  0.35535000  0.72455000  0.29866000  1.0
  H  H48  1  0.55009000  0.11895000  0.55524000  1.0
  H  H49  1  0.44992000  0.88104000  0.44476000  1.0
  H  H50  1  0.63210000  0.89210000  0.62307000  1.0
  H  H51  1  0.36791000  0.10789000  0.37693000  1.0
  H  H52  1  0.88127000  0.44963000  0.94494000  1.0
  H  H53  1  0.11875000  0.55036000  0.05506000  1.0
  H  H54  1  0.10807000  0.36782000  0.87705000  1.0
  H  H55  1  0.89194000  0.63218000  0.12294000  1.0
  H  H56  1  0.95232000  0.26638000  0.73230000  1.0
  H  H57  1  0.04767000  0.73363000  0.26769000  1.0
  H  H58  1  0.72458000  0.35590000  0.79860000  1.0
  H  H59  1  0.27541000  0.64411000  0.20140000  1.0
  H  H60  1  0.18145000  0.03457000  0.82454000  1.0
  H  H61  1  0.81857000  0.96544000  0.17546000  1.0
  H  H62  1  0.27679000  0.83497000  0.76524000  1.0
  H  H63  1  0.72323000  0.16504000  0.23475000  1.0
  H  H64  1  0.32849000  0.07893000  0.57266000  1.0
  H  H65  1  0.67151000  0.92107000  0.42733000  1.0
  H  H66  1  0.24379000  0.27787000  0.63302000  1.0
  H  H67  1  0.75621000  0.72214000  0.36697000  1.0
  C  C68  1  0.33142000  0.27703000  0.98439000  1.0
  C  C69  1  0.66859000  0.72296000  0.01560000  1.0
  C  C70  1  0.33054000  0.15301000  0.98589000  1.0
  C  C71  1  0.66946000  0.84699000  0.01410000  1.0
  C  C72  1  0.36672000  0.09989000  0.92495000  1.0
  C  C73  1  0.63328000  0.90011000  0.07505000  1.0
  C  C74  1  0.40365000  0.17674000  0.86482000  1.0
  C  C75  1  0.59634000  0.82326000  0.13518000  1.0
  C  C76  1  0.40222000  0.30016000  0.86773000  1.0
  C  C77  1  0.59778000  0.69985000  0.13227000  1.0
  C  C78  1  0.36467000  0.96927000  0.92484000  1.0
  C  C79  1  0.63532000  0.03073000  0.07516000  1.0
  C  C80  1  0.27666000  0.92051000  0.97307000  1.0
  C  C81  1  0.72334000  0.07949000  0.02693000  1.0
  C  C82  1  0.27848000  0.79621000  0.97215000  1.0
  C  C83  1  0.72152000  0.20379000  0.02785000  1.0
  C  C84  1  0.44556000  0.76505000  0.87939000  1.0
  C  C85  1  0.55444000  0.23494000  0.12061000  1.0
  C  C86  1  0.44919000  0.88858000  0.87652000  1.0
  C  C87  1  0.55081000  0.11142000  0.12348000  1.0
  C  C88  1  0.69948000  0.59827000  0.63229000  1.0
  C  C89  1  0.30052000  0.40171000  0.36770000  1.0
  C  C90  1  0.82292000  0.59676000  0.63520000  1.0
  C  C91  1  0.17708000  0.40322000  0.36480000  1.0
  C  C92  1  0.89997000  0.63326000  0.57502000  1.0
  C  C93  1  0.10003000  0.36674000  0.42498000  1.0
  C  C94  1  0.84700000  0.66906000  0.51405000  1.0
  C  C95  1  0.15299000  0.33094000  0.48596000  1.0
  C  C96  1  0.72293000  0.66835000  0.51556000  1.0
  C  C97  1  0.27706000  0.33166000  0.48444000  1.0
  C  C98  1  0.23473000  0.55470000  0.62060000  1.0
  C  C99  1  0.76526000  0.44530000  0.37941000  1.0
  C  C100  1  0.11128000  0.55092000  0.62346000  1.0
  C  C101  1  0.88872000  0.44908000  0.37654000  1.0
  C  C102  1  0.03059000  0.63533000  0.57512000  1.0
  C  C103  1  0.96940000  0.36468000  0.42488000  1.0
  C  C104  1  0.20351000  0.72169000  0.52780000  1.0
  C  C105  1  0.79648000  0.27831000  0.47221000  1.0
  C  C106  1  0.07929000  0.72336000  0.52686000  1.0
  C  C107  1  0.92071000  0.27665000  0.47314000  1.0
  C  C108  1  0.17069000  0.63607000  0.87037000  1.0
  C  C109  1  0.82932000  0.36392000  0.12964000  1.0
  C  C110  1  0.05370000  0.69391000  0.83454000  1.0
  C  C111  1  0.94630000  0.30610000  0.16547000  1.0
  C  C112  1  0.06741000  0.73415000  0.76349000  1.0
  C  C113  1  0.93259000  0.26585000  0.23652000  1.0
  C  C114  1  0.95728000  0.78551000  0.73047000  1.0
  C  C115  1  0.04272000  0.21449000  0.26953000  1.0
  C  C116  1  0.83438000  0.79213000  0.76873000  1.0
  C  C117  1  0.16562000  0.20787000  0.23127000  1.0
  C  C118  1  0.81946000  0.75165000  0.83928000  1.0
  C  C119  1  0.18054000  0.24835000  0.16072000  1.0
  C  C120  1  0.92927000  0.70413000  0.87219000  1.0
  C  C121  1  0.07073000  0.29587000  0.12781000  1.0
  C  C122  1  0.68615000  0.95830000  0.69894000  1.0
  C  C123  1  0.31385000  0.04170000  0.30107000  1.0
  C  C124  1  0.69207000  0.06454000  0.72154000  1.0
  C  C125  1  0.30792000  0.93547000  0.27846000  1.0
  C  C126  1  0.64306000  0.19061000  0.68456000  1.0
  C  C127  1  0.35693000  0.80939000  0.31545000  1.0
  C  C128  1  0.58968000  0.21137000  0.62507000  1.0
  C  C129  1  0.41032000  0.78862000  0.37493000  1.0
  C  C130  1  0.58746000  0.10310000  0.60264000  1.0
  C  C131  1  0.41255000  0.89689000  0.39736000  1.0
  C  C132  1  0.63476000  0.97671000  0.63952000  1.0
  C  C133  1  0.36524000  0.02329000  0.36048000  1.0
  C  C134  1  0.53455000  0.34749000  0.58593000  1.0
  C  C135  1  0.46545000  0.65250000  0.41407000  1.0
  C  C136  1  0.65264000  0.46549000  0.91412000  1.0
  C  C137  1  0.34736000  0.53450000  0.08588000  1.0
  C  C138  1  0.78877000  0.41047000  0.87498000  1.0
  C  C139  1  0.21123000  0.58953000  0.12502000  1.0
  C  C140  1  0.89706000  0.41252000  0.89745000  1.0
  C  C141  1  0.10295000  0.58747000  0.10254000  1.0
  C  C142  1  0.02344000  0.36529000  0.86056000  1.0
  C  C143  1  0.97656000  0.63470000  0.13944000  1.0
  C  C144  1  0.04181000  0.31408000  0.80109000  1.0
  C  C145  1  0.95819000  0.68592000  0.19891000  1.0
  C  C146  1  0.93555000  0.30826000  0.77846000  1.0
  C  C147  1  0.06445000  0.69174000  0.22154000  1.0
  C  C148  1  0.80948000  0.35728000  0.81543000  1.0
  C  C149  1  0.19051000  0.64272000  0.18457000  1.0
  C  C150  1  0.20795000  0.16594000  0.73123000  1.0
  C  C151  1  0.79205000  0.83407000  0.26876000  1.0
  C  C152  1  0.21443000  0.04305000  0.76946000  1.0
  C  C153  1  0.78559000  0.95696000  0.23053000  1.0
  C  C154  1  0.26574000  0.93295000  0.73644000  1.0
  C  C155  1  0.73427000  0.06705000  0.26356000  1.0
  C  C156  1  0.30606000  0.94667000  0.66538000  1.0
  C  C157  1  0.69395000  0.05334000  0.33461000  1.0
  C  C158  1  0.29600000  0.07108000  0.62776000  1.0
  C  C159  1  0.70401000  0.92893000  0.37223000  1.0
  C  C160  1  0.24856000  0.18086000  0.66070000  1.0
  C  C161  1  0.75143000  0.81916000  0.33930000  1.0
  C  C162  1  0.36381000  0.82968000  0.62954000  1.0
  C  C163  1  0.63620000  0.17032000  0.37045000  1.0
  N  N164  1  0.36627000  0.35011000  0.92655000  1.0
  N  N165  1  0.63373000  0.64989000  0.07345000  1.0
  N  N166  1  0.36303000  0.71802000  0.92697000  1.0
  N  N167  1  0.63697000  0.28198000  0.07303000  1.0
  N  N168  1  0.64967000  0.63393000  0.57344000  1.0
  N  N169  1  0.35033000  0.36607000  0.42655000  1.0
  N  N170  1  0.28171000  0.63726000  0.57301000  1.0
  N  N171  1  0.71829000  0.36273000  0.42700000  1.0
  O  O172  1  0.15436000  0.61347000  0.93583000  1.0
  O  O173  1  0.84564000  0.38652000  0.06418000  1.0
  O  O174  1  0.28703000  0.60762000  0.83567000  1.0
  O  O175  1  0.71297000  0.39238000  0.16433000  1.0
  O  O176  1  0.55944000  0.45957000  0.89042000  1.0
  O  O177  1  0.44056000  0.54042000  0.10958000  1.0
  O  O178  1  0.63803000  0.51772000  0.96603000  1.0
  O  O179  1  0.36197000  0.48227000  0.03397000  1.0
  O  O180  1  0.54018000  0.44078000  0.60968000  1.0
  O  O181  1  0.45982000  0.55921000  0.39032000  1.0
  O  O182  1  0.48248000  0.36202000  0.53398000  1.0
  O  O183  1  0.51753000  0.63797000  0.46602000  1.0
  O  O184  1  0.39224000  0.71334000  0.66425000  1.0
  O  O185  1  0.60776000  0.28666000  0.33575000  1.0
  O  O186  1  0.38636000  0.84599000  0.56408000  1.0
  O  O187  1  0.61364000  0.15401000  0.43591000  1.0
  O  O188  1  0.72466000  0.83246000  0.73646000  1.0
  O  O189  1  0.27534000  0.16754000  0.26354000  1.0
  O  O190  1  0.16764000  0.27562000  0.76354000  1.0
  O  O191  1  0.83236000  0.72438000  0.23646000  1.0
