# generated using pymatgen
data_NaVH9C8(NO3)2
_symmetry_space_group_name_H-M   'P 1'
_cell_length_a   7.91691000
_cell_length_b   8.35697000
_cell_length_c   9.07627000
_cell_angle_alpha   85.26120000
_cell_angle_beta   68.47850000
_cell_angle_gamma   79.60060000
_symmetry_Int_Tables_number   1
_chemical_formula_structural   NaVH9C8(NO3)2
_chemical_formula_sum   'Na2 V2 H18 C16 N4 O12'
_cell_volume   549.36713063
_cell_formula_units_Z   2
loop_
 _symmetry_equiv_pos_site_id
 _symmetry_equiv_pos_as_xyz
  1  'x, y, z'
loop_
 _atom_site_type_symbol
 _atom_site_label
 _atom_site_symmetry_multiplicity
 _atom_site_fract_x
 _atom_site_fract_y
 _atom_site_fract_z
 _atom_site_occupancy
  Na  Na0  1  0.45329000  0.59530000  0.34519000  1.0
  Na  Na1  1  0.54670000  0.40470000  0.65482000  1.0
  V  V2  1  0.23879000  0.22845000  0.27315000  1.0
  V  V3  1  0.76120000  0.77154000  0.72686000  1.0
  H  H4  1  0.02957000  0.76561000  0.34310000  1.0
  H  H5  1  0.97043000  0.23437000  0.65689000  1.0
  H  H6  1  0.00049000  0.58268000  0.15392000  1.0
  H  H7  1  0.99952000  0.41731000  0.84605000  1.0
  H  H8  1  0.11840000  0.64386000  0.86272000  1.0
  H  H9  1  0.88161000  0.35615000  0.13725000  1.0
  H  H10  1  0.26538000  0.88725000  0.76195000  1.0
  H  H11  1  0.73463000  0.11276000  0.23804000  1.0
  H  H12  1  0.37854000  0.12041000  0.80379000  1.0
  H  H13  1  0.62148000  0.87959000  0.19622000  1.0
  H  H14  1  0.83441000  0.46930000  0.39097000  1.0
  H  H15  1  0.16559000  0.53071000  0.60903000  1.0
  H  H16  1  0.49122000  0.84496000  0.51554000  1.0
  H  H17  1  0.50877000  0.15505000  0.48447000  1.0
  H  H18  1  0.72626000  0.64147000  0.46389000  1.0
  H  H19  1  0.27373000  0.35854000  0.53612000  1.0
  H  H20  1  0.34580000  0.95271000  0.45220000  1.0
  H  H21  1  0.65419000  0.04730000  0.54780000  1.0
  C  C22  1  0.16680000  0.92881000  0.15996000  1.0
  C  C23  1  0.83320000  0.07118000  0.84004000  1.0
  C  C24  1  0.08150000  0.79068000  0.21585000  1.0
  C  C25  1  0.91851000  0.20931000  0.78413000  1.0
  C  C26  1  0.06573000  0.68972000  0.10889000  1.0
  C  C27  1  0.93429000  0.31027000  0.89108000  1.0
  C  C28  1  0.13300000  0.72296000  0.94513000  1.0
  C  C29  1  0.86702000  0.27704000  0.05484000  1.0
  C  C30  1  0.21493000  0.85951000  0.88868000  1.0
  C  C31  1  0.78509000  0.14049000  0.11131000  1.0
  C  C32  1  0.23363000  0.96473000  0.99411000  1.0
  C  C33  1  0.76638000  0.03527000  0.00588000  1.0
  C  C34  1  0.32090000  0.10280000  0.93276000  1.0
  C  C35  1  0.67911000  0.89720000  0.06725000  1.0
  C  C36  1  0.45148000  0.42988000  0.03390000  1.0
  C  C37  1  0.54851000  0.57012000  0.96613000  1.0
  N  N38  1  0.34000000  0.21150000  0.01992000  1.0
  N  N39  1  0.66000000  0.78850000  0.98009000  1.0
  N  N40  1  0.43347000  0.33353000  0.93546000  1.0
  N  N41  1  0.56652000  0.66648000  0.06456000  1.0
  O  O42  1  0.18828000  0.02068000  0.26171000  1.0
  O  O43  1  0.81171000  0.97931000  0.73830000  1.0
  O  O44  1  0.38968000  0.40595000  0.18750000  1.0
  O  O45  1  0.61031000  0.59404000  0.81253000  1.0
  O  O46  1  0.03650000  0.34270000  0.33721000  1.0
  O  O47  1  0.96349000  0.65731000  0.66279000  1.0
  O  O48  1  0.32213000  0.18530000  0.42009000  1.0
  O  O49  1  0.67785000  0.81470000  0.57992000  1.0
  O  O50  1  0.39854000  0.83971000  0.46746000  1.0
  O  O51  1  0.60146000  0.16030000  0.53253000  1.0
  O  O52  1  0.71217000  0.54041000  0.42245000  1.0
  O  O53  1  0.28782000  0.45959000  0.57756000  1.0
