# generated using pymatgen
data_Zn2H9C30Br10N2Cl5O8
_symmetry_space_group_name_H-M   'P 1'
_cell_length_a   9.82065000
_cell_length_b   11.01820000
_cell_length_c   15.98030000
_cell_angle_alpha   88.46010000
_cell_angle_beta   86.96560000
_cell_angle_gamma   86.54620000
_symmetry_Int_Tables_number   1
_chemical_formula_structural   Zn2H9C30Br10N2Cl5O8
_chemical_formula_sum   'Zn2 H9 C30 Br10 N2 Cl5 O8'
_cell_volume   1723.11523351
_cell_formula_units_Z   1
loop_
 _symmetry_equiv_pos_site_id
 _symmetry_equiv_pos_as_xyz
  1  'x, y, z'
loop_
 _atom_site_type_symbol
 _atom_site_label
 _atom_site_symmetry_multiplicity
 _atom_site_fract_x
 _atom_site_fract_y
 _atom_site_fract_z
 _atom_site_occupancy
  Zn  Zn0  1  0.64940000  0.49764000  0.49475000  1.0
  Zn  Zn1  1  0.36092000  0.50333000  0.50254000  1.0
  H  H2  1  0.66337000  0.36069000  0.07045000  1.0
  H  H3  1  0.70303000  0.50321000  0.91483000  1.0
  H  H4  1  0.71224000  0.51171000  0.05828000  1.0
  H  H5  1  0.73845000  0.83091000  0.60424000  1.0
  H  H6  1  0.14876000  0.62456000  0.40580000  1.0
  H  H7  1  0.83500000  0.29874000  0.63454000  1.0
  H  H8  1  0.07780000  0.24181000  0.59067000  1.0
  H  H9  1  0.55695000  0.66693000  0.91612000  1.0
  H  H10  1  0.37749000  0.66052000  0.91956000  1.0
  C  C11  1  0.53383000  0.26504000  0.49533000  1.0
  C  C12  1  0.52463000  0.13012000  0.48677000  1.0
  C  C13  1  0.44787000  0.07921000  0.42571000  1.0
  C  C14  1  0.49713000  0.50018000  0.65888000  1.0
  C  C15  1  0.42776000  0.95278000  0.42467000  1.0
  C  C16  1  0.48205000  0.87172000  0.48579000  1.0
  C  C17  1  0.56033000  0.92371000  0.54358000  1.0
  C  C18  1  0.64717000  0.89093000  0.61689000  1.0
  C  C19  1  0.67731000  0.03249000  0.61436000  1.0
  C  C20  1  0.07017000  0.43305000  0.55577000  1.0
  C  C21  1  0.08597000  0.57079000  0.44910000  1.0
  C  C22  1  0.63619000  0.44913000  0.04161000  1.0
  C  C23  1  0.94240000  0.58235000  0.44858000  1.0
  C  C24  1  0.92882000  0.45175000  0.55861000  1.0
  C  C25  1  0.90723000  0.37050000  0.63557000  1.0
  C  C26  1  0.47067000  0.73654000  0.49021000  1.0
  C  C27  1  0.06630000  0.33059000  0.62074000  1.0
  C  C28  1  0.50911000  0.50096000  0.33636000  1.0
  C  C29  1  0.63342000  0.44007000  0.94604000  1.0
  C  C30  1  0.36894000  0.41099000  0.95726000  1.0
  C  C31  1  0.38610000  0.40176000  0.05590000  1.0
  C  C32  1  0.50827000  0.50169000  0.24600000  1.0
  C  C33  1  0.49423000  0.49659000  0.08055000  1.0
  C  C34  1  0.48922000  0.48339000  0.91583000  1.0
  C  C35  1  0.46815000  0.62733000  0.04036000  1.0
  C  C36  1  0.47107000  0.61836000  0.94431000  1.0
  C  C37  1  0.49968000  0.50043000  0.17068000  1.0
  C  C38  1  0.48848000  0.48513000  0.82521000  1.0
  C  C39  1  0.49415000  0.49403000  0.74935000  1.0
  C  C40  1  0.58293000  0.04682000  0.54334000  1.0
  Br  Br41  1  0.29785000  0.71414000  0.08316000  1.0
  Br  Br42  1  0.21157000  0.41936000  0.12272000  1.0
  Br  Br43  1  0.37676000  0.18415000  0.34051000  1.0
  Br  Br44  1  0.33388000  0.88884000  0.33658000  1.0
  Br  Br45  1  0.63206000  0.12967000  0.71239000  1.0
  Br  Br46  1  0.87244000  0.04831000  0.57694000  1.0
  Br  Br47  1  0.86546000  0.69148000  0.36977000  1.0
  Br  Br48  1  0.18220000  0.31816000  0.71453000  1.0
  Br  Br49  1  0.19581000  0.49848000  0.92612000  1.0
  Br  Br50  1  0.35975000  0.25164000  0.90598000  1.0
  N  N51  1  0.15180000  0.49292000  0.50210000  1.0
  N  N52  1  0.85998000  0.52054000  0.50308000  1.0
  Cl  Cl53  1  0.56062000  0.83219000  0.70805000  1.0
  Cl  Cl54  1  0.69910000  0.29417000  0.91105000  1.0
  Cl  Cl55  1  0.87198000  0.45704000  0.72674000  1.0
  Cl  Cl56  1  0.45353000  0.25443000  0.08837000  1.0
  Cl  Cl57  1  0.60147000  0.72154000  0.06924000  1.0
  O  O58  1  0.65095000  0.30776000  0.48850000  1.0
  O  O59  1  0.41993000  0.32254000  0.51136000  1.0
  O  O60  1  0.61246000  0.47785000  0.62062000  1.0
  O  O61  1  0.38371000  0.52660000  0.62600000  1.0
  O  O62  1  0.58481000  0.67796000  0.49992000  1.0
  O  O63  1  0.35514000  0.69285000  0.48686000  1.0
  O  O64  1  0.62510000  0.50024000  0.36839000  1.0
  O  O65  1  0.39247000  0.50035000  0.37499000  1.0
