# generated using pymatgen
data_Zn4H30C61(N8O)2
_symmetry_space_group_name_H-M   'P 1'
_cell_length_a   19.26030000
_cell_length_b   20.23410000
_cell_length_c   20.27360000
_cell_angle_alpha   107.65600000
_cell_angle_beta   108.09800000
_cell_angle_gamma   111.11700000
_symmetry_Int_Tables_number   1
_chemical_formula_structural   Zn4H30C61(N8O)2
_chemical_formula_sum   'Zn4 H30 C61 N16 O2'
_cell_volume   6190.12500055
_cell_formula_units_Z   1
loop_
 _symmetry_equiv_pos_site_id
 _symmetry_equiv_pos_as_xyz
  1  'x, y, z'
loop_
 _atom_site_type_symbol
 _atom_site_label
 _atom_site_symmetry_multiplicity
 _atom_site_fract_x
 _atom_site_fract_y
 _atom_site_fract_z
 _atom_site_occupancy
  Zn  Zn0  1  0.89314000  0.88901000  0.50768000  1.0
  Zn  Zn1  1  0.12674000  0.11504000  0.51643000  1.0
  Zn  Zn2  1  0.10914000  0.99917000  0.61475000  1.0
  Zn  Zn3  1  0.90574000  0.00596000  0.41079000  1.0
  H  H4  1  0.87887000  0.99826000  0.65089000  1.0
  H  H5  1  0.87226000  0.47454000  0.32160000  1.0
  H  H6  1  0.87398000  0.35285000  0.32207000  1.0
  H  H7  1  0.46777000  0.50731000  0.15327000  1.0
  H  H8  1  0.34066000  0.38995000  0.03304000  1.0
  H  H9  1  0.36528000  0.52569000  0.90555000  1.0
  H  H10  1  0.49233000  0.64310000  0.02578000  1.0
  H  H11  1  0.85343000  0.04143000  0.90982000  1.0
  H  H12  1  0.85842000  0.04857000  0.03572000  1.0
  H  H13  1  0.12985000  0.19349000  0.15242000  1.0
  H  H14  1  0.12479000  0.18615000  0.02643000  1.0
  H  H15  1  0.20043000  0.02800000  0.42481000  1.0
  H  H16  1  0.13801000  0.14322000  0.76660000  1.0
  H  H17  1  0.80260000  0.07613000  0.46766000  1.0
  H  H18  1  0.24266000  0.29619000  0.67272000  1.0
  H  H19  1  0.70288000  0.86483000  0.49880000  1.0
  H  H20  1  0.11771000  0.02726000  0.79655000  1.0
  H  H21  1  0.77989000  0.72408000  0.35182000  1.0
  H  H22  1  0.82371000  0.63718000  0.39064000  1.0
  H  H23  1  0.87227000  0.65185000  0.48738000  1.0
  H  H24  1  0.81287000  0.69946000  0.46644000  1.0
  H  H25  1  0.16115000  0.33611000  0.53055000  1.0
  H  H26  1  0.12127000  0.86272000  0.49135000  1.0
  H  H27  1  0.85299000  0.16336000  0.33042000  1.0
  H  H28  1  0.89728000  0.96510000  0.25000000  1.0
  H  H29  1  0.15581000  0.16188000  0.37723000  1.0
  H  H30  1  0.73215000  0.86688000  0.24154000  1.0
  H  H31  1  0.28660000  0.98328000  0.62284000  1.0
  H  H32  1  0.14618000  0.48246000  0.43311000  1.0
  H  H33  1  0.14439000  0.60444000  0.43339000  1.0
  C  C34  1  0.93844000  0.99953000  0.67483000  1.0
  C  C35  1  0.93439000  0.75260000  0.47169000  1.0
  C  C36  1  0.75709000  0.84365000  0.27892000  1.0
  C  C37  1  0.06856000  0.23506000  0.49773000  1.0
  C  C38  1  0.25665000  0.99805000  0.57900000  1.0
  C  C39  1  0.72079000  0.76546000  0.27050000  1.0
  C  C40  1  0.26918000  0.99854000  0.51399000  1.0
  C  C41  1  0.00164000  0.75348000  0.45652000  1.0
  C  C42  1  0.02045000  0.07115000  0.28509000  1.0
  C  C43  1  0.64775000  0.97685000  0.47434000  1.0
  C  C44  1  0.58178000  0.97494000  0.46986000  1.0
  C  C45  1  0.00510000  0.23615000  0.43986000  1.0
  C  C46  1  0.51166000  0.97395000  0.46913000  1.0
  C  C47  1  0.44867000  0.97421000  0.47234000  1.0
  C  C48  1  0.38408000  0.97804000  0.48155000  1.0
  C  C49  1  0.15866000  0.16827000  0.73146000  1.0
  C  C50  1  0.32811000  0.98539000  0.49422000  1.0
  C  C51  1  0.08527000  0.54921000  0.40897000  1.0
  C  C52  1  0.00840000  0.54948000  0.38156000  1.0
  C  C53  1  0.93221000  0.47616000  0.34621000  1.0
  C  C54  1  0.93314000  0.40806000  0.34643000  1.0
  C  C55  1  0.01044000  0.41031000  0.38172000  1.0
  C  C56  1  0.20541000  0.24977000  0.75168000  1.0
  C  C57  1  0.08625000  0.48100000  0.40899000  1.0
  C  C58  1  0.00736000  0.62211000  0.39724000  1.0
  C  C59  1  0.01148000  0.34625000  0.39557000  1.0
  C  C60  1  0.00986000  0.29516000  0.41658000  1.0
  C  C61  1  0.79079000  0.02375000  0.47668000  1.0
  C  C62  1  0.00742000  0.68530000  0.42227000  1.0
  C  C63  1  0.37398000  0.44556000  0.03171000  1.0
  C  C64  1  0.34617000  0.44845000  0.95993000  1.0
  C  C65  1  0.38790000  0.52205000  0.96001000  1.0
  C  C66  1  0.45885000  0.58749000  0.02706000  1.0
  C  C67  1  0.72057000  0.97336000  0.48069000  1.0
  C  C68  1  0.49112000  0.58233000  0.09705000  1.0
  C  C69  1  0.44516000  0.51108000  0.09886000  1.0
  C  C70  1  0.28500000  0.37842000  0.88788000  1.0
  C  C71  1  0.56982000  0.64586000  0.16120000  1.0
  C  C72  1  0.64088000  0.70000000  0.21202000  1.0
  C  C73  1  0.21328000  0.24724000  0.68428000  1.0
  C  C74  1  0.24358000  0.31798000  0.82435000  1.0
  C  C75  1  0.91669000  0.07876000  0.03354000  1.0
  C  C76  1  0.99489000  0.11732000  0.10186000  1.0
  C  C77  1  0.06943000  0.16021000  0.09910000  1.0
  C  C78  1  0.78177000  0.77098000  0.33580000  1.0
  C  C79  1  0.06657000  0.15602000  0.02870000  1.0
  C  C80  1  0.98911000  0.10897000  0.95829000  1.0
  C  C81  1  0.91385000  0.07474000  0.96312000  1.0
  C  C82  1  0.00011000  0.10661000  0.16865000  1.0
  C  C83  1  0.98841000  0.08863000  0.88471000  1.0
  C  C84  1  0.98915000  0.06108000  0.82244000  1.0
  C  C85  1  0.73948000  0.91511000  0.49206000  1.0
  C  C86  1  0.00843000  0.08921000  0.22225000  1.0
  C  C87  1  0.93388000  0.16086000  0.41048000  1.0
  C  C88  1  0.06042000  0.01378000  0.74919000  1.0
  C  C89  1  0.21212000  0.02033000  0.47717000  1.0
  C  C90  1  0.99481000  0.02753000  0.75385000  1.0
  C  C91  1  0.85639000  0.68184000  0.45284000  1.0
  C  C92  1  0.06029000  0.83551000  0.48943000  1.0
  C  C93  1  0.96239000  0.01082000  0.29260000  1.0
  C  C94  1  0.09470000  0.11143000  0.35732000  1.0
  N  N95  1  0.96829000  0.97157000  0.62773000  1.0
  N  N96  1  0.14145000  0.12111000  0.65867000  1.0
  N  N97  1  0.84613000  0.99706000  0.48441000  1.0
  N  N98  1  0.17610000  0.17063000  0.63033000  1.0
  N  N99  1  0.81382000  0.93026000  0.49387000  1.0
  N  N100  1  0.95347000  0.12115000  0.44804000  1.0
  N  N101  1  0.04385000  0.98034000  0.67384000  1.0
  N  N102  1  0.84810000  0.84642000  0.38017000  1.0
  N  N103  1  0.17052000  0.03270000  0.51764000  1.0
  N  N104  1  0.03141000  0.88040000  0.52252000  1.0
  N  N105  1  0.99837000  0.01587000  0.36397000  1.0
  N  N106  1  0.08022000  0.07776000  0.40297000  1.0
  N  N107  1  0.95365000  0.82874000  0.51139000  1.0
  N  N108  1  0.83215000  0.89039000  0.34417000  1.0
  N  N109  1  0.19831000  0.01895000  0.58049000  1.0
  N  N110  1  0.03903000  0.16756000  0.50338000  1.0
  O  O111  1  0.15191000  0.29137000  0.54245000  1.0
  O  O112  1  0.85444000  0.12685000  0.35246000  1.0
