# generated using pymatgen
data_TbH24C35N6O7
_symmetry_space_group_name_H-M   'P 1'
_cell_length_a   7.60357000
_cell_length_b   12.93210000
_cell_length_c   16.10300000
_cell_angle_alpha   100.11600000
_cell_angle_beta   99.71890000
_cell_angle_gamma   98.75390000
_symmetry_Int_Tables_number   1
_chemical_formula_structural   TbH24C35N6O7
_chemical_formula_sum   'Tb2 H48 C70 N12 O14'
_cell_volume   1509.20201814
_cell_formula_units_Z   2
loop_
 _symmetry_equiv_pos_site_id
 _symmetry_equiv_pos_as_xyz
  1  'x, y, z'
loop_
 _atom_site_type_symbol
 _atom_site_label
 _atom_site_symmetry_multiplicity
 _atom_site_fract_x
 _atom_site_fract_y
 _atom_site_fract_z
 _atom_site_occupancy
  Tb  Tb0  1  0.23552000  0.15404000  0.03910000  1.0
  Tb  Tb1  1  0.76449000  0.84596000  0.96090000  1.0
  H  H2  1  0.30789000  0.19164000  0.84704000  1.0
  H  H3  1  0.69209000  0.80836000  0.15296000  1.0
  H  H4  1  0.34555000  0.33051000  0.75714000  1.0
  H  H5  1  0.65444000  0.66948000  0.24286000  1.0
  H  H6  1  0.32841000  0.52055000  0.82085000  1.0
  H  H7  1  0.67157000  0.47945000  0.17915000  1.0
  H  H8  1  0.27907000  0.65149000  0.94441000  1.0
  H  H9  1  0.72092000  0.34850000  0.05559000  1.0
  H  H10  1  0.22132000  0.69014000  0.09140000  1.0
  H  H11  1  0.77869000  0.30986000  0.90860000  1.0
  H  H12  1  0.17576000  0.62711000  0.22723000  1.0
  H  H13  1  0.82424000  0.37289000  0.77277000  1.0
  H  H14  1  0.14314000  0.47350000  0.30451000  1.0
  H  H15  1  0.85687000  0.52651000  0.69549000  1.0
  H  H16  1  0.16400000  0.29198000  0.22775000  1.0
  H  H17  1  0.83602000  0.70803000  0.77226000  1.0
  H  H18  1  0.39227000  0.16391000  0.25986000  1.0
  H  H19  1  0.60773000  0.83609000  0.74014000  1.0
  H  H20  1  0.42153000  0.18512000  0.42325000  1.0
  H  H21  1  0.57847000  0.81488000  0.57675000  1.0
  H  H22  1  0.17465000  0.31696000  0.38530000  1.0
  H  H23  1  0.82535000  0.68304000  0.61470000  1.0
  H  H24  1  0.46244000  0.40020000  0.49179000  1.0
  H  H25  1  0.53756000  0.59980000  0.50821000  1.0
  H  H26  1  0.45044000  0.48256000  0.64181000  1.0
  H  H27  1  0.54956000  0.51743000  0.35820000  1.0
  H  H28  1  0.15072000  0.47594000  0.68664000  1.0
  H  H29  1  0.84927000  0.52406000  0.31336000  1.0
  H  H30  1  0.86652000  0.38427000  0.58156000  1.0
  H  H31  1  0.13348000  0.61574000  0.41844000  1.0
  H  H32  1  0.19121000  0.10978000  0.32031000  1.0
  H  H33  1  0.80879000  0.89021000  0.67968000  1.0
  H  H34  1  0.08840000  0.07896000  0.45770000  1.0
  H  H35  1  0.91160000  0.92104000  0.54229000  1.0
  H  H36  1  0.56534000  0.93475000  0.45144000  1.0
  H  H37  1  0.43467000  0.06525000  0.54856000  1.0
  H  H38  1  0.24523000  0.85323000  0.44853000  1.0
  H  H39  1  0.75478000  0.14677000  0.55147000  1.0
  H  H40  1  0.02298000  0.79589000  0.30889000  1.0
  H  H41  1  0.97702000  0.20410000  0.69111000  1.0
  H  H42  1  0.12291000  0.82042000  0.17259000  1.0
  H  H43  1  0.87709000  0.17958000  0.82741000  1.0
  H  H44  1  0.44382000  0.89884000  0.17613000  1.0
  H  H45  1  0.55618000  0.10116000  0.82387000  1.0
  H  H46  1  0.87558000  0.20828000  0.05781000  1.0
  H  H47  1  0.12443000  0.79172000  0.94219000  1.0
  H  H48  1  0.84281000  0.12098000  0.97202000  1.0
  H  H49  1  0.15719000  0.87903000  0.02798000  1.0
  C  C50  1  0.29904000  0.27457000  0.87188000  1.0
  C  C51  1  0.70095000  0.72543000  0.12812000  1.0
  C  C52  1  0.31969000  0.35281000  0.82183000  1.0
  C  C53  1  0.68029000  0.64719000  0.17816000  1.0
  C  C54  1  0.30970000  0.45682000  0.85666000  1.0
  C  C55  1  0.69028000  0.54318000  0.14333000  1.0
  C  C56  1  0.27701000  0.48230000  0.94094000  1.0
  C  C57  1  0.72298000  0.51770000  0.05905000  1.0
  C  C58  1  0.26389000  0.58805000  0.98067000  1.0
  C  C59  1  0.73610000  0.41195000  0.01933000  1.0
  C  C60  1  0.23223000  0.60933000  0.06235000  1.0
  C  C61  1  0.76776000  0.39068000  0.93764000  1.0
  C  C62  1  0.21371000  0.52713000  0.11102000  1.0
  C  C63  1  0.78628000  0.47287000  0.88898000  1.0
  C  C64  1  0.18462000  0.54638000  0.19641000  1.0
  C  C65  1  0.81539000  0.45362000  0.80359000  1.0
  C  C66  1  0.16831000  0.46279000  0.23920000  1.0
  C  C67  1  0.83171000  0.53721000  0.76080000  1.0
  C  C68  1  0.18156000  0.36029000  0.19680000  1.0
  C  C69  1  0.81845000  0.63972000  0.80320000  1.0
  C  C70  1  0.22655000  0.42119000  0.07359000  1.0
  C  C71  1  0.77345000  0.57882000  0.92641000  1.0
  C  C72  1  0.25757000  0.39822000  0.98686000  1.0
  C  C73  1  0.74242000  0.60178000  0.01314000  1.0
  C  C74  1  0.66065000  0.23345000  0.17996000  1.0
  C  C75  1  0.33937000  0.76655000  0.82004000  1.0
  C  C76  1  0.67286000  0.24044000  0.27629000  1.0
  C  C77  1  0.32715000  0.75955000  0.72371000  1.0
  C  C78  1  0.51782000  0.20145000  0.30563000  1.0
  C  C79  1  0.48218000  0.79854000  0.69437000  1.0
  C  C80  1  0.53476000  0.21395000  0.39432000  1.0
  C  C81  1  0.46524000  0.78605000  0.60568000  1.0
  C  C82  1  0.83201000  0.29549000  0.41512000  1.0
  C  C83  1  0.16800000  0.70450000  0.58488000  1.0
  C  C84  1  0.00319000  0.34640000  0.47696000  1.0
  C  C85  1  0.99680000  0.65360000  0.52304000  1.0
  C  C86  1  0.17167000  0.35159000  0.45173000  1.0
  C  C87  1  0.82832000  0.64841000  0.54827000  1.0
  C  C88  1  0.33173000  0.39876000  0.51116000  1.0
  C  C89  1  0.66827000  0.60124000  0.48884000  1.0
  C  C90  1  0.32512000  0.44396000  0.59585000  1.0
  C  C91  1  0.67487000  0.55604000  0.40416000  1.0
  C  C92  1  0.15763000  0.43952000  0.62120000  1.0
  C  C93  1  0.84237000  0.56048000  0.37880000  1.0
  C  C94  1  0.99804000  0.38973000  0.56261000  1.0
  C  C95  1  0.00195000  0.61027000  0.43739000  1.0
  C  C96  1  0.99037000  0.03205000  0.15656000  1.0
  C  C97  1  0.00964000  0.96795000  0.84344000  1.0
  C  C98  1  0.93273000  0.02608000  0.24186000  1.0
  C  C99  1  0.06727000  0.97392000  0.75814000  1.0
  C  C100  1  0.05493000  0.06950000  0.31957000  1.0
  C  C101  1  0.94507000  0.93050000  0.68042000  1.0
  C  C102  1  0.99694000  0.05334000  0.39467000  1.0
  C  C103  1  0.00306000  0.94666000  0.60533000  1.0
  C  C104  1  0.71597000  0.96969000  0.31603000  1.0
  C  C105  1  0.28403000  0.03031000  0.68397000  1.0
  C  C106  1  0.52576000  0.92070000  0.31403000  1.0
  C  C107  1  0.47425000  0.07930000  0.68596000  1.0
  C  C108  1  0.46759000  0.90819000  0.39068000  1.0
  C  C109  1  0.53242000  0.09181000  0.60932000  1.0
  C  C110  1  0.28791000  0.86315000  0.38873000  1.0
  C  C111  1  0.71209000  0.13685000  0.61127000  1.0
  C  C112  1  0.16398000  0.83029000  0.31020000  1.0
  C  C113  1  0.83603000  0.16971000  0.68980000  1.0
  C  C114  1  0.22023000  0.84342000  0.23381000  1.0
  C  C115  1  0.77978000  0.15658000  0.76619000  1.0
  C  C116  1  0.39998000  0.88797000  0.23543000  1.0
  C  C117  1  0.60002000  0.11203000  0.76457000  1.0
  C  C118  1  0.54170000  0.03727000  0.97296000  1.0
  C  C119  1  0.45830000  0.96273000  0.02704000  1.0
  N  N120  1  0.26945000  0.29647000  0.95191000  1.0
  N  N121  1  0.73054000  0.70353000  0.04809000  1.0
  N  N122  1  0.21121000  0.34004000  0.11690000  1.0
  N  N123  1  0.78880000  0.65997000  0.88311000  1.0
  N  N124  1  0.68877000  0.26274000  0.44944000  1.0
  N  N125  1  0.31123000  0.73726000  0.55056000  1.0
  N  N126  1  0.83126000  0.28522000  0.33026000  1.0
  N  N127  1  0.16875000  0.71477000  0.66974000  1.0
  N  N128  1  0.82839000  0.00427000  0.39392000  1.0
  N  N129  1  0.17162000  0.99573000  0.60608000  1.0
  N  N130  1  0.76413000  0.97581000  0.23985000  1.0
  N  N131  1  0.23587000  0.02418000  0.76014000  1.0
  O  O132  1  0.49918000  0.22410000  0.13717000  1.0
  O  O133  1  0.50083000  0.77590000  0.86283000  1.0
  O  O134  1  0.80421000  0.23927000  0.15125000  1.0
  O  O135  1  0.19581000  0.76073000  0.84876000  1.0
  O  O136  1  0.11966000  0.10775000  0.15816000  1.0
  O  O137  1  0.88035000  0.89225000  0.84184000  1.0
  O  O138  1  0.91001000  0.96189000  0.09048000  1.0
  O  O139  1  0.08999000  0.03811000  0.90951000  1.0
  O  O140  1  0.67369000  0.00932000  0.94055000  1.0
  O  O141  1  0.32632000  0.99068000  0.05945000  1.0
  O  O142  1  0.47729000  0.11961000  0.96528000  1.0
  O  O143  1  0.52271000  0.88039000  0.03471000  1.0
  O  O144  1  0.93106000  0.18438000  0.00730000  1.0
  O  O145  1  0.06895000  0.81562000  0.99270000  1.0
