# generated using pymatgen
data_HoZnH12C15N2O13
_symmetry_space_group_name_H-M   'P 1'
_cell_length_a   9.66804000
_cell_length_b   10.51790000
_cell_length_c   10.86930000
_cell_angle_alpha   80.74080000
_cell_angle_beta   72.42600000
_cell_angle_gamma   75.93780000
_symmetry_Int_Tables_number   1
_chemical_formula_structural   HoZnH12C15N2O13
_chemical_formula_sum   'Ho2 Zn2 H24 C30 N4 O26'
_cell_volume   1017.52027312
_cell_formula_units_Z   2
loop_
 _symmetry_equiv_pos_site_id
 _symmetry_equiv_pos_as_xyz
  1  'x, y, z'
loop_
 _atom_site_type_symbol
 _atom_site_label
 _atom_site_symmetry_multiplicity
 _atom_site_fract_x
 _atom_site_fract_y
 _atom_site_fract_z
 _atom_site_occupancy
  Ho  Ho0  1  0.82259000  0.30730000  0.46683000  1.0
  Ho  Ho1  1  0.17741000  0.69270000  0.53317000  1.0
  Zn  Zn2  1  0.69785000  0.13232000  0.88728000  1.0
  Zn  Zn3  1  0.30215000  0.86768000  0.11272000  1.0
  H  H4  1  0.20941000  0.23733000  0.01347000  1.0
  H  H5  1  0.79058000  0.76267000  0.98654000  1.0
  H  H6  1  0.16441000  0.33034000  0.79533000  1.0
  H  H7  1  0.83558000  0.66966000  0.20467000  1.0
  H  H8  1  0.93973000  0.29394000  0.74880000  1.0
  H  H9  1  0.06026000  0.70606000  0.25121000  1.0
  H  H10  1  0.17309000  0.57944000  0.96900000  1.0
  H  H11  1  0.82691000  0.42056000  0.03100000  1.0
  H  H12  1  0.24573000  0.45550000  0.16655000  1.0
  H  H13  1  0.75427000  0.54450000  0.83344000  1.0
  H  H14  1  0.46994000  0.27104000  0.13302000  1.0
  H  H15  1  0.53006000  0.72895000  0.86698000  1.0
  H  H16  1  0.08643000  0.09917000  0.50500000  1.0
  H  H17  1  0.91357000  0.90082000  0.49500000  1.0
  H  H18  1  0.95391000  0.08180000  0.63116000  1.0
  H  H19  1  0.04609000  0.91820000  0.36884000  1.0
  H  H20  1  0.74031000  0.08307000  0.39078000  1.0
  H  H21  1  0.25970000  0.91693000  0.60922000  1.0
  H  H22  1  0.61171000  0.14093000  0.50596000  1.0
  H  H23  1  0.38831000  0.85907000  0.49403000  1.0
  H  H24  1  0.63860000  0.97994000  0.75613000  1.0
  H  H25  1  0.36141000  0.02005000  0.24387000  1.0
  H  H26  1  0.48028000  0.99537000  0.86302000  1.0
  H  H27  1  0.51971000  0.00463000  0.13698000  1.0
  C  C28  1  0.77415000  0.06741000  0.13170000  1.0
  C  C29  1  0.22585000  0.93259000  0.86830000  1.0
  C  C30  1  0.88863000  0.14273000  0.04430000  1.0
  C  C31  1  0.11137000  0.85727000  0.95571000  1.0
  C  C32  1  0.01010000  0.16000000  0.07963000  1.0
  C  C33  1  0.98990000  0.84000000  0.92036000  1.0
  C  C34  1  0.11259000  0.22576000  0.98850000  1.0
  C  C35  1  0.88740000  0.77425000  0.01151000  1.0
  C  C36  1  0.08956000  0.27569000  0.86814000  1.0
  C  C37  1  0.91043000  0.72431000  0.13187000  1.0
  C  C38  1  0.96451000  0.25675000  0.84093000  1.0
  C  C39  1  0.03548000  0.74326000  0.15908000  1.0
  C  C40  1  0.02959000  0.11719000  0.21306000  1.0
  C  C41  1  0.97041000  0.88281000  0.78694000  1.0
  C  C42  1  0.58836000  0.32639000  0.69961000  1.0
  C  C43  1  0.41164000  0.67362000  0.30039000  1.0
  C  C44  1  0.48090000  0.36437000  0.82653000  1.0
  C  C45  1  0.51910000  0.63563000  0.17347000  1.0
  C  C46  1  0.35779000  0.46838000  0.83507000  1.0
  C  C47  1  0.64221000  0.53162000  0.16493000  1.0
  C  C48  1  0.27138000  0.50070000  0.95934000  1.0
  C  C49  1  0.72862000  0.49929000  0.04066000  1.0
  C  C50  1  0.31057000  0.43225000  0.06864000  1.0
  C  C51  1  0.68943000  0.56774000  0.93136000  1.0
  C  C52  1  0.43453000  0.32878000  0.05108000  1.0
  C  C53  1  0.56547000  0.67121000  0.94892000  1.0
  C  C54  1  0.31161000  0.54605000  0.71941000  1.0
  C  C55  1  0.68839000  0.45395000  0.28059000  1.0
  C  C56  1  0.06090000  0.47969000  0.43743000  1.0
  C  C57  1  0.93911000  0.52031000  0.56256000  1.0
  N  N58  1  0.86872000  0.19087000  0.92687000  1.0
  N  N59  1  0.13128000  0.80913000  0.07314000  1.0
  N  N60  1  0.51573000  0.29520000  0.93281000  1.0
  N  N61  1  0.48426000  0.70480000  0.06718000  1.0
  O  O62  1  0.67833000  0.04893000  0.07852000  1.0
  O  O63  1  0.32167000  0.95106000  0.92149000  1.0
  O  O64  1  0.77962000  0.02560000  0.24453000  1.0
  O  O65  1  0.22038000  0.97440000  0.75547000  1.0
  O  O66  1  0.96195000  0.19800000  0.29565000  1.0
  O  O67  1  0.03806000  0.80200000  0.70435000  1.0
  O  O68  1  0.11646000  0.00916000  0.23434000  1.0
  O  O69  1  0.88354000  0.99084000  0.76566000  1.0
  O  O70  1  0.70428000  0.23534000  0.70298000  1.0
  O  O71  1  0.29572000  0.76466000  0.29702000  1.0
  O  O72  1  0.56885000  0.38491000  0.59407000  1.0
  O  O73  1  0.43115000  0.61510000  0.40593000  1.0
  O  O74  1  0.33985000  0.65955000  0.68422000  1.0
  O  O75  1  0.66015000  0.34045000  0.31578000  1.0
  O  O76  1  0.23318000  0.49844000  0.66994000  1.0
  O  O77  1  0.76681000  0.50157000  0.33006000  1.0
  O  O78  1  0.04768000  0.38693000  0.38398000  1.0
  O  O79  1  0.95233000  0.61307000  0.61602000  1.0
  O  O80  1  0.16386000  0.54436000  0.39814000  1.0
  O  O81  1  0.83615000  0.45564000  0.60185000  1.0
  O  O82  1  0.99261000  0.14549000  0.55729000  1.0
  O  O83  1  0.00739000  0.85451000  0.44271000  1.0
  O  O84  1  0.71853000  0.10706000  0.48107000  1.0
  O  O85  1  0.28149000  0.89294000  0.51892000  1.0
  O  O86  1  0.58750000  0.00043000  0.84475000  1.0
  O  O87  1  0.41249000  0.99957000  0.15525000  1.0
