# generated using pymatgen
data_ZnH56C48(NO2)2
_symmetry_space_group_name_H-M   'P 1'
_cell_length_a   8.26360000
_cell_length_b   11.74440000
_cell_length_c   26.04770000
_cell_angle_alpha   89.99980000
_cell_angle_beta   93.54420000
_cell_angle_gamma   89.99950000
_symmetry_Int_Tables_number   1
_chemical_formula_structural   ZnH56C48(NO2)2
_chemical_formula_sum   'Zn2 H112 C96 N4 O8'
_cell_volume   2523.12100121
_cell_formula_units_Z   2
loop_
 _symmetry_equiv_pos_site_id
 _symmetry_equiv_pos_as_xyz
  1  'x, y, z'
loop_
 _atom_site_type_symbol
 _atom_site_label
 _atom_site_symmetry_multiplicity
 _atom_site_fract_x
 _atom_site_fract_y
 _atom_site_fract_z
 _atom_site_occupancy
  Zn  Zn0  1  0.00001000  0.50000000  0.50000000  1.0
  Zn  Zn1  1  0.50002000  0.00000000  0.00000000  1.0
  H  H2  1  0.98548000  0.49922000  0.73783000  1.0
  H  H3  1  0.51445000  0.99925000  0.76217000  1.0
  H  H4  1  0.01448000  0.50076000  0.26217000  1.0
  H  H5  1  0.48551000  0.00078000  0.23783000  1.0
  H  H6  1  0.30397000  0.33375000  0.63607000  1.0
  H  H7  1  0.19601000  0.83375000  0.86394000  1.0
  H  H8  1  0.69602000  0.66626000  0.36393000  1.0
  H  H9  1  0.80399000  0.16625000  0.13607000  1.0
  H  H10  1  0.90690000  0.76498000  0.66627000  1.0
  H  H11  1  0.59307000  0.26500000  0.83373000  1.0
  H  H12  1  0.09307000  0.23501000  0.33373000  1.0
  H  H13  1  0.40695000  0.73502000  0.16628000  1.0
  H  H14  1  0.69314000  0.77818000  0.65471000  1.0
  H  H15  1  0.80683000  0.27819000  0.84529000  1.0
  H  H16  1  0.30682000  0.22180000  0.34529000  1.0
  H  H17  1  0.19319000  0.72181000  0.15472000  1.0
  H  H18  1  0.81297000  0.72500000  0.60552000  1.0
  H  H19  1  0.68699000  0.22499000  0.89448000  1.0
  H  H20  1  0.18700000  0.27501000  0.39449000  1.0
  H  H21  1  0.31302000  0.77501000  0.10552000  1.0
  H  H22  1  0.63168000  0.55709000  0.59630000  1.0
  H  H23  1  0.86829000  0.05710000  0.90369000  1.0
  H  H24  1  0.36831000  0.44289000  0.40370000  1.0
  H  H25  1  0.13171000  0.94289000  0.09630000  1.0
  H  H26  1  0.51287000  0.59906000  0.64751000  1.0
  H  H27  1  0.98709000  0.09906000  0.85248000  1.0
  H  H28  1  0.48711000  0.40092000  0.35248000  1.0
  H  H29  1  0.01289000  0.90093000  0.14751000  1.0
  H  H30  1  0.60543000  0.46232000  0.64843000  1.0
  H  H31  1  0.89453000  0.96233000  0.85156000  1.0
  H  H32  1  0.39456000  0.53766000  0.35157000  1.0
  H  H33  1  0.10544000  0.03767000  0.14842000  1.0
  H  H34  1  0.71450000  0.52327000  0.73959000  1.0
  H  H35  1  0.78545000  0.02328000  0.76040000  1.0
  H  H36  1  0.28549000  0.47671000  0.26041000  1.0
  H  H37  1  0.21451000  0.97673000  0.23959000  1.0
  H  H38  1  0.63156000  0.66123000  0.72873000  1.0
  H  H39  1  0.86840000  0.16124000  0.77127000  1.0
  H  H40  1  0.36842000  0.33874000  0.27127000  1.0
  H  H41  1  0.13158000  0.83877000  0.22873000  1.0
  H  H42  1  0.83946000  0.64629000  0.74803000  1.0
  H  H43  1  0.66050000  0.14631000  0.75196000  1.0
  H  H44  1  0.16051000  0.35369000  0.25197000  1.0
  H  H45  1  0.33948000  0.85371000  0.24804000  1.0
  H  H46  1  0.21133000  0.25895000  0.80559000  1.0
  H  H47  1  0.28861000  0.75893000  0.69443000  1.0
  H  H48  1  0.78862000  0.74106000  0.19442000  1.0
  H  H49  1  0.71140000  0.24107000  0.30558000  1.0
  H  H50  1  0.10041000  0.22081000  0.74738000  1.0
  H  H51  1  0.39952000  0.72080000  0.75264000  1.0
  H  H52  1  0.89954000  0.77919000  0.25263000  1.0
  H  H53  1  0.60048000  0.27921000  0.24737000  1.0
  H  H54  1  0.03798000  0.33947000  0.78357000  1.0
  H  H55  1  0.46197000  0.83945000  0.71645000  1.0
  H  H56  1  0.96198000  0.66054000  0.21644000  1.0
  H  H57  1  0.53803000  0.16055000  0.28356000  1.0
  H  H58  1  0.21287000  0.52370000  0.78571000  1.0
  H  H59  1  0.28707000  0.02369000  0.71430000  1.0
  H  H60  1  0.78713000  0.47630000  0.21429000  1.0
  H  H61  1  0.71289000  0.97631000  0.28571000  1.0
  H  H62  1  0.39550000  0.52558000  0.75314000  1.0
  H  H63  1  0.10445000  0.02558000  0.74686000  1.0
  H  H64  1  0.60449000  0.47441000  0.24686000  1.0
  H  H65  1  0.89552000  0.97442000  0.25314000  1.0
  H  H66  1  0.38101000  0.44018000  0.80921000  1.0
  H  H67  1  0.11892000  0.94018000  0.69080000  1.0
  H  H68  1  0.61897000  0.55981000  0.19079000  1.0
  H  H69  1  0.88104000  0.05983000  0.30921000  1.0
  H  H70  1  0.48857000  0.35050000  0.70593000  1.0
  H  H71  1  0.01137000  0.85053000  0.79409000  1.0
  H  H72  1  0.51140000  0.64946000  0.29408000  1.0
  H  H73  1  0.98861000  0.14947000  0.20592000  1.0
  H  H74  1  0.36750000  0.22475000  0.70339000  1.0
  H  H75  1  0.13242000  0.72476000  0.79662000  1.0
  H  H76  1  0.63244000  0.77524000  0.29661000  1.0
  H  H77  1  0.86757000  0.27524000  0.20339000  1.0
  H  H78  1  0.46623000  0.26879000  0.76237000  1.0
  H  H79  1  0.03369000  0.76882000  0.73764000  1.0
  H  H80  1  0.53370000  0.73118000  0.23763000  1.0
  H  H81  1  0.96630000  0.23118000  0.26236000  1.0
  H  H82  1  0.33644000  0.52539000  0.46985000  1.0
  H  H83  1  0.16357000  0.02540000  0.03015000  1.0
  H  H84  1  0.66356000  0.47462000  0.53015000  1.0
  H  H85  1  0.83647000  0.97461000  0.96985000  1.0
  H  H86  1  0.57939000  0.64925000  0.47791000  1.0
  H  H87  1  0.92063000  0.14926000  0.02208000  1.0
  H  H88  1  0.42061000  0.35075000  0.52209000  1.0
  H  H89  1  0.07942000  0.85075000  0.97792000  1.0
  H  H90  1  0.30073000  0.87871000  0.56849000  1.0
  H  H91  1  0.19931000  0.37870000  0.93150000  1.0
  H  H92  1  0.69927000  0.12130000  0.43151000  1.0
  H  H93  1  0.80075000  0.62128000  0.06848000  1.0
  H  H94  1  0.06995000  0.74162000  0.55669000  1.0
  H  H95  1  0.43010000  0.24161000  0.94332000  1.0
  H  H96  1  0.93006000  0.25838000  0.44332000  1.0
  H  H97  1  0.56996000  0.75837000  0.05667000  1.0
  H  H98  1  0.58112000  0.93021000  0.55327000  1.0
  H  H99  1  0.91891000  0.43020000  0.94671000  1.0
  H  H100  1  0.41889000  0.06980000  0.44672000  1.0
  H  H101  1  0.08115000  0.56979000  0.05327000  1.0
  H  H102  1  0.73586000  0.77874000  0.47251000  1.0
  H  H103  1  0.76420000  0.27875000  0.02748000  1.0
  H  H104  1  0.26415000  0.22127000  0.52749000  1.0
  H  H105  1  0.23587000  0.72126000  0.97250000  1.0
  H  H106  1  0.81334000  0.01611000  0.57112000  1.0
  H  H107  1  0.68666000  0.51608000  0.92886000  1.0
  H  H108  1  0.18667000  0.98390000  0.42888000  1.0
  H  H109  1  0.31343000  0.48393000  0.07113000  1.0
  H  H110  1  0.04665000  0.14723000  0.56776000  1.0
  H  H111  1  0.45335000  0.64721000  0.93222000  1.0
  H  H112  1  0.95336000  0.85278000  0.43224000  1.0
  H  H113  1  0.54674000  0.35280000  0.06777000  1.0
  C  C114  1  0.10760000  0.42886000  0.59955000  1.0
  C  C115  1  0.39239000  0.92887000  0.90045000  1.0
  C  C116  1  0.89240000  0.57113000  0.40045000  1.0
  C  C117  1  0.60761000  0.07114000  0.09955000  1.0
  C  C118  1  0.97040000  0.50783000  0.60709000  1.0
  C  C119  1  0.52959000  0.00783000  0.89291000  1.0
  C  C120  1  0.02959000  0.49217000  0.39291000  1.0
  C  C121  1  0.47042000  0.99218000  0.10709000  1.0
  C  C122  1  0.92333000  0.52973000  0.65843000  1.0
  C  C123  1  0.57663000  0.02974000  0.84157000  1.0
  C  C124  1  0.07664000  0.47027000  0.34157000  1.0
  C  C125  1  0.42336000  0.97028000  0.15843000  1.0
  C  C126  1  0.01823000  0.48271000  0.69867000  1.0
  C  C127  1  0.48170000  0.98273000  0.80133000  1.0
  C  C128  1  0.98173000  0.51728000  0.30133000  1.0
  C  C129  1  0.51826000  0.01729000  0.19867000  1.0
  C  C130  1  0.15827000  0.41344000  0.69238000  1.0
  C  C131  1  0.34168000  0.91345000  0.80763000  1.0
  C  C132  1  0.84171000  0.58655000  0.30762000  1.0
  C  C133  1  0.65829000  0.08656000  0.19238000  1.0
  C  C134  1  0.19987000  0.38699000  0.64327000  1.0
  C  C135  1  0.30011000  0.88700000  0.85674000  1.0
  C  C136  1  0.80012000  0.61301000  0.35674000  1.0
  C  C137  1  0.69988000  0.11301000  0.14326000  1.0
  C  C138  1  0.77370000  0.60298000  0.66706000  1.0
  C  C139  1  0.72626000  0.10300000  0.83293000  1.0
  C  C140  1  0.22627000  0.39700000  0.33294000  1.0
  C  C141  1  0.27373000  0.89701000  0.16706000  1.0
  C  C142  1  0.79896000  0.72526000  0.64708000  1.0
  C  C143  1  0.70101000  0.22527000  0.85292000  1.0
  C  C144  1  0.20101000  0.27473000  0.35293000  1.0
  C  C145  1  0.29901000  0.77474000  0.14708000  1.0
  C  C146  1  0.62202000  0.55197000  0.63792000  1.0
  C  C147  1  0.87794000  0.05198000  0.86207000  1.0
  C  C148  1  0.37796000  0.44801000  0.36208000  1.0
  C  C149  1  0.12205000  0.94801000  0.13792000  1.0
  C  C150  1  0.73917000  0.60838000  0.72425000  1.0
  C  C151  1  0.76079000  0.10839000  0.77574000  1.0
  C  C152  1  0.26081000  0.39160000  0.27575000  1.0
  C  C153  1  0.23919000  0.89162000  0.22426000  1.0
  C  C154  1  0.25456000  0.36965000  0.74036000  1.0
  C  C155  1  0.24537000  0.86966000  0.75965000  1.0
  C  C156  1  0.74541000  0.63033000  0.25965000  1.0
  C  C157  1  0.75460000  0.13034000  0.24035000  1.0
  C  C158  1  0.14414000  0.29300000  0.77114000  1.0
  C  C159  1  0.35580000  0.79299000  0.72887000  1.0
  C  C160  1  0.85582000  0.70701000  0.22887000  1.0
  C  C161  1  0.64419000  0.20702000  0.27114000  1.0
  C  C162  1  0.31413000  0.47101000  0.77407000  1.0
  C  C163  1  0.18581000  0.97101000  0.72594000  1.0
  C  C164  1  0.68586000  0.52898000  0.22593000  1.0
  C  C165  1  0.81416000  0.02899000  0.27407000  1.0
  C  C166  1  0.40257000  0.29958000  0.72686000  1.0
  C  C167  1  0.09736000  0.79960000  0.77315000  1.0
  C  C168  1  0.59738000  0.70039000  0.27315000  1.0
  C  C169  1  0.90262000  0.20040000  0.22685000  1.0
  C  C170  1  0.33442000  0.60505000  0.49115000  1.0
  C  C171  1  0.16560000  0.10504000  0.00885000  1.0
  C  C172  1  0.66558000  0.39496000  0.50885000  1.0
  C  C173  1  0.83444000  0.89495000  0.99115000  1.0
  C  C174  1  0.46890000  0.67511000  0.49559000  1.0
  C  C175  1  0.03112000  0.17512000  0.00440000  1.0
  C  C176  1  0.53111000  0.32490000  0.50441000  1.0
  C  C177  1  0.96893000  0.82489000  0.99559000  1.0
  C  C178  1  0.46058000  0.77797000  0.52321000  1.0
  C  C179  1  0.03946000  0.27797000  0.97679000  1.0
  C  C180  1  0.53943000  0.22204000  0.47679000  1.0
  C  C181  1  0.96060000  0.72203000  0.02320000  1.0
  C  C182  1  0.31457000  0.80077000  0.54640000  1.0
  C  C183  1  0.18547000  0.30076000  0.95359000  1.0
  C  C184  1  0.68544000  0.19924000  0.45360000  1.0
  C  C185  1  0.81458000  0.69922000  0.04639000  1.0
  C  C186  1  0.18525000  0.72528000  0.53977000  1.0
  C  C187  1  0.31479000  0.22526000  0.96023000  1.0
  C  C188  1  0.81476000  0.27473000  0.46023000  1.0
  C  C189  1  0.68526000  0.77472000  0.03976000  1.0
  C  C190  1  0.59455000  0.85816000  0.52727000  1.0
  C  C191  1  0.90548000  0.35817000  0.97271000  1.0
  C  C192  1  0.40545000  0.14184000  0.47272000  1.0
  C  C193  1  0.09458000  0.64184000  0.02727000  1.0
  C  C194  1  0.72756000  0.84938000  0.49961000  1.0
  C  C195  1  0.77249000  0.34939000  0.00038000  1.0
  C  C196  1  0.27245000  0.15062000  0.50039000  1.0
  C  C197  1  0.22758000  0.65062000  0.99961000  1.0
  C  C198  1  0.86475000  0.92627000  0.50117000  1.0
  C  C199  1  0.63529000  0.42626000  0.99882000  1.0
  C  C200  1  0.13526000  0.07374000  0.49883000  1.0
  C  C201  1  0.36478000  0.57374000  0.00117000  1.0
  C  C202  1  0.89428000  0.00923000  0.53973000  1.0
  C  C203  1  0.60573000  0.50921000  0.96026000  1.0
  C  C204  1  0.10573000  0.99078000  0.46027000  1.0
  C  C205  1  0.39434000  0.49080000  0.03974000  1.0
  C  C206  1  0.02587000  0.08188000  0.53827000  1.0
  C  C207  1  0.47416000  0.58187000  0.96171000  1.0
  C  C208  1  0.97416000  0.91812000  0.46172000  1.0
  C  C209  1  0.52593000  0.41814000  0.03828000  1.0
  N  N210  1  0.19326000  0.62934000  0.51200000  1.0
  N  N211  1  0.30676000  0.12933000  0.98801000  1.0
  N  N212  1  0.80674000  0.37067000  0.48801000  1.0
  N  N213  1  0.69328000  0.87066000  0.01199000  1.0
  O  O214  1  0.14013000  0.40140000  0.55337000  1.0
  O  O215  1  0.35988000  0.90140000  0.94664000  1.0
  O  O216  1  0.85988000  0.59860000  0.44663000  1.0
  O  O217  1  0.64014000  0.09860000  0.05337000  1.0
  O  O218  1  0.89916000  0.55418000  0.56694000  1.0
  O  O219  1  0.60084000  0.05417000  0.93306000  1.0
  O  O220  1  0.10084000  0.44583000  0.43307000  1.0
  O  O221  1  0.39919000  0.94583000  0.06694000  1.0
