# generated using pymatgen
data_KH11C9O4
_symmetry_space_group_name_H-M   'P 1'
_cell_length_a   6.89517000
_cell_length_b   9.04541000
_cell_length_c   16.14540000
_cell_angle_alpha   89.99980000
_cell_angle_beta   88.08650000
_cell_angle_gamma   89.99990000
_symmetry_Int_Tables_number   1
_chemical_formula_structural   KH11C9O4
_chemical_formula_sum   'K4 H44 C36 O16'
_cell_volume   1006.42126275
_cell_formula_units_Z   4
loop_
 _symmetry_equiv_pos_site_id
 _symmetry_equiv_pos_as_xyz
  1  'x, y, z'
loop_
 _atom_site_type_symbol
 _atom_site_label
 _atom_site_symmetry_multiplicity
 _atom_site_fract_x
 _atom_site_fract_y
 _atom_site_fract_z
 _atom_site_occupancy
  K  K0  1  0.26058000  0.36850000  0.53509000  1.0
  K  K1  1  0.23943000  0.86850000  0.46491000  1.0
  K  K2  1  0.73943000  0.63151000  0.46491000  1.0
  K  K3  1  0.76058000  0.13150000  0.53509000  1.0
  H  H4  1  0.16730000  0.55887000  0.98470000  1.0
  H  H5  1  0.33271000  0.05887000  0.01529000  1.0
  H  H6  1  0.83271000  0.44114000  0.01530000  1.0
  H  H7  1  0.66730000  0.94111000  0.98471000  1.0
  H  H8  1  0.87068000  0.68787000  0.76436000  1.0
  H  H9  1  0.62932000  0.18786000  0.23564000  1.0
  H  H10  1  0.12932000  0.31213000  0.23564000  1.0
  H  H11  1  0.37069000  0.81212000  0.76436000  1.0
  H  H12  1  0.88986000  0.68062000  0.91598000  1.0
  H  H13  1  0.61015000  0.18061000  0.08402000  1.0
  H  H14  1  0.11014000  0.31939000  0.08402000  1.0
  H  H15  1  0.38987000  0.81936000  0.91598000  1.0
  H  H16  1  0.45323000  0.32717000  0.93714000  1.0
  H  H17  1  0.04677000  0.82718000  0.06286000  1.0
  H  H18  1  0.54676000  0.67283000  0.06286000  1.0
  H  H19  1  0.95322000  0.17283000  0.93714000  1.0
  H  H20  1  0.58032000  0.49582000  0.92713000  1.0
  H  H21  1  0.91967000  0.99582000  0.07287000  1.0
  H  H22  1  0.41967000  0.50418000  0.07287000  1.0
  H  H23  1  0.08032000  0.00418000  0.92714000  1.0
  H  H24  1  0.73567000  0.40590000  0.80355000  1.0
  H  H25  1  0.76434000  0.90589000  0.19644000  1.0
  H  H26  1  0.26433000  0.59412000  0.19644000  1.0
  H  H27  1  0.23566000  0.09412000  0.80356000  1.0
  H  H28  1  0.59449000  0.24337000  0.80867000  1.0
  H  H29  1  0.90552000  0.74337000  0.19133000  1.0
  H  H30  1  0.40552000  0.75663000  0.19134000  1.0
  H  H31  1  0.09447000  0.25663000  0.80867000  1.0
  H  H32  1  0.22781000  0.08480000  0.62046000  1.0
  H  H33  1  0.27219000  0.58480000  0.37954000  1.0
  H  H34  1  0.77219000  0.91520000  0.37954000  1.0
  H  H35  1  0.72781000  0.41520000  0.62046000  1.0
  H  H36  1  0.49158000  0.22584000  0.38901000  1.0
  H  H37  1  0.00842000  0.72584000  0.61099000  1.0
  H  H38  1  0.50842000  0.77416000  0.61099000  1.0
  H  H39  1  0.99158000  0.27416000  0.38901000  1.0
  H  H40  1  0.65471000  0.34890000  0.39007000  1.0
  H  H41  1  0.84529000  0.84890000  0.60993000  1.0
  H  H42  1  0.34528000  0.65111000  0.60993000  1.0
  H  H43  1  0.15472000  0.15110000  0.39007000  1.0
  H  H44  1  0.43764000  0.01572000  0.61738000  1.0
  H  H45  1  0.06235000  0.51572000  0.38262000  1.0
  H  H46  1  0.56235000  0.98428000  0.38262000  1.0
  H  H47  1  0.93765000  0.48428000  0.61738000  1.0
  C  C48  1  0.13948000  0.57001000  0.73922000  1.0
  C  C49  1  0.36052000  0.07001000  0.26078000  1.0
  C  C50  1  0.86052000  0.42999000  0.26078000  1.0
  C  C51  1  0.63948000  0.92999000  0.73922000  1.0
  C  C52  1  0.29582000  0.49868000  0.78004000  1.0
  C  C53  1  0.20418000  0.99868000  0.21996000  1.0
  C  C54  1  0.70417000  0.50132000  0.21996000  1.0
  C  C55  1  0.79582000  0.00132000  0.78004000  1.0
  C  C56  1  0.30567000  0.49606000  0.86740000  1.0
  C  C57  1  0.19433000  0.99606000  0.13260000  1.0
  C  C58  1  0.69434000  0.50394000  0.13260000  1.0
  C  C59  1  0.80566000  0.00393000  0.86740000  1.0
  C  C60  1  0.16137000  0.56039000  0.91734000  1.0
  C  C61  1  0.33864000  0.06039000  0.08266000  1.0
  C  C62  1  0.83863000  0.43962000  0.08266000  1.0
  C  C63  1  0.66137000  0.93960000  0.91734000  1.0
  C  C64  1  0.46192000  0.42082000  0.74351000  1.0
  C  C65  1  0.03809000  0.92082000  0.25649000  1.0
  C  C66  1  0.53807000  0.57917000  0.25650000  1.0
  C  C67  1  0.96191000  0.07918000  0.74351000  1.0
  C  C68  1  0.99294000  0.63302000  0.79246000  1.0
  C  C69  1  0.50706000  0.13302000  0.20754000  1.0
  C  C70  1  0.00706000  0.36698000  0.20754000  1.0
  C  C71  1  0.49295000  0.86697000  0.79246000  1.0
  C  C72  1  0.00509000  0.62835000  0.87826000  1.0
  C  C73  1  0.49492000  0.12835000  0.12174000  1.0
  C  C74  1  0.99491000  0.37166000  0.12174000  1.0
  C  C75  1  0.50509000  0.87164000  0.87826000  1.0
  C  C76  1  0.48742000  0.41842000  0.89396000  1.0
  C  C77  1  0.01258000  0.91842000  0.10604000  1.0
  C  C78  1  0.51258000  0.58159000  0.10604000  1.0
  C  C79  1  0.98741000  0.08159000  0.89397000  1.0
  C  C80  1  0.58646000  0.36457000  0.81286000  1.0
  C  C81  1  0.91354000  0.86456000  0.18714000  1.0
  C  C82  1  0.41353000  0.63543000  0.18714000  1.0
  C  C83  1  0.08645000  0.13544000  0.81286000  1.0
  O  O84  1  0.34674000  0.07551000  0.58465000  1.0
  O  O85  1  0.15326000  0.57551000  0.41535000  1.0
  O  O86  1  0.65326000  0.92449000  0.41535000  1.0
  O  O87  1  0.84674000  0.42449000  0.58465000  1.0
  O  O88  1  0.13181000  0.57833000  0.65842000  1.0
  O  O89  1  0.36819000  0.07833000  0.34158000  1.0
  O  O90  1  0.86819000  0.42167000  0.34158000  1.0
  O  O91  1  0.63181000  0.92167000  0.65842000  1.0
  O  O92  1  0.50000000  0.39864000  0.66848000  1.0
  O  O93  1  0.00000000  0.89864000  0.33152000  1.0
  O  O94  1  0.49999000  0.60134000  0.33152000  1.0
  O  O95  1  0.00000000  0.10136000  0.66848000  1.0
  O  O96  1  0.55432000  0.29897000  0.42544000  1.0
  O  O97  1  0.94568000  0.79898000  0.57456000  1.0
  O  O98  1  0.44568000  0.70103000  0.57456000  1.0
  O  O99  1  0.05432000  0.20102000  0.42543000  1.0
