# generated using pymatgen
data_YbH6C6SNO8
_symmetry_space_group_name_H-M   'P 1'
_cell_length_a   7.48348000
_cell_length_b   9.26387000
_cell_length_c   14.63220000
_cell_angle_alpha   90.00010000
_cell_angle_beta   90.00010000
_cell_angle_gamma   78.73600000
_symmetry_Int_Tables_number   1
_chemical_formula_structural   YbH6C6SNO8
_chemical_formula_sum   'Yb4 H24 C24 S4 N4 O32'
_cell_volume   994.85205321
_cell_formula_units_Z   4
loop_
 _symmetry_equiv_pos_site_id
 _symmetry_equiv_pos_as_xyz
  1  'x, y, z'
loop_
 _atom_site_type_symbol
 _atom_site_label
 _atom_site_symmetry_multiplicity
 _atom_site_fract_x
 _atom_site_fract_y
 _atom_site_fract_z
 _atom_site_occupancy
  Yb  Yb0  1  0.86321000  0.27735000  0.95630000  1.0
  Yb  Yb1  1  0.63680000  0.72265000  0.45630000  1.0
  Yb  Yb2  1  0.13680000  0.72265000  0.04370000  1.0
  Yb  Yb3  1  0.36321000  0.27735000  0.54370000  1.0
  H  H4  1  0.84901000  0.04618000  0.55078000  1.0
  H  H5  1  0.65099000  0.95382000  0.05078000  1.0
  H  H6  1  0.15099000  0.95382000  0.44922000  1.0
  H  H7  1  0.34901000  0.04618000  0.94922000  1.0
  H  H8  1  0.89644000  0.12299000  0.71110000  1.0
  H  H9  1  0.60356000  0.87701000  0.21110000  1.0
  H  H10  1  0.10356000  0.87701000  0.28890000  1.0
  H  H11  1  0.39645000  0.12299000  0.78890000  1.0
  H  H12  1  0.08093000  0.66416000  0.77910000  1.0
  H  H13  1  0.41907000  0.33584000  0.27909000  1.0
  H  H14  1  0.91907000  0.33584000  0.22090000  1.0
  H  H15  1  0.58093000  0.66416000  0.72090000  1.0
  H  H16  1  0.03676000  0.60490000  0.61282000  1.0
  H  H17  1  0.46325000  0.39511000  0.11282000  1.0
  H  H18  1  0.96324000  0.39510000  0.38718000  1.0
  H  H19  1  0.53676000  0.60490000  0.88718000  1.0
  H  H20  1  0.71161000  0.36242000  0.77760000  1.0
  H  H21  1  0.78840000  0.63758000  0.27760000  1.0
  H  H22  1  0.28840000  0.63758000  0.22240000  1.0
  H  H23  1  0.21161000  0.36242000  0.72240000  1.0
  H  H24  1  0.53466000  0.34902000  0.83832000  1.0
  H  H25  1  0.96535000  0.65098000  0.33832000  1.0
  H  H26  1  0.46535000  0.65098000  0.16168000  1.0
  H  H27  1  0.03466000  0.34902000  0.66168000  1.0
  C  C28  1  0.90505000  0.96784000  0.60357000  1.0
  C  C29  1  0.59495000  0.03216000  0.10356000  1.0
  C  C30  1  0.09495000  0.03216000  0.39644000  1.0
  C  C31  1  0.40505000  0.96784000  0.89643000  1.0
  C  C32  1  0.93044000  0.00718000  0.69288000  1.0
  C  C33  1  0.56955000  0.99282000  0.19288000  1.0
  C  C34  1  0.06955000  0.99282000  0.30712000  1.0
  C  C35  1  0.43045000  0.00718000  0.80712000  1.0
  C  C36  1  0.99097000  0.89903000  0.75842000  1.0
  C  C37  1  0.50902000  0.10097000  0.25842000  1.0
  C  C38  1  0.00902000  0.10097000  0.24158000  1.0
  C  C39  1  0.49098000  0.89903000  0.74158000  1.0
  C  C40  1  0.03373000  0.75184000  0.73024000  1.0
  C  C41  1  0.46626000  0.24816000  0.23024000  1.0
  C  C42  1  0.96626000  0.24816000  0.26976000  1.0
  C  C43  1  0.53373000  0.75184000  0.76976000  1.0
  C  C44  1  0.00945000  0.71607000  0.63997000  1.0
  C  C45  1  0.49055000  0.28393000  0.13997000  1.0
  C  C46  1  0.99055000  0.28393000  0.36003000  1.0
  C  C47  1  0.50946000  0.71607000  0.86003000  1.0
  C  C48  1  0.00233000  0.94143000  0.85669000  1.0
  C  C49  1  0.49766000  0.05857000  0.35668000  1.0
  C  C50  1  0.99766000  0.05857000  0.14332000  1.0
  C  C51  1  0.50233000  0.94143000  0.64331000  1.0
  S  S52  1  0.18096000  0.40187000  0.90639000  1.0
  S  S53  1  0.31904000  0.59813000  0.40639000  1.0
  S  S54  1  0.81904000  0.59813000  0.09361000  1.0
  S  S55  1  0.68096000  0.40187000  0.59361000  1.0
  N  N56  1  0.93976000  0.82353000  0.57914000  1.0
  N  N57  1  0.56024000  0.17647000  0.07913000  1.0
  N  N58  1  0.06024000  0.17646000  0.42087000  1.0
  N  N59  1  0.43976000  0.82354000  0.92087000  1.0
  O  O60  1  0.95332000  0.07711000  0.87636000  1.0
  O  O61  1  0.54668000  0.92289000  0.37636000  1.0
  O  O62  1  0.04668000  0.92289000  0.12364000  1.0
  O  O63  1  0.45332000  0.07711000  0.62364000  1.0
  O  O64  1  0.05867000  0.84026000  0.91365000  1.0
  O  O65  1  0.44133000  0.15974000  0.41365000  1.0
  O  O66  1  0.94133000  0.15974000  0.08635000  1.0
  O  O67  1  0.55867000  0.84026000  0.58635000  1.0
  O  O68  1  0.90117000  0.78728000  0.49510000  1.0
  O  O69  1  0.59883000  0.21272000  0.99510000  1.0
  O  O70  1  0.09884000  0.21272000  0.50490000  1.0
  O  O71  1  0.40117000  0.78728000  0.00490000  1.0
  O  O72  1  0.99110000  0.44322000  0.86939000  1.0
  O  O73  1  0.50890000  0.55678000  0.36940000  1.0
  O  O74  1  0.00890000  0.55678000  0.13061000  1.0
  O  O75  1  0.49110000  0.44322000  0.63060000  1.0
  O  O76  1  0.17444000  0.27867000  0.97165000  1.0
  O  O77  1  0.32556000  0.72133000  0.47165000  1.0
  O  O78  1  0.82557000  0.72133000  0.02835000  1.0
  O  O79  1  0.67444000  0.27867000  0.52835000  1.0
  O  O80  1  0.23566000  0.52734000  0.95493000  1.0
  O  O81  1  0.26433000  0.47266000  0.45492000  1.0
  O  O82  1  0.76434000  0.47266000  0.04508000  1.0
  O  O83  1  0.73566000  0.52734000  0.54508000  1.0
  O  O84  1  0.31007000  0.35665000  0.82999000  1.0
  O  O85  1  0.18993000  0.64336000  0.32999000  1.0
  O  O86  1  0.68994000  0.64336000  0.17001000  1.0
  O  O87  1  0.81007000  0.35664000  0.67001000  1.0
  O  O88  1  0.66672000  0.35325000  0.84081000  1.0
  O  O89  1  0.83328000  0.64674000  0.34081000  1.0
  O  O90  1  0.33333333  0.64674000  0.15919000  1.0
  O  O91  1  0.16672000  0.35326000  0.65919000  1.0
