# generated using pymatgen
data_CsH13C17SO9
_symmetry_space_group_name_H-M   'P 1'
_cell_length_a   6.28816000
_cell_length_b   11.45260000
_cell_length_c   12.86160000
_cell_angle_alpha   92.92890000
_cell_angle_beta   97.87460000
_cell_angle_gamma   94.26430000
_symmetry_Int_Tables_number   1
_chemical_formula_structural   CsH13C17SO9
_chemical_formula_sum   'Cs2 H26 C34 S2 O18'
_cell_volume   913.20157344
_cell_formula_units_Z   2
loop_
 _symmetry_equiv_pos_site_id
 _symmetry_equiv_pos_as_xyz
  1  'x, y, z'
loop_
 _atom_site_type_symbol
 _atom_site_label
 _atom_site_symmetry_multiplicity
 _atom_site_fract_x
 _atom_site_fract_y
 _atom_site_fract_z
 _atom_site_occupancy
  Cs  Cs0  1  0.21696000  0.85732000  0.95782000  1.0
  Cs  Cs1  1  0.78304000  0.14268000  0.04217000  1.0
  H  H2  1  0.64376000  0.54955000  0.73353000  1.0
  H  H3  1  0.35624000  0.45044000  0.26647000  1.0
  H  H4  1  0.66080000  0.56421000  0.45577000  1.0
  H  H5  1  0.33920000  0.43579000  0.54423000  1.0
  H  H6  1  0.12367000  0.72729000  0.25897000  1.0
  H  H7  1  0.87633000  0.27271000  0.74103000  1.0
  H  H8  1  0.64863000  0.94475000  0.48949000  1.0
  H  H9  1  0.35136000  0.05525000  0.51051000  1.0
  H  H10  1  0.94120000  0.03190000  0.40300000  1.0
  H  H11  1  0.05879000  0.96810000  0.59700000  1.0
  H  H12  1  0.43922000  0.71175000  0.21407000  1.0
  H  H13  1  0.56077000  0.28826000  0.78593000  1.0
  H  H14  1  0.04296000  0.56691000  0.94277000  1.0
  H  H15  1  0.95703000  0.43309000  0.05723000  1.0
  H  H16  1  0.24944000  0.58450000  0.86001000  1.0
  H  H17  1  0.75056000  0.41550000  0.14000000  1.0
  H  H18  1  0.04473000  0.46448000  0.83277000  1.0
  H  H19  1  0.95527000  0.53552000  0.16723000  1.0
  H  H20  1  0.28130000  0.07571000  0.20322000  1.0
  H  H21  1  0.71871000  0.92428000  0.79679000  1.0
  H  H22  1  0.27044000  0.00864000  0.32575000  1.0
  H  H23  1  0.72955000  0.99136000  0.67425000  1.0
  H  H24  1  0.10983000  0.12782000  0.29255000  1.0
  H  H25  1  0.89017000  0.87218000  0.70745000  1.0
  H  H26  1  0.42030000  0.77907000  0.68913000  1.0
  H  H27  1  0.57969000  0.22094000  0.31086000  1.0
  C  C28  1  0.97736000  0.65711000  0.48351000  1.0
  C  C29  1  0.02264000  0.34289000  0.51649000  1.0
  C  C30  1  0.79560000  0.59975000  0.51373000  1.0
  C  C31  1  0.20441000  0.40025000  0.48627000  1.0
  C  C32  1  0.79253000  0.59140000  0.62137000  1.0
  C  C33  1  0.20748000  0.40859000  0.37863000  1.0
  C  C34  1  0.96642000  0.63793000  0.69715000  1.0
  C  C35  1  0.03358000  0.36206000  0.30285000  1.0
  C  C36  1  0.14717000  0.69568000  0.66500000  1.0
  C  C37  1  0.85283000  0.30432000  0.33500000  1.0
  C  C38  1  0.15501000  0.70546000  0.55546000  1.0
  C  C39  1  0.84499000  0.29453000  0.44453000  1.0
  C  C40  1  0.34054000  0.76444000  0.52046000  1.0
  C  C41  1  0.65946000  0.23556000  0.47953000  1.0
  C  C42  1  0.33449000  0.77059000  0.40737000  1.0
  C  C43  1  0.66550000  0.22942000  0.59263000  1.0
  C  C44  1  0.15146000  0.72346000  0.34433000  1.0
  C  C45  1  0.84853000  0.27655000  0.65567000  1.0
  C  C46  1  0.51541000  0.82327000  0.35889000  1.0
  C  C47  1  0.48459000  0.17673000  0.64111000  1.0
  C  C48  1  0.66353000  0.91299000  0.40998000  1.0
  C  C49  1  0.33646000  0.08701000  0.59002000  1.0
  C  C50  1  0.83017000  0.96231000  0.36083000  1.0
  C  C51  1  0.16982000  0.03769000  0.63917000  1.0
  C  C52  1  0.85388000  0.92355000  0.25831000  1.0
  C  C53  1  0.14611000  0.07645000  0.74169000  1.0
  C  C54  1  0.70714000  0.83293000  0.20599000  1.0
  C  C55  1  0.29285000  0.16708000  0.79400000  1.0
  C  C56  1  0.54335000  0.78410000  0.25651000  1.0
  C  C57  1  0.45665000  0.21590000  0.74348000  1.0
  C  C58  1  0.07952000  0.55631000  0.86221000  1.0
  C  C59  1  0.92048000  0.44368000  0.13779000  1.0
  C  C60  1  0.17718000  0.04977000  0.26121000  1.0
  C  C61  1  0.82283000  0.95023000  0.73879000  1.0
  S  S62  1  0.73571000  0.77183000  0.07772000  1.0
  S  S63  1  0.26430000  0.22818000  0.92228000  1.0
  O  O64  1  0.97992000  0.66740000  0.37778000  1.0
  O  O65  1  0.02007000  0.33260000  0.62221000  1.0
  O  O66  1  0.49898000  0.80794000  0.58716000  1.0
  O  O67  1  0.50102000  0.19206000  0.41284000  1.0
  O  O68  1  0.61731000  0.53859000  0.65626000  1.0
  O  O69  1  0.38269000  0.46140000  0.34374000  1.0
  O  O70  1  0.93836000  0.63148000  0.80140000  1.0
  O  O71  1  0.06165000  0.36851000  0.19860000  1.0
  O  O72  1  0.31168000  0.74448000  0.73609000  1.0
  O  O73  1  0.68831000  0.25552000  0.26390000  1.0
  O  O74  1  0.01235000  0.96741000  0.20494000  1.0
  O  O75  1  0.98766000  0.03259000  0.79507000  1.0
  O  O76  1  0.72903000  0.87161000  0.00843000  1.0
  O  O77  1  0.27097000  0.12839000  0.99157000  1.0
  O  O78  1  0.94675000  0.72265000  0.09048000  1.0
  O  O79  1  0.05327000  0.27736000  0.90953000  1.0
  O  O80  1  0.55226000  0.68481000  0.04909000  1.0
  O  O81  1  0.44775000  0.31519000  0.95091000  1.0
