# generated using pymatgen
data_CuH6(C2N3)4
_symmetry_space_group_name_H-M   'P 1'
_cell_length_a   8.46496000
_cell_length_b   8.46670000
_cell_length_c   10.07510000
_cell_angle_alpha   102.67000000
_cell_angle_beta   102.69200000
_cell_angle_gamma   118.51400000
_symmetry_Int_Tables_number   1
_chemical_formula_structural   CuH6(C2N3)4
_chemical_formula_sum   'Cu2 H12 C16 N24'
_cell_volume   573.01209876
_cell_formula_units_Z   2
loop_
 _symmetry_equiv_pos_site_id
 _symmetry_equiv_pos_as_xyz
  1  'x, y, z'
loop_
 _atom_site_type_symbol
 _atom_site_label
 _atom_site_symmetry_multiplicity
 _atom_site_fract_x
 _atom_site_fract_y
 _atom_site_fract_z
 _atom_site_occupancy
  Cu  Cu0  1  0.11137000  0.36107000  0.24992000  1.0
  Cu  Cu1  1  0.88863000  0.63893000  0.75008000  1.0
  H  H2  1  0.83948000  0.12846000  0.89713000  1.0
  H  H3  1  0.23155000  0.44181000  0.60269000  1.0
  H  H4  1  0.16051000  0.87154000  0.10287000  1.0
  H  H5  1  0.76843000  0.55818000  0.39730000  1.0
  H  H6  1  0.29833000  0.22904000  0.80995000  1.0
  H  H7  1  0.41928000  0.98814000  0.68968000  1.0
  H  H8  1  0.70168000  0.77096000  0.19005000  1.0
  H  H9  1  0.58072000  0.01187000  0.31031000  1.0
  H  H10  1  0.46295000  0.29983000  0.26032000  1.0
  H  H11  1  0.03921000  0.70179000  0.23946000  1.0
  H  H12  1  0.53705000  0.70017000  0.73969000  1.0
  H  H13  1  0.96079000  0.29821000  0.76054000  1.0
  C  C14  1  0.59903000  0.25760000  0.03267000  1.0
  C  C15  1  0.22469000  0.06565000  0.46698000  1.0
  C  C16  1  0.40098000  0.74240000  0.96733000  1.0
  C  C17  1  0.77531000  0.93435000  0.53302000  1.0
  C  C18  1  0.77925000  0.18773000  0.96147000  1.0
  C  C19  1  0.22636000  0.31720000  0.53830000  1.0
  C  C20  1  0.22075000  0.81227000  0.03853000  1.0
  C  C21  1  0.77363000  0.68279000  0.46170000  1.0
  C  C22  1  0.30092000  0.25257000  0.92194000  1.0
  C  C23  1  0.33069000  0.87862000  0.57778000  1.0
  C  C24  1  0.69908000  0.74743000  0.07807000  1.0
  C  C25  1  0.66931000  0.12138000  0.42222000  1.0
  C  C26  1  0.38740000  0.29112000  0.15419000  1.0
  C  C27  1  0.13665000  0.73249000  0.34562000  1.0
  C  C28  1  0.61260000  0.70888000  0.84582000  1.0
  C  C29  1  0.86336000  0.26751000  0.65438000  1.0
  N  N30  1  0.87483000  0.30006000  0.10614000  1.0
  N  N31  1  0.19408000  0.26821000  0.39364000  1.0
  N  N32  1  0.12518000  0.69995000  0.89387000  1.0
  N  N33  1  0.80591000  0.73179000  0.60636000  1.0
  N  N34  1  0.75774000  0.34752000  0.15338000  1.0
  N  N35  1  0.19410000  0.10379000  0.34632000  1.0
  N  N36  1  0.24226000  0.65248000  0.84662000  1.0
  N  N37  1  0.80590000  0.89620000  0.65368000  1.0
  N  N38  1  0.60204000  0.15691000  0.91008000  1.0
  N  N39  1  0.24665000  0.19124000  0.58961000  1.0
  N  N40  1  0.39796000  0.84309000  0.08992000  1.0
  N  N41  1  0.75334000  0.80876000  0.41039000  1.0
  N  N42  1  0.23014000  0.29565000  0.11470000  1.0
  N  N43  1  0.18080000  0.61486000  0.38521000  1.0
  N  N44  1  0.76986000  0.70435000  0.88531000  1.0
  N  N45  1  0.81920000  0.38514000  0.61479000  1.0
  N  N46  1  0.17543000  0.27202000  0.96890000  1.0
  N  N47  1  0.30316000  0.70615000  0.53096000  1.0
  N  N48  1  0.82457000  0.72798000  0.03110000  1.0
  N  N49  1  0.69684000  0.29385000  0.46904000  1.0
  N  N50  1  0.43747000  0.26563000  0.03542000  1.0
  N  N51  1  0.23002000  0.90140000  0.46426000  1.0
  N  N52  1  0.56254000  0.73437000  0.96458000  1.0
  N  N53  1  0.76998000  0.09860000  0.53574000  1.0
