# generated using pymatgen
data_ZnH20C27S2(NO2)4
_symmetry_space_group_name_H-M   'P 1'
_cell_length_a   8.94252000
_cell_length_b   12.54080000
_cell_length_c   12.97900000
_cell_angle_alpha   100.74300000
_cell_angle_beta   108.96800000
_cell_angle_gamma   93.03880000
_symmetry_Int_Tables_number   1
_chemical_formula_structural   ZnH20C27S2(NO2)4
_chemical_formula_sum   'Zn2 H40 C54 S4 N8 O16'
_cell_volume   1342.23925901
_cell_formula_units_Z   2
loop_
 _symmetry_equiv_pos_site_id
 _symmetry_equiv_pos_as_xyz
  1  'x, y, z'
loop_
 _atom_site_type_symbol
 _atom_site_label
 _atom_site_symmetry_multiplicity
 _atom_site_fract_x
 _atom_site_fract_y
 _atom_site_fract_z
 _atom_site_occupancy
  Zn  Zn0  1  0.21718000  0.24492000  0.79593000  1.0
  Zn  Zn1  1  0.78282000  0.75508000  0.20407000  1.0
  H  H2  1  0.57261000  0.01282000  0.81393000  1.0
  H  H3  1  0.42739000  0.98718000  0.18607000  1.0
  H  H4  1  0.47101000  0.77375000  0.47819000  1.0
  H  H5  1  0.52899000  0.22625000  0.52181000  1.0
  H  H6  1  0.93663000  0.26833000  0.87729000  1.0
  H  H7  1  0.06337000  0.73167000  0.12271000  1.0
  H  H8  1  0.91648000  0.91767000  0.09242000  1.0
  H  H9  1  0.08352000  0.08233000  0.90759000  1.0
  H  H10  1  0.89186000  0.36874000  0.04597000  1.0
  H  H11  1  0.10814000  0.63126000  0.95403000  1.0
  H  H12  1  0.40990000  0.40444000  0.99154000  1.0
  H  H13  1  0.59010000  0.59556000  0.00846000  1.0
  H  H14  1  0.90000000  0.08881000  0.21683000  1.0
  H  H15  1  0.10000000  0.91119000  0.78317000  1.0
  H  H16  1  0.54463000  0.87672000  0.35224000  1.0
  H  H17  1  0.45537000  0.12328000  0.64776000  1.0
  H  H18  1  0.37949000  0.52024000  0.16106000  1.0
  H  H19  1  0.62052000  0.47976000  0.83894000  1.0
  H  H20  1  0.35240000  0.48002000  0.80290000  1.0
  H  H21  1  0.64759000  0.51998000  0.19710000  1.0
  H  H22  1  0.34040000  0.58939000  0.66112000  1.0
  H  H23  1  0.65960000  0.41061000  0.33889000  1.0
  H  H24  1  0.99290000  0.51497000  0.21673000  1.0
  H  H25  1  0.00710000  0.48503000  0.78327000  1.0
  H  H26  1  0.32778000  0.45848000  0.33367000  1.0
  H  H27  1  0.67222000  0.54152000  0.66634000  1.0
  H  H28  1  0.14661000  0.37606000  0.30296000  1.0
  H  H29  1  0.85339000  0.62394000  0.69704000  1.0
  H  H30  1  0.26336000  0.60025000  0.46537000  1.0
  H  H31  1  0.73664000  0.39976000  0.53463000  1.0
  H  H32  1  0.06284000  0.54516000  0.41383000  1.0
  H  H33  1  0.93715000  0.45483000  0.58616000  1.0
  H  H34  1  0.82449000  0.99061000  0.76133000  1.0
  H  H35  1  0.17552000  0.00939000  0.23867000  1.0
  H  H36  1  0.07701000  0.30438000  0.40910000  1.0
  H  H37  1  0.92298000  0.69563000  0.59090000  1.0
  H  H38  1  0.10660000  0.20594000  0.56000000  1.0
  H  H39  1  0.89340000  0.79406000  0.44000000  1.0
  H  H40  1  0.17172000  0.59974000  0.24373000  1.0
  H  H41  1  0.82828000  0.40026000  0.75627000  1.0
  C  C42  1  0.74876000  0.95559000  0.94401000  1.0
  C  C43  1  0.25124000  0.04441000  0.05600000  1.0
  C  C44  1  0.64825000  0.03048000  0.90133000  1.0
  C  C45  1  0.35175000  0.96952000  0.09867000  1.0
  C  C46  1  0.80137000  0.02565000  0.60166000  1.0
  C  C47  1  0.19863000  0.97436000  0.39835000  1.0
  C  C48  1  0.64094000  0.12834000  0.97041000  1.0
  C  C49  1  0.35905000  0.87166000  0.02959000  1.0
  C  C50  1  0.73541000  0.14795000  0.08374000  1.0
  C  C51  1  0.26459000  0.85205000  0.91626000  1.0
  C  C52  1  0.56445000  0.84301000  0.51309000  1.0
  C  C53  1  0.43555000  0.15699000  0.48691000  1.0
  C  C54  1  0.91029000  0.13171000  0.65727000  1.0
  C  C55  1  0.08971000  0.86829000  0.34274000  1.0
  C  C56  1  0.03319000  0.32245000  0.94410000  1.0
  C  C57  1  0.96682000  0.67755000  0.05590000  1.0
  C  C58  1  0.72204000  0.99066000  0.48639000  1.0
  C  C59  1  0.27796000  0.00934000  0.51361000  1.0
  C  C60  1  0.13494000  0.45178000  0.12040000  1.0
  C  C61  1  0.86507000  0.54821000  0.87959000  1.0
  C  C62  1  0.84219000  0.97716000  0.05769000  1.0
  C  C63  1  0.15780000  0.02284000  0.94231000  1.0
  C  C64  1  0.00974000  0.37928000  0.03901000  1.0
  C  C65  1  0.99027000  0.62071000  0.96099000  1.0
  C  C66  1  0.29690000  0.40111000  0.00688000  1.0
  C  C67  1  0.70311000  0.59889000  0.99312000  1.0
  C  C68  1  0.53941000  0.20934000  0.91651000  1.0
  C  C69  1  0.46059000  0.79066000  0.08349000  1.0
  C  C70  1  0.64663000  0.87462000  0.62876000  1.0
  C  C71  1  0.35337000  0.12538000  0.37124000  1.0
  C  C72  1  0.83513000  0.07331000  0.12762000  1.0
  C  C73  1  0.16487000  0.92669000  0.87238000  1.0
  C  C74  1  0.60349000  0.90106000  0.44224000  1.0
  C  C75  1  0.39651000  0.09894000  0.55776000  1.0
  C  C76  1  0.28037000  0.46220000  0.10215000  1.0
  C  C77  1  0.71964000  0.53779000  0.89785000  1.0
  C  C78  1  0.29650000  0.44312000  0.71439000  1.0
  C  C79  1  0.70349000  0.55688000  0.28561000  1.0
  C  C80  1  0.28908000  0.50395000  0.63412000  1.0
  C  C81  1  0.71091000  0.49605000  0.36588000  1.0
  C  C82  1  0.20947000  0.45654000  0.52093000  1.0
  C  C83  1  0.79053000  0.54346000  0.47907000  1.0
  C  C84  1  0.11932000  0.51413000  0.22570000  1.0
  C  C85  1  0.88069000  0.48587000  0.77430000  1.0
  C  C86  1  0.20107000  0.46140000  0.32377000  1.0
  C  C87  1  0.79893000  0.53860000  0.67623000  1.0
  C  C88  1  0.18477000  0.52230000  0.43245000  1.0
  C  C89  1  0.81523000  0.47771000  0.56755000  1.0
  C  C90  1  0.76362000  0.96517000  0.67158000  1.0
  C  C91  1  0.23638000  0.03483000  0.32842000  1.0
  C  C92  1  0.14401000  0.34675000  0.49445000  1.0
  C  C93  1  0.85598000  0.65326000  0.50555000  1.0
  C  C94  1  0.15831000  0.29058000  0.57876000  1.0
  C  C95  1  0.84168000  0.70942000  0.42123000  1.0
  S  S96  1  0.77404000  0.83265000  0.86238000  1.0
  S  S97  1  0.22595000  0.16735000  0.13762000  1.0
  S  S98  1  0.58867000  0.80035000  0.71571000  1.0
  S  S99  1  0.41133000  0.19965000  0.28429000  1.0
  N  N100  1  0.17456000  0.33264000  0.92815000  1.0
  N  N101  1  0.82544000  0.66736000  0.07185000  1.0
  N  N102  1  0.23234000  0.33754000  0.68751000  1.0
  N  N103  1  0.76766000  0.66246000  0.31248000  1.0
  N  N104  1  0.72699000  0.24551000  0.16096000  1.0
  N  N105  1  0.27301000  0.75449000  0.83904000  1.0
  N  N106  1  0.76445000  0.04722000  0.40956000  1.0
  N  N107  1  0.23555000  0.95278000  0.59044000  1.0
  O  O108  1  0.60096000  0.30249000  0.92117000  1.0
  O  O109  1  0.39904000  0.69751000  0.07883000  1.0
  O  O110  1  0.39340000  0.16715000  0.86415000  1.0
  O  O111  1  0.60660000  0.83285000  0.13585000  1.0
  O  O112  1  0.60014000  0.28742000  0.14019000  1.0
  O  O113  1  0.39986000  0.71258000  0.85981000  1.0
  O  O114  1  0.84703000  0.28222000  0.24514000  1.0
  O  O115  1  0.15298000  0.71778000  0.75486000  1.0
  O  O116  1  0.89648000  0.10372000  0.44347000  1.0
  O  O117  1  0.10352000  0.89628000  0.55653000  1.0
  O  O118  1  0.66735000  0.03586000  0.31369000  1.0
  O  O119  1  0.33265000  0.96414000  0.68632000  1.0
  O  O120  1  0.85193000  0.21949000  0.65492000  1.0
  O  O121  1  0.14806000  0.78051000  0.34508000  1.0
  O  O122  1  0.05547000  0.11862000  0.71115000  1.0
  O  O123  1  0.94453000  0.88138000  0.28885000  1.0
