# generated using pymatgen
data_LuH13C12N3O8
_symmetry_space_group_name_H-M   'P 1'
_cell_length_a   10.08120000
_cell_length_b   10.23390000
_cell_length_c   10.61800000
_cell_angle_alpha   103.22300000
_cell_angle_beta   115.50000000
_cell_angle_gamma   92.78740000
_symmetry_Int_Tables_number   1
_chemical_formula_structural   LuH13C12N3O8
_chemical_formula_sum   'Lu2 H26 C24 N6 O16'
_cell_volume   948.94495363
_cell_formula_units_Z   2
loop_
 _symmetry_equiv_pos_site_id
 _symmetry_equiv_pos_as_xyz
  1  'x, y, z'
loop_
 _atom_site_type_symbol
 _atom_site_label
 _atom_site_symmetry_multiplicity
 _atom_site_fract_x
 _atom_site_fract_y
 _atom_site_fract_z
 _atom_site_occupancy
  Lu  Lu0  1  0.46915000  0.23586000  0.01446000  1.0
  Lu  Lu1  1  0.53086000  0.76414000  0.98554000  1.0
  H  H2  1  0.41224000  0.42922000  0.83922000  1.0
  H  H3  1  0.58775000  0.57077000  0.16077000  1.0
  H  H4  1  0.37426000  0.27755000  0.74130000  1.0
  H  H5  1  0.62574000  0.72245000  0.25870000  1.0
  H  H6  1  0.26975000  0.00602000  0.74657000  1.0
  H  H7  1  0.73024000  0.99398000  0.25342000  1.0
  H  H8  1  0.43903000  0.98583000  0.81319000  1.0
  H  H9  1  0.56096000  0.01416000  0.18682000  1.0
  H  H10  1  0.22224000  0.17297000  0.17416000  1.0
  H  H11  1  0.77776000  0.82703000  0.82585000  1.0
  H  H12  1  0.26773000  0.59624000  0.15475000  1.0
  H  H13  1  0.73228000  0.40378000  0.84526000  1.0
  H  H14  1  0.89099000  0.58937000  0.28528000  1.0
  H  H15  1  0.10901000  0.41063000  0.71473000  1.0
  H  H16  1  0.93912000  0.68516000  0.77418000  1.0
  H  H17  1  0.06087000  0.31485000  0.22580000  1.0
  H  H18  1  0.12876000  0.73273000  0.86078000  1.0
  H  H19  1  0.87122000  0.26727000  0.13919000  1.0
  H  H20  1  0.81760000  0.18350000  0.79642000  1.0
  H  H21  1  0.18242000  0.81651000  0.20358000  1.0
  H  H22  1  0.99729000  0.17873000  0.82622000  1.0
  H  H23  1  0.00272000  0.82129000  0.17380000  1.0
  H  H24  1  0.73752000  0.24202000  0.44028000  1.0
  H  H25  1  0.26247000  0.75797000  0.55972000  1.0
  H  H26  1  0.87543000  0.25773000  0.61627000  1.0
  H  H27  1  0.12457000  0.74227000  0.38374000  1.0
  C  C28  1  0.10976000  0.42352000  0.99539000  1.0
  C  C29  1  0.89025000  0.57649000  0.00462000  1.0
  C  C30  1  0.71286000  0.37830000  0.26022000  1.0
  C  C31  1  0.28713000  0.62169000  0.73977000  1.0
  C  C32  1  0.29541000  0.96545000  0.03423000  1.0
  C  C33  1  0.70457000  0.03455000  0.96576000  1.0
  C  C34  1  0.12344000  0.09728000  0.09826000  1.0
  C  C35  1  0.87656000  0.90271000  0.90174000  1.0
  C  C36  1  0.14234000  0.97971000  0.01379000  1.0
  C  C37  1  0.85765000  0.02028000  0.98620000  1.0
  C  C38  1  0.95753000  0.36492000  0.90454000  1.0
  C  C39  1  0.04248000  0.63509000  0.09547000  1.0
  C  C40  1  0.85837000  0.43952000  0.38553000  1.0
  C  C41  1  0.14163000  0.56048000  0.61447000  1.0
  C  C42  1  0.14918000  0.55579000  0.08809000  1.0
  C  C43  1  0.85084000  0.44422000  0.91192000  1.0
  C  C44  1  0.01603000  0.87777000  0.91217000  1.0
  C  C45  1  0.98398000  0.12222000  0.08782000  1.0
  C  C46  1  0.94019000  0.55146000  0.38071000  1.0
  C  C47  1  0.05981000  0.44854000  0.61930000  1.0
  C  C48  1  0.91838000  0.38413000  0.50736000  1.0
  C  C49  1  0.08163000  0.61586000  0.49265000  1.0
  C  C50  1  0.23256000  0.34840000  0.00069000  1.0
  C  C51  1  0.76745000  0.65161000  0.99932000  1.0
  N  N52  1  0.02725000  0.76220000  0.82362000  1.0
  N  N53  1  0.97274000  0.23780000  0.17637000  1.0
  N  N54  1  0.91296000  0.23459000  0.80806000  1.0
  N  N55  1  0.08706000  0.76542000  0.19195000  1.0
  N  N56  1  0.84626000  0.27131000  0.51539000  1.0
  N  N57  1  0.15374000  0.72869000  0.48461000  1.0
  O  O58  1  0.36317000  0.39243000  0.10756000  1.0
  O  O59  1  0.63684000  0.60756000  0.89245000  1.0
  O  O60  1  0.66024000  0.42710000  0.14869000  1.0
  O  O61  1  0.33976000  0.57290000  0.85131000  1.0
  O  O62  1  0.39615000  0.07334000  0.09198000  1.0
  O  O63  1  0.60384000  0.92664000  0.90800000  1.0
  O  O64  1  0.21214000  0.23977000  0.90002000  1.0
  O  O65  1  0.78787000  0.76025000  0.09998000  1.0
  O  O66  1  0.44513000  0.33779000  0.83517000  1.0
  O  O67  1  0.55488000  0.66221000  0.16483000  1.0
  O  O68  1  0.32651000  0.84787000  0.99760000  1.0
  O  O69  1  0.67348000  0.15213000  0.00240000  1.0
  O  O70  1  0.63660000  0.27057000  0.25404000  1.0
  O  O71  1  0.36340000  0.72942000  0.74596000  1.0
  O  O72  1  0.37161000  0.05502000  0.79491000  1.0
  O  O73  1  0.62838000  0.94498000  0.20510000  1.0
