# generated using pymatgen
data_ZnH18C22(NO)4
_symmetry_space_group_name_H-M   'P 1'
_cell_length_a   10.00110000
_cell_length_b   10.17670000
_cell_length_c   11.14610000
_cell_angle_alpha   99.52350000
_cell_angle_beta   102.51900000
_cell_angle_gamma   112.51900000
_symmetry_Int_Tables_number   1
_chemical_formula_structural   ZnH18C22(NO)4
_chemical_formula_sum   'Zn2 H36 C44 N8 O8'
_cell_volume   983.41859788
_cell_formula_units_Z   2
loop_
 _symmetry_equiv_pos_site_id
 _symmetry_equiv_pos_as_xyz
  1  'x, y, z'
loop_
 _atom_site_type_symbol
 _atom_site_label
 _atom_site_symmetry_multiplicity
 _atom_site_fract_x
 _atom_site_fract_y
 _atom_site_fract_z
 _atom_site_occupancy
  Zn  Zn0  1  0.72184000  0.03353000  0.88030000  1.0
  Zn  Zn1  1  0.27816000  0.96647000  0.11970000  1.0
  H  H2  1  0.98361000  0.24003000  0.54451000  1.0
  H  H3  1  0.01640000  0.75997000  0.45549000  1.0
  H  H4  1  0.02761000  0.11935000  0.10786000  1.0
  H  H5  1  0.97238000  0.88065000  0.89214000  1.0
  H  H6  1  0.78143000  0.36334000  0.01062000  1.0
  H  H7  1  0.21857000  0.63666000  0.98938000  1.0
  H  H8  1  0.37219000  0.74199000  0.72971000  1.0
  H  H9  1  0.62780000  0.25801000  0.27029000  1.0
  H  H10  1  0.06185000  0.37810000  0.40085000  1.0
  H  H11  1  0.93814000  0.62190000  0.59915000  1.0
  H  H12  1  0.30404000  0.75364000  0.29572000  1.0
  H  H13  1  0.69596000  0.24636000  0.70428000  1.0
  H  H14  1  0.63213000  0.02634000  0.15268000  1.0
  H  H15  1  0.36787000  0.97366000  0.84732000  1.0
  H  H16  1  0.77771000  0.64254000  0.11565000  1.0
  H  H17  1  0.22229000  0.35746000  0.88436000  1.0
  H  H18  1  0.91956000  0.83194000  0.63475000  1.0
  H  H19  1  0.08044000  0.16806000  0.36525000  1.0
  H  H20  1  0.36935000  0.61169000  0.86416000  1.0
  H  H21  1  0.63066000  0.38831000  0.13584000  1.0
  H  H22  1  0.26731000  0.31050000  0.25801000  1.0
  H  H23  1  0.73269000  0.68950000  0.74198000  1.0
  H  H24  1  0.31789000  0.46777000  0.19915000  1.0
  H  H25  1  0.68211000  0.53223000  0.80085000  1.0
  H  H26  1  0.05835000  0.55575000  0.19038000  1.0
  H  H27  1  0.94165000  0.44425000  0.80962000  1.0
  H  H28  1  0.11755000  0.52462000  0.62138000  1.0
  H  H29  1  0.88244000  0.47538000  0.37862000  1.0
  H  H30  1  0.56544000  0.80459000  0.61745000  1.0
  H  H31  1  0.43456000  0.19541000  0.38255000  1.0
  H  H32  1  0.66027000  0.72977000  0.45515000  1.0
  H  H33  1  0.33973000  0.27023000  0.54486000  1.0
  H  H34  1  0.54695000  0.58124000  0.31615000  1.0
  H  H35  1  0.45305000  0.41876000  0.68386000  1.0
  H  H36  1  0.75653000  0.87132000  0.28549000  1.0
  H  H37  1  0.24348000  0.12867000  0.71451000  1.0
  C  C38  1  0.99181000  0.13541000  0.52422000  1.0
  C  C39  1  0.00819000  0.86459000  0.47578000  1.0
  C  C40  1  0.88652000  0.08365000  0.70557000  1.0
  C  C41  1  0.11348000  0.91635000  0.29443000  1.0
  C  C42  1  0.94568000  0.03990000  0.59985000  1.0
  C  C43  1  0.05432000  0.96009000  0.40015000  1.0
  C  C44  1  0.99643000  0.21003000  0.10558000  1.0
  C  C45  1  0.00357000  0.78997000  0.89442000  1.0
  C  C46  1  0.66987000  0.79425000  0.97773000  1.0
  C  C47  1  0.33013000  0.20575000  0.02227000  1.0
  C  C48  1  0.87364000  0.34131000  0.05862000  1.0
  C  C49  1  0.12635000  0.65868000  0.94138000  1.0
  C  C50  1  0.28237000  0.50468000  0.38459000  1.0
  C  C51  1  0.71763000  0.49532000  0.61541000  1.0
  C  C52  1  0.42531000  0.62638000  0.44619000  1.0
  C  C53  1  0.57469000  0.37362000  0.55381000  1.0
  C  C54  1  0.58153000  0.64218000  0.98909000  1.0
  C  C55  1  0.41848000  0.35782000  0.01091000  1.0
  C  C56  1  0.34482000  0.67543000  0.63307000  1.0
  C  C57  1  0.65517000  0.32457000  0.36692000  1.0
  C  C58  1  0.17319000  0.47088000  0.44899000  1.0
  C  C59  1  0.82681000  0.52912000  0.55101000  1.0
  C  C60  1  0.40897000  0.80459000  0.27321000  1.0
  C  C61  1  0.59103000  0.19540000  0.72679000  1.0
  C  C62  1  0.58282000  0.94704000  0.20297000  1.0
  C  C63  1  0.41718000  0.05296000  0.79702000  1.0
  C  C64  1  0.65607000  0.57923000  0.06564000  1.0
  C  C65  1  0.34394000  0.42077000  0.93437000  1.0
  C  C66  1  0.95435000  0.90431000  0.57447000  1.0
  C  C67  1  0.04565000  0.09569000  0.42553000  1.0
  C  C68  1  0.42546000  0.56172000  0.92358000  1.0
  C  C69  1  0.57454000  0.43828000  0.07642000  1.0
  C  C70  1  0.24595000  0.40806000  0.25225000  1.0
  C  C71  1  0.75405000  0.59195000  0.74775000  1.0
  C  C72  1  0.01099000  0.43754000  0.14674000  1.0
  C  C73  1  0.98901000  0.56246000  0.85326000  1.0
  C  C74  1  0.20363000  0.55453000  0.57242000  1.0
  C  C75  1  0.79637000  0.44548000  0.42757000  1.0
  C  C76  1  0.45445000  0.71041000  0.56995000  1.0
  C  C77  1  0.54554000  0.28959000  0.43005000  1.0
  C  C78  1  0.54797000  0.67459000  0.38261000  1.0
  C  C79  1  0.45203000  0.32540000  0.61739000  1.0
  C  C80  1  0.64571000  0.87110000  0.26837000  1.0
  C  C81  1  0.35429000  0.12890000  0.73163000  1.0
  N  N82  1  0.43521000  0.90442000  0.20653000  1.0
  N  N83  1  0.56479000  0.09557000  0.79347000  1.0
  N  N84  1  0.86578000  0.20026000  0.03395000  1.0
  N  N85  1  0.13422000  0.79974000  0.96604000  1.0
  N  N86  1  0.08743000  0.35241000  0.17497000  1.0
  N  N87  1  0.91257000  0.64759000  0.82503000  1.0
  N  N88  1  0.53430000  0.78154000  0.31201000  1.0
  N  N89  1  0.46570000  0.21846000  0.68799000  1.0
  O  O90  1  0.81675000  0.97759000  0.75245000  1.0
  O  O91  1  0.18325000  0.02241000  0.24755000  1.0
  O  O92  1  0.90355000  0.21406000  0.73987000  1.0
  O  O93  1  0.09645000  0.78594000  0.26013000  1.0
  O  O94  1  0.59149000  0.84341000  0.90410000  1.0
  O  O95  1  0.40851000  0.15659000  0.09590000  1.0
  O  O96  1  0.80920000  0.86400000  0.03554000  1.0
  O  O97  1  0.19080000  0.13601000  0.96446000  1.0
