# generated using pymatgen
data_AlH6C10O5F
_symmetry_space_group_name_H-M   'P 1'
_cell_length_a   6.65395000
_cell_length_b   14.48920000
_cell_length_c   15.71780000
_cell_angle_alpha   90.00140000
_cell_angle_beta   90.49100000
_cell_angle_gamma   89.85300000
_symmetry_Int_Tables_number   1
_chemical_formula_structural   AlH6C10O5F
_chemical_formula_sum   'Al4 H24 C40 O20 F4'
_cell_volume   1515.29895010
_cell_formula_units_Z   4
loop_
 _symmetry_equiv_pos_site_id
 _symmetry_equiv_pos_as_xyz
  1  'x, y, z'
loop_
 _atom_site_type_symbol
 _atom_site_label
 _atom_site_symmetry_multiplicity
 _atom_site_fract_x
 _atom_site_fract_y
 _atom_site_fract_z
 _atom_site_occupancy
  Al  Al0  1  0.98836000  0.99879000  0.49804000  1.0
  Al  Al1  1  0.48877000  0.00190000  0.49945000  1.0
  Al  Al2  1  0.00292000  0.49937000  0.00114000  1.0
  Al  Al3  1  0.50363000  0.50125000  0.00241000  1.0
  H  H4  1  0.73387000  0.87819000  0.50885000  1.0
  H  H5  1  0.23280000  0.11956000  0.52269000  1.0
  H  H6  1  0.75544000  0.61401000  0.96416000  1.0
  H  H7  1  0.25813000  0.38383000  0.97221000  1.0
  H  H8  1  0.52973000  0.64083000  0.23788000  1.0
  H  H9  1  0.90112000  0.80756000  0.08821000  1.0
  H  H10  1  0.76533000  0.73110000  0.15518000  1.0
  H  H11  1  0.77047000  0.85232000  0.27180000  1.0
  H  H12  1  0.90464000  0.92738000  0.20281000  1.0
  H  H13  1  0.02400000  0.36203000  0.76045000  1.0
  H  H14  1  0.41845000  0.18794000  0.91511000  1.0
  H  H15  1  0.27379000  0.26354000  0.84868000  1.0
  H  H16  1  0.27380000  0.14443000  0.73220000  1.0
  H  H17  1  0.41993000  0.06937000  0.79820000  1.0
  H  H18  1  0.47380000  0.37313000  0.24394000  1.0
  H  H19  1  0.07678000  0.19168000  0.09412000  1.0
  H  H20  1  0.22267000  0.26615000  0.16044000  1.0
  H  H21  1  0.21169000  0.14716000  0.27850000  1.0
  H  H22  1  0.06795000  0.07330000  0.21089000  1.0
  H  H23  1  0.52581000  0.63123000  0.75510000  1.0
  H  H24  1  0.77522000  0.73233000  0.84309000  1.0
  H  H25  1  0.92108000  0.80814000  0.90856000  1.0
  H  H26  1  0.92150000  0.92547000  0.79056000  1.0
  H  H27  1  0.77485000  0.85009000  0.72543000  1.0
  C  C28  1  0.23746000  0.88296000  0.60861000  1.0
  C  C29  1  0.24656000  0.89179000  0.38324000  1.0
  C  C30  1  0.74270000  0.11616000  0.38943000  1.0
  C  C31  1  0.73614000  0.11057000  0.61482000  1.0
  C  C32  1  0.25721000  0.61018000  0.88497000  1.0
  C  C33  1  0.24494000  0.61265000  0.11314000  1.0
  C  C34  1  0.74813000  0.39329000  0.11741000  1.0
  C  C35  1  0.75721000  0.38524000  0.88965000  1.0
  C  C36  1  0.24410000  0.68299000  0.18187000  1.0
  C  C37  1  0.24576000  0.82082000  0.31480000  1.0
  C  C38  1  0.08765000  0.74612000  0.19131000  1.0
  C  C39  1  0.40090000  0.75521000  0.30491000  1.0
  C  C40  1  0.08994000  0.81291000  0.25524000  1.0
  C  C41  1  0.40396000  0.68902000  0.24079000  1.0
  C  C42  1  0.89066000  0.78011000  0.15328000  1.0
  C  C43  1  0.89307000  0.85595000  0.22577000  1.0
  C  C44  1  0.74827000  0.31626000  0.81975000  1.0
  C  C45  1  0.74182000  0.18088000  0.68390000  1.0
  C  C46  1  0.59400000  0.25190000  0.81112000  1.0
  C  C47  1  0.89481000  0.24777000  0.69316000  1.0
  C  C48  1  0.59282000  0.18657000  0.74584000  1.0
  C  C49  1  0.90069000  0.31274000  0.75824000  1.0
  C  C50  1  0.40209000  0.21564000  0.85028000  1.0
  C  C51  1  0.40156000  0.14110000  0.77669000  1.0
  C  C52  1  0.75095000  0.32451000  0.18736000  1.0
  C  C53  1  0.74274000  0.18777000  0.32170000  1.0
  C  C54  1  0.90118000  0.25796000  0.19665000  1.0
  C  C55  1  0.59367000  0.25678000  0.31178000  1.0
  C  C56  1  0.89560000  0.19215000  0.26140000  1.0
  C  C57  1  0.59488000  0.32247000  0.24729000  1.0
  C  C58  1  0.09293000  0.21950000  0.15893000  1.0
  C  C59  1  0.08694000  0.14495000  0.23245000  1.0
  C  C60  1  0.24966000  0.67796000  0.81403000  1.0
  C  C61  1  0.24273000  0.81206000  0.67716000  1.0
  C  C62  1  0.09519000  0.74249000  0.80483000  1.0
  C  C63  1  0.39584000  0.74496000  0.68684000  1.0
  C  C64  1  0.09374000  0.80722000  0.73909000  1.0
  C  C65  1  0.40211000  0.68060000  0.75251000  1.0
  C  C66  1  0.90385000  0.77977000  0.84400000  1.0
  C  C67  1  0.90287000  0.85355000  0.76976000  1.0
  O  O68  1  0.06485000  0.91581000  0.58995000  1.0
  O  O69  1  0.41385000  0.92824000  0.40287000  1.0
  O  O70  1  0.57700000  0.09734000  0.42509000  1.0
  O  O71  1  0.90165000  0.08956000  0.57993000  1.0
  O  O72  1  0.91215000  0.07899000  0.40602000  1.0
  O  O73  1  0.56387000  0.07732000  0.59671000  1.0
  O  O74  1  0.40370000  0.90523000  0.57522000  1.0
  O  O75  1  0.07704000  0.90986000  0.41646000  1.0
  O  O76  1  0.73778000  0.94405000  0.49835000  1.0
  O  O77  1  0.23696000  0.05649000  0.50221000  1.0
  O  O78  1  0.09107000  0.59345000  0.92168000  1.0
  O  O79  1  0.41256000  0.59500000  0.07813000  1.0
  O  O80  1  0.58080000  0.43213000  0.10037000  1.0
  O  O81  1  0.92824000  0.42091000  0.90619000  1.0
  O  O82  1  0.91264000  0.40694000  0.07848000  1.0
  O  O83  1  0.59291000  0.40209000  0.92802000  1.0
  O  O84  1  0.42812000  0.57554000  0.90418000  1.0
  O  O85  1  0.07621000  0.57699000  0.09380000  1.0
  O  O86  1  0.75328000  0.55755000  0.99720000  1.0
  O  O87  1  0.25455000  0.44314000  0.00068000  1.0
  F  F88  1  0.55584000  0.75339000  0.36229000  1.0
  F  F89  1  0.04574000  0.25228000  0.63518000  1.0
  F  F90  1  0.44006000  0.26231000  0.36826000  1.0
  F  F91  1  0.54633000  0.73982000  0.62874000  1.0
