# generated using pymatgen
data_AgPH9C7NO3
_symmetry_space_group_name_H-M   'P 1'
_cell_length_a   4.57690000
_cell_length_b   11.79760000
_cell_length_c   16.03340000
_cell_angle_alpha   102.01100000
_cell_angle_beta   90.00000000
_cell_angle_gamma   90.00000000
_symmetry_Int_Tables_number   1
_chemical_formula_structural   AgPH9C7NO3
_chemical_formula_sum   'Ag4 P4 H36 C28 N4 O12'
_cell_volume   846.79323804
_cell_formula_units_Z   4
loop_
 _symmetry_equiv_pos_site_id
 _symmetry_equiv_pos_as_xyz
  1  'x, y, z'
loop_
 _atom_site_type_symbol
 _atom_site_label
 _atom_site_symmetry_multiplicity
 _atom_site_fract_x
 _atom_site_fract_y
 _atom_site_fract_z
 _atom_site_occupancy
  Ag  Ag0  1  0.97672000  0.51042000  0.18937000  1.0
  Ag  Ag1  1  0.47672000  0.48958000  0.31063000  1.0
  Ag  Ag2  1  0.02328000  0.48958000  0.81063000  1.0
  Ag  Ag3  1  0.52328000  0.51042000  0.68937000  1.0
  P  P4  1  0.19537000  0.73982000  0.31950000  1.0
  P  P5  1  0.69537000  0.26018000  0.18050000  1.0
  P  P6  1  0.80463000  0.26018000  0.68050000  1.0
  P  P7  1  0.30463000  0.73982000  0.81950000  1.0
  H  H8  1  0.63827000  0.74341000  0.26388000  1.0
  H  H9  1  0.13827000  0.25659000  0.23612000  1.0
  H  H10  1  0.36173000  0.25659000  0.73612000  1.0
  H  H11  1  0.86173000  0.74341000  0.76388000  1.0
  H  H12  1  0.96021000  0.92358000  0.34473000  1.0
  H  H13  1  0.46021000  0.07642000  0.15528000  1.0
  H  H14  1  0.03979000  0.07642000  0.65527000  1.0
  H  H15  1  0.53979000  0.92358000  0.84473000  1.0
  H  H16  1  0.88196000  0.84586000  0.42471000  1.0
  H  H17  1  0.38196000  0.15414000  0.07529000  1.0
  H  H18  1  0.11804000  0.15414000  0.57529000  1.0
  H  H19  1  0.61804000  0.84586000  0.92471000  1.0
  H  H20  1  0.11486000  0.10624000  0.34438000  1.0
  H  H21  1  0.61485000  0.89376000  0.15562000  1.0
  H  H22  1  0.88515000  0.89376000  0.65562000  1.0
  H  H23  1  0.38515000  0.10624000  0.84438000  1.0
  H  H24  1  0.38713000  0.01549000  0.28826000  1.0
  H  H25  1  0.88713000  0.98450000  0.21174000  1.0
  H  H26  1  0.61287000  0.98450000  0.71174000  1.0
  H  H27  1  0.11287000  0.01550000  0.78826000  1.0
  H  H28  1  0.47651000  0.15886000  0.34151000  1.0
  H  H29  1  0.97651000  0.84114000  0.15849000  1.0
  H  H30  1  0.52349000  0.84114000  0.65849000  1.0
  H  H31  1  0.02349000  0.15886000  0.84151000  1.0
  H  H32  1  0.26758000  0.82513000  0.53164000  1.0
  H  H33  1  0.76758000  0.17487000  0.96836000  1.0
  H  H34  1  0.73242000  0.17486000  0.46836000  1.0
  H  H35  1  0.23242000  0.82514000  0.03164000  1.0
  H  H36  1  0.81776000  0.65853000  0.98154000  1.0
  H  H37  1  0.31775000  0.34147000  0.51846000  1.0
  H  H38  1  0.18225000  0.34147000  0.01846000  1.0
  H  H39  1  0.68224000  0.65853000  0.48154000  1.0
  H  H40  1  0.48139000  0.67589000  0.11051000  1.0
  H  H41  1  0.98138000  0.32411000  0.38949000  1.0
  H  H42  1  0.51862000  0.32411000  0.88949000  1.0
  H  H43  1  0.01860000  0.67589000  0.61051000  1.0
  C  C44  1  0.06012000  0.87199000  0.38668000  1.0
  C  C45  1  0.56012000  0.12801000  0.11332000  1.0
  C  C46  1  0.93988000  0.12801000  0.61332000  1.0
  C  C47  1  0.43988000  0.87199000  0.88668000  1.0
  C  C48  1  0.28847000  0.93940000  0.44381000  1.0
  C  C49  1  0.78847000  0.06060000  0.05619000  1.0
  C  C50  1  0.71153000  0.06060000  0.55619000  1.0
  C  C51  1  0.21153000  0.93940000  0.94381000  1.0
  C  C52  1  0.42138000  0.03881000  0.42490000  1.0
  C  C53  1  0.92138000  0.96119000  0.07510000  1.0
  C  C54  1  0.57862000  0.96119000  0.57510000  1.0
  C  C55  1  0.07862000  0.03881000  0.92490000  1.0
  C  C56  1  0.34654000  0.08227000  0.34600000  1.0
  C  C57  1  0.84654000  0.91772000  0.15400000  1.0
  C  C58  1  0.65346000  0.91772000  0.65400000  1.0
  C  C59  1  0.15346000  0.08227000  0.84600000  1.0
  C  C60  1  0.37110000  0.90267000  0.51789000  1.0
  C  C61  1  0.87110000  0.09733000  0.98211000  1.0
  C  C62  1  0.62890000  0.09733000  0.48211000  1.0
  C  C63  1  0.12890000  0.90267000  0.01789000  1.0
  C  C64  1  0.67474000  0.58786000  0.99033000  1.0
  C  C65  1  0.17473000  0.41214000  0.50967000  1.0
  C  C66  1  0.32527000  0.41214000  0.00967000  1.0
  C  C67  1  0.82526000  0.58786000  0.49033000  1.0
  C  C68  1  0.49013000  0.59716000  0.06074000  1.0
  C  C69  1  0.99012000  0.40284000  0.43926000  1.0
  C  C70  1  0.50988000  0.40284000  0.93926000  1.0
  C  C71  1  0.00987000  0.59716000  0.56074000  1.0
  N  N72  1  0.31468000  0.50949000  0.07020000  1.0
  N  N73  1  0.81467000  0.49051000  0.42980000  1.0
  N  N74  1  0.68533000  0.49051000  0.92980000  1.0
  N  N75  1  0.18532000  0.50949000  0.57020000  1.0
  O  O76  1  0.93367000  0.68774000  0.26349000  1.0
  O  O77  1  0.43367000  0.31227000  0.23651000  1.0
  O  O78  1  0.06633000  0.31227000  0.73651000  1.0
  O  O79  1  0.56633000  0.68774000  0.76349000  1.0
  O  O80  1  0.32842000  0.66239000  0.37446000  1.0
  O  O81  1  0.82842000  0.33761000  0.12554000  1.0
  O  O82  1  0.67158000  0.33761000  0.62554000  1.0
  O  O83  1  0.17158000  0.66239000  0.87446000  1.0
  O  O84  1  0.43288000  0.77715000  0.25830000  1.0
  O  O85  1  0.93288000  0.22285000  0.24170000  1.0
  O  O86  1  0.56712000  0.22285000  0.74170000  1.0
  O  O87  1  0.06712000  0.77715000  0.75830000  1.0
