# generated using pymatgen
data_CaH14C16(NO3)4
_symmetry_space_group_name_H-M   'P 1'
_cell_length_a   7.87859000
_cell_length_b   8.26448000
_cell_length_c   15.32260000
_cell_angle_alpha   74.64800000
_cell_angle_beta   78.91760000
_cell_angle_gamma   87.39120000
_symmetry_Int_Tables_number   1
_chemical_formula_structural   CaH14C16(NO3)4
_chemical_formula_sum   'Ca2 H28 C32 N8 O24'
_cell_volume   944.13536435
_cell_formula_units_Z   2
loop_
 _symmetry_equiv_pos_site_id
 _symmetry_equiv_pos_as_xyz
  1  'x, y, z'
loop_
 _atom_site_type_symbol
 _atom_site_label
 _atom_site_symmetry_multiplicity
 _atom_site_fract_x
 _atom_site_fract_y
 _atom_site_fract_z
 _atom_site_occupancy
  Ca  Ca0  1  0.28389000  0.36359000  0.50151000  1.0
  Ca  Ca1  1  0.71611000  0.63641000  0.49849000  1.0
  H  H2  1  0.02667000  0.73972000  0.26827000  1.0
  H  H3  1  0.97333000  0.26028000  0.73173000  1.0
  H  H4  1  0.98071000  0.86456000  0.10655000  1.0
  H  H5  1  0.01929000  0.13543000  0.89345000  1.0
  H  H6  1  0.79117000  0.39077000  0.10007000  1.0
  H  H7  1  0.20883000  0.60923000  0.89993000  1.0
  H  H8  1  0.73146000  0.95007000  0.89461000  1.0
  H  H9  1  0.26853000  0.04992000  0.10539000  1.0
  H  H10  1  0.54695000  0.44072000  0.90925000  1.0
  H  H11  1  0.45305000  0.55927000  0.09075000  1.0
  H  H12  1  0.48252000  0.49521000  0.74953000  1.0
  H  H13  1  0.51748000  0.50479000  0.25047000  1.0
  H  H14  1  0.73781000  0.15830000  0.17045000  1.0
  H  H15  1  0.26220000  0.84169000  0.82955000  1.0
  H  H16  1  0.71330000  0.77059000  0.82736000  1.0
  H  H17  1  0.28669000  0.22941000  0.17264000  1.0
  H  H18  1  0.60617000  0.17148000  0.42935000  1.0
  H  H19  1  0.39383000  0.82851000  0.57066000  1.0
  H  H20  1  0.94333000  0.17217000  0.54933000  1.0
  H  H21  1  0.05667000  0.82783000  0.45067000  1.0
  H  H22  1  0.72532000  0.99312000  0.27183000  1.0
  H  H23  1  0.27468000  0.00688000  0.72817000  1.0
  H  H24  1  0.75510000  0.73169000  0.71707000  1.0
  H  H25  1  0.24490000  0.26831000  0.28293000  1.0
  H  H26  1  0.43301000  0.10726000  0.40912000  1.0
  H  H27  1  0.56700000  0.89274000  0.59088000  1.0
  H  H28  1  0.07738000  0.04703000  0.59759000  1.0
  H  H29  1  0.92262000  0.95298000  0.40241000  1.0
  C  C30  1  0.94843000  0.49094000  0.27273000  1.0
  C  C31  1  0.05157000  0.50906000  0.72727000  1.0
  C  C32  1  0.98119000  0.66211000  0.22983000  1.0
  C  C33  1  0.01881000  0.33789000  0.77017000  1.0
  C  C34  1  0.95565000  0.73231000  0.14065000  1.0
  C  C35  1  0.04435000  0.26769000  0.85935000  1.0
  C  C36  1  0.89068000  0.62911000  0.09560000  1.0
  C  C37  1  0.10931000  0.37090000  0.90439000  1.0
  C  C38  1  0.84669000  0.46186000  0.13826000  1.0
  C  C39  1  0.15331000  0.53814000  0.86174000  1.0
  C  C40  1  0.87737000  0.38997000  0.22731000  1.0
  C  C41  1  0.12263000  0.61004000  0.77269000  1.0
  C  C42  1  0.99546000  0.42843000  0.36702000  1.0
  C  C43  1  0.00453000  0.57157000  0.63298000  1.0
  C  C44  1  0.83371000  0.20996000  0.27692000  1.0
  C  C45  1  0.16629000  0.79004000  0.72309000  1.0
  C  C46  1  0.55595000  0.24775000  0.73632000  1.0
  C  C47  1  0.44405000  0.75224000  0.26368000  1.0
  C  C48  1  0.63224000  0.09397000  0.77463000  1.0
  C  C49  1  0.36776000  0.90603000  0.22537000  1.0
  C  C50  1  0.67064000  0.06550000  0.86246000  1.0
  C  C51  1  0.32936000  0.93449000  0.13754000  1.0
  C  C52  1  0.63335000  0.18885000  0.91024000  1.0
  C  C53  1  0.36665000  0.81115000  0.08976000  1.0
  C  C54  1  0.56970000  0.34616000  0.87068000  1.0
  C  C55  1  0.43030000  0.65384000  0.12932000  1.0
  C  C56  1  0.53304000  0.37449000  0.78284000  1.0
  C  C57  1  0.46696000  0.62550000  0.21716000  1.0
  C  C58  1  0.48314000  0.28105000  0.64953000  1.0
  C  C59  1  0.51687000  0.71896000  0.35047000  1.0
  C  C60  1  0.67409000  0.96959000  0.71782000  1.0
  C  C61  1  0.32591000  0.03040000  0.28218000  1.0
  N  N62  1  0.87012000  0.69887000  0.00073000  1.0
  N  N63  1  0.12988000  0.30113000  0.99927000  1.0
  N  N64  1  0.76442000  0.11433000  0.23490000  1.0
  N  N65  1  0.23558000  0.88567000  0.76511000  1.0
  N  N66  1  0.65932000  0.15026000  0.00487000  1.0
  N  N67  1  0.34068000  0.84974000  0.99513000  1.0
  N  N68  1  0.71164000  0.81120000  0.75879000  1.0
  N  N69  1  0.28836000  0.18880000  0.24121000  1.0
  O  O70  1  0.15130000  0.38110000  0.36830000  1.0
  O  O71  1  0.84870000  0.61891000  0.63170000  1.0
  O  O72  1  0.88485000  0.44468000  0.43534000  1.0
  O  O73  1  0.11515000  0.55532000  0.56466000  1.0
  O  O74  1  0.86069000  0.15510000  0.35803000  1.0
  O  O75  1  0.13931000  0.84490000  0.64197000  1.0
  O  O76  1  0.75902000  0.63652000  0.97083000  1.0
  O  O77  1  0.24098000  0.36348000  0.02917000  1.0
  O  O78  1  0.96596000  0.81792000  0.95299000  1.0
  O  O79  1  0.03404000  0.18207000  0.04701000  1.0
  O  O80  1  0.54605000  0.39915000  0.58126000  1.0
  O  O81  1  0.45395000  0.60086000  0.41874000  1.0
  O  O82  1  0.34731000  0.20063000  0.65290000  1.0
  O  O83  1  0.65269000  0.79937000  0.34710000  1.0
  O  O84  1  0.67305000  0.01867000  0.63303000  1.0
  O  O85  1  0.32695000  0.98133000  0.36697000  1.0
  O  O86  1  0.70890000  0.00774000  0.04076000  1.0
  O  O87  1  0.29110000  0.99226000  0.95924000  1.0
  O  O88  1  0.62602000  0.26126000  0.04736000  1.0
  O  O89  1  0.37398000  0.73873000  0.95264000  1.0
  O  O90  1  0.48331000  0.19540000  0.43039000  1.0
  O  O91  1  0.51669000  0.80460000  0.56961000  1.0
  O  O92  1  0.04995000  0.16741000  0.57328000  1.0
  O  O93  1  0.95005000  0.83259000  0.42672000  1.0
