# generated using pymatgen
data_CoH15C20(NO2)3
_symmetry_space_group_name_H-M   'P 1'
_cell_length_a   9.23943000
_cell_length_b   10.10890000
_cell_length_c   11.65030000
_cell_angle_alpha   72.65240000
_cell_angle_beta   76.66320000
_cell_angle_gamma   69.00250000
_symmetry_Int_Tables_number   1
_chemical_formula_structural   CoH15C20(NO2)3
_chemical_formula_sum   'Co2 H30 C40 N6 O12'
_cell_volume   960.26925671
_cell_formula_units_Z   2
loop_
 _symmetry_equiv_pos_site_id
 _symmetry_equiv_pos_as_xyz
  1  'x, y, z'
loop_
 _atom_site_type_symbol
 _atom_site_label
 _atom_site_symmetry_multiplicity
 _atom_site_fract_x
 _atom_site_fract_y
 _atom_site_fract_z
 _atom_site_occupancy
  Co  Co0  1  0.43642000  0.37851000  0.88221000  1.0
  Co  Co1  1  0.56358000  0.62148000  0.11778000  1.0
  H  H2  1  0.32231000  0.21352000  0.57573000  1.0
  H  H3  1  0.67768000  0.78646000  0.42430000  1.0
  H  H4  1  0.32542000  0.76919000  0.65165000  1.0
  H  H5  1  0.67459000  0.23078000  0.34836000  1.0
  H  H6  1  0.41113000  0.92541000  0.92731000  1.0
  H  H7  1  0.58886000  0.07456000  0.07272000  1.0
  H  H8  1  0.17840000  0.58936000  0.00069000  1.0
  H  H9  1  0.82162000  0.41064000  0.99928000  1.0
  H  H10  1  0.97831000  0.57601000  0.18212000  1.0
  H  H11  1  0.02171000  0.42400000  0.81785000  1.0
  H  H12  1  0.13900000  0.10879000  0.23072000  1.0
  H  H13  1  0.86103000  0.89122000  0.76930000  1.0
  H  H14  1  0.33193000  0.14004000  0.04747000  1.0
  H  H15  1  0.66813000  0.85994000  0.95256000  1.0
  H  H16  1  0.92872000  0.21294000  0.37535000  1.0
  H  H17  1  0.07128000  0.78708000  0.62463000  1.0
  H  H18  1  0.80946000  0.39313000  0.31679000  1.0
  H  H19  1  0.19056000  0.60690000  0.68319000  1.0
  H  H20  1  0.07993000  0.31580000  0.46067000  1.0
  H  H21  1  0.92005000  0.68423000  0.53934000  1.0
  H  H22  1  0.96503000  0.49418000  0.39664000  1.0
  H  H23  1  0.03493000  0.50584000  0.60338000  1.0
  H  H24  1  0.66238000  0.56071000  0.45604000  1.0
  H  H25  1  0.33759000  0.43925000  0.54394000  1.0
  H  H26  1  0.46045000  0.55554000  0.63999000  1.0
  H  H27  1  0.53951000  0.44442000  0.35999000  1.0
  H  H28  1  0.76649000  0.20745000  0.84493000  1.0
  H  H29  1  0.23350000  0.79261000  0.15509000  1.0
  H  H30  1  0.98308000  0.19818000  0.67001000  1.0
  H  H31  1  0.01692000  0.80185000  0.33001000  1.0
  C  C32  1  0.36905000  0.08232000  0.75575000  1.0
  C  C33  1  0.63090000  0.91767000  0.24427000  1.0
  C  C34  1  0.33539000  0.10741000  0.63869000  1.0
  C  C35  1  0.66458000  0.89258000  0.36134000  1.0
  C  C36  1  0.32124000  0.99282000  0.60365000  1.0
  C  C37  1  0.67875000  0.00717000  0.39636000  1.0
  C  C38  1  0.33695000  0.85581000  0.68220000  1.0
  C  C39  1  0.66305000  0.14417000  0.31781000  1.0
  C  C40  1  0.36876000  0.83163000  0.79956000  1.0
  C  C41  1  0.63125000  0.16834000  0.20045000  1.0
  C  C42  1  0.38577000  0.94501000  0.83581000  1.0
  C  C43  1  0.61421000  0.05498000  0.16421000  1.0
  C  C44  1  0.38247000  0.20612000  0.79275000  1.0
  C  C45  1  0.61746000  0.79391000  0.20726000  1.0
  C  C46  1  0.38658000  0.68456000  0.88637000  1.0
  C  C47  1  0.61349000  0.31539000  0.11363000  1.0
  C  C48  1  0.16694000  0.48482000  0.05406000  1.0
  C  C49  1  0.83309000  0.51518000  0.94593000  1.0
  C  C50  1  0.05570000  0.47596000  0.15634000  1.0
  C  C51  1  0.94433000  0.52405000  0.84365000  1.0
  C  C52  1  0.04175000  0.34018000  0.22456000  1.0
  C  C53  1  0.95828000  0.65984000  0.77544000  1.0
  C  C54  1  0.14147000  0.21841000  0.18187000  1.0
  C  C55  1  0.85856000  0.78160000  0.81814000  1.0
  C  C56  1  0.25131000  0.23459000  0.07944000  1.0
  C  C57  1  0.74873000  0.76541000  0.92058000  1.0
  C  C58  1  0.92762000  0.32677000  0.33887000  1.0
  C  C59  1  0.07239000  0.67325000  0.66112000  1.0
  C  C60  1  0.96277000  0.38163000  0.43668000  1.0
  C  C61  1  0.03722000  0.61839000  0.56332000  1.0
  C  C62  1  0.84123000  0.38003000  0.54722000  1.0
  C  C63  1  0.15875000  0.61997000  0.45278000  1.0
  C  C64  1  0.69101000  0.48120000  0.54101000  1.0
  C  C65  1  0.30895000  0.51877000  0.45897000  1.0
  C  C66  1  0.57801000  0.47899000  0.64221000  1.0
  C  C67  1  0.42196000  0.52098000  0.35776000  1.0
  C  C68  1  0.74956000  0.28362000  0.75693000  1.0
  C  C69  1  0.25043000  0.71640000  0.24307000  1.0
  C  C70  1  0.86876000  0.28002000  0.65874000  1.0
  C  C71  1  0.13124000  0.72000000  0.34126000  1.0
  N  N72  1  0.29334000  0.01604000  0.47953000  1.0
  N  N73  1  0.70667000  0.98397000  0.52048000  1.0
  N  N74  1  0.26716000  0.36593000  0.01554000  1.0
  N  N75  1  0.73289000  0.63406000  0.98447000  1.0
  N  N76  1  0.60559000  0.38199000  0.74933000  1.0
  N  N77  1  0.39438000  0.61800000  0.25066000  1.0
  O  O78  1  0.47040000  0.17732000  0.87449000  1.0
  O  O79  1  0.52952000  0.82271000  0.12550000  1.0
  O  O80  1  0.30800000  0.33558000  0.74490000  1.0
  O  O81  1  0.69194000  0.66443000  0.25505000  1.0
  O  O82  1  0.40058000  0.66867000  0.99483000  1.0
  O  O83  1  0.59957000  0.33122000  0.00515000  1.0
  O  O84  1  0.37893000  0.58679000  0.83984000  1.0
  O  O85  1  0.62109000  0.41320000  0.16014000  1.0
  O  O86  1  0.26277000  0.91887000  0.45322000  1.0
  O  O87  1  0.73726000  0.08114000  0.54675000  1.0
  O  O88  1  0.30324000  0.13169000  0.40605000  1.0
  O  O89  1  0.69675000  0.86836000  0.59397000  1.0
