# generated using pymatgen
data_Zn4SiH48C80(N2F)8
_symmetry_space_group_name_H-M   'P 1'
_cell_length_a   13.94690000
_cell_length_b   13.94670000
_cell_length_c   15.62393435
_cell_angle_alpha   63.48665961
_cell_angle_beta   63.49827144
_cell_angle_gamma   90.00120000
_symmetry_Int_Tables_number   1
_chemical_formula_structural   Zn4SiH48C80(N2F)8
_chemical_formula_sum   'Zn4 Si1 H48 C80 N16 F8'
_cell_volume   2357.17723969
_cell_formula_units_Z   1
loop_
 _symmetry_equiv_pos_site_id
 _symmetry_equiv_pos_as_xyz
  1  'x, y, z'
loop_
 _atom_site_type_symbol
 _atom_site_label
 _atom_site_symmetry_multiplicity
 _atom_site_fract_x
 _atom_site_fract_y
 _atom_site_fract_z
 _atom_site_occupancy
  Zn  Zn0  1  0.34045000  0.34035000  0.31924000  1.0
  Zn  Zn1  1  0.65955000  0.65965000  0.68076000  1.0
  Zn  Zn2  1  0.17296000  0.17296000  0.65413000  1.0
  Zn  Zn3  1  0.82704000  0.82704000  0.34587000  1.0
  Si  Si4  1  0.50000000  0.50000000  0.00000000  1.0
  H  H5  1  0.44256000  0.22256000  0.46017000  1.0
  H  H6  1  0.09736000  0.31712000  0.46033000  1.0
  H  H7  1  0.22268000  0.09713000  0.46031000  1.0
  H  H8  1  0.31720000  0.44249000  0.46022000  1.0
  H  H9  1  0.55744000  0.77744000  0.53983000  1.0
  H  H10  1  0.90264000  0.68288000  0.53967000  1.0
  H  H11  1  0.77732000  0.90287000  0.53969000  1.0
  H  H12  1  0.68280000  0.55751000  0.53978000  1.0
  H  H13  1  0.56890000  0.09563000  0.47015000  1.0
  H  H14  1  0.96098000  0.43399000  0.47024000  1.0
  H  H15  1  0.09583000  0.96086000  0.47016000  1.0
  H  H16  1  0.43430000  0.56885000  0.47007000  1.0
  H  H17  1  0.43110000  0.90436000  0.52986000  1.0
  H  H18  1  0.03902000  0.56601000  0.52976000  1.0
  H  H19  1  0.90417000  0.03914000  0.52984000  1.0
  H  H20  1  0.56570000  0.43115000  0.52993000  1.0
  H  H21  1  0.63237000  0.14990000  0.15280000  1.0
  H  H22  1  0.21478000  0.69718000  0.15289000  1.0
  H  H23  1  0.14987000  0.21504000  0.15296000  1.0
  H  H24  1  0.69725000  0.63220000  0.15274000  1.0
  H  H25  1  0.36763000  0.85010000  0.84720000  1.0
  H  H26  1  0.78522000  0.30282000  0.84711000  1.0
  H  H27  1  0.85013000  0.78496000  0.84704000  1.0
  H  H28  1  0.30275000  0.36779000  0.84727000  1.0
  H  H29  1  0.50587000  0.27656000  0.15450000  1.0
  H  H30  1  0.33963000  0.56887000  0.15469000  1.0
  H  H31  1  0.27646000  0.33969000  0.15482000  1.0
  H  H32  1  0.56882000  0.50549000  0.15471000  1.0
  H  H33  1  0.49413000  0.72343000  0.84550000  1.0
  H  H34  1  0.66037000  0.43113000  0.84531000  1.0
  H  H35  1  0.72354000  0.66031000  0.84518000  1.0
  H  H36  1  0.43117000  0.49451000  0.84529000  1.0
  H  H37  1  0.48220000  0.96329000  0.31333000  1.0
  H  H38  1  0.20451000  0.72339000  0.31321000  1.0
  H  H39  1  0.96324000  0.20451000  0.31330000  1.0
  H  H40  1  0.72336000  0.48220000  0.31329000  1.0
  H  H41  1  0.51780000  0.03671000  0.68667000  1.0
  H  H42  1  0.79549000  0.27662000  0.68678000  1.0
  H  H43  1  0.03676000  0.79549000  0.68670000  1.0
  H  H44  1  0.27664000  0.51780000  0.68671000  1.0
  H  H45  1  0.47048000  0.77227000  0.31218000  1.0
  H  H46  1  0.21724000  0.91546000  0.31231000  1.0
  H  H47  1  0.77222000  0.21722000  0.31215000  1.0
  H  H48  1  0.91534000  0.47032000  0.31260000  1.0
  H  H49  1  0.52952000  0.22773000  0.68782000  1.0
  H  H50  1  0.78276000  0.08455000  0.68768000  1.0
  H  H51  1  0.22778000  0.78278000  0.68785000  1.0
  H  H52  1  0.08466000  0.52968000  0.68740000  1.0
  C  C53  1  0.48793000  0.20507000  0.39323000  1.0
  C  C54  1  0.11891000  0.40158000  0.39338000  1.0
  C  C55  1  0.20511000  0.11876000  0.39340000  1.0
  C  C56  1  0.40165000  0.48780000  0.39329000  1.0
  C  C57  1  0.51207000  0.79493000  0.60677000  1.0
  C  C58  1  0.88109000  0.59843000  0.60662000  1.0
  C  C59  1  0.79489000  0.88125000  0.60659000  1.0
  C  C60  1  0.59835000  0.51220000  0.60671000  1.0
  C  C61  1  0.55791000  0.13421000  0.39833000  1.0
  C  C62  1  0.04378000  0.46725000  0.39844000  1.0
  C  C63  1  0.13429000  0.04372000  0.39842000  1.0
  C  C64  1  0.46747000  0.55785000  0.39827000  1.0
  C  C65  1  0.44209000  0.86579000  0.60167000  1.0
  C  C66  1  0.95622000  0.53275000  0.60156000  1.0
  C  C67  1  0.86571000  0.95628000  0.60158000  1.0
  C  C68  1  0.53253000  0.44215000  0.60173000  1.0
  C  C69  1  0.60978000  0.10988000  0.31270000  1.0
  C  C70  1  0.07749000  0.57726000  0.31281000  1.0
  C  C71  1  0.10991000  0.07757000  0.31278000  1.0
  C  C72  1  0.57741000  0.60974000  0.31259000  1.0
  C  C73  1  0.39022000  0.89012000  0.68730000  1.0
  C  C74  1  0.92251000  0.42274000  0.68719000  1.0
  C  C75  1  0.89009000  0.92243000  0.68722000  1.0
  C  C76  1  0.42259000  0.39026000  0.68741000  1.0
  C  C77  1  0.59189000  0.16358000  0.22285000  1.0
  C  C78  1  0.18523000  0.61344000  0.22296000  1.0
  C  C79  1  0.16353000  0.18539000  0.22304000  1.0
  C  C80  1  0.61353000  0.59173000  0.22282000  1.0
  C  C81  1  0.40811000  0.83642000  0.77715000  1.0
  C  C82  1  0.81477000  0.38656000  0.77704000  1.0
  C  C83  1  0.83647000  0.81461000  0.77696000  1.0
  C  C84  1  0.38647000  0.40827000  0.77718000  1.0
  C  C85  1  0.52128000  0.23394000  0.22334000  1.0
  C  C86  1  0.25537000  0.54263000  0.22350000  1.0
  C  C87  1  0.23386000  0.25542000  0.22363000  1.0
  C  C88  1  0.54267000  0.52095000  0.22350000  1.0
  C  C89  1  0.47872000  0.76606000  0.77666000  1.0
  C  C90  1  0.74462000  0.45737000  0.77650000  1.0
  C  C91  1  0.76614000  0.74458000  0.77637000  1.0
  C  C92  1  0.45733000  0.47905000  0.77650000  1.0
  C  C93  1  0.67821000  0.02801000  0.31735000  1.0
  C  C94  1  0.00440000  0.65447000  0.31745000  1.0
  C  C95  1  0.02812000  0.00445000  0.31737000  1.0
  C  C96  1  0.65458000  0.67821000  0.31723000  1.0
  C  C97  1  0.32179000  0.97199000  0.68265000  1.0
  C  C98  1  0.99560000  0.34554000  0.68254000  1.0
  C  C99  1  0.97188000  0.99555000  0.68263000  1.0
  C  C100  1  0.34542000  0.32179000  0.68277000  1.0
  C  C101  1  0.64063000  0.93427000  0.31701000  1.0
  C  C102  1  0.04235000  0.74862000  0.31702000  1.0
  C  C103  1  0.93437000  0.04234000  0.31701000  1.0
  C  C104  1  0.74866000  0.64066000  0.31694000  1.0
  C  C105  1  0.35937000  0.06573000  0.68299000  1.0
  C  C106  1  0.95765000  0.25138000  0.68298000  1.0
  C  C107  1  0.06564000  0.95766000  0.68299000  1.0
  C  C108  1  0.25133000  0.35935000  0.68306000  1.0
  C  C109  1  0.53998000  0.91136000  0.31553000  1.0
  C  C110  1  0.14449000  0.77308000  0.31549000  1.0
  C  C111  1  0.91137000  0.14446000  0.31551000  1.0
  C  C112  1  0.77305000  0.53997000  0.31553000  1.0
  C  C113  1  0.46002000  0.08864000  0.68447000  1.0
  C  C114  1  0.85551000  0.22692000  0.68451000  1.0
  C  C115  1  0.08863000  0.85554000  0.68449000  1.0
  C  C116  1  0.22695000  0.46003000  0.68447000  1.0
  C  C117  1  0.53340000  0.81348000  0.31584000  1.0
  C  C118  1  0.15071000  0.87060000  0.31589000  1.0
  C  C119  1  0.81348000  0.15065000  0.31583000  1.0
  C  C120  1  0.87051000  0.53330000  0.31607000  1.0
  C  C121  1  0.46659000  0.18652000  0.68416000  1.0
  C  C122  1  0.84929000  0.12940000  0.68411000  1.0
  C  C123  1  0.18652000  0.84935000  0.68417000  1.0
  C  C124  1  0.12949000  0.46670000  0.68393000  1.0
  C  C125  1  0.62883000  0.77507000  0.31942000  1.0
  C  C126  1  0.05168000  0.90539000  0.31952000  1.0
  C  C127  1  0.77511000  0.05159000  0.31948000  1.0
  C  C128  1  0.90536000  0.62875000  0.31961000  1.0
  C  C129  1  0.37117000  0.22493000  0.68058000  1.0
  C  C130  1  0.94832000  0.09461000  0.68048000  1.0
  C  C131  1  0.22489000  0.94841000  0.68052000  1.0
  C  C132  1  0.09464000  0.37125000  0.68039000  1.0
  N  N133  1  0.46859000  0.25283000  0.30830000  1.0
  N  N134  1  0.22317000  0.43878000  0.30847000  1.0
  N  N135  1  0.25281000  0.22307000  0.30856000  1.0
  N  N136  1  0.43881000  0.46835000  0.30845000  1.0
  N  N137  1  0.53141000  0.74717000  0.69170000  1.0
  N  N138  1  0.77683000  0.56122000  0.69153000  1.0
  N  N139  1  0.74719000  0.77693000  0.69144000  1.0
  N  N140  1  0.56119000  0.53165000  0.69155000  1.0
  N  N141  1  0.69197000  0.84965000  0.32055000  1.0
  N  N142  1  0.98743000  0.82968000  0.32063000  1.0
  N  N143  1  0.84973000  0.98739000  0.32059000  1.0
  N  N144  1  0.82971000  0.69195000  0.32059000  1.0
  N  N145  1  0.30803000  0.15036000  0.67945000  1.0
  N  N146  1  0.01257000  0.17032000  0.67937000  1.0
  N  N147  1  0.15027000  0.01261000  0.67941000  1.0
  N  N148  1  0.17029000  0.30805000  0.67941000  1.0
  F  F149  1  0.25706000  0.25674000  0.48621000  1.0
  F  F150  1  0.74294000  0.74326000  0.51379000  1.0
  F  F151  1  0.42841000  0.42857000  0.14296000  1.0
  F  F152  1  0.57159000  0.57143000  0.85704000  1.0
  F  F153  1  0.49968000  0.37729000  0.00010000  1.0
  F  F154  1  0.50033000  0.62271000  0.99990000  1.0
  F  F155  1  0.37744000  0.50039000  0.99983000  1.0
  F  F156  1  0.62256000  0.49961000  0.00017000  1.0
