# generated using pymatgen
data_YH27C22(NO5)2
_symmetry_space_group_name_H-M   'P 1'
_cell_length_a   9.17057000
_cell_length_b   11.83110000
_cell_length_c   12.72750000
_cell_angle_alpha   85.63800000
_cell_angle_beta   71.04490000
_cell_angle_gamma   68.85120000
_symmetry_Int_Tables_number   1
_chemical_formula_structural   YH27C22(NO5)2
_chemical_formula_sum   'Y2 H54 C44 N4 O20'
_cell_volume   1216.73488063
_cell_formula_units_Z   2
loop_
 _symmetry_equiv_pos_site_id
 _symmetry_equiv_pos_as_xyz
  1  'x, y, z'
loop_
 _atom_site_type_symbol
 _atom_site_label
 _atom_site_symmetry_multiplicity
 _atom_site_fract_x
 _atom_site_fract_y
 _atom_site_fract_z
 _atom_site_occupancy
  Y  Y0  1  0.84554000  0.89618000  0.52347000  1.0
  Y  Y1  1  0.15446000  0.10382000  0.47653000  1.0
  H  H2  1  0.89329000  0.26386000  0.32212000  1.0
  H  H3  1  0.10671000  0.73613000  0.67788000  1.0
  H  H4  1  0.63202000  0.20004000  0.25997000  1.0
  H  H5  1  0.36798000  0.79996000  0.74003000  1.0
  H  H6  1  0.80708000  0.38578000  0.17278000  1.0
  H  H7  1  0.19292000  0.61422000  0.82722000  1.0
  H  H8  1  0.59528000  0.41318000  0.18962000  1.0
  H  H9  1  0.40473000  0.58682000  0.81038000  1.0
  H  H10  1  0.75203000  0.30413000  0.08871000  1.0
  H  H11  1  0.24797000  0.69587000  0.91129000  1.0
  H  H12  1  0.28104000  0.57766000  0.24959000  1.0
  H  H13  1  0.71896000  0.42233000  0.75041000  1.0
  H  H14  1  0.27464000  0.82233000  0.14516000  1.0
  H  H15  1  0.72536000  0.17766000  0.85485000  1.0
  H  H16  1  0.57272000  0.67751000  0.06870000  1.0
  H  H17  1  0.42728000  0.32249000  0.93130000  1.0
  H  H18  1  0.46209000  0.68535000  0.97763000  1.0
  H  H19  1  0.53792000  0.31465000  0.02237000  1.0
  H  H20  1  0.49966000  0.55695000  0.06383000  1.0
  H  H21  1  0.50034000  0.44305000  0.93617000  1.0
  H  H22  1  0.74732000  0.62268000  0.89461000  1.0
  H  H23  1  0.25267000  0.37731000  0.10539000  1.0
  H  H24  1  0.04854000  0.54587000  0.68330000  1.0
  H  H25  1  0.95145000  0.45413000  0.31670000  1.0
  H  H26  1  0.96154000  0.42847000  0.91250000  1.0
  H  H27  1  0.03845000  0.57153000  0.08750000  1.0
  H  H28  1  0.16584000  0.41882000  0.83042000  1.0
  H  H29  1  0.83416000  0.58118000  0.16958000  1.0
  H  H30  1  0.06267000  0.34498000  0.78216000  1.0
  H  H31  1  0.93732000  0.65502000  0.21784000  1.0
  H  H32  1  0.49877000  0.81897000  0.36097000  1.0
  H  H33  1  0.50124000  0.18103000  0.63902000  1.0
  H  H34  1  0.36833000  0.66238000  0.40164000  1.0
  H  H35  1  0.63168000  0.33762000  0.59835000  1.0
  H  H36  1  0.74306000  0.45856000  0.55231000  1.0
  H  H37  1  0.25692000  0.54145000  0.44771000  1.0
  H  H38  1  0.85139000  0.62633000  0.50878000  1.0
  H  H39  1  0.14860000  0.37368000  0.49123000  1.0
  H  H40  1  0.47094000  0.93262000  0.60415000  1.0
  H  H41  1  0.52906000  0.06738000  0.39585000  1.0
  H  H42  1  0.56600000  0.88935000  0.69621000  1.0
  H  H43  1  0.43400000  0.11066000  0.30379000  1.0
  H  H44  1  0.83298000  0.06260000  0.69002000  1.0
  H  H45  1  0.16702000  0.93739000  0.30998000  1.0
  H  H46  1  0.65324000  0.04826000  0.74405000  1.0
  H  H47  1  0.34676000  0.95174000  0.25595000  1.0
  H  H48  1  0.69607000  0.89626000  0.26293000  1.0
  H  H49  1  0.30392000  0.10375000  0.73707000  1.0
  H  H50  1  0.93590000  0.95831000  0.19341000  1.0
  H  H51  1  0.06410000  0.04169000  0.80660000  1.0
  H  H52  1  0.88267000  0.97118000  0.86512000  1.0
  H  H53  1  0.11735000  0.02881000  0.13488000  1.0
  H  H54  1  0.64178000  0.90772000  0.94957000  1.0
  H  H55  1  0.35823000  0.09227000  0.05042000  1.0
  C  C56  1  0.80450000  0.12304000  0.40495000  1.0
  C  C57  1  0.19550000  0.87696000  0.59505000  1.0
  C  C58  1  0.80713000  0.21887000  0.32456000  1.0
  C  C59  1  0.19287000  0.78112000  0.67544000  1.0
  C  C60  1  0.71560000  0.24784000  0.25607000  1.0
  C  C61  1  0.28440000  0.75215000  0.74394000  1.0
  C  C62  1  0.71912000  0.34294000  0.17285000  1.0
  C  C63  1  0.28089000  0.65706000  0.82715000  1.0
  C  C64  1  0.10598000  0.75005000  0.33544000  1.0
  C  C65  1  0.89402000  0.24994000  0.66456000  1.0
  C  C66  1  0.24077000  0.67571000  0.24026000  1.0
  C  C67  1  0.75923000  0.32429000  0.75974000  1.0
  C  C68  1  0.31900000  0.72384000  0.15064000  1.0
  C  C69  1  0.68100000  0.27615000  0.84936000  1.0
  C  C70  1  0.47011000  0.65528000  0.06016000  1.0
  C  C71  1  0.52989000  0.34472000  0.93984000  1.0
  C  C72  1  0.75916000  0.73234000  0.74756000  1.0
  C  C73  1  0.24083000  0.26766000  0.25244000  1.0
  C  C74  1  0.82740000  0.62648000  0.81065000  1.0
  C  C75  1  0.17258000  0.37351000  0.18935000  1.0
  C  C76  1  0.97445000  0.53781000  0.76842000  1.0
  C  C77  1  0.02554000  0.46219000  0.23158000  1.0
  C  C78  1  0.04343000  0.42769000  0.82732000  1.0
  C  C79  1  0.95657000  0.57231000  0.17268000  1.0
  C  C80  1  0.54404000  0.73711000  0.40359000  1.0
  C  C81  1  0.45597000  0.26290000  0.59641000  1.0
  C  C82  1  0.47522000  0.64847000  0.42742000  1.0
  C  C83  1  0.52479000  0.35153000  0.57258000  1.0
  C  C84  1  0.53823000  0.54614000  0.48531000  1.0
  C  C85  1  0.46177000  0.45387000  0.51470000  1.0
  C  C86  1  0.67798000  0.53741000  0.51350000  1.0
  C  C87  1  0.32201000  0.46261000  0.48651000  1.0
  C  C88  1  0.74378000  0.62789000  0.48922000  1.0
  C  C89  1  0.25621000  0.37212000  0.51079000  1.0
  C  C90  1  0.74093000  0.91674000  0.17626000  1.0
  C  C91  1  0.25907000  0.08326000  0.82374000  1.0
  C  C92  1  0.87488000  0.95302000  0.13453000  1.0
  C  C93  1  0.12512000  0.04698000  0.86547000  1.0
  C  C94  1  0.93046000  0.97864000  0.02188000  1.0
  C  C95  1  0.06955000  0.02135000  0.97812000  1.0
  C  C96  1  0.84540000  0.95936000  0.95439000  1.0
  C  C97  1  0.15461000  0.04063000  0.04561000  1.0
  C  C98  1  0.71092000  0.92352000  0.99854000  1.0
  C  C99  1  0.28908000  0.07648000  0.00146000  1.0
  N  N100  1  0.67540000  0.72763000  0.43624000  1.0
  N  N101  1  0.32460000  0.27238000  0.56376000  1.0
  N  N102  1  0.65624000  0.90497000  0.10972000  1.0
  N  N103  1  0.34376000  0.09503000  0.89028000  1.0
  O  O104  1  0.70777000  0.06331000  0.42134000  1.0
  O  O105  1  0.29222000  0.93668000  0.57866000  1.0
  O  O106  1  0.90650000  0.09606000  0.46048000  1.0
  O  O107  1  0.09351000  0.90394000  0.53951000  1.0
  O  O108  1  0.03768000  0.86588000  0.32957000  1.0
  O  O109  1  0.96232000  0.13412000  0.67043000  1.0
  O  O110  1  0.06092000  0.69966000  0.42617000  1.0
  O  O111  1  0.93908000  0.30034000  0.57383000  1.0
  O  O112  1  0.85295000  0.74642000  0.65123000  1.0
  O  O113  1  0.14704000  0.25358000  0.34877000  1.0
  O  O114  1  0.61030000  0.80193000  0.79225000  1.0
  O  O115  1  0.38969000  0.19807000  0.20775000  1.0
  O  O116  1  0.73603000  0.81489000  0.41367000  1.0
  O  O117  1  0.26397000  0.18512000  0.58632000  1.0
  O  O118  1  0.56373000  0.93612000  0.62577000  1.0
  O  O119  1  0.43627000  0.06388000  0.37423000  1.0
  O  O120  1  0.76569000  0.01271000  0.68908000  1.0
  O  O121  1  0.23432000  0.98729000  0.31092000  1.0
  O  O122  1  0.52664000  0.87325000  0.15098000  1.0
  O  O123  1  0.47336000  0.12675000  0.84902000  1.0
