# generated using pymatgen
data_Cu3H32C18N8O13
_symmetry_space_group_name_H-M   'P 1'
_cell_length_a   11.20140000
_cell_length_b   11.20950000
_cell_length_c   12.49300000
_cell_angle_alpha   105.03400000
_cell_angle_beta   104.83300000
_cell_angle_gamma   102.74000000
_symmetry_Int_Tables_number   1
_chemical_formula_structural   Cu3H32C18N8O13
_chemical_formula_sum   'Cu6 H64 C36 N16 O26'
_cell_volume   1393.58913449
_cell_formula_units_Z   2
loop_
 _symmetry_equiv_pos_site_id
 _symmetry_equiv_pos_as_xyz
  1  'x, y, z'
loop_
 _atom_site_type_symbol
 _atom_site_label
 _atom_site_symmetry_multiplicity
 _atom_site_fract_x
 _atom_site_fract_y
 _atom_site_fract_z
 _atom_site_occupancy
  Cu  Cu0  1  0.75961000  0.69299000  0.78805000  1.0
  Cu  Cu1  1  0.30581000  0.24108000  0.71515000  1.0
  Cu  Cu2  1  0.24161000  0.30585000  0.21448000  1.0
  Cu  Cu3  1  0.69182000  0.75967000  0.28590000  1.0
  Cu  Cu4  1  0.15196000  0.84546000  0.24919000  1.0
  Cu  Cu5  1  0.84588000  0.15174000  0.74688000  1.0
  H  H6  1  0.39172000  0.66894000  0.96660000  1.0
  H  H7  1  0.32515000  0.60871000  0.52985000  1.0
  H  H8  1  0.61117000  0.32525000  0.02862000  1.0
  H  H9  1  0.66835000  0.39386000  0.46554000  1.0
  H  H10  1  0.19908000  0.95779000  0.95552000  1.0
  H  H11  1  0.04094000  0.80595000  0.55319000  1.0
  H  H12  1  0.80545000  0.03893000  0.05125000  1.0
  H  H13  1  0.95742000  0.20105000  0.45493000  1.0
  H  H14  1  0.47512000  0.92574000  0.77444000  1.0
  H  H15  1  0.07747000  0.52855000  0.73099000  1.0
  H  H16  1  0.52692000  0.07750000  0.22826000  1.0
  H  H17  1  0.92491000  0.47448000  0.27195000  1.0
  H  H18  1  0.93549000  0.95362000  0.20581000  1.0
  H  H19  1  0.06149000  0.07618000  0.28003000  1.0
  H  H20  1  0.07737000  0.06445000  0.77457000  1.0
  H  H21  1  0.95642000  0.93791000  0.70001000  1.0
  H  H22  1  0.67462000  0.45829000  0.64937000  1.0
  H  H23  1  0.54208000  0.32565000  0.84748000  1.0
  H  H24  1  0.32528000  0.54191000  0.34866000  1.0
  H  H25  1  0.45655000  0.67401000  0.14934000  1.0
  H  H26  1  0.54798000  0.51436000  0.64913000  1.0
  H  H27  1  0.48698000  0.45298000  0.85096000  1.0
  H  H28  1  0.45287000  0.48721000  0.35071000  1.0
  H  H29  1  0.51309000  0.54762000  0.14810000  1.0
  H  H30  1  0.64508000  0.55817000  0.57623000  1.0
  H  H31  1  0.44650000  0.35623000  0.92533000  1.0
  H  H32  1  0.35624000  0.44512000  0.42478000  1.0
  H  H33  1  0.55562000  0.64465000  0.07483000  1.0
  H  H34  1  0.83119000  0.83842000  0.00277000  1.0
  H  H35  1  0.14484000  0.16640000  0.50706000  1.0
  H  H36  1  0.16824000  0.14697000  0.00517000  1.0
  H  H37  1  0.83923000  0.83310000  0.49959000  1.0
  H  H38  1  0.96290000  0.81812000  0.97297000  1.0
  H  H39  1  0.18208000  0.03808000  0.53208000  1.0
  H  H40  1  0.03859000  0.17972000  0.03178000  1.0
  H  H41  1  0.81856000  0.96433000  0.46972000  1.0
  H  H42  1  0.89133000  0.91855000  0.92492000  1.0
  H  H43  1  0.08179000  0.09664000  0.59291000  1.0
  H  H44  1  0.10143000  0.08029000  0.09032000  1.0
  H  H45  1  0.91844000  0.89225000  0.42065000  1.0
  H  H46  1  0.33022000  0.02312000  0.24024000  1.0
  H  H47  1  0.97181000  0.66849000  0.25808000  1.0
  H  H48  1  0.67036000  0.97213000  0.75751000  1.0
  H  H49  1  0.02478000  0.32996000  0.73913000  1.0
  H  H50  1  0.38920000  0.92661000  0.30451000  1.0
  H  H51  1  0.07019000  0.61037000  0.19518000  1.0
  H  H52  1  0.61126000  0.06934000  0.69425000  1.0
  H  H53  1  0.92726000  0.38845000  0.80302000  1.0
  H  H54  1  0.35212000  0.05211000  0.38136000  1.0
  H  H55  1  0.94485000  0.64595000  0.11718000  1.0
  H  H56  1  0.64651000  0.94351000  0.61615000  1.0
  H  H57  1  0.05200000  0.35100000  0.87993000  1.0
  H  H58  1  0.74811000  0.55716000  0.08649000  1.0
  H  H59  1  0.43845000  0.24921000  0.41185000  1.0
  H  H60  1  0.24887000  0.43805000  0.91156000  1.0
  H  H61  1  0.55675000  0.74757000  0.58637000  1.0
  H  H62  1  0.76486000  0.47056000  0.96606000  1.0
  H  H63  1  0.52387000  0.23684000  0.53443000  1.0
  H  H64  1  0.23507000  0.52324000  0.03384000  1.0
  H  H65  1  0.47028000  0.76377000  0.46598000  1.0
  H  H66  1  0.71281000  0.59810000  0.96768000  1.0
  H  H67  1  0.39348000  0.28454000  0.52842000  1.0
  H  H68  1  0.28434000  0.39378000  0.02821000  1.0
  H  H69  1  0.59819000  0.71240000  0.46750000  1.0
  C  C70  1  0.44537000  0.79100000  0.86883000  1.0
  C  C71  1  0.20815000  0.55670000  0.63227000  1.0
  C  C72  1  0.55715000  0.20813000  0.13027000  1.0
  C  C73  1  0.79031000  0.44612000  0.36709000  1.0
  C  C74  1  0.37606000  0.74895000  0.93732000  1.0
  C  C75  1  0.24702000  0.62530000  0.56206000  1.0
  C  C76  1  0.62671000  0.24681000  0.06055000  1.0
  C  C77  1  0.74836000  0.37767000  0.43616000  1.0
  C  C78  1  0.28861000  0.80924000  0.97025000  1.0
  C  C79  1  0.18638000  0.71355000  0.53139000  1.0
  C  C80  1  0.71476000  0.18548000  0.02991000  1.0
  C  C81  1  0.80855000  0.29039000  0.46919000  1.0
  C  C82  1  0.26682000  0.90997000  0.92996000  1.0
  C  C83  1  0.08866000  0.73715000  0.57603000  1.0
  C  C84  1  0.73693000  0.08727000  0.07403000  1.0
  C  C85  1  0.90943000  0.26829000  0.42886000  1.0
  C  C86  1  0.33320000  0.95151000  0.85902000  1.0
  C  C87  1  0.05002000  0.67117000  0.64830000  1.0
  C  C88  1  0.66994000  0.04890000  0.14584000  1.0
  C  C89  1  0.95093000  0.33385000  0.35746000  1.0
  C  C90  1  0.42304000  0.89218000  0.82877000  1.0
  C  C91  1  0.10922000  0.58023000  0.67571000  1.0
  C  C92  1  0.57944000  0.10888000  0.17335000  1.0
  C  C93  1  0.89144000  0.42325000  0.32682000  1.0
  C  C94  1  0.54637000  0.72941000  0.84684000  1.0
  C  C95  1  0.27113000  0.45614000  0.65356000  1.0
  C  C96  1  0.45680000  0.27156000  0.15179000  1.0
  C  C97  1  0.72869000  0.54690000  0.34493000  1.0
  C  C98  1  0.23167000  0.77485000  0.05854000  1.0
  C  C99  1  0.21778000  0.76960000  0.44148000  1.0
  C  C100  1  0.77203000  0.21687000  0.94053000  1.0
  C  C101  1  0.77418000  0.23397000  0.55776000  1.0
  C  C102  1  0.30864000  0.06147000  0.81971000  1.0
  C  C103  1  0.94261000  0.69608000  0.69201000  1.0
  C  C104  1  0.69357000  0.94127000  0.18926000  1.0
  C  C105  1  0.06120000  0.30902000  0.31836000  1.0
  N  N106  1  0.64310000  0.53857000  0.65171000  1.0
  N  N107  1  0.46294000  0.35793000  0.84841000  1.0
  N  N108  1  0.35785000  0.46271000  0.34837000  1.0
  N  N109  1  0.53681000  0.64271000  0.15072000  1.0
  N  N110  1  0.87456000  0.83131000  0.93904000  1.0
  N  N111  1  0.16290000  0.12201000  0.56929000  1.0
  N  N112  1  0.12392000  0.16247000  0.06802000  1.0
  N  N113  1  0.83152000  0.87580000  0.43563000  1.0
  N  N114  1  0.32365000  0.97753000  0.30068000  1.0
  N  N115  1  0.01857000  0.67534000  0.19834000  1.0
  N  N116  1  0.67649000  0.01800000  0.69717000  1.0
  N  N117  1  0.97823000  0.32294000  0.79899000  1.0
  N  N118  1  0.77664000  0.56356000  0.01612000  1.0
  N  N119  1  0.43086000  0.22147000  0.48230000  1.0
  N  N120  1  0.22081000  0.43033000  0.98189000  1.0
  N  N121  1  0.56329000  0.77603000  0.51606000  1.0
  O  O122  1  0.61680000  0.77561000  0.79088000  1.0
  O  O123  1  0.22529000  0.38506000  0.70926000  1.0
  O  O124  1  0.38636000  0.22665000  0.20842000  1.0
  O  O125  1  0.77485000  0.61700000  0.28878000  1.0
  O  O126  1  0.56117000  0.63891000  0.88645000  1.0
  O  O127  1  0.36226000  0.44303000  0.61425000  1.0
  O  O128  1  0.44337000  0.36204000  0.11191000  1.0
  O  O129  1  0.63828000  0.56203000  0.38484000  1.0
  O  O130  1  0.14327000  0.82587000  0.07829000  1.0
  O  O131  1  0.16378000  0.85577000  0.41996000  1.0
  O  O132  1  0.85742000  0.16172000  0.91827000  1.0
  O  O133  1  0.82382000  0.14447000  0.57615000  1.0
  O  O134  1  0.27849000  0.70766000  0.11429000  1.0
  O  O135  1  0.28611000  0.72417000  0.38608000  1.0
  O  O136  1  0.72810000  0.28630000  0.88604000  1.0
  O  O137  1  0.70836000  0.28205000  0.61480000  1.0
  O  O138  1  0.23843000  0.12317000  0.86051000  1.0
  O  O139  1  0.88400000  0.77267000  0.65989000  1.0
  O  O140  1  0.76911000  0.88141000  0.15628000  1.0
  O  O141  1  0.12295000  0.23943000  0.35966000  1.0
  O  O142  1  0.36039000  0.08856000  0.74472000  1.0
  O  O143  1  0.91227000  0.63649000  0.76100000  1.0
  O  O144  1  0.63458000  0.91227000  0.25916000  1.0
  O  O145  1  0.08861000  0.36027000  0.24322000  1.0
  O  O146  1  0.03065000  0.98618000  0.22429000  1.0
  O  O147  1  0.98968000  0.03238000  0.71467000  1.0
