# generated using pymatgen
data_ZnH10C12Br2(NO)2
_symmetry_space_group_name_H-M   'P 1'
_cell_length_a   8.10399000
_cell_length_b   10.61857958
_cell_length_c   10.61990000
_cell_angle_alpha   65.26487395
_cell_angle_beta   88.39290000
_cell_angle_gamma   88.38741306
_symmetry_Int_Tables_number   1
_chemical_formula_structural   ZnH10C12Br2(NO)2
_chemical_formula_sum   'Zn2 H20 C24 Br4 N4 O4'
_cell_volume   829.56466332
_cell_formula_units_Z   2
loop_
 _symmetry_equiv_pos_site_id
 _symmetry_equiv_pos_as_xyz
  1  'x, y, z'
loop_
 _atom_site_type_symbol
 _atom_site_label
 _atom_site_symmetry_multiplicity
 _atom_site_fract_x
 _atom_site_fract_y
 _atom_site_fract_z
 _atom_site_occupancy
  Zn  Zn0  1  0.98165000  0.46795000  0.05745000  1.0
  Zn  Zn1  1  0.48173000  0.05685000  0.46806000  1.0
  H  H2  1  0.82639000  0.37762000  0.84973000  1.0
  H  H3  1  0.32573000  0.84968000  0.37742000  1.0
  H  H4  1  0.70244000  0.16619000  0.84965000  1.0
  H  H5  1  0.20193000  0.84996000  0.16582000  1.0
  H  H6  1  0.97064000  0.16921000  0.25692000  1.0
  H  H7  1  0.47056000  0.25674000  0.16959000  1.0
  H  H8  1  0.85552000  0.94869000  0.27728000  1.0
  H  H9  1  0.35556000  0.27754000  0.94884000  1.0
  H  H10  1  0.68581000  0.79434000  0.29639000  1.0
  H  H11  1  0.18585000  0.29657000  0.79392000  1.0
  H  H12  1  0.56478000  0.58371000  0.29012000  1.0
  H  H13  1  0.06489000  0.29006000  0.58340000  1.0
  H  H14  1  0.67450000  0.98170000  0.84492000  1.0
  H  H15  1  0.17485000  0.84508000  0.98156000  1.0
  H  H16  1  0.54963000  0.76827000  0.85889000  1.0
  H  H17  1  0.05022000  0.85879000  0.76825000  1.0
  H  H18  1  0.52323000  0.45640000  0.16969000  1.0
  H  H19  1  0.02329000  0.16949000  0.45626000  1.0
  H  H20  1  0.53274000  0.53232000  0.98383000  1.0
  H  H21  1  0.03314000  0.98362000  0.53221000  1.0
  C  C22  1  0.83049000  0.27892000  0.94139000  1.0
  C  C23  1  0.33004000  0.94138000  0.27879000  1.0
  C  C24  1  0.76074000  0.16033000  0.94319000  1.0
  C  C25  1  0.26038000  0.94340000  0.16010000  1.0
  C  C26  1  0.91196000  0.16283000  0.16896000  1.0
  C  C27  1  0.41186000  0.16889000  0.16299000  1.0
  C  C28  1  0.84573000  0.03965000  0.17917000  1.0
  C  C29  1  0.34572000  0.17934000  0.03970000  1.0
  C  C30  1  0.76721000  0.03627000  0.06470000  1.0
  C  C31  1  0.26718000  0.06495000  0.03612000  1.0
  C  C32  1  0.69307000  0.90839000  0.07052000  1.0
  C  C33  1  0.19329000  0.07073000  0.90819000  1.0
  C  C34  1  0.66048000  0.79365000  0.19655000  1.0
  C  C35  1  0.16062000  0.19667000  0.79335000  1.0
  C  C36  1  0.59291000  0.67561000  0.19632000  1.0
  C  C37  1  0.09312000  0.19631000  0.67533000  1.0
  C  C38  1  0.65159000  0.89888000  0.94747000  1.0
  C  C39  1  0.15198000  0.94761000  0.89869000  1.0
  C  C40  1  0.58469000  0.77895000  0.95225000  1.0
  C  C41  1  0.08520000  0.95225000  0.77879000  1.0
  C  C42  1  0.48437000  0.54557000  0.07516000  1.0
  C  C43  1  0.98463000  0.07493000  0.54548000  1.0
  C  C44  1  0.29439000  0.55577000  0.07413000  1.0
  C  C45  1  0.79464000  0.07368000  0.55591000  1.0
  Br  Br46  1  0.88069000  0.43554000  0.28245000  1.0
  Br  Br47  1  0.38046000  0.28187000  0.43549000  1.0
  Br  Br48  1  0.87804000  0.63345000  0.83959000  1.0
  Br  Br49  1  0.37779000  0.83878000  0.63292000  1.0
  N  N50  1  0.90501000  0.28085000  0.05248333  1.0
  N  N51  1  0.40481000  0.05231000  0.28089000  1.0
  N  N52  1  0.55725000  0.66984000  0.07507000  1.0
  N  N53  1  0.05761000  0.07500000  0.66963000  1.0
  O  O54  1  0.22830000  0.46088000  0.04742000  1.0
  O  O55  1  0.72842000  0.04706000  0.46102000  1.0
  O  O56  1  0.22216000  0.64776000  0.09924000  1.0
  O  O57  1  0.72254000  0.09859000  0.64806000  1.0
