# generated using pymatgen
data_CdH4C6(ClO3)2
_symmetry_space_group_name_H-M   'P 1'
_cell_length_a   4.78302000
_cell_length_b   7.19472915
_cell_length_c   15.06260000
_cell_angle_alpha   90.39257039
_cell_angle_beta   97.08310000
_cell_angle_gamma   106.91490303
_symmetry_Int_Tables_number   1
_chemical_formula_structural   CdH4C6(ClO3)2
_chemical_formula_sum   'Cd2 H8 C12 Cl4 O12'
_cell_volume   491.63437832
_cell_formula_units_Z   2
loop_
 _symmetry_equiv_pos_site_id
 _symmetry_equiv_pos_as_xyz
  1  'x, y, z'
loop_
 _atom_site_type_symbol
 _atom_site_label
 _atom_site_symmetry_multiplicity
 _atom_site_fract_x
 _atom_site_fract_y
 _atom_site_fract_z
 _atom_site_occupancy
  Cd  Cd0  1  0.09570000  0.23478000  0.24362000  1.0
  Cd  Cd1  1  0.90429000  0.76521000  0.75638000  1.0
  H  H2  1  0.41258000  0.08967000  0.13463000  1.0
  H  H3  1  0.37247000  0.93521000  0.65248000  1.0
  H  H4  1  0.58742000  0.91036000  0.86537000  1.0
  H  H5  1  0.62752000  0.06477000  0.34751000  1.0
  H  H6  1  0.37295000  0.94757000  0.21174000  1.0
  H  H7  1  0.22533000  0.10689000  0.66124000  1.0
  H  H8  1  0.62701000  0.05244000  0.78825000  1.0
  H  H9  1  0.77466000  0.89310000  0.33874000  1.0
  C  C10  1  0.86478000  0.35901000  0.06158000  1.0
  C  C11  1  0.53098000  0.65496000  0.56617000  1.0
  C  C12  1  0.13519000  0.64100000  0.93841000  1.0
  C  C13  1  0.46909000  0.34504000  0.43385000  1.0
  C  C14  1  0.82562000  0.49785000  0.91461000  1.0
  C  C15  1  0.29520000  0.49428000  0.41994000  1.0
  C  C16  1  0.17439000  0.50216000  0.08539000  1.0
  C  C17  1  0.70485000  0.50574000  0.58006000  1.0
  C  C18  1  0.70972000  0.36074000  0.97715000  1.0
  C  C19  1  0.34565000  0.64512000  0.48593000  1.0
  C  C20  1  0.29028000  0.63926000  0.02286000  1.0
  C  C21  1  0.65441000  0.35489000  0.51407000  1.0
  Cl  Cl22  1  0.36159000  0.20184000  0.94943000  1.0
  Cl  Cl23  1  0.15416000  0.81529000  0.46875000  1.0
  Cl  Cl24  1  0.63841000  0.79816000  0.05057000  1.0
  Cl  Cl25  1  0.84586000  0.18470000  0.53125000  1.0
  O  O26  1  0.76380000  0.24489000  0.12239000  1.0
  O  O27  1  0.56840000  0.77999000  0.63012000  1.0
  O  O28  1  0.23619000  0.75511000  0.87762000  1.0
  O  O29  1  0.43160000  0.21999000  0.36988000  1.0
  O  O30  1  0.68469000  0.50958000  0.83922000  1.0
  O  O31  1  0.11238000  0.47457000  0.35032000  1.0
  O  O32  1  0.31532000  0.49043000  0.16078000  1.0
  O  O33  1  0.88760000  0.52540000  0.64968000  1.0
  O  O34  1  0.26019000  0.01324000  0.17065000  1.0
  O  O35  1  0.28739000  0.00645000  0.69420000  1.0
  O  O36  1  0.73980000  0.98678000  0.82935000  1.0
  O  O37  1  0.71258000  0.99355000  0.30579000  1.0
