# generated using pymatgen
data_NaH8C2O5
_symmetry_space_group_name_H-M   'P 1'
_cell_length_a   5.39613000
_cell_length_b   6.61497000
_cell_length_c   8.99657000
_cell_angle_alpha   98.05910000
_cell_angle_beta   102.40400000
_cell_angle_gamma   109.53300000
_symmetry_Int_Tables_number   1
_chemical_formula_structural   NaH8C2O5
_chemical_formula_sum   'Na2 H16 C4 O10'
_cell_volume   287.64023906
_cell_formula_units_Z   2
loop_
 _symmetry_equiv_pos_site_id
 _symmetry_equiv_pos_as_xyz
  1  'x, y, z'
loop_
 _atom_site_type_symbol
 _atom_site_label
 _atom_site_symmetry_multiplicity
 _atom_site_fract_x
 _atom_site_fract_y
 _atom_site_fract_z
 _atom_site_occupancy
  Na  Na0  1  0.16390000  0.36311000  0.90262000  1.0
  Na  Na1  1  0.83609000  0.63688000  0.09737000  1.0
  H  H2  1  0.21336000  0.23272000  0.58258000  1.0
  H  H3  1  0.78668000  0.76730000  0.41743000  1.0
  H  H4  1  0.26269000  0.03384000  0.44816000  1.0
  H  H5  1  0.73733000  0.96617000  0.55186000  1.0
  H  H6  1  0.78614000  0.14705000  0.06990000  1.0
  H  H7  1  0.21385000  0.85294000  0.93010000  1.0
  H  H8  1  0.59544000  0.17788000  0.92574000  1.0
  H  H9  1  0.40454000  0.82211000  0.07426000  1.0
  H  H10  1  0.02192000  0.55562000  0.66653000  1.0
  H  H11  1  0.97809000  0.44438000  0.33347000  1.0
  H  H12  1  0.78881000  0.33968000  0.55923000  1.0
  H  H13  1  0.21121000  0.66032000  0.44077000  1.0
  H  H14  1  0.50554000  0.33061000  0.22538000  1.0
  H  H15  1  0.49445000  0.66939000  0.77462000  1.0
  H  H16  1  0.33473000  0.48271000  0.23563000  1.0
  H  H17  1  0.66526000  0.51728000  0.76437000  1.0
  C  C18  1  0.15656000  0.05589000  0.53684000  1.0
  C  C19  1  0.84345000  0.94412000  0.46317000  1.0
  C  C20  1  0.23835000  0.95291000  0.66993000  1.0
  C  C21  1  0.76166000  0.04709000  0.33007000  1.0
  O  O22  1  0.23922000  0.03671000  0.80639000  1.0
  O  O23  1  0.76077000  0.96330000  0.19362000  1.0
  O  O24  1  0.29113000  0.77933000  0.63711000  1.0
  O  O25  1  0.70888000  0.22069000  0.36289000  1.0
  O  O26  1  0.78286000  0.24612000  0.99642000  1.0
  O  O27  1  0.21712000  0.75388000  0.00358000  1.0
  O  O28  1  0.86952000  0.42392000  0.67075000  1.0
  O  O29  1  0.13048000  0.57608000  0.32925000  1.0
  O  O30  1  0.43641000  0.42795000  0.17005000  1.0
  O  O31  1  0.56358000  0.57203000  0.82995000  1.0
