# generated using pymatgen
data_Al4H60C79Br2O25
_symmetry_space_group_name_H-M   'P 1'
_cell_length_a   6.64711000
_cell_length_b   20.59160000
_cell_length_c   23.93770000
_cell_angle_alpha   89.87440000
_cell_angle_beta   86.40580000
_cell_angle_gamma   89.22540000
_symmetry_Int_Tables_number   1
_chemical_formula_structural   Al4H60C79Br2O25
_chemical_formula_sum   'Al4 H60 C79 Br2 O25'
_cell_volume   3269.71749582
_cell_formula_units_Z   1
loop_
 _symmetry_equiv_pos_site_id
 _symmetry_equiv_pos_as_xyz
  1  'x, y, z'
loop_
 _atom_site_type_symbol
 _atom_site_label
 _atom_site_symmetry_multiplicity
 _atom_site_fract_x
 _atom_site_fract_y
 _atom_site_fract_z
 _atom_site_occupancy
  Al  Al0  1  0.12303000  0.50121000  0.50521000  1.0
  Al  Al1  1  0.62406000  0.49883000  0.50159000  1.0
  Al  Al2  1  0.67937000  0.99400000  0.99930000  1.0
  Al  Al3  1  0.17848000  0.99647000  0.00320000  1.0
  H  H4  1  0.02305000  0.62841000  0.65236000  1.0
  H  H5  1  0.60662000  0.69722000  0.53542000  1.0
  H  H6  1  0.61810000  0.86640000  0.67287000  1.0
  H  H7  1  0.11879000  0.78368000  0.97817000  1.0
  H  H8  1  0.85004000  0.87958000  0.84188000  1.0
  H  H9  1  0.11871000  0.63584000  0.72616000  1.0
  H  H10  1  0.65074000  0.15966000  0.76800000  1.0
  H  H11  1  0.61719000  0.23857000  0.69003000  1.0
  H  H12  1  0.16213000  0.33222000  0.73400000  1.0
  H  H13  1  0.19576000  0.25338000  0.81199000  1.0
  H  H14  1  0.69004000  0.73812000  0.31123000  1.0
  H  H15  1  0.70100000  0.81468000  0.23034000  1.0
  H  H16  1  0.11277000  0.75166000  0.18829000  1.0
  H  H17  1  0.10173000  0.67515000  0.26921000  1.0
  H  H18  1  0.27677000  0.28585000  0.48393000  1.0
  H  H19  1  0.36311000  0.12139000  0.34644000  1.0
  H  H20  1  0.40701000  0.32043000  0.05782000  1.0
  H  H21  1  0.39813000  0.21401000  0.00839000  1.0
  H  H22  1  0.42682000  0.11377000  0.16502000  1.0
  H  H23  1  0.40913000  0.38714000  0.24711000  1.0
  H  H24  1  0.41638000  0.11669000  0.24477000  1.0
  H  H25  1  0.49062000  0.66666667  0.84993000  1.0
  H  H26  1  0.51033000  0.63936000  0.77886000  1.0
  H  H27  1  0.45624000  0.55119000  0.88214000  1.0
  H  H28  1  0.48681000  0.52437000  0.81207000  1.0
  H  H29  1  0.83842000  0.57213000  0.80403000  1.0
  H  H30  1  0.81455000  0.51490000  0.85936000  1.0
  H  H31  1  0.80656000  0.59910000  0.87426000  1.0
  H  H32  1  0.59641000  0.46779000  0.11278000  1.0
  H  H33  1  0.65226000  0.43101000  0.17754000  1.0
  H  H34  1  0.27491000  0.51371000  0.15758000  1.0
  H  H35  1  0.33693000  0.48205000  0.22302000  1.0
  H  H36  1  0.65715000  0.54771000  0.21854000  1.0
  H  H37  1  0.44163000  0.59854000  0.21444000  1.0
  H  H38  1  0.59428000  0.58021000  0.15294000  1.0
  H  H39  1  0.67837000  0.43943000  0.26968000  1.0
  H  H40  1  0.73967000  0.35820000  0.28832000  1.0
  H  H41  1  0.77541000  0.47759000  0.36315000  1.0
  H  H42  1  0.85768000  0.39707000  0.37865000  1.0
  H  H43  1  0.10171000  0.39984000  0.29328000  1.0
  H  H44  1  0.15223000  0.46309000  0.34000000  1.0
  H  H45  1  0.02202000  0.48052000  0.27891000  1.0
  H  H46  1  0.09619000  0.09111000  0.44306000  1.0
  H  H47  1  0.05273000  0.14114000  0.38399000  1.0
  H  H48  1  0.93525000  0.17839000  0.50575000  1.0
  H  H49  1  0.87747000  0.22363000  0.44566000  1.0
  H  H50  1  0.67179000  0.13093000  0.41233000  1.0
  H  H51  1  0.58022000  0.15519000  0.47988000  1.0
  H  H52  1  0.73270000  0.08404000  0.47150000  1.0
  H  H53  1  0.48961000  0.86964000  0.82144000  1.0
  H  H54  1  0.43515000  0.89009000  0.75141000  1.0
  H  H55  1  0.60229000  0.98346000  0.83640000  1.0
  H  H56  1  0.55064000  0.00360000  0.76682000  1.0
  H  H57  1  0.18095000  0.97606000  0.78848000  1.0
  H  H58  1  0.25941000  0.03797000  0.83344000  1.0
  H  H59  1  0.23601000  0.95720000  0.85830000  1.0
  H  H60  1  0.36560000  0.48963000  0.57618000  1.0
  H  H61  1  0.90025000  0.46256000  0.43858000  1.0
  H  H62  1  0.43662000  0.01328000  0.92998000  1.0
  H  H63  1  0.90076000  0.03549000  0.06500000  1.0
  C  C64  1  0.37669000  0.57532000  0.42678000  1.0
  C  C65  1  0.39236000  0.40331000  0.44492000  1.0
  C  C66  1  0.86511000  0.42302000  0.58100000  1.0
  C  C67  1  0.84684000  0.59714000  0.55822000  1.0
  C  C68  1  0.98463000  0.83818000  0.91215000  1.0
  C  C69  1  0.82233000  0.65821000  0.59130000  1.0
  C  C70  1  0.11192000  0.72880000  0.90215000  1.0
  C  C71  1  0.07817000  0.78347000  0.93481000  1.0
  C  C72  1  0.92428000  0.83706000  0.85798000  1.0
  C  C73  1  0.96667000  0.78338000  0.82209000  1.0
  C  C74  1  0.07227000  0.72784000  0.84420000  1.0
  C  C75  1  0.90247000  0.78268000  0.76489000  1.0
  C  C76  1  0.95164000  0.72779000  0.73025000  1.0
  C  C77  1  0.07150000  0.67739000  0.75196000  1.0
  C  C78  1  0.12938000  0.67617000  0.80590000  1.0
  C  C79  1  0.78326000  0.83331000  0.74069000  1.0
  C  C80  1  0.70882000  0.82686000  0.68878000  1.0
  C  C81  1  0.74447000  0.77090000  0.65562000  1.0
  C  C82  1  0.87573000  0.72114000  0.67499000  1.0
  C  C83  1  0.65299000  0.76136000  0.60413000  1.0
  C  C84  1  0.68470000  0.70559000  0.57331000  1.0
  C  C85  1  0.91872000  0.66644000  0.64046000  1.0
  C  C86  1  0.74291000  0.24164000  0.71699000  1.0
  C  C87  1  0.88673000  0.29084000  0.70718000  1.0
  C  C88  1  0.05089000  0.29433000  0.74174000  1.0
  C  C89  1  0.06980000  0.25033000  0.78511000  1.0
  C  C90  1  0.92486000  0.20153000  0.79527000  1.0
  C  C91  1  0.76175000  0.19766000  0.76035000  1.0
  C  C92  1  0.86876000  0.33624000  0.66328000  1.0
  C  C93  1  0.93912000  0.15730000  0.84017000  1.0
  C  C94  1  0.94389000  0.11904000  0.87899000  1.0
  C  C95  1  0.85847000  0.37586000  0.62566000  1.0
  C  C96  1  0.57072000  0.78384000  0.23904000  1.0
  C  C97  1  0.40750000  0.78821000  0.20410000  1.0
  C  C98  1  0.23819000  0.74852000  0.21546000  1.0
  C  C99  1  0.23208000  0.70596000  0.26050000  1.0
  C  C100  1  0.39513000  0.70168000  0.29551000  1.0
  C  C101  1  0.56464000  0.74126000  0.28406000  1.0
  C  C102  1  0.41308000  0.83243000  0.15875000  1.0
  C  C103  1  0.38923000  0.65792000  0.34116000  1.0
  C  C104  1  0.38442000  0.62009000  0.38038000  1.0
  C  C105  1  0.41848000  0.87121000  0.12022000  1.0
  C  C106  1  0.41254000  0.15808000  0.08502000  1.0
  C  C107  1  0.38461000  0.34202000  0.41134000  1.0
  C  C108  1  0.40864000  0.27495000  0.08108000  1.0
  C  C109  1  0.40460000  0.21612000  0.05375000  1.0
  C  C110  1  0.42013000  0.15971000  0.14258000  1.0
  C  C111  1  0.41670000  0.21915000  0.17212000  1.0
  C  C112  1  0.41335000  0.27758000  0.14002000  1.0
  C  C113  1  0.41575000  0.22174000  0.23256000  1.0
  C  C114  1  0.41761000  0.28299000  0.25992000  1.0
  C  C115  1  0.41714000  0.34045000  0.22637000  1.0
  C  C116  1  0.41625000  0.33828000  0.16902000  1.0
  C  C117  1  0.40622000  0.16387000  0.26520000  1.0
  C  C118  1  0.37624000  0.16604000  0.32213000  1.0
  C  C119  1  0.36488000  0.22635000  0.35113000  1.0
  C  C120  1  0.40754000  0.28544000  0.32092000  1.0
  C  C121  1  0.31342000  0.22790000  0.40973000  1.0
  C  C122  1  0.31887000  0.28530000  0.43919000  1.0
  C  C123  1  0.43117000  0.34252000  0.35383000  1.0
  C  C124  1  0.41001000  0.09399000  0.05596000  1.0
  C  C125  1  0.42711000  0.91824000  0.07560000  1.0
  C  C126  1  0.95961000  0.89866000  0.94623000  1.0
  C  C127  1  0.93492000  0.07271000  0.92421000  1.0
  C  C128  1  0.45059000  0.62722000  0.82167000  1.0
  C  C129  1  0.53149000  0.56228000  0.84104000  1.0
  C  C130  1  0.75978000  0.56216000  0.84480000  1.0
  C  C131  1  0.52871000  0.44793000  0.15226000  1.0
  C  C132  1  0.40221000  0.50052000  0.18284000  1.0
  C  C133  1  0.53068000  0.55999000  0.19270000  1.0
  C  C134  1  0.69012000  0.40587000  0.30521000  1.0
  C  C135  1  0.83873000  0.43233000  0.34459000  1.0
  C  C136  1  0.03994000  0.44479000  0.31259000  1.0
  C  C137  1  0.07766000  0.14169000  0.42910000  1.0
  C  C138  1  0.90026000  0.17398000  0.46156000  1.0
  C  C139  1  0.71097000  0.13395000  0.45620000  1.0
  C  C140  1  0.53055000  0.90220000  0.78586000  1.0
  C  C141  1  0.50234000  0.97269000  0.80267000  1.0
  C  C142  1  0.28268000  0.98686000  0.82167000  1.0
  Br  Br143  1  0.47196000  0.82547000  0.57740000  1.0
  Br  Br144  1  0.20044000  0.65466000  0.94300000  1.0
  O  O145  1  0.56068000  0.42007000  0.46243000  1.0
  O  O146  1  0.20401000  0.56607000  0.45127000  1.0
  O  O147  1  0.01730000  0.56781000  0.55520000  1.0
  O  O148  1  0.22421000  0.43275000  0.45456000  1.0
  O  O149  1  0.04166000  0.43656000  0.56078000  1.0
  O  O150  1  0.54266000  0.54870000  0.43861000  1.0
  O  O151  1  0.36862000  0.50413000  0.53760000  1.0
  O  O152  1  0.69827000  0.44695000  0.56656000  1.0
  O  O153  1  0.68906000  0.57826000  0.53587000  1.0
  O  O154  1  0.88368000  0.49200000  0.47020000  1.0
  O  O155  1  0.26330000  0.94771000  0.06596000  1.0
  O  O156  1  0.57479000  0.06164000  0.05101000  1.0
  O  O157  1  0.75797000  0.05991000  0.94466000  1.0
  O  O158  1  0.59900000  0.92679000  0.05037000  1.0
  O  O159  1  0.79110000  0.92897000  0.94820000  1.0
  O  O160  1  0.24148000  0.07662000  0.03875000  1.0
  O  O161  1  0.43408000  0.99183000  0.96615000  1.0
  O  O162  1  0.11578000  0.91611000  0.97008000  1.0
  O  O163  1  0.10063000  0.04828000  0.93879000  1.0
  O  O164  1  0.91818000  0.00342000  0.03536000  1.0
  O  O165  1  0.23349000  0.62193000  0.82198000  1.0
  O  O166  1  0.41679000  0.39243000  0.13565000  1.0
  O  O167  1  0.48805000  0.40174000  0.33110000  1.0
  O  O168  1  0.26818000  0.17146000  0.43857000  1.0
  O  O169  1  0.74075000  0.89107000  0.76828000  1.0
