# generated using pymatgen
data_AlC21(NO2)15
_symmetry_space_group_name_H-M   'P 1'
_cell_length_a   4.48813000
_cell_length_b   28.31410000
_cell_length_c   28.34330000
_cell_angle_alpha   119.93000000
_cell_angle_beta   89.95920000
_cell_angle_gamma   89.95260000
_symmetry_Int_Tables_number   1
_chemical_formula_structural   AlC21(NO2)15
_chemical_formula_sum   'Al2 C42 N30 O60'
_cell_volume   3121.43736746
_cell_formula_units_Z   2
loop_
 _symmetry_equiv_pos_site_id
 _symmetry_equiv_pos_as_xyz
  1  'x, y, z'
loop_
 _atom_site_type_symbol
 _atom_site_label
 _atom_site_symmetry_multiplicity
 _atom_site_fract_x
 _atom_site_fract_y
 _atom_site_fract_z
 _atom_site_occupancy
  Al  Al0  1  0.98883000  0.49985000  0.49957000  1.0
  Al  Al1  1  0.98830000  0.16679000  0.83375000  1.0
  C  C2  1  0.48974000  0.46273000  0.41637000  1.0
  C  C3  1  0.48953000  0.45374000  0.53680000  1.0
  C  C4  1  0.48804000  0.58314000  0.54556000  1.0
  C  C5  1  0.48868000  0.21297000  0.79660000  1.0
  C  C6  1  0.48872000  0.08351000  0.78765000  1.0
  C  C7  1  0.48838000  0.20382000  0.91693000  1.0
  C  C8  1  0.49101000  0.24638000  0.76771000  1.0
  C  C9  1  0.50282000  0.22137000  0.71069000  1.0
  C  C10  1  0.50971000  0.25116000  0.68364000  1.0
  C  C11  1  0.47873000  0.30849000  0.71288000  1.0
  C  C12  1  0.46694000  0.33349000  0.77006000  1.0
  C  C13  1  0.48363000  0.30351000  0.79674000  1.0
  C  C14  1  0.46625000  0.33320000  0.56334000  1.0
  C  C15  1  0.47836000  0.35821000  0.62052000  1.0
  C  C16  1  0.51025000  0.41551000  0.64972000  1.0
  C  C17  1  0.50336000  0.44530000  0.62267000  1.0
  C  C18  1  0.49138000  0.42028000  0.56565000  1.0
  C  C19  1  0.48344000  0.36315000  0.53664000  1.0
  C  C20  1  0.49143000  0.02125000  0.75417000  1.0
  C  C21  1  0.50387000  0.98901000  0.77903000  1.0
  C  C22  1  0.51062000  0.93222000  0.74911000  1.0
  C  C23  1  0.47820000  0.90442000  0.69188000  1.0
  C  C24  1  0.46584000  0.93682000  0.66703000  1.0
  C  C25  1  0.48329000  0.99342000  0.69710000  1.0
  C  C26  1  0.46669000  0.72976000  0.66635000  1.0
  C  C27  1  0.47880000  0.76223000  0.64159000  1.0
  C  C28  1  0.50978000  0.73451000  0.58432000  1.0
  C  C29  1  0.50270000  0.67772000  0.55433000  1.0
  C  C30  1  0.49054000  0.64541000  0.57911000  1.0
  C  C31  1  0.48327000  0.67316000  0.63619000  1.0
  C  C32  1  0.49015000  0.23256000  0.97912000  1.0
  C  C33  1  0.50432000  0.28962000  0.01112000  1.0
  C  C34  1  0.51181000  0.31650000  0.06783000  1.0
  C  C35  1  0.47652000  0.28718000  0.09579000  1.0
  C  C36  1  0.46259000  0.22998000  0.06363000  1.0
  C  C37  1  0.48074000  0.20337000  0.00707000  1.0
  C  C38  1  0.46393000  0.43682000  0.26976000  1.0
  C  C39  1  0.47711000  0.37962000  0.23751000  1.0
  C  C40  1  0.51045000  0.35018000  0.26538000  1.0
  C  C41  1  0.50372000  0.37700000  0.32211000  1.0
  C  C42  1  0.49103000  0.43407000  0.35419000  1.0
  C  C43  1  0.48183000  0.46334000  0.32630000  1.0
  N  N44  1  0.47146000  0.34450000  0.69239000  1.0
  N  N45  1  0.46946000  0.32224000  0.64105000  1.0
  N  N46  1  0.46885000  0.84802000  0.65578000  1.0
  N  N47  1  0.47201000  0.81863000  0.67779000  1.0
  N  N48  1  0.46658000  0.30775000  0.15219000  1.0
  N  N49  1  0.46982000  0.35915000  0.18113000  1.0
  N  N50  1  0.49353000  0.33430000  0.85724000  1.0
  N  N51  1  0.45144000  0.39400000  0.80283000  1.0
  N  N52  1  0.51767000  0.16090000  0.67694000  1.0
  N  N53  1  0.56304000  0.22078000  0.62388000  1.0
  N  N54  1  0.45072000  0.27269000  0.53057000  1.0
  N  N55  1  0.49293000  0.33238000  0.47613000  1.0
  N  N56  1  0.56446000  0.44587000  0.70943000  1.0
  N  N57  1  0.51797000  0.50576000  0.65640000  1.0
  N  N58  1  0.49295000  0.02341000  0.66649000  1.0
  N  N59  1  0.44948000  0.90943000  0.60661000  1.0
  N  N60  1  0.51914000  0.01547000  0.83943000  1.0
  N  N61  1  0.56557000  0.90254000  0.77924000  1.0
  N  N62  1  0.45068000  0.75714000  0.72677000  1.0
  N  N63  1  0.49301000  0.64311000  0.66675000  1.0
  N  N64  1  0.56345000  0.76426000  0.55424000  1.0
  N  N65  1  0.51781000  0.65134000  0.49393000  1.0
  N  N66  1  0.49051000  0.14280000  0.97730000  1.0
  N  N67  1  0.44373000  0.19710000  0.09124000  1.0
  N  N68  1  0.52126000  0.32342000  0.98443000  1.0
  N  N69  1  0.57278000  0.37605000  0.09733000  1.0
  N  N70  1  0.44526000  0.46973000  0.24218000  1.0
  N  N71  1  0.49108000  0.52392000  0.35615000  1.0
  N  N72  1  0.56812000  0.29049000  0.23580000  1.0
  N  N73  1  0.52009000  0.34306000  0.34866000  1.0
  O  O74  1  0.72760000  0.55957000  0.54502000  1.0
  O  O75  1  0.72968000  0.48558000  0.43969000  1.0
  O  O76  1  0.72953000  0.45418000  0.51384000  1.0
  O  O77  1  0.24525000  0.56196000  0.52216000  1.0
  O  O78  1  0.24688000  0.47727000  0.53895000  1.0
  O  O79  1  0.24728000  0.46055000  0.43775000  1.0
  O  O80  1  0.72838000  0.18085000  0.89352000  1.0
  O  O81  1  0.72814000  0.21252000  0.81964000  1.0
  O  O82  1  0.72809000  0.10705000  0.78817000  1.0
  O  O83  1  0.24576000  0.20602000  0.89566000  1.0
  O  O84  1  0.24555000  0.10472000  0.81106000  1.0
  O  O85  1  0.24603000  0.18951000  0.79445000  1.0
  O  O86  1  0.71068000  0.32500000  0.87795000  1.0
  O  O87  1  0.28833000  0.36652000  0.88044000  1.0
  O  O88  1  0.23126000  0.41572000  0.79623000  1.0
  O  O89  1  0.66510000  0.41586000  0.83332000  1.0
  O  O90  1  0.31052000  0.13582000  0.68291000  1.0
  O  O91  1  0.73296000  0.14206000  0.64615000  1.0
  O  O92  1  0.80439000  0.22960000  0.60914000  1.0
  O  O93  1  0.36801000  0.18885000  0.59561000  1.0
  O  O94  1  0.23034000  0.25106000  0.53717000  1.0
  O  O95  1  0.66479000  0.25075000  0.50009000  1.0
  O  O96  1  0.70933000  0.34170000  0.45525000  1.0
  O  O97  1  0.28804000  0.30017000  0.45307000  1.0
  O  O98  1  0.80657000  0.43700000  0.72389000  1.0
  O  O99  1  0.36946000  0.47779000  0.73793000  1.0
  O  O100  1  0.31074000  0.53089000  0.65048000  1.0
  O  O101  1  0.73301000  0.52454000  0.68714000  1.0
  O  O102  1  0.70958000  0.05353000  0.67589000  1.0
  O  O103  1  0.28816000  0.01452000  0.63433000  1.0
  O  O104  1  0.22870000  0.88138000  0.58505000  1.0
  O  O105  1  0.66321000  0.91803000  0.58465000  1.0
  O  O106  1  0.31227000  0.04656000  0.86467000  1.0
  O  O107  1  0.73445000  0.00331000  0.85807000  1.0
  O  O108  1  0.80804000  0.87926000  0.77026000  1.0
  O  O109  1  0.37093000  0.90570000  0.81109000  1.0
  O  O110  1  0.23018000  0.78539000  0.74844000  1.0
  O  O111  1  0.66423000  0.74837000  0.74862000  1.0
  O  O112  1  0.70989000  0.61294000  0.65730000  1.0
  O  O113  1  0.28800000  0.65203000  0.69895000  1.0
  O  O114  1  0.80479000  0.78781000  0.56326000  1.0
  O  O115  1  0.36870000  0.76095000  0.52238000  1.0
  O  O116  1  0.31108000  0.62034000  0.46876000  1.0
  O  O117  1  0.73303000  0.66347000  0.47523000  1.0
  O  O118  1  0.70772000  0.12204000  0.94727000  1.0
  O  O119  1  0.28542000  0.11957000  0.98627000  1.0
  O  O120  1  0.22176000  0.20385000  0.11919000  1.0
  O  O121  1  0.65656000  0.16639000  0.08291000  1.0
  O  O122  1  0.31489000  0.31768000  0.95337000  1.0
  O  O123  1  0.73716000  0.35401000  0.99639000  1.0
  O  O124  1  0.81717000  0.38922000  0.11994000  1.0
  O  O125  1  0.38165000  0.40564000  0.09474000  1.0
  O  O126  1  0.22380000  0.46292000  0.21416000  1.0
  O  O127  1  0.65748000  0.50049000  0.25055000  1.0
  O  O128  1  0.70781000  0.54462000  0.38620000  1.0
  O  O129  1  0.28596000  0.54720000  0.34724000  1.0
  O  O130  1  0.81103000  0.27662000  0.21261000  1.0
  O  O131  1  0.37554000  0.26146000  0.23892000  1.0
  O  O132  1  0.31333000  0.34877000  0.37969000  1.0
  O  O133  1  0.73609000  0.31238000  0.33658000  1.0
