# generated using pymatgen
data_ZnH7C16SN3O5F2
_symmetry_space_group_name_H-M   'P 1'
_cell_length_a   12.74830000
_cell_length_b   15.98780000
_cell_length_c   17.35190000
_cell_angle_alpha   83.83560000
_cell_angle_beta   89.91800000
_cell_angle_gamma   86.79270000
_symmetry_Int_Tables_number   1
_chemical_formula_structural   ZnH7C16SN3O5F2
_chemical_formula_sum   'Zn2 H14 C32 S2 N6 O10 F4'
_cell_volume   3510.62285897
_cell_formula_units_Z   2
loop_
 _symmetry_equiv_pos_site_id
 _symmetry_equiv_pos_as_xyz
  1  'x, y, z'
loop_
 _atom_site_type_symbol
 _atom_site_label
 _atom_site_symmetry_multiplicity
 _atom_site_fract_x
 _atom_site_fract_y
 _atom_site_fract_z
 _atom_site_occupancy
  Zn  Zn0  1  0.50381000  0.41214000  0.50256000  1.0
  Zn  Zn1  1  0.49619000  0.58786000  0.49742000  1.0
  H  H2  1  0.60421000  0.71514000  0.57436000  1.0
  H  H3  1  0.60207000  0.87397000  0.57394000  1.0
  H  H4  1  0.35944000  0.89189000  0.39797000  1.0
  H  H5  1  0.64061000  0.10811000  0.60200000  1.0
  H  H6  1  0.39796000  0.12602000  0.42604000  1.0
  H  H7  1  0.39582000  0.28486000  0.42563000  1.0
  H  H8  1  0.49321000  0.61904000  0.74016000  1.0
  H  H9  1  0.49350000  0.61392000  0.88553000  1.0
  H  H10  1  0.50903000  0.34265000  0.90062000  1.0
  H  H11  1  0.49085000  0.65734000  0.09936000  1.0
  H  H12  1  0.50642000  0.38607000  0.11445000  1.0
  H  H13  1  0.50672000  0.38096000  0.25982000  1.0
  H  H14  1  0.92943000  0.31249000  0.50779000  1.0
  H  H15  1  0.07058000  0.68751000  0.49245000  1.0
  C  C16  1  0.50046000  0.49434000  0.65133000  1.0
  C  C17  1  0.70451000  0.50158000  0.49953000  1.0
  C  C18  1  0.49952000  0.50566000  0.34866000  1.0
  C  C19  1  0.29548000  0.49841000  0.50055000  1.0
  C  C20  1  0.55183000  0.75769000  0.53684000  1.0
  C  C21  1  0.55059000  0.84430000  0.53642000  1.0
  C  C22  1  0.48025000  0.89397000  0.48573000  1.0
  C  C23  1  0.41445000  0.85527000  0.43790000  1.0
  C  C24  1  0.42252000  0.76765000  0.44328000  1.0
  C  C25  1  0.58560000  0.14472000  0.56208000  1.0
  C  C26  1  0.51979000  0.10603000  0.51425000  1.0
  C  C27  1  0.44945000  0.15570000  0.46357000  1.0
  C  C28  1  0.44821000  0.24231000  0.46315000  1.0
  C  C29  1  0.57752000  0.23235000  0.55670000  1.0
  C  C30  1  0.50096000  0.48561000  0.73841000  1.0
  C  C31  1  0.49677000  0.55916000  0.77679000  1.0
  C  C32  1  0.49686000  0.55660000  0.85677000  1.0
  C  C33  1  0.50131000  0.47791000  0.90203000  1.0
  C  C34  1  0.50553000  0.40364000  0.86579000  1.0
  C  C35  1  0.50531000  0.40825000  0.78537000  1.0
  C  C36  1  0.49437000  0.59636000  0.13419000  1.0
  C  C37  1  0.49859000  0.52209000  0.09795000  1.0
  C  C38  1  0.50304000  0.44339000  0.14322000  1.0
  C  C39  1  0.50316000  0.44084000  0.22319000  1.0
  C  C40  1  0.49897000  0.51439000  0.26157000  1.0
  C  C41  1  0.49461000  0.59174000  0.21461000  1.0
  C  C42  1  0.89248000  0.43032000  0.50217000  1.0
  C  C43  1  0.10751000  0.56969000  0.49808000  1.0
  C  C44  1  0.81981000  0.49889000  0.49974000  1.0
  C  C45  1  0.18018000  0.50110000  0.50047000  1.0
  C  C46  1  0.00265000  0.54371000  0.49879000  1.0
  C  C47  1  0.99733000  0.45631000  0.50153000  1.0
  S  S48  1  0.87975000  0.59481000  0.49695000  1.0
  S  S49  1  0.12022000  0.40519000  0.50332000  1.0
  N  N50  1  0.48809000  0.71957000  0.49058000  1.0
  N  N51  1  0.46929000  0.98329000  0.47842000  1.0
  N  N52  1  0.53075000  0.01671000  0.52156000  1.0
  N  N53  1  0.51194000  0.28043000  0.50940000  1.0
  N  N54  1  0.50187000  0.46615000  0.98395000  1.0
  N  N55  1  0.49803000  0.53384000  0.01603000  1.0
  O  O56  1  0.49931000  0.42729000  0.61831000  1.0
  O  O57  1  0.50100000  0.56915000  0.61749000  1.0
  O  O58  1  0.65802000  0.57461000  0.50044000  1.0
  O  O59  1  0.66080000  0.43212000  0.49836000  1.0
  O  O60  1  0.50086000  0.57270000  0.38167000  1.0
  O  O61  1  0.49884000  0.43086000  0.38250000  1.0
  O  O62  1  0.34197000  0.42538000  0.49969000  1.0
  O  O63  1  0.33920000  0.56789000  0.50154000  1.0
  O  O64  1  0.86538000  0.34892000  0.50497000  1.0
  O  O65  1  0.13463000  0.65108000  0.49523000  1.0
  F  F66  1  0.36105000  0.72813000  0.39842000  1.0
  F  F67  1  0.63899000  0.27186000  0.60156000  1.0
  F  F68  1  0.50985000  0.33373000  0.75433000  1.0
  F  F69  1  0.49005000  0.66627000  0.24565000  1.0
