# generated using pymatgen
data_UH3C7NO6
_symmetry_space_group_name_H-M   'P 1'
_cell_length_a   8.17753000
_cell_length_b   9.07621000
_cell_length_c   11.79350000
_cell_angle_alpha   82.52390000
_cell_angle_beta   89.99990000
_cell_angle_gamma   89.99970000
_symmetry_Int_Tables_number   1
_chemical_formula_structural   UH3C7NO6
_chemical_formula_sum   'U4 H12 C28 N4 O24'
_cell_volume   867.88417789
_cell_formula_units_Z   4
loop_
 _symmetry_equiv_pos_site_id
 _symmetry_equiv_pos_as_xyz
  1  'x, y, z'
loop_
 _atom_site_type_symbol
 _atom_site_label
 _atom_site_symmetry_multiplicity
 _atom_site_fract_x
 _atom_site_fract_y
 _atom_site_fract_z
 _atom_site_occupancy
  U  U0  1  0.73664000  0.63725000  0.09635000  1.0
  U  U1  1  0.23664000  0.86275000  0.40365000  1.0
  U  U2  1  0.26336000  0.36275000  0.90365000  1.0
  U  U3  1  0.76336000  0.13725000  0.59635000  1.0
  H  H4  1  0.13231000  0.90345000  0.00877000  1.0
  H  H5  1  0.63230000  0.59655000  0.49124000  1.0
  H  H6  1  0.86770000  0.09655000  0.99124000  1.0
  H  H7  1  0.36769000  0.40345000  0.50876000  1.0
  H  H8  1  0.13724000  0.94735000  0.79182000  1.0
  H  H9  1  0.63724000  0.55265000  0.70818000  1.0
  H  H10  1  0.86276000  0.05265000  0.20818000  1.0
  H  H11  1  0.36276000  0.44735000  0.29182000  1.0
  H  H12  1  0.63899000  0.79839000  0.80925000  1.0
  H  H13  1  0.13898000  0.70161000  0.69076000  1.0
  H  H14  1  0.36102000  0.20161000  0.19075000  1.0
  H  H15  1  0.86102000  0.29839000  0.30924000  1.0
  C  C16  1  0.38316000  0.83322000  0.01821000  1.0
  C  C17  1  0.88317000  0.66679000  0.48179000  1.0
  C  C18  1  0.61684000  0.16678000  0.98179000  1.0
  C  C19  1  0.11683000  0.33322000  0.51821000  1.0
  C  C20  1  0.24102000  0.88218000  0.96029000  1.0
  C  C21  1  0.74102000  0.61782000  0.53971000  1.0
  C  C22  1  0.75898000  0.11782000  0.03971000  1.0
  C  C23  1  0.25898000  0.38218000  0.46029000  1.0
  C  C24  1  0.24433000  0.90565000  0.84106000  1.0
  C  C25  1  0.74433000  0.59435000  0.65894000  1.0
  C  C26  1  0.75567000  0.09435000  0.15894000  1.0
  C  C27  1  0.25567000  0.40565000  0.34105000  1.0
  C  C28  1  0.39136000  0.88277000  0.78563000  1.0
  C  C29  1  0.89136000  0.61722000  0.71437000  1.0
  C  C30  1  0.60864000  0.11723000  0.21437000  1.0
  C  C31  1  0.10864000  0.38278000  0.28563000  1.0
  C  C32  1  0.52568000  0.82445000  0.85054000  1.0
  C  C33  1  0.02568000  0.67555000  0.64947000  1.0
  C  C34  1  0.47432000  0.17555000  0.14946000  1.0
  C  C35  1  0.97432000  0.32445000  0.35053000  1.0
  C  C36  1  0.41181000  0.92120000  0.65956000  1.0
  C  C37  1  0.91181000  0.57880000  0.84044000  1.0
  C  C38  1  0.58819000  0.07880000  0.34044000  1.0
  C  C39  1  0.08818000  0.42120000  0.15956000  1.0
  C  C40  1  0.40165000  0.82525000  0.14506000  1.0
  C  C41  1  0.90164000  0.67474000  0.35494000  1.0
  C  C42  1  0.59835000  0.17474000  0.85494000  1.0
  C  C43  1  0.09835000  0.32526000  0.64506000  1.0
  N  N44  1  0.52105000  0.79744000  0.96444000  1.0
  N  N45  1  0.02105000  0.70256000  0.53556000  1.0
  N  N46  1  0.47895000  0.20256000  0.03556000  1.0
  N  N47  1  0.97895000  0.29744000  0.46444000  1.0
  O  O48  1  0.59376000  0.48500000  0.11997000  1.0
  O  O49  1  0.09376000  0.01500000  0.38003000  1.0
  O  O50  1  0.40624000  0.51500000  0.88003000  1.0
  O  O51  1  0.90624000  0.98500000  0.61997000  1.0
  O  O52  1  0.87582000  0.79210000  0.07007000  1.0
  O  O53  1  0.37582000  0.70789000  0.42993000  1.0
  O  O54  1  0.12418000  0.20790000  0.92992000  1.0
  O  O55  1  0.62418000  0.29211000  0.57008000  1.0
  O  O56  1  0.28819000  0.87620000  0.20204000  1.0
  O  O57  1  0.78820000  0.62381000  0.29796000  1.0
  O  O58  1  0.71181000  0.12381000  0.79796000  1.0
  O  O59  1  0.21180000  0.37619000  0.70204000  1.0
  O  O60  1  0.55335000  0.96399000  0.62424000  1.0
  O  O61  1  0.05335000  0.53601000  0.87576000  1.0
  O  O62  1  0.44665000  0.03601000  0.37576000  1.0
  O  O63  1  0.94665000  0.46398000  0.12424000  1.0
  O  O64  1  0.28967000  0.90812000  0.59527000  1.0
  O  O65  1  0.78967000  0.59188000  0.90473000  1.0
  O  O66  1  0.71033000  0.09188000  0.40473000  1.0
  O  O67  1  0.21033000  0.40813000  0.09527000  1.0
  O  O68  1  0.53691000  0.77417000  0.18655000  1.0
  O  O69  1  0.03692000  0.72583000  0.31345000  1.0
  O  O70  1  0.46309000  0.22583000  0.81345000  1.0
  O  O71  1  0.96309000  0.27417000  0.68655000  1.0
