# generated using pymatgen
data_CdH7C7NO7
_symmetry_space_group_name_H-M   'P 1'
_cell_length_a   7.05844000
_cell_length_b   7.09970000
_cell_length_c   10.89537360
_cell_angle_alpha   97.41858798
_cell_angle_beta   104.39829520
_cell_angle_gamma   112.71700000
_symmetry_Int_Tables_number   1
_chemical_formula_structural   CdH7C7NO7
_chemical_formula_sum   'Cd2 H14 C14 N2 O14'
_cell_volume   472.07935218
_cell_formula_units_Z   2
loop_
 _symmetry_equiv_pos_site_id
 _symmetry_equiv_pos_as_xyz
  1  'x, y, z'
loop_
 _atom_site_type_symbol
 _atom_site_label
 _atom_site_symmetry_multiplicity
 _atom_site_fract_x
 _atom_site_fract_y
 _atom_site_fract_z
 _atom_site_occupancy
  Cd  Cd0  1  0.23539000  0.94839000  0.51768000  1.0
  Cd  Cd1  1  0.76462000  0.05161000  0.48232000  1.0
  H  H2  1  0.41915000  0.37826000  0.68242000  1.0
  H  H3  1  0.58085000  0.62173000  0.31757000  1.0
  H  H4  1  0.58824000  0.28456000  0.73396000  1.0
  H  H5  1  0.41176000  0.71544000  0.26604000  1.0
  H  H6  1  0.89998000  0.53510000  0.37915000  1.0
  H  H7  1  0.10003000  0.46490000  0.62085000  1.0
  H  H8  1  0.04880000  0.62779000  0.29352000  1.0
  H  H9  1  0.95121000  0.37222000  0.70648000  1.0
  H  H10  1  0.69869000  0.05164000  0.21009000  1.0
  H  H11  1  0.30131000  0.94835000  0.78991000  1.0
  H  H12  1  0.70010000  0.15281000  0.99986000  1.0
  H  H13  1  0.29989000  0.84718000  0.00014000  1.0
  H  H14  1  0.39039000  0.34623000  0.11112000  1.0
  H  H15  1  0.60961000  0.65377000  0.88888000  1.0
  C  C16  1  0.45666000  0.25291000  0.33922000  1.0
  C  C17  1  0.54334000  0.74709000  0.66077000  1.0
  C  C18  1  0.24177000  0.22385000  0.25140000  1.0
  C  C19  1  0.75824000  0.77615000  0.74860000  1.0
  C  C20  1  0.04385000  0.14321000  0.28299000  1.0
  C  C21  1  0.95616000  0.85680000  0.71702000  1.0
  C  C22  1  0.84970000  0.11842000  0.18801000  1.0
  C  C23  1  0.15030000  0.88158000  0.81200000  1.0
  C  C24  1  0.84893000  0.17119000  0.07087000  1.0
  C  C25  1  0.15107000  0.82881000  0.92914000  1.0
  C  C26  1  0.04602000  0.25441000  0.04407000  1.0
  C  C27  1  0.95398000  0.74559000  0.95594000  1.0
  C  C28  1  0.23995000  0.28078000  0.13406000  1.0
  C  C29  1  0.76004000  0.71922000  0.86593000  1.0
  N  N30  1  0.05250000  0.31735000  0.92601000  1.0
  N  N31  1  0.94748000  0.68264000  0.07398000  1.0
  O  O32  1  0.46179000  0.10673000  0.39705000  1.0
  O  O33  1  0.53824000  0.89329000  0.60296000  1.0
  O  O34  1  0.62360000  0.41416000  0.34669000  1.0
  O  O35  1  0.37640000  0.58584000  0.65330000  1.0
  O  O36  1  0.04000000  0.09983000  0.39537000  1.0
  O  O37  1  0.96002000  0.90018000  0.60464000  1.0
  O  O38  1  0.87485000  0.28911000  0.84355000  1.0
  O  O39  1  0.12513000  0.71088000  0.15645000  1.0
  O  O40  1  0.22874000  0.39944000  0.90555000  1.0
  O  O41  1  0.77124000  0.60057000  0.09445000  1.0
  O  O42  1  0.43476000  0.24569000  0.69198000  1.0
  O  O43  1  0.56525000  0.75431000  0.30802000  1.0
  O  O44  1  0.05313000  0.61602000  0.38373000  1.0
  O  O45  1  0.94686000  0.38398000  0.61626000  1.0
