# generated using pymatgen
data_NaH7C4(NO2)2
_symmetry_space_group_name_H-M   'P 1'
_cell_length_a   6.41723000
_cell_length_b   10.27460000
_cell_length_c   10.27450000
_cell_angle_alpha   91.43950000
_cell_angle_beta   99.62960000
_cell_angle_gamma   99.63560000
_symmetry_Int_Tables_number   1
_chemical_formula_structural   NaH7C4(NO2)2
_chemical_formula_sum   'Na4 H28 C16 N8 O16'
_cell_volume   657.49174281
_cell_formula_units_Z   4
loop_
 _symmetry_equiv_pos_site_id
 _symmetry_equiv_pos_as_xyz
  1  'x, y, z'
loop_
 _atom_site_type_symbol
 _atom_site_label
 _atom_site_symmetry_multiplicity
 _atom_site_fract_x
 _atom_site_fract_y
 _atom_site_fract_z
 _atom_site_occupancy
  Na  Na0  1  0.34900000  0.73465000  0.75477000  1.0
  Na  Na1  1  0.15099000  0.24521000  0.26537000  1.0
  Na  Na2  1  0.65100000  0.26536000  0.24523000  1.0
  Na  Na3  1  0.84900000  0.75479000  0.73463000  1.0
  H  H4  1  0.57418000  0.50087000  0.91086000  1.0
  H  H5  1  0.92587000  0.08917000  0.49915000  1.0
  H  H6  1  0.42589000  0.49918000  0.08919000  1.0
  H  H7  1  0.07420000  0.91083000  0.50086000  1.0
  H  H8  1  0.54324000  0.25981000  0.95902000  1.0
  H  H9  1  0.95680000  0.04099000  0.74022000  1.0
  H  H10  1  0.45674000  0.74022000  0.04099000  1.0
  H  H11  1  0.04323000  0.95900000  0.25979000  1.0
  H  H12  1  0.79696000  0.83219000  0.97893000  1.0
  H  H13  1  0.70300000  0.02105000  0.16781000  1.0
  H  H14  1  0.20305000  0.16781000  0.02106000  1.0
  H  H15  1  0.29700000  0.97895000  0.83219000  1.0
  H  H16  1  0.67823000  0.93610000  0.89217000  1.0
  H  H17  1  0.82176000  0.10782000  0.06390000  1.0
  H  H18  1  0.32177000  0.06389000  0.10783000  1.0
  H  H19  1  0.17824000  0.89219000  0.93609000  1.0
  H  H20  1  0.04653000  0.52729000  0.85997000  1.0
  H  H21  1  0.45347000  0.14002000  0.47272000  1.0
  H  H22  1  0.95346000  0.47271000  0.14002000  1.0
  H  H23  1  0.54654000  0.85999000  0.52728000  1.0
  H  H24  1  0.05077000  0.65744000  0.95778000  1.0
  H  H25  1  0.44919000  0.04220000  0.34258000  1.0
  H  H26  1  0.94923000  0.34256000  0.04221000  1.0
  H  H27  1  0.55081000  0.95781000  0.65743000  1.0
  H  H28  1  0.48788000  0.38311000  0.50708000  1.0
  H  H29  1  0.01208000  0.49290000  0.61690000  1.0
  H  H30  1  0.51207000  0.61690000  0.49289000  1.0
  H  H31  1  0.98789000  0.50709000  0.38310000  1.0
  C  C32  1  0.52899000  0.46141000  0.69887000  1.0
  C  C33  1  0.97098000  0.30114000  0.53858000  1.0
  C  C34  1  0.47098000  0.53859000  0.30114000  1.0
  C  C35  1  0.02900000  0.69884000  0.46141000  1.0
  C  C36  1  0.50566000  0.19339000  0.75271000  1.0
  C  C37  1  0.99441000  0.24729000  0.80661000  1.0
  C  C38  1  0.49439000  0.80661000  0.24729000  1.0
  C  C39  1  0.00561000  0.75271000  0.19338000  1.0
  C  C40  1  0.54710000  0.42288000  0.83297000  1.0
  C  C41  1  0.95282000  0.16705000  0.57715000  1.0
  C  C42  1  0.45278000  0.57715000  0.16706000  1.0
  C  C43  1  0.04715000  0.83293000  0.42285000  1.0
  C  C44  1  0.53289000  0.29295000  0.85885000  1.0
  C  C45  1  0.96720000  0.14114000  0.70708000  1.0
  C  C46  1  0.46720000  0.70707000  0.14115000  1.0
  C  C47  1  0.03285000  0.85885000  0.29294000  1.0
  N  N48  1  0.49034000  0.23018000  0.62777000  1.0
  N  N49  1  0.00967000  0.37220000  0.76982000  1.0
  N  N50  1  0.50963000  0.76982000  0.37220000  1.0
  N  N51  1  0.99031000  0.62779000  0.23017000  1.0
  N  N52  1  0.50052000  0.36061000  0.60649000  1.0
  N  N53  1  0.99952000  0.39350000  0.63940000  1.0
  N  N54  1  0.49953000  0.63939000  0.39349000  1.0
  N  N55  1  0.00049000  0.60648000  0.36059000  1.0
  O  O56  1  0.53710000  0.58122000  0.66436000  1.0
  O  O57  1  0.96287000  0.33565000  0.41877000  1.0
  O  O58  1  0.46288000  0.41876000  0.33566000  1.0
  O  O59  1  0.03711000  0.66434000  0.58123000  1.0
  O  O60  1  0.67893000  0.84204000  0.90437000  1.0
  O  O61  1  0.82107000  0.09561000  0.15797000  1.0
  O  O62  1  0.32108000  0.15795000  0.09563000  1.0
  O  O63  1  0.17894000  0.90439000  0.84203000  1.0
  O  O64  1  0.50066000  0.06938000  0.77584000  1.0
  O  O65  1  0.99942000  0.22416000  0.93063000  1.0
  O  O66  1  0.49933000  0.93063000  0.22416000  1.0
  O  O67  1  0.00059000  0.77583000  0.06937000  1.0
  O  O68  1  0.08120000  0.62556000  0.87173000  1.0
  O  O69  1  0.41876000  0.12825000  0.37445000  1.0
  O  O70  1  0.91878000  0.37444000  0.12826000  1.0
  O  O71  1  0.58124000  0.87175000  0.62555000  1.0
