# generated using pymatgen
data_Mn2H41C43N7O9
_symmetry_space_group_name_H-M   'P 1'
_cell_length_a   15.12440000
_cell_length_b   16.41670000
_cell_length_c   18.00820000
_cell_angle_alpha   111.57800000
_cell_angle_beta   89.99990000
_cell_angle_gamma   90.00000000
_symmetry_Int_Tables_number   1
_chemical_formula_structural   Mn2H41C43N7O9
_chemical_formula_sum   'Mn8 H164 C172 N28 O36'
_cell_volume   4157.94621709
_cell_formula_units_Z   4
loop_
 _symmetry_equiv_pos_site_id
 _symmetry_equiv_pos_as_xyz
  1  'x, y, z'
loop_
 _atom_site_type_symbol
 _atom_site_label
 _atom_site_symmetry_multiplicity
 _atom_site_fract_x
 _atom_site_fract_y
 _atom_site_fract_z
 _atom_site_occupancy
  Mn  Mn0  1  0.62839000  0.45542000  0.72793000  1.0
  Mn  Mn1  1  0.12840000  0.04457000  0.77207000  1.0
  Mn  Mn2  1  0.37159000  0.54458000  0.27207000  1.0
  Mn  Mn3  1  0.87161000  0.95542000  0.22792000  1.0
  Mn  Mn4  1  0.90990000  0.54657000  0.77368000  1.0
  Mn  Mn5  1  0.40991000  0.95343000  0.72632000  1.0
  Mn  Mn6  1  0.09009000  0.45343000  0.22632000  1.0
  Mn  Mn7  1  0.59010000  0.04658000  0.27368000  1.0
  H  H8  1  0.58529000  0.72311000  0.73779000  1.0
  H  H9  1  0.08529000  0.77689000  0.76221000  1.0
  H  H10  1  0.41471000  0.27689000  0.26221000  1.0
  H  H11  1  0.91471000  0.22311000  0.23779000  1.0
  H  H12  1  0.15140000  0.46441000  0.80077000  1.0
  H  H13  1  0.65139000  0.03559000  0.69923000  1.0
  H  H14  1  0.84860000  0.53559000  0.19923000  1.0
  H  H15  1  0.34860000  0.96441000  0.30077000  1.0
  H  H16  1  0.89280000  0.95772000  0.79226000  1.0
  H  H17  1  0.39280000  0.54228000  0.70774000  1.0
  H  H18  1  0.10720000  0.04228000  0.20774000  1.0
  H  H19  1  0.60720000  0.45772000  0.29226000  1.0
  H  H20  1  0.93999000  0.35993000  0.93376000  1.0
  H  H21  1  0.43999000  0.14008000  0.56624000  1.0
  H  H22  1  0.06001000  0.64007000  0.06624000  1.0
  H  H23  1  0.56001000  0.85993000  0.43375000  1.0
  H  H24  1  0.31291000  0.46511000  0.77929000  1.0
  H  H25  1  0.81291000  0.03489000  0.72071000  1.0
  H  H26  1  0.68710000  0.53489000  0.22071000  1.0
  H  H27  1  0.18710000  0.96511000  0.27929000  1.0
  H  H28  1  0.85946000  0.73934000  0.80193000  1.0
  H  H29  1  0.35946000  0.76066000  0.69807000  1.0
  H  H30  1  0.14054000  0.26066000  0.19807000  1.0
  H  H31  1  0.64054000  0.23934000  0.30193000  1.0
  H  H32  1  0.06946000  0.31150000  0.80895000  1.0
  H  H33  1  0.56946000  0.18850000  0.69105000  1.0
  H  H34  1  0.93054000  0.68850000  0.19105000  1.0
  H  H35  1  0.43055000  0.81150000  0.30896000  1.0
  H  H36  1  0.02344000  0.41591000  0.82953000  1.0
  H  H37  1  0.52343000  0.08409000  0.67047000  1.0
  H  H38  1  0.97657000  0.58409000  0.17047000  1.0
  H  H39  1  0.47656000  0.91591000  0.32953000  1.0
  H  H40  1  0.18205000  0.24715000  0.81455000  1.0
  H  H41  1  0.68205000  0.25284000  0.68545000  1.0
  H  H42  1  0.81795000  0.75285000  0.18546000  1.0
  H  H43  1  0.31795000  0.74715000  0.31455000  1.0
  H  H44  1  0.45001000  0.22175000  0.73192000  1.0
  H  H45  1  0.95001000  0.27825000  0.76808000  1.0
  H  H46  1  0.54999000  0.77825000  0.26808000  1.0
  H  H47  1  0.04999000  0.72175000  0.23192000  1.0
  H  H48  1  0.72906000  0.96011000  0.77173000  1.0
  H  H49  1  0.22906000  0.53989000  0.72827000  1.0
  H  H50  1  0.27094000  0.03989000  0.22827000  1.0
  H  H51  1  0.77094000  0.46011000  0.27173000  1.0
  H  H52  1  0.97370000  0.80899000  0.81600000  1.0
  H  H53  1  0.47371000  0.69101000  0.68399000  1.0
  H  H54  1  0.02629000  0.19101000  0.18400000  1.0
  H  H55  1  0.52630000  0.30899000  0.31601000  1.0
  H  H56  1  0.01291000  0.91740000  0.84441000  1.0
  H  H57  1  0.51291000  0.58260000  0.65558000  1.0
  H  H58  1  0.98709000  0.08260000  0.15558000  1.0
  H  H59  1  0.48709000  0.41740000  0.34442000  1.0
  H  H60  1  0.94262000  0.38867000  0.08014000  1.0
  H  H61  1  0.44262000  0.11133000  0.41986000  1.0
  H  H62  1  0.05738000  0.61133000  0.91986000  1.0
  H  H63  1  0.55738000  0.88867000  0.58014000  1.0
  H  H64  1  0.99082000  0.77284000  0.93184000  1.0
  H  H65  1  0.49081000  0.72716000  0.56816000  1.0
  H  H66  1  0.00918000  0.22716000  0.06816000  1.0
  H  H67  1  0.50919000  0.27284000  0.43184000  1.0
  H  H68  1  0.86254000  0.01523000  0.95497000  1.0
  H  H69  1  0.36254000  0.48477000  0.54503000  1.0
  H  H70  1  0.13746000  0.98477000  0.04503000  1.0
  H  H71  1  0.63746000  0.51523000  0.45497000  1.0
  H  H72  1  0.21515000  0.43400000  0.95298000  1.0
  H  H73  1  0.71515000  0.06600000  0.54702000  1.0
  H  H74  1  0.78485000  0.56600000  0.04702000  1.0
  H  H75  1  0.28484000  0.93401000  0.45298000  1.0
  H  H76  1  0.95353000  0.80483000  0.07579000  1.0
  H  H77  1  0.45353000  0.69518000  0.42421000  1.0
  H  H78  1  0.04647000  0.19518000  0.92421000  1.0
  H  H79  1  0.54647000  0.30483000  0.57579000  1.0
  H  H80  1  0.20810000  0.45309000  0.09684000  1.0
  H  H81  1  0.70810000  0.04691000  0.40315000  1.0
  H  H82  1  0.79190000  0.54691000  0.90316000  1.0
  H  H83  1  0.29190000  0.95309000  0.59685000  1.0
  H  H84  1  0.83068000  0.03751000  0.09746000  1.0
  H  H85  1  0.33068000  0.46250000  0.40254000  1.0
  H  H86  1  0.16932000  0.96249000  0.90254000  1.0
  H  H87  1  0.66932000  0.53751000  0.59746000  1.0
  H  H88  1  0.63643000  0.49047000  0.04497000  1.0
  H  H89  1  0.13643000  0.00953000  0.45503000  1.0
  H  H90  1  0.36357000  0.50953000  0.95503000  1.0
  H  H91  1  0.86357000  0.99047000  0.54497000  1.0
  H  H92  1  0.87071000  0.38639000  0.60904000  1.0
  H  H93  1  0.37071000  0.11360000  0.89095000  1.0
  H  H94  1  0.12929000  0.61360000  0.39095000  1.0
  H  H95  1  0.62929000  0.88640000  0.10905000  1.0
  H  H96  1  0.56715000  0.63906000  0.09303000  1.0
  H  H97  1  0.06715000  0.86094000  0.40697000  1.0
  H  H98  1  0.43285000  0.36094000  0.90697000  1.0
  H  H99  1  0.93285000  0.13906000  0.59303000  1.0
  H  H100  1  0.54679000  0.61359000  0.84656000  1.0
  H  H101  1  0.04680000  0.88641000  0.65345000  1.0
  H  H102  1  0.45320000  0.38641000  0.15345000  1.0
  H  H103  1  0.95321000  0.11359000  0.34655000  1.0
  H  H104  1  0.51706000  0.70060000  0.98869000  1.0
  H  H105  1  0.01706000  0.79940000  0.51131000  1.0
  H  H106  1  0.48294000  0.29940000  0.01131000  1.0
  H  H107  1  0.98294000  0.20059000  0.48869000  1.0
  H  H108  1  0.64249000  0.34443000  0.83535000  1.0
  H  H109  1  0.14249000  0.15558000  0.66465000  1.0
  H  H110  1  0.35751000  0.65558000  0.16465000  1.0
  H  H111  1  0.85750000  0.84442000  0.33535000  1.0
  H  H112  1  0.67075000  0.35627000  0.93532000  1.0
  H  H113  1  0.17075000  0.14373000  0.56468000  1.0
  H  H114  1  0.32925000  0.64373000  0.06468000  1.0
  H  H115  1  0.82925000  0.85627000  0.43533000  1.0
  H  H116  1  0.74450000  0.39225000  0.87733000  1.0
  H  H117  1  0.24450000  0.10775000  0.62266000  1.0
  H  H118  1  0.25550000  0.60775000  0.12267000  1.0
  H  H119  1  0.75550000  0.89225000  0.37734000  1.0
  H  H120  1  0.88583000  0.31834000  0.41430000  1.0
  H  H121  1  0.38583000  0.18166000  0.08569000  1.0
  H  H122  1  0.11417000  0.68165000  0.58569000  1.0
  H  H123  1  0.61417000  0.81835000  0.91431000  1.0
  H  H124  1  0.77317000  0.35066000  0.43546000  1.0
  H  H125  1  0.27318000  0.14934000  0.06454000  1.0
  H  H126  1  0.22683000  0.64933000  0.56453000  1.0
  H  H127  1  0.72682000  0.85067000  0.93547000  1.0
  H  H128  1  0.82989000  0.30034000  0.49448000  1.0
  H  H129  1  0.32989000  0.19966000  0.00552000  1.0
  H  H130  1  0.17011000  0.69965000  0.50552000  1.0
  H  H131  1  0.67011000  0.80034000  0.99448000  1.0
  H  H132  1  0.92666000  0.48101000  0.43827000  1.0
  H  H133  1  0.42666000  0.01899000  0.06173000  1.0
  H  H134  1  0.07334000  0.51899000  0.56173000  1.0
  H  H135  1  0.57334000  0.98101000  0.93827000  1.0
  H  H136  1  0.89547000  0.55999000  0.53384000  1.0
  H  H137  1  0.39547000  0.94001000  0.96617000  1.0
  H  H138  1  0.10452000  0.44001000  0.46616000  1.0
  H  H139  1  0.60452000  0.05999000  0.03384000  1.0
  H  H140  1  0.81327000  0.51024000  0.45928000  1.0
  H  H141  1  0.31327000  0.98976000  0.04072000  1.0
  H  H142  1  0.18673000  0.48976000  0.54071000  1.0
  H  H143  1  0.68673000  0.01024000  0.95928000  1.0
  H  H144  1  0.71455000  0.73280000  0.61645000  1.0
  H  H145  1  0.21455000  0.76720000  0.88355000  1.0
  H  H146  1  0.28544000  0.26720000  0.38355000  1.0
  H  H147  1  0.78545000  0.23280000  0.11645000  1.0
  H  H148  1  0.75256000  0.65778000  0.36203000  1.0
  H  H149  1  0.25256000  0.84222000  0.13798000  1.0
  H  H150  1  0.24744000  0.34222000  0.63797000  1.0
  H  H151  1  0.74744000  0.15778000  0.86203000  1.0
  H  H152  1  0.64978000  0.68545000  0.47749000  1.0
  H  H153  1  0.14978000  0.81455000  0.02251000  1.0
  H  H154  1  0.35023000  0.31455000  0.52251000  1.0
  H  H155  1  0.85023000  0.18545000  0.97749000  1.0
  H  H156  1  0.99872000  0.69857000  0.39097000  1.0
  H  H157  1  0.49872000  0.80143000  0.10903000  1.0
  H  H158  1  0.00128000  0.30143000  0.60903000  1.0
  H  H159  1  0.50128000  0.19857000  0.89097000  1.0
  H  H160  1  0.91010000  0.70208000  0.32709000  1.0
  H  H161  1  0.41011000  0.79792000  0.17291000  1.0
  H  H162  1  0.08990000  0.29792000  0.67291000  1.0
  H  H163  1  0.58989000  0.20208000  0.82710000  1.0
  H  H164  1  0.94062000  0.60143000  0.33414000  1.0
  H  H165  1  0.44062000  0.89857000  0.16586000  1.0
  H  H166  1  0.05938000  0.39857000  0.66586000  1.0
  H  H167  1  0.55938000  0.10143000  0.83414000  1.0
  H  H168  1  0.87827000  0.74901000  0.63168000  1.0
  H  H169  1  0.37827000  0.75099000  0.86832000  1.0
  H  H170  1  0.12173000  0.25099000  0.36832000  1.0
  H  H171  1  0.62173000  0.24901000  0.13168000  1.0
  C  C172  1  0.64982000  0.84540000  0.75167000  1.0
  C  C173  1  0.14981000  0.65460000  0.74833000  1.0
  C  C174  1  0.35018000  0.15460000  0.24833000  1.0
  C  C175  1  0.85018000  0.34540000  0.25167000  1.0
  C  C176  1  0.31531000  0.22595000  0.77171000  1.0
  C  C177  1  0.81531000  0.27405000  0.72829000  1.0
  C  C178  1  0.68469000  0.77406000  0.22829000  1.0
  C  C179  1  0.18469000  0.72594000  0.27171000  1.0
  C  C180  1  0.64660000  0.75984000  0.75094000  1.0
  C  C181  1  0.14661000  0.74016000  0.74906000  1.0
  C  C182  1  0.35339000  0.24016000  0.24906000  1.0
  C  C183  1  0.85340000  0.25984000  0.25094000  1.0
  C  C184  1  0.80634000  0.85613000  0.78756000  1.0
  C  C185  1  0.30635000  0.64387000  0.71244000  1.0
  C  C186  1  0.19365000  0.14387000  0.21244000  1.0
  C  C187  1  0.69365000  0.35613000  0.28756000  1.0
  C  C188  1  0.07813000  0.39510000  0.93105000  1.0
  C  C189  1  0.57813000  0.10490000  0.56895000  1.0
  C  C190  1  0.92187000  0.60490000  0.06895000  1.0
  C  C191  1  0.42187000  0.89510000  0.43105000  1.0
  C  C192  1  0.00104000  0.38092000  0.96778000  1.0
  C  C193  1  0.50104000  0.11908000  0.53222000  1.0
  C  C194  1  0.99896000  0.61908000  0.03222000  1.0
  C  C195  1  0.49896000  0.88092000  0.46778000  1.0
  C  C196  1  0.72293000  0.72268000  0.76891000  1.0
  C  C197  1  0.22293000  0.77732000  0.73109000  1.0
  C  C198  1  0.27707000  0.27732000  0.23109000  1.0
  C  C199  1  0.77707000  0.22268000  0.26891000  1.0
  C  C200  1  0.31630000  0.13315000  0.76806000  1.0
  C  C201  1  0.81630000  0.36684000  0.73194000  1.0
  C  C202  1  0.68370000  0.86685000  0.23194000  1.0
  C  C203  1  0.18370000  0.63315000  0.26806000  1.0
  C  C204  1  0.23498000  0.36273000  0.79745000  1.0
  C  C205  1  0.73498000  0.13727000  0.70255000  1.0
  C  C206  1  0.76502000  0.63727000  0.20255000  1.0
  C  C207  1  0.26502000  0.86273000  0.29745000  1.0
  C  C208  1  0.31207000  0.39744000  0.77593000  1.0
  C  C209  1  0.81206000  0.10256000  0.72407000  1.0
  C  C210  1  0.68793000  0.60256000  0.22407000  1.0
  C  C211  1  0.18793000  0.89744000  0.27593000  1.0
  C  C212  1  0.80151000  0.77043000  0.78816000  1.0
  C  C213  1  0.30151000  0.72957000  0.71184000  1.0
  C  C214  1  0.19849000  0.22957000  0.21184000  1.0
  C  C215  1  0.69849000  0.27043000  0.28816000  1.0
  C  C216  1  0.07989000  0.38199000  0.84354000  1.0
  C  C217  1  0.57989000  0.11801000  0.65646000  1.0
  C  C218  1  0.92011000  0.61801000  0.15646000  1.0
  C  C219  1  0.42011000  0.88199000  0.34354000  1.0
  C  C220  1  0.56781000  0.88647000  0.73482000  1.0
  C  C221  1  0.06781000  0.61353000  0.76518000  1.0
  C  C222  1  0.43219000  0.11353000  0.26518000  1.0
  C  C223  1  0.93219000  0.38647000  0.23482000  1.0
  C  C224  1  0.47078000  0.38683000  0.73395000  1.0
  C  C225  1  0.97077000  0.11317000  0.76605000  1.0
  C  C226  1  0.52923000  0.61317000  0.26606000  1.0
  C  C227  1  0.02923000  0.88683000  0.23395000  1.0
  C  C228  1  0.23881000  0.27659000  0.79690000  1.0
  C  C229  1  0.73881000  0.22341000  0.70310000  1.0
  C  C230  1  0.76119000  0.72342000  0.20310000  1.0
  C  C231  1  0.26119000  0.77658000  0.29690000  1.0
  C  C232  1  0.39046000  0.26081000  0.74955000  1.0
  C  C233  1  0.89046000  0.23919000  0.75045000  1.0
  C  C234  1  0.60954000  0.73919000  0.25045000  1.0
  C  C235  1  0.10954000  0.76081000  0.24955000  1.0
  C  C236  1  0.72081000  0.63098000  0.76772000  1.0
  C  C237  1  0.22081000  0.86902000  0.73228000  1.0
  C  C238  1  0.27919000  0.36902000  0.23228000  1.0
  C  C239  1  0.77919000  0.13098000  0.26772000  1.0
  C  C240  1  0.72873000  0.89286000  0.76949000  1.0
  C  C241  1  0.22874000  0.60714000  0.73051000  1.0
  C  C242  1  0.27126000  0.10714000  0.23051000  1.0
  C  C243  1  0.77126000  0.39286000  0.26949000  1.0
  C  C244  1  0.93203000  0.89310000  0.93227000  1.0
  C  C245  1  0.43203000  0.60690000  0.56773000  1.0
  C  C246  1  0.06797000  0.10690000  0.06773000  1.0
  C  C247  1  0.56798000  0.39310000  0.43227000  1.0
  C  C248  1  0.95479000  0.87808000  0.84626000  1.0
  C  C249  1  0.45479000  0.62192000  0.65374000  1.0
  C  C250  1  0.04521000  0.12192000  0.15374000  1.0
  C  C251  1  0.54522000  0.37808000  0.34626000  1.0
  C  C252  1  0.00220000  0.39624000  0.04908000  1.0
  C  C253  1  0.50220000  0.10376000  0.45092000  1.0
  C  C254  1  0.99780000  0.60376000  0.95092000  1.0
  C  C255  1  0.49780000  0.89624000  0.54908000  1.0
  C  C256  1  0.38878000  0.34720000  0.75252000  1.0
  C  C257  1  0.88878000  0.15280000  0.74748000  1.0
  C  C258  1  0.61122000  0.65281000  0.24748000  1.0
  C  C259  1  0.11122000  0.84719000  0.25252000  1.0
  C  C260  1  0.95673000  0.83326000  0.96725000  1.0
  C  C261  1  0.45673000  0.66674000  0.53275000  1.0
  C  C262  1  0.04327000  0.16674000  0.03275000  1.0
  C  C263  1  0.54327000  0.33326000  0.46725000  1.0
  C  C264  1  0.88468000  0.96721000  0.97965000  1.0
  C  C265  1  0.38467000  0.53279000  0.52035000  1.0
  C  C266  1  0.11533000  0.03279000  0.02035000  1.0
  C  C267  1  0.61533000  0.46721000  0.47965000  1.0
  C  C268  1  0.15359000  0.42208000  0.97847000  1.0
  C  C269  1  0.65359000  0.07793000  0.52153000  1.0
  C  C270  1  0.84641000  0.57793000  0.02153000  1.0
  C  C271  1  0.34641000  0.92207000  0.47847000  1.0
  C  C272  1  0.93545000  0.85038000  0.04686000  1.0
  C  C273  1  0.43544000  0.64962000  0.45314000  1.0
  C  C274  1  0.06455000  0.14962000  0.95314000  1.0
  C  C275  1  0.56456000  0.35038000  0.54686000  1.0
  C  C276  1  0.14972000  0.43408000  0.05879000  1.0
  C  C277  1  0.64973000  0.06593000  0.44121000  1.0
  C  C278  1  0.85027000  0.56593000  0.94121000  1.0
  C  C279  1  0.35027000  0.93407000  0.55879000  1.0
  C  C280  1  0.86607000  0.97959000  0.05863000  1.0
  C  C281  1  0.36606000  0.52041000  0.44137000  1.0
  C  C282  1  0.13394000  0.02041000  0.94137000  1.0
  C  C283  1  0.63394000  0.47959000  0.55863000  1.0
  C  C284  1  0.61712000  0.52076000  0.00272000  1.0
  C  C285  1  0.11712000  0.97924000  0.49728000  1.0
  C  C286  1  0.38289000  0.47924000  0.99728000  1.0
  C  C287  1  0.88289000  0.02076000  0.50272000  1.0
  C  C288  1  0.88105000  0.44468000  0.59377000  1.0
  C  C289  1  0.38105000  0.05531000  0.90622000  1.0
  C  C290  1  0.11895000  0.55531000  0.40622000  1.0
  C  C291  1  0.61895000  0.94469000  0.09378000  1.0
  C  C292  1  0.57772000  0.60315000  0.02936000  1.0
  C  C293  1  0.07772000  0.89685000  0.47064000  1.0
  C  C294  1  0.42228000  0.39685000  0.97064000  1.0
  C  C295  1  0.92228000  0.10315000  0.52936000  1.0
  C  C296  1  0.56696000  0.58918000  0.89271000  1.0
  C  C297  1  0.06696000  0.91082000  0.60729000  1.0
  C  C298  1  0.43304000  0.41082000  0.10729000  1.0
  C  C299  1  0.93304000  0.08918000  0.39271000  1.0
  C  C300  1  0.55131000  0.63795000  0.97294000  1.0
  C  C301  1  0.05131000  0.86206000  0.52707000  1.0
  C  C302  1  0.44869000  0.36206000  0.02707000  1.0
  C  C303  1  0.94870000  0.13794000  0.47293000  1.0
  C  C304  1  0.67419000  0.38713000  0.89079000  1.0
  C  C305  1  0.17419000  0.11287000  0.60921000  1.0
  C  C306  1  0.32581000  0.61287000  0.10921000  1.0
  C  C307  1  0.82581000  0.88713000  0.39079000  1.0
  C  C308  1  0.83702000  0.34516000  0.46232000  1.0
  C  C309  1  0.33703000  0.15484000  0.03768000  1.0
  C  C310  1  0.16298000  0.65484000  0.53768000  1.0
  C  C311  1  0.66297000  0.84516000  0.96232000  1.0
  C  C312  1  0.63125000  0.47542000  0.92088000  1.0
  C  C313  1  0.13125000  0.02458000  0.57912000  1.0
  C  C314  1  0.36874000  0.52458000  0.07912000  1.0
  C  C315  1  0.86875000  0.97542000  0.42088000  1.0
  C  C316  1  0.87594000  0.49969000  0.48534000  1.0
  C  C317  1  0.37594000  0.00031000  0.01466000  1.0
  C  C318  1  0.12405000  0.50031000  0.51466000  1.0
  C  C319  1  0.62405000  0.99969000  0.98534000  1.0
  C  C320  1  0.75641000  0.71957000  0.56410000  1.0
  C  C321  1  0.25641000  0.78043000  0.93590000  1.0
  C  C322  1  0.24359000  0.28043000  0.43589000  1.0
  C  C323  1  0.74359000  0.21957000  0.06410000  1.0
  C  C324  1  0.86970000  0.68816000  0.43647000  1.0
  C  C325  1  0.36970000  0.81184000  0.06353000  1.0
  C  C326  1  0.13030000  0.31184000  0.56353000  1.0
  C  C327  1  0.63030000  0.18816000  0.93647000  1.0
  C  C328  1  0.77820000  0.67751000  0.42271000  1.0
  C  C329  1  0.27820000  0.82249000  0.07729000  1.0
  C  C330  1  0.22180000  0.32249000  0.57729000  1.0
  C  C331  1  0.72180000  0.17751000  0.92271000  1.0
  C  C332  1  0.72109000  0.69333000  0.48716000  1.0
  C  C333  1  0.22109000  0.80668000  0.01284000  1.0
  C  C334  1  0.27891000  0.30668000  0.51284000  1.0
  C  C335  1  0.77891000  0.19332000  0.98716000  1.0
  C  C336  1  0.93340000  0.67195000  0.36872000  1.0
  C  C337  1  0.43340000  0.82805000  0.13128000  1.0
  C  C338  1  0.06660000  0.32805000  0.63128000  1.0
  C  C339  1  0.56660000  0.17195000  0.86872000  1.0
  C  C340  1  0.84796000  0.72870000  0.57251000  1.0
  C  C341  1  0.34796000  0.77131000  0.92750000  1.0
  C  C342  1  0.15204000  0.27131000  0.42749000  1.0
  C  C343  1  0.65204000  0.22869000  0.07251000  1.0
  N  N344  1  0.07523000  0.42245000  0.09450000  1.0
  N  N345  1  0.57523000  0.07755000  0.40550000  1.0
  N  N346  1  0.92477000  0.57755000  0.90550000  1.0
  N  N347  1  0.42477000  0.92245000  0.59450000  1.0
  N  N348  1  0.89147000  0.92271000  0.09274000  1.0
  N  N349  1  0.39146000  0.57729000  0.40726000  1.0
  N  N350  1  0.10853000  0.07729000  0.90726000  1.0
  N  N351  1  0.60854000  0.42271000  0.59274000  1.0
  N  N352  1  0.15983000  0.41299000  0.81920000  1.0
  N  N353  1  0.65983000  0.08701000  0.68080000  1.0
  N  N354  1  0.84017000  0.58701000  0.18080000  1.0
  N  N355  1  0.34017000  0.91299000  0.31920000  1.0
  N  N356  1  0.88404000  0.90236000  0.80480000  1.0
  N  N357  1  0.38404000  0.59764000  0.69520000  1.0
  N  N358  1  0.11596000  0.09764000  0.19520000  1.0
  N  N359  1  0.61596000  0.40236000  0.30480000  1.0
  N  N360  1  0.60717000  0.51036000  0.86644000  1.0
  N  N361  1  0.10717000  0.98964000  0.63356000  1.0
  N  N362  1  0.39283000  0.48965000  0.13356000  1.0
  N  N363  1  0.89283000  0.01035000  0.36644000  1.0
  N  N364  1  0.86524000  0.43079000  0.51722000  1.0
  N  N365  1  0.36524000  0.06921000  0.98277000  1.0
  N  N366  1  0.13476000  0.56921000  0.48278000  1.0
  N  N367  1  0.63475000  0.93079000  0.01723000  1.0
  N  N368  1  0.90376000  0.71331000  0.51073000  1.0
  N  N369  1  0.40376000  0.78669000  0.98927000  1.0
  N  N370  1  0.09624000  0.28669000  0.48927000  1.0
  N  N371  1  0.59624000  0.21330000  0.01073000  1.0
  O  O372  1  0.54342000  0.34347000  0.72357000  1.0
  O  O373  1  0.04341000  0.15652000  0.77643000  1.0
  O  O374  1  0.45658000  0.65653000  0.27643000  1.0
  O  O375  1  0.95659000  0.84348000  0.22358000  1.0
  O  O376  1  0.49577000  0.84245000  0.72078000  1.0
  O  O377  1  0.99576000  0.65755000  0.77922000  1.0
  O  O378  1  0.50423000  0.15755000  0.27922000  1.0
  O  O379  1  0.00424000  0.34245000  0.22078000  1.0
  O  O380  1  0.57008000  0.96463000  0.73545000  1.0
  O  O381  1  0.07008000  0.53537000  0.76455000  1.0
  O  O382  1  0.42992000  0.03537000  0.26455000  1.0
  O  O383  1  0.92992000  0.46463000  0.23545000  1.0
  O  O384  1  0.38559000  0.08736000  0.74115000  1.0
  O  O385  1  0.88559000  0.41263000  0.75885000  1.0
  O  O386  1  0.61441000  0.91264000  0.25885000  1.0
  O  O387  1  0.11441000  0.58736000  0.24116000  1.0
  O  O388  1  0.24857000  0.10534000  0.79361000  1.0
  O  O389  1  0.74857000  0.39466000  0.70639000  1.0
  O  O390  1  0.75143000  0.89466000  0.20639000  1.0
  O  O391  1  0.25143000  0.60534000  0.29361000  1.0
  O  O392  1  0.78548000  0.60381000  0.79746000  1.0
  O  O393  1  0.28548000  0.89619000  0.70254000  1.0
  O  O394  1  0.21452000  0.39619000  0.20253000  1.0
  O  O395  1  0.71452000  0.10381000  0.29746000  1.0
  O  O396  1  0.46853000  0.46318000  0.73109000  1.0
  O  O397  1  0.96853000  0.03682000  0.76891000  1.0
  O  O398  1  0.53147000  0.53682000  0.26892000  1.0
  O  O399  1  0.03147000  0.96318000  0.23109000  1.0
  O  O400  1  0.65241000  0.58496000  0.73728000  1.0
  O  O401  1  0.15241000  0.91504000  0.76272000  1.0
  O  O402  1  0.34758000  0.41504000  0.26272000  1.0
  O  O403  1  0.84759000  0.08496000  0.23728000  1.0
  O  O404  1  0.90529000  0.51656000  0.64518000  1.0
  O  O405  1  0.40528000  0.98343000  0.85482000  1.0
  O  O406  1  0.09471000  0.48343000  0.35482000  1.0
  O  O407  1  0.59470000  0.01657000  0.14518000  1.0
