# generated using pymatgen
data_CuH4C6N2Cl
_symmetry_space_group_name_H-M   'P 1'
_cell_length_a   3.66256000
_cell_length_b   12.49580000
_cell_length_c   14.74980000
_cell_angle_alpha   89.99940000
_cell_angle_beta   89.99960000
_cell_angle_gamma   96.06570000
_symmetry_Int_Tables_number   1
_chemical_formula_structural   CuH4C6N2Cl
_chemical_formula_sum   'Cu4 H16 C24 N8 Cl4'
_cell_volume   671.26911175
_cell_formula_units_Z   4
loop_
 _symmetry_equiv_pos_site_id
 _symmetry_equiv_pos_as_xyz
  1  'x, y, z'
loop_
 _atom_site_type_symbol
 _atom_site_label
 _atom_site_symmetry_multiplicity
 _atom_site_fract_x
 _atom_site_fract_y
 _atom_site_fract_z
 _atom_site_occupancy
  Cu  Cu0  1  0.49332000  0.96945000  0.25307000  1.0
  Cu  Cu1  1  0.50669000  0.53055000  0.75307000  1.0
  Cu  Cu2  1  0.50669000  0.03056000  0.74693000  1.0
  Cu  Cu3  1  0.49331000  0.46945000  0.24692000  1.0
  H  H4  1  0.66802000  0.74439000  0.27531000  1.0
  H  H5  1  0.33198000  0.75562000  0.77531000  1.0
  H  H6  1  0.33198000  0.25562000  0.72469000  1.0
  H  H7  1  0.66802000  0.24439000  0.22469000  1.0
  H  H8  1  0.69689000  0.61354000  0.39940000  1.0
  H  H9  1  0.30313000  0.88645000  0.89941000  1.0
  H  H10  1  0.30309000  0.38645000  0.60060000  1.0
  H  H11  1  0.69689000  0.11355000  0.10060000  1.0
  H  H12  1  0.25671000  0.84524000  0.57868000  1.0
  H  H13  1  0.74332000  0.65475000  0.07867000  1.0
  H  H14  1  0.74327000  0.15476000  0.42133000  1.0
  H  H15  1  0.25669000  0.34524000  0.92133000  1.0
  H  H16  1  0.23222000  0.96518000  0.44305000  1.0
  H  H17  1  0.76779000  0.53481000  0.94304000  1.0
  H  H18  1  0.76779000  0.03482000  0.55695000  1.0
  H  H19  1  0.23221000  0.46518000  0.05695000  1.0
  C  C20  1  0.57767000  0.76414000  0.34302000  1.0
  C  C21  1  0.42234000  0.73586000  0.84302000  1.0
  C  C22  1  0.42232000  0.23586000  0.65698000  1.0
  C  C23  1  0.57768000  0.26414000  0.15698000  1.0
  C  C24  1  0.59539000  0.69073000  0.41313000  1.0
  C  C25  1  0.40463000  0.80927000  0.91314000  1.0
  C  C26  1  0.40459000  0.30927000  0.58686000  1.0
  C  C27  1  0.59539000  0.19073000  0.08686000  1.0
  C  C28  1  0.48248000  0.71923000  0.50012000  1.0
  C  C29  1  0.51754000  0.78076000  0.00012000  1.0
  C  C30  1  0.51750000  0.28077000  0.49988000  1.0
  C  C31  1  0.48247000  0.21923000  0.99988000  1.0
  C  C32  1  0.35033000  0.82021000  0.51245000  1.0
  C  C33  1  0.64970000  0.67977000  0.01244000  1.0
  C  C34  1  0.64966000  0.17979000  0.48755000  1.0
  C  C35  1  0.35031000  0.32021000  0.98755000  1.0
  C  C36  1  0.33868000  0.88713000  0.43785000  1.0
  C  C37  1  0.66133000  0.61286000  0.93784000  1.0
  C  C38  1  0.66132000  0.11287000  0.56215000  1.0
  C  C39  1  0.33867000  0.38713000  0.06215000  1.0
  C  C40  1  0.50083000  0.64891000  0.57487000  1.0
  C  C41  1  0.49918000  0.85106000  0.07487000  1.0
  C  C42  1  0.49916000  0.35108000  0.42513000  1.0
  C  C43  1  0.50083000  0.14892000  0.92513000  1.0
  N  N44  1  0.45387000  0.86114000  0.35445000  1.0
  N  N45  1  0.54613000  0.63886000  0.85445000  1.0
  N  N46  1  0.54612000  0.13887000  0.64555000  1.0
  N  N47  1  0.45388000  0.36114000  0.14555000  1.0
  N  N48  1  0.51264000  0.59247000  0.63808000  1.0
  N  N49  1  0.48737000  0.90753000  0.13809000  1.0
  N  N50  1  0.48736000  0.40754000  0.36191000  1.0
  N  N51  1  0.51263000  0.09247000  0.86191000  1.0
  Cl  Cl52  1  0.03320000  0.08174000  0.28734000  1.0
  Cl  Cl53  1  0.96681000  0.41827000  0.78734000  1.0
  Cl  Cl54  1  0.96681000  0.91827000  0.71266000  1.0
  Cl  Cl55  1  0.03320000  0.58174000  0.21265000  1.0
