# generated using pymatgen
data_Pr2H15C21(NO5)3
_symmetry_space_group_name_H-M   'P 1'
_cell_length_a   8.67042000
_cell_length_b   10.35313933
_cell_length_c   15.79581188
_cell_angle_alpha   84.18281646
_cell_angle_beta   78.26526036
_cell_angle_gamma   71.31173152
_symmetry_Int_Tables_number   1
_chemical_formula_structural   Pr2H15C21(NO5)3
_chemical_formula_sum   'Pr4 H30 C42 N6 O30'
_cell_volume   1314.09487418
_cell_formula_units_Z   2
loop_
 _symmetry_equiv_pos_site_id
 _symmetry_equiv_pos_as_xyz
  1  'x, y, z'
loop_
 _atom_site_type_symbol
 _atom_site_label
 _atom_site_symmetry_multiplicity
 _atom_site_fract_x
 _atom_site_fract_y
 _atom_site_fract_z
 _atom_site_occupancy
  Pr  Pr0  1  0.37592000  0.78448000  0.21016000  1.0
  Pr  Pr1  1  0.62409000  0.21551000  0.78984000  1.0
  Pr  Pr2  1  0.79795000  0.70813000  0.30279000  1.0
  Pr  Pr3  1  0.20205000  0.29187000  0.69721000  1.0
  H  H4  1  0.85279000  0.43475000  0.39334000  1.0
  H  H5  1  0.14721000  0.56524000  0.60666000  1.0
  H  H6  1  0.75103000  0.39824000  0.33224000  1.0
  H  H7  1  0.24897000  0.60176000  0.66776000  1.0
  H  H8  1  0.74895000  0.68963000  0.48506000  1.0
  H  H9  1  0.25105000  0.31038000  0.51494000  1.0
  H  H10  1  0.93586000  0.66378000  0.48621000  1.0
  H  H11  1  0.06414000  0.33623000  0.51379000  1.0
  H  H12  1  0.46940000  0.80245000  0.01184000  1.0
  H  H13  1  0.53062000  0.19753000  0.98817000  1.0
  H  H14  1  0.42144000  0.94755000  0.04906000  1.0
  H  H15  1  0.57856000  0.05243000  0.95094000  1.0
  H  H16  1  0.49537000  0.49202000  0.32573000  1.0
  H  H17  1  0.50462000  0.50798000  0.67427000  1.0
  H  H18  1  0.20095000  0.20150000  0.96872000  1.0
  H  H19  1  0.79906000  0.79850000  0.03127000  1.0
  H  H20  1  0.97366000  0.45003000  0.17604000  1.0
  H  H21  1  0.02635000  0.54997000  0.82395000  1.0
  H  H22  1  0.74701000  0.08950000  0.26346000  1.0
  H  H23  1  0.25297000  0.91051000  0.73655000  1.0
  H  H24  1  0.30962000  0.98308000  0.54613000  1.0
  H  H25  1  0.69038000  0.01693000  0.45387000  1.0
  H  H26  1  0.24212000  0.64901000  0.43138000  1.0
  H  H27  1  0.75789000  0.35099000  0.56862000  1.0
  H  H28  1  0.24074000  0.26009000  0.22777000  1.0
  H  H29  1  0.75925000  0.73991000  0.77223000  1.0
  H  H30  1  0.86872000  0.86132000  0.62247000  1.0
  H  H31  1  0.13127000  0.13869000  0.37754000  1.0
  H  H32  1  0.67628000  0.40963000  0.99740000  1.0
  H  H33  1  0.32371000  0.59037000  0.00261000  1.0
  C  C34  1  0.34871000  0.39263000  0.27734000  1.0
  C  C35  1  0.65128000  0.60738000  0.72266000  1.0
  C  C36  1  0.49322000  0.39793000  0.30124000  1.0
  C  C37  1  0.50677000  0.60207000  0.69876000  1.0
  C  C38  1  0.08627000  0.26737000  0.00486000  1.0
  C  C39  1  0.91373000  0.73264000  0.99514000  1.0
  C  C40  1  0.96004000  0.40696000  0.11880000  1.0
  C  C41  1  0.03996000  0.59305000  0.88120000  1.0
  C  C42  1  0.49236000  0.15821000  0.24539000  1.0
  C  C43  1  0.50764000  0.84179000  0.75461000  1.0
  C  C44  1  0.45941000  0.78782000  0.42259000  1.0
  C  C45  1  0.54059000  0.21218000  0.57741000  1.0
  C  C46  1  0.48725000  0.02522000  0.21922000  1.0
  C  C47  1  0.51274000  0.97478000  0.78078000  1.0
  C  C48  1  0.63269000  0.17473000  0.26810000  1.0
  C  C49  1  0.36730000  0.82527000  0.73190000  1.0
  C  C50  1  0.93720000  0.29420000  0.97469000  1.0
  C  C51  1  0.06280000  0.70580000  0.02531000  1.0
  C  C52  1  0.80612000  0.44403000  0.09242000  1.0
  C  C53  1  0.19388000  0.55597000  0.90758000  1.0
  C  C54  1  0.20375000  0.51957000  0.28098000  1.0
  C  C55  1  0.79624000  0.48043000  0.71902000  1.0
  C  C56  1  0.23689000  0.91653000  0.54085000  1.0
  C  C57  1  0.76311000  0.08348000  0.45915000  1.0
  C  C58  1  0.19882000  0.73021000  0.47738000  1.0
  C  C59  1  0.80119000  0.26979000  0.52262000  1.0
  C  C60  1  0.29652000  0.81267000  0.48179000  1.0
  C  C61  1  0.70348000  0.18733000  0.51821000  1.0
  C  C62  1  0.93610000  0.23576000  0.89199000  1.0
  C  C63  1  0.06390000  0.76423000  0.10801000  1.0
  C  C64  1  0.00464000  0.05293000  0.65205000  1.0
  C  C65  1  0.99535000  0.94708000  0.34795000  1.0
  C  C66  1  0.34852000  0.27003000  0.24871000  1.0
  C  C67  1  0.65147000  0.72997000  0.75129000  1.0
  C  C68  1  0.07965000  0.93638000  0.59168000  1.0
  C  C69  1  0.92036000  0.06362000  0.40832000  1.0
  C  C70  1  0.66068000  0.55078000  0.13711000  1.0
  C  C71  1  0.33932000  0.44922000  0.86289000  1.0
  C  C72  1  0.99127000  0.84826000  0.58316000  1.0
  C  C73  1  0.00874000  0.15174000  0.41684000  1.0
  C  C74  1  0.79380000  0.38309000  0.02005000  1.0
  C  C75  1  0.20620000  0.61691000  0.97995000  1.0
  N  N76  1  0.09812000  0.31943000  0.07670000  1.0
  N  N77  1  0.90189000  0.68057000  0.92329000  1.0
  N  N78  1  0.04993000  0.74600000  0.52767000  1.0
  N  N79  1  0.95008000  0.25400000  0.47233000  1.0
  N  N80  1  0.63372000  0.29323000  0.29570000  1.0
  N  N81  1  0.36627000  0.70677000  0.70430000  1.0
  O  O82  1  0.67946000  0.61886000  0.19649000  1.0
  O  O83  1  0.32054000  0.38114000  0.80351000  1.0
  O  O84  1  0.76342000  0.47503000  0.36059000  1.0
  O  O85  1  0.23658000  0.52497000  0.63941000  1.0
  O  O86  1  0.81070000  0.20008000  0.88711000  1.0
  O  O87  1  0.18931000  0.79991000  0.11289000  1.0
  O  O88  1  0.06131000  0.51037000  0.28149000  1.0
  O  O89  1  0.93869000  0.48963000  0.71851000  1.0
  O  O90  1  0.59169000  0.91271000  0.23930000  1.0
  O  O91  1  0.40831000  0.08729000  0.76070000  1.0
  O  O92  1  0.09548000  0.12529000  0.65724000  1.0
  O  O93  1  0.90450000  0.87473000  0.34276000  1.0
  O  O94  1  0.85731000  0.07013000  0.69169000  1.0
  O  O95  1  0.14269000  0.92987000  0.30831000  1.0
  O  O96  1  0.06061000  0.22689000  0.83236000  1.0
  O  O97  1  0.93939000  0.77311000  0.16764000  1.0
  O  O98  1  0.52001000  0.57662000  0.11593000  1.0
  O  O99  1  0.47999000  0.42337000  0.88407000  1.0
  O  O100  1  0.23286000  0.63157000  0.28456000  1.0
  O  O101  1  0.76713000  0.36843000  0.71544000  1.0
  O  O102  1  0.37063000  0.02850000  0.18074000  1.0
  O  O103  1  0.62936000  0.97150000  0.81926000  1.0
  O  O104  1  0.57382000  0.82390000  0.44200000  1.0
  O  O105  1  0.42618000  0.17610000  0.55800000  1.0
  O  O106  1  0.48023000  0.72705000  0.35207000  1.0
  O  O107  1  0.51977000  0.27295000  0.64794000  1.0
  O  O108  1  0.85925000  0.63122000  0.45960000  1.0
  O  O109  1  0.14076000  0.36879000  0.54040000  1.0
  O  O110  1  0.49832000  0.85497000  0.05061000  1.0
  O  O111  1  0.50170000  0.14501000  0.94939000  1.0
