# generated using pymatgen
data_Ag2HC5O4
_symmetry_space_group_name_H-M   'P 1'
_cell_length_a   6.27682000
_cell_length_b   8.40573000
_cell_length_c   10.89420000
_cell_angle_alpha   89.67170000
_cell_angle_beta   90.00040000
_cell_angle_gamma   89.99850000
_symmetry_Int_Tables_number   1
_chemical_formula_structural   Ag2HC5O4
_chemical_formula_sum   'Ag8 H4 C20 O16'
_cell_volume   574.78221933
_cell_formula_units_Z   4
loop_
 _symmetry_equiv_pos_site_id
 _symmetry_equiv_pos_as_xyz
  1  'x, y, z'
loop_
 _atom_site_type_symbol
 _atom_site_label
 _atom_site_symmetry_multiplicity
 _atom_site_fract_x
 _atom_site_fract_y
 _atom_site_fract_z
 _atom_site_occupancy
  Ag  Ag0  1  0.54746000  0.89962000  0.29769000  1.0
  Ag  Ag1  1  0.04746000  0.10037000  0.20230000  1.0
  Ag  Ag2  1  0.45256000  0.10035000  0.70232000  1.0
  Ag  Ag3  1  0.95254000  0.89966000  0.79769000  1.0
  Ag  Ag4  1  0.83121000  0.14925000  0.55769000  1.0
  Ag  Ag5  1  0.33120000  0.85074000  0.94232000  1.0
  Ag  Ag6  1  0.16881000  0.85073000  0.44232000  1.0
  Ag  Ag7  1  0.66881000  0.14928000  0.05767000  1.0
  H  H8  1  0.80205000  0.61141000  0.37856000  1.0
  H  H9  1  0.30204000  0.38857000  0.12145000  1.0
  H  H10  1  0.19796000  0.38857000  0.62144000  1.0
  H  H11  1  0.69796000  0.61144000  0.87855000  1.0
  C  C12  1  0.58404000  0.64922000  0.52947000  1.0
  C  C13  1  0.08403000  0.35077000  0.97053000  1.0
  C  C14  1  0.41598000  0.35078000  0.47054000  1.0
  C  C15  1  0.91596000  0.64920000  0.02945000  1.0
  C  C16  1  0.66702000  0.56405000  0.43018000  1.0
  C  C17  1  0.16699000  0.43594000  0.06982000  1.0
  C  C18  1  0.33299000  0.43591000  0.56983000  1.0
  C  C19  1  0.83297000  0.56409000  0.93017000  1.0
  C  C20  1  0.41585000  0.58448000  0.59983000  1.0
  C  C21  1  0.91583000  0.41554000  0.90017000  1.0
  C  C22  1  0.58417000  0.41548000  0.40017000  1.0
  C  C23  1  0.08414000  0.58452000  0.09984000  1.0
  C  C24  1  0.67178000  0.80820000  0.56235000  1.0
  C  C25  1  0.17178000  0.19179000  0.93764000  1.0
  C  C26  1  0.32823000  0.19177000  0.43766000  1.0
  C  C27  1  0.82822000  0.80822000  0.06235000  1.0
  C  C28  1  0.31242000  0.68019000  0.69990000  1.0
  C  C29  1  0.81243000  0.31983000  0.80008000  1.0
  C  C30  1  0.68759000  0.31979000  0.30010000  1.0
  C  C31  1  0.18757000  0.68020000  0.19990000  1.0
  O  O32  1  0.75733000  0.89572000  0.47753000  1.0
  O  O33  1  0.25733000  0.10428000  0.02247000  1.0
  O  O34  1  0.24267000  0.10425000  0.52248000  1.0
  O  O35  1  0.74265000  0.89576000  0.97751000  1.0
  O  O36  1  0.65383000  0.85216000  0.67294000  1.0
  O  O37  1  0.15383000  0.14786000  0.82707000  1.0
  O  O38  1  0.34618000  0.14781000  0.32705000  1.0
  O  O39  1  0.84616000  0.85219000  0.17295000  1.0
  O  O40  1  0.35581000  0.64863000  0.81060000  1.0
  O  O41  1  0.85580000  0.35138000  0.68941000  1.0
  O  O42  1  0.64419000  0.35137000  0.18941000  1.0
  O  O43  1  0.14420000  0.64863000  0.31059000  1.0
  O  O44  1  0.18099000  0.78658000  0.66195000  1.0
  O  O45  1  0.68097000  0.21343000  0.83806000  1.0
  O  O46  1  0.81902000  0.21341000  0.33804000  1.0
  O  O47  1  0.31898000  0.78658000  0.16195000  1.0
