# generated using pymatgen
data_CdH29C23N3O5
_symmetry_space_group_name_H-M   'P 1'
_cell_length_a   7.86790000
_cell_length_b   9.50933000
_cell_length_c   15.39640000
_cell_angle_alpha   88.04760000
_cell_angle_beta   89.74750000
_cell_angle_gamma   74.47490000
_symmetry_Int_Tables_number   1
_chemical_formula_structural   CdH29C23N3O5
_chemical_formula_sum   'Cd2 H58 C46 N6 O10'
_cell_volume   1109.24697718
_cell_formula_units_Z   2
loop_
 _symmetry_equiv_pos_site_id
 _symmetry_equiv_pos_as_xyz
  1  'x, y, z'
loop_
 _atom_site_type_symbol
 _atom_site_label
 _atom_site_symmetry_multiplicity
 _atom_site_fract_x
 _atom_site_fract_y
 _atom_site_fract_z
 _atom_site_occupancy
  Cd  Cd0  1  0.64748000  0.06633000  0.55726000  1.0
  Cd  Cd1  1  0.16076000  0.09470000  0.13654000  1.0
  H  H2  1  0.78251000  0.38838000  0.75858000  1.0
  H  H3  1  0.14090000  0.55586000  0.71804000  1.0
  H  H4  1  0.08254000  0.56046000  0.60759000  1.0
  H  H5  1  0.07422000  0.31516000  0.62757000  1.0
  H  H6  1  0.08840000  0.32351000  0.74135000  1.0
  H  H7  1  0.70601000  0.74129000  0.80276000  1.0
  H  H8  1  0.93487000  0.72647000  0.80886000  1.0
  H  H9  1  0.85934000  0.56887000  0.82710000  1.0
  H  H10  1  0.84087000  0.53083000  0.52650000  1.0
  H  H11  1  0.64778000  0.67817000  0.53514000  1.0
  H  H12  1  0.63064000  0.49555000  0.53597000  1.0
  H  H13  1  0.54011000  0.59579000  0.76601000  1.0
  H  H14  1  0.45516000  0.54478000  0.66958000  1.0
  H  H15  1  0.48208000  0.72498000  0.67724000  1.0
  H  H16  1  0.36994000  0.30743000  0.24940000  1.0
  H  H17  1  0.16503000  0.52954000  0.30661000  1.0
  H  H18  1  0.15208000  0.56780000  0.46834000  1.0
  H  H19  1  0.35477000  0.37552000  0.56510000  1.0
  H  H20  1  0.56401000  0.13657000  0.20940000  1.0
  H  H21  1  0.77501000  0.90682000  0.16935000  1.0
  H  H22  1  0.92753000  0.72778000  0.28720000  1.0
  H  H23  1  0.86573000  0.79795000  0.44351000  1.0
  H  H24  1  0.35356000  0.07646000  0.85168000  1.0
  H  H25  1  0.28316000  0.91439000  0.86885000  1.0
  H  H26  1  0.12567000  0.08688000  0.86114000  1.0
  H  H27  1  0.43322000  0.12058000  0.72403000  1.0
  H  H28  1  0.12212000  0.94161000  0.63781000  1.0
  H  H29  1  0.98903000  0.98257000  0.73138000  1.0
  H  H30  1  0.16348000  0.81777000  0.73005000  1.0
  H  H31  1  0.04628000  0.11378000  0.48205000  1.0
  H  H32  1  0.25208000  0.87643000  0.52319000  1.0
  H  H33  1  0.42181000  0.71879000  0.40684000  1.0
  H  H34  1  0.38047000  0.81554000  0.25094000  1.0
  H  H35  1  0.86388000  0.29736000  0.43992000  1.0
  H  H36  1  0.66359000  0.52686000  0.38024000  1.0
  H  H37  1  0.66192000  0.58539000  0.21818000  1.0
  H  H38  1  0.87144000  0.40472000  0.12515000  1.0
  H  H39  1  0.34666000  0.72062000  0.94103000  1.0
  H  H40  1  0.65346000  0.59062000  0.05637000  1.0
  H  H41  1  0.63499000  0.57659000  0.94313000  1.0
  H  H42  1  0.56877000  0.37223000  0.08597000  1.0
  H  H43  1  0.62088000  0.33364000  0.97682000  1.0
  H  H44  1  0.16954000  0.44426000  0.88735000  1.0
  H  H45  1  0.38332000  0.32525000  0.87709000  1.0
  H  H46  1  0.35428000  0.51559000  0.86631000  1.0
  H  H47  1  0.01308000  0.76743000  0.02942000  1.0
  H  H48  1  0.97794000  0.59136000  0.01491000  1.0
  H  H49  1  0.06897000  0.67904000  0.93002000  1.0
  H  H50  1  0.18153000  0.69036000  0.16138000  1.0
  H  H51  1  0.36699000  0.53535000  0.16808000  1.0
  H  H52  1  0.15111000  0.51251000  0.15579000  1.0
  H  H53  1  0.84047000  0.15867000  0.83585000  1.0
  H  H54  1  0.60988000  0.18256000  0.84103000  1.0
  H  H55  1  0.74921000  0.01102000  0.81140000  1.0
  H  H56  1  0.67937000  0.93362000  0.04432000  1.0
  H  H57  1  0.65362000  0.87585000  0.93710000  1.0
  H  H58  1  0.50510000  0.03731000  0.97754000  1.0
  H  H59  1  0.94438000  0.16828000  0.96463000  1.0
  C  C60  1  0.85878000  0.64207000  0.69064000  1.0
  C  C61  1  0.72563000  0.55607000  0.65757000  1.0
  C  C62  1  0.82032000  0.39652000  0.69013000  1.0
  C  C63  1  0.04121000  0.53727000  0.67335000  1.0
  C  C64  1  0.01962000  0.38117000  0.68323000  1.0
  C  C65  1  0.83695000  0.67106000  0.78797000  1.0
  C  C66  1  0.71158000  0.56563000  0.55789000  1.0
  C  C67  1  0.53981000  0.60910000  0.69486000  1.0
  C  C68  1  0.82794000  0.78762000  0.63861000  1.0
  C  C69  1  0.75365000  0.28229000  0.64387000  1.0
  C  C70  1  0.47339000  0.22474000  0.37756000  1.0
  C  C71  1  0.36533000  0.32576000  0.31902000  1.0
  C  C72  1  0.24940000  0.45017000  0.35144000  1.0
  C  C73  1  0.24176000  0.47187000  0.44072000  1.0
  C  C74  1  0.35307000  0.36631000  0.49467000  1.0
  C  C75  1  0.60003000  0.08851000  0.34861000  1.0
  C  C76  1  0.63056000  0.05957000  0.26045000  1.0
  C  C77  1  0.74886000  0.92897000  0.23757000  1.0
  C  C78  1  0.83426000  0.83084000  0.30275000  1.0
  C  C79  1  0.80001000  0.86751000  0.38910000  1.0
  C  C80  1  0.25192000  0.02231000  0.83562000  1.0
  C  C81  1  0.34786000  0.06547000  0.68971000  1.0
  C  C82  1  0.12336000  0.93355000  0.70861000  1.0
  C  C83  1  0.09885000  0.08865000  0.34353000  1.0
  C  C84  1  0.11876000  0.04512000  0.43157000  1.0
  C  C85  1  0.23486000  0.91077000  0.45502000  1.0
  C  C86  1  0.32952000  0.82399000  0.39071000  1.0
  C  C87  1  0.30637000  0.87525000  0.30455000  1.0
  C  C88  1  0.97479000  0.22923000  0.31341000  1.0
  C  C89  1  0.86359000  0.32381000  0.37039000  1.0
  C  C90  1  0.75042000  0.45267000  0.33651000  1.0
  C  C91  1  0.74893000  0.48586000  0.24742000  1.0
  C  C92  1  0.86386000  0.38643000  0.19525000  1.0
  C  C93  1  0.34103000  0.43378000  0.00038000  1.0
  C  C94  1  0.25155000  0.58973000  0.03694000  1.0
  C  C95  1  0.38671000  0.67686000  0.00702000  1.0
  C  C96  1  0.56954000  0.56651000  0.00533000  1.0
  C  C97  1  0.53820000  0.41448000  0.01910000  1.0
  C  C98  1  0.30905000  0.43062000  0.90218000  1.0
  C  C99  1  0.06691000  0.66065000  0.00063000  1.0
  C  C100  1  0.23848000  0.58086000  0.13645000  1.0
  C  C101  1  0.26786000  0.31671000  0.04664000  1.0
  C  C102  1  0.73856000  0.10390000  0.85359000  1.0
  C  C103  1  0.64280000  0.97083000  0.97751000  1.0
  C  C104  1  0.86676000  0.10106000  0.99728000  1.0
  C  C105  1  0.37320000  0.80753000  0.06391000  1.0
  N  N106  1  0.46573000  0.24724000  0.46355000  1.0
  N  N107  1  0.68591000  0.99311000  0.41142000  1.0
  N  N108  1  0.24403000  0.01004000  0.74232000  1.0
  N  N109  1  0.19348000  0.00390000  0.28175000  1.0
  N  N110  1  0.97303000  0.26265000  0.22758000  1.0
  N  N111  1  0.75884000  0.05556000  0.94432000  1.0
  O  O112  1  0.35060000  0.05877000  0.60869000  1.0
  O  O113  1  0.70008000  0.89305000  0.66471000  1.0
  O  O114  1  0.84359000  0.21289000  0.58137000  1.0
  O  O115  1  0.60756000  0.26121000  0.66832000  1.0
  O  O116  1  0.91914000  0.79892000  0.57257000  1.0
  O  O117  1  0.88140000  0.07288000  0.07734000  1.0
  O  O118  1  0.47499000  0.79918000  0.12760000  1.0
  O  O119  1  0.24578000  0.92030000  0.04205000  1.0
  O  O120  1  0.12035000  0.30087000  0.02216000  1.0
  O  O121  1  0.35672000  0.23935000  0.10970000  1.0
