# generated using pymatgen
data_ZnH9C10N5O4
_symmetry_space_group_name_H-M   'P 1'
_cell_length_a   7.57743000
_cell_length_b   12.07150000
_cell_length_c   15.57410000
_cell_angle_alpha   111.23300000
_cell_angle_beta   90.00000000
_cell_angle_gamma   90.00000000
_symmetry_Int_Tables_number   1
_chemical_formula_structural   ZnH9C10N5O4
_chemical_formula_sum   'Zn4 H36 C40 N20 O16'
_cell_volume   1327.87073029
_cell_formula_units_Z   4
loop_
 _symmetry_equiv_pos_site_id
 _symmetry_equiv_pos_as_xyz
  1  'x, y, z'
loop_
 _atom_site_type_symbol
 _atom_site_label
 _atom_site_symmetry_multiplicity
 _atom_site_fract_x
 _atom_site_fract_y
 _atom_site_fract_z
 _atom_site_occupancy
  Zn  Zn0  1  0.53677000  0.14393000  0.84632000  1.0
  Zn  Zn1  1  0.03678000  0.35608000  0.65368000  1.0
  Zn  Zn2  1  0.46322000  0.85608000  0.15368000  1.0
  Zn  Zn3  1  0.96322000  0.64391000  0.34632000  1.0
  H  H4  1  0.77762000  0.97350000  0.08097000  1.0
  H  H5  1  0.27762000  0.52650000  0.41902000  1.0
  H  H6  1  0.22238000  0.02650000  0.91902000  1.0
  H  H7  1  0.72239000  0.47351000  0.58100000  1.0
  H  H8  1  0.55769000  0.16323000  0.13970000  1.0
  H  H9  1  0.05767000  0.33677000  0.36029000  1.0
  H  H10  1  0.44231000  0.83677000  0.86029000  1.0
  H  H11  1  0.94233000  0.66324000  0.63971000  1.0
  H  H12  1  0.50381000  0.22606000  0.05820000  1.0
  H  H13  1  0.00380000  0.27394000  0.44180000  1.0
  H  H14  1  0.49619000  0.77394000  0.94179000  1.0
  H  H15  1  0.99620000  0.72607000  0.55821000  1.0
  H  H16  1  0.95464000  0.86186000  0.35094000  1.0
  H  H17  1  0.45463000  0.63813000  0.14905000  1.0
  H  H18  1  0.04536000  0.13812000  0.64905000  1.0
  H  H19  1  0.54536000  0.36188000  0.85095000  1.0
  H  H20  1  0.80375000  0.77827000  0.27665000  1.0
  H  H21  1  0.30375000  0.72173000  0.22335000  1.0
  H  H22  1  0.19625000  0.22172000  0.72335000  1.0
  H  H23  1  0.69625000  0.27829000  0.77665000  1.0
  H  H24  1  0.80789000  0.93576000  0.81036000  1.0
  H  H25  1  0.30791000  0.56423000  0.68963000  1.0
  H  H26  1  0.19212000  0.06424000  0.18963000  1.0
  H  H27  1  0.69209000  0.43576000  0.31039000  1.0
  H  H28  1  0.36807000  0.89903000  0.60247000  1.0
  H  H29  1  0.86808000  0.60097000  0.89753000  1.0
  H  H30  1  0.63193000  0.10097000  0.39753000  1.0
  H  H31  1  0.13192000  0.39903000  0.10247000  1.0
  H  H32  1  0.53215000  0.71094000  0.32249000  1.0
  H  H33  1  0.03214000  0.78905000  0.17751000  1.0
  H  H34  1  0.46786000  0.28905000  0.67751000  1.0
  H  H35  1  0.96785000  0.21096000  0.82249000  1.0
  H  H36  1  0.88804000  0.95455000  0.51561000  1.0
  H  H37  1  0.38803000  0.54544000  0.98439000  1.0
  H  H38  1  0.11197000  0.04544000  0.48439000  1.0
  H  H39  1  0.61197000  0.45456000  0.01561000  1.0
  C  C40  1  0.77716000  0.97062000  0.88338000  1.0
  C  C41  1  0.27717000  0.52938000  0.61661000  1.0
  C  C42  1  0.22284000  0.02939000  0.11661000  1.0
  C  C43  1  0.72283000  0.47062000  0.38341000  1.0
  C  C44  1  0.66905000  0.08518000  0.01342000  1.0
  C  C45  1  0.16904000  0.41481000  0.48657000  1.0
  C  C46  1  0.33096000  0.91481000  0.98657000  1.0
  C  C47  1  0.83096000  0.58519000  0.51344000  1.0
  C  C48  1  0.63297000  0.93434000  0.56880000  1.0
  C  C49  1  0.13296000  0.56566000  0.93120000  1.0
  C  C50  1  0.36703000  0.06566000  0.43120000  1.0
  C  C51  1  0.86702000  0.43434000  0.06880000  1.0
  C  C52  1  0.46776000  0.88002000  0.54897000  1.0
  C  C53  1  0.96776000  0.61999000  0.95103000  1.0
  C  C54  1  0.53224000  0.11999000  0.45103000  1.0
  C  C55  1  0.03223000  0.38002000  0.04897000  1.0
  C  C56  1  0.42963000  0.80174000  0.45997000  1.0
  C  C57  1  0.92962000  0.69826000  0.04002000  1.0
  C  C58  1  0.57038000  0.19826000  0.54003000  1.0
  C  C59  1  0.07037000  0.30174000  0.95997000  1.0
  C  C60  1  0.55785000  0.77625000  0.39096000  1.0
  C  C61  1  0.05784000  0.72375000  0.10903000  1.0
  C  C62  1  0.44216000  0.22374000  0.60904000  1.0
  C  C63  1  0.94215000  0.27626000  0.89096000  1.0
  C  C64  1  0.72192000  0.83271000  0.41075000  1.0
  C  C65  1  0.22192000  0.66728000  0.08925000  1.0
  C  C66  1  0.27809000  0.16728000  0.58925000  1.0
  C  C67  1  0.77808000  0.33272000  0.91075000  1.0
  C  C68  1  0.75957000  0.91189000  0.49929000  1.0
  C  C69  1  0.25956000  0.58810000  0.00071000  1.0
  C  C70  1  0.24043000  0.08810000  0.50071000  1.0
  C  C71  1  0.74043000  0.41190000  0.99929000  1.0
  C  C72  1  0.67201000  0.01879000  0.66446000  1.0
  C  C73  1  0.17200000  0.48122000  0.83554000  1.0
  C  C74  1  0.32800000  0.98122000  0.33554000  1.0
  C  C75  1  0.82798000  0.51878000  0.16446000  1.0
  C  C76  1  0.24952000  0.74982000  0.43989000  1.0
  C  C77  1  0.74952000  0.75018000  0.06011000  1.0
  C  C78  1  0.75048000  0.25017000  0.56011000  1.0
  C  C79  1  0.25048000  0.24983000  0.93989000  1.0
  N  N80  1  0.67454000  0.07038000  0.92298000  1.0
  N  N81  1  0.17454000  0.42962000  0.57701000  1.0
  N  N82  1  0.32547000  0.92962000  0.07702000  1.0
  N  N83  1  0.82546000  0.57038000  0.42300000  1.0
  N  N84  1  0.83266000  0.92203000  0.94161000  1.0
  N  N85  1  0.33267000  0.57797000  0.55837000  1.0
  N  N86  1  0.16734000  0.07798000  0.05838000  1.0
  N  N87  1  0.66733000  0.42203000  0.44164000  1.0
  N  N88  1  0.76354000  0.99592000  0.02404000  1.0
  N  N89  1  0.26354000  0.50408000  0.47595000  1.0
  N  N90  1  0.23647000  0.00408000  0.97595000  1.0
  N  N91  1  0.73647000  0.49593000  0.52406000  1.0
  N  N92  1  0.58887000  0.17508000  0.08038000  1.0
  N  N93  1  0.08886000  0.32492000  0.41962000  1.0
  N  N94  1  0.41113000  0.82492000  0.91961000  1.0
  N  N95  1  0.91115000  0.67508000  0.58039000  1.0
  N  N96  1  0.85664000  0.79920000  0.34125000  1.0
  N  N97  1  0.35663000  0.70080000  0.15875000  1.0
  N  N98  1  0.14336000  0.20079000  0.65875000  1.0
  N  N99  1  0.64336000  0.29921000  0.84125000  1.0
  O  O100  1  0.80855000  0.08230000  0.68213000  1.0
  O  O101  1  0.30855000  0.41769000  0.81787000  1.0
  O  O102  1  0.19146000  0.91770000  0.31787000  1.0
  O  O103  1  0.69145000  0.58231000  0.18213000  1.0
  O  O104  1  0.55261000  0.01930000  0.72435000  1.0
  O  O105  1  0.05261000  0.48070000  0.77565000  1.0
  O  O106  1  0.44738000  0.98071000  0.27565000  1.0
  O  O107  1  0.94735000  0.51928000  0.22436000  1.0
  O  O108  1  0.12492000  0.79407000  0.49511000  1.0
  O  O109  1  0.62492000  0.70593000  0.00489000  1.0
  O  O110  1  0.87508000  0.20592000  0.50489000  1.0
  O  O111  1  0.37508000  0.29408000  0.99511000  1.0
  O  O112  1  0.22630000  0.65914000  0.36310000  1.0
  O  O113  1  0.72630000  0.84086000  0.13690000  1.0
  O  O114  1  0.77370000  0.34085000  0.63690000  1.0
  O  O115  1  0.27369000  0.15915000  0.86310000  1.0
