# generated using pymatgen
data_AgPH8C8O5
_symmetry_space_group_name_H-M   'P 1'
_cell_length_a   4.67157000
_cell_length_b   11.01220000
_cell_length_c   17.69160000
_cell_angle_alpha   89.99950000
_cell_angle_beta   89.43790000
_cell_angle_gamma   89.99990000
_symmetry_Int_Tables_number   1
_chemical_formula_structural   AgPH8C8O5
_chemical_formula_sum   'Ag4 P4 H32 C32 O20'
_cell_volume   910.08752816
_cell_formula_units_Z   4
loop_
 _symmetry_equiv_pos_site_id
 _symmetry_equiv_pos_as_xyz
  1  'x, y, z'
loop_
 _atom_site_type_symbol
 _atom_site_label
 _atom_site_symmetry_multiplicity
 _atom_site_fract_x
 _atom_site_fract_y
 _atom_site_fract_z
 _atom_site_occupancy
  Ag  Ag0  1  0.74076000  0.96675000  0.95553000  1.0
  Ag  Ag1  1  0.75924000  0.46675000  0.54447000  1.0
  Ag  Ag2  1  0.25925000  0.03325000  0.04447000  1.0
  Ag  Ag3  1  0.24076000  0.53326000  0.45553000  1.0
  P  P4  1  0.93535000  0.76384000  0.53669000  1.0
  P  P5  1  0.56463000  0.26384000  0.96331000  1.0
  P  P6  1  0.06465000  0.23616000  0.46331000  1.0
  P  P7  1  0.43535000  0.73616000  0.03669000  1.0
  H  H8  1  0.50213000  0.78489000  0.48782000  1.0
  H  H9  1  0.99787000  0.28488000  0.01217000  1.0
  H  H10  1  0.49786000  0.21512000  0.51218000  1.0
  H  H11  1  0.00215000  0.71512000  0.98783000  1.0
  H  H12  1  0.94202000  0.14548000  0.85436000  1.0
  H  H13  1  0.55797000  0.64549000  0.64564000  1.0
  H  H14  1  0.05799000  0.85451000  0.14564000  1.0
  H  H15  1  0.44202000  0.35451000  0.35436000  1.0
  H  H16  1  0.25262000  0.84385000  0.62652000  1.0
  H  H17  1  0.24739000  0.34385000  0.87348000  1.0
  H  H18  1  0.74741000  0.15615000  0.37348000  1.0
  H  H19  1  0.75261000  0.65615000  0.12652000  1.0
  H  H20  1  0.13784000  0.95833000  0.56304000  1.0
  H  H21  1  0.36216000  0.45832000  0.93696000  1.0
  H  H22  1  0.86216000  0.04168000  0.43696000  1.0
  H  H23  1  0.63785000  0.54168000  0.06304000  1.0
  H  H24  1  0.72643000  0.08680000  0.59762000  1.0
  H  H25  1  0.77356000  0.58680000  0.90239000  1.0
  H  H26  1  0.27359000  0.91320000  0.40239000  1.0
  H  H27  1  0.22641000  0.41321000  0.09762000  1.0
  H  H28  1  0.35844000  0.14653000  0.69219000  1.0
  H  H29  1  0.14155000  0.64654000  0.80781000  1.0
  H  H30  1  0.64158000  0.85347000  0.30782000  1.0
  H  H31  1  0.85843000  0.35347000  0.19219000  1.0
  H  H32  1  0.55634000  0.82945000  0.82459000  1.0
  H  H33  1  0.94368000  0.32945000  0.67541000  1.0
  H  H34  1  0.44369000  0.17054000  0.17541000  1.0
  H  H35  1  0.05632000  0.67055000  0.32459000  1.0
  H  H36  1  0.92108000  0.76869000  0.72846000  1.0
  H  H37  1  0.57895000  0.26870000  0.77154000  1.0
  H  H38  1  0.07894000  0.23130000  0.27154000  1.0
  H  H39  1  0.42107000  0.73130000  0.22846000  1.0
  C  C40  1  0.06410000  0.88266000  0.59876000  1.0
  C  C41  1  0.43588000  0.38267000  0.90123000  1.0
  C  C42  1  0.93592000  0.11734000  0.40124000  1.0
  C  C43  1  0.56410000  0.61732000  0.09877000  1.0
  C  C44  1  0.84836000  0.92353000  0.65673000  1.0
  C  C45  1  0.65163000  0.42352000  0.84327000  1.0
  C  C46  1  0.15165000  0.07647000  0.34328000  1.0
  C  C47  1  0.34835000  0.57647000  0.15672000  1.0
  C  C48  1  0.69001000  0.03048000  0.64736000  1.0
  C  C49  1  0.80996000  0.53047000  0.85264000  1.0
  C  C50  1  0.31000000  0.96952000  0.35264000  1.0
  C  C51  1  0.19001000  0.46953000  0.14736000  1.0
  C  C52  1  0.48574000  0.06501000  0.70098000  1.0
  C  C53  1  0.01425000  0.56501000  0.79901000  1.0
  C  C54  1  0.51427000  0.93498000  0.29902000  1.0
  C  C55  1  0.98573000  0.43499000  0.20098000  1.0
  C  C56  1  0.43887000  0.99322000  0.76551000  1.0
  C  C57  1  0.06110000  0.49322000  0.73449000  1.0
  C  C58  1  0.56112000  0.00677000  0.23450000  1.0
  C  C59  1  0.93886000  0.50678000  0.26550000  1.0
  C  C60  1  0.59653000  0.88592000  0.77496000  1.0
  C  C61  1  0.90345000  0.38592000  0.72504000  1.0
  C  C62  1  0.40348000  0.11407000  0.22504000  1.0
  C  C63  1  0.09653000  0.61408000  0.27496000  1.0
  C  C64  1  0.79920000  0.85203000  0.72117000  1.0
  C  C65  1  0.70080000  0.35203000  0.77883000  1.0
  C  C66  1  0.20082000  0.14797000  0.27884000  1.0
  C  C67  1  0.29921000  0.64797000  0.22116000  1.0
  C  C68  1  0.22630000  0.02585000  0.82441000  1.0
  C  C69  1  0.27369000  0.52586000  0.67559000  1.0
  C  C70  1  0.77372000  0.97414000  0.17559000  1.0
  C  C71  1  0.72627000  0.47415000  0.32441000  1.0
  O  O72  1  0.80420000  0.66004000  0.58339000  1.0
  O  O73  1  0.69581000  0.16003000  0.91660000  1.0
  O  O74  1  0.19582000  0.33996000  0.41661000  1.0
  O  O75  1  0.30419000  0.83996000  0.08339000  1.0
  O  O76  1  0.19431000  0.72641000  0.48761000  1.0
  O  O77  1  0.30567000  0.22640000  0.01239000  1.0
  O  O78  1  0.80568000  0.27360000  0.51239000  1.0
  O  O79  1  0.69434000  0.77360000  0.98761000  1.0
  O  O80  1  0.69952000  0.82461000  0.48536000  1.0
  O  O81  1  0.80047000  0.32462000  0.01464000  1.0
  O  O82  1  0.30048000  0.17539000  0.51464000  1.0
  O  O83  1  0.19952000  0.67539000  0.98536000  1.0
  O  O84  1  0.18177000  0.95930000  0.88045000  1.0
  O  O85  1  0.31819000  0.45930000  0.61954000  1.0
  O  O86  1  0.81824000  0.04070000  0.11955000  1.0
  O  O87  1  0.68177000  0.54072000  0.38046000  1.0
  O  O88  1  0.09060000  0.12995000  0.81287000  1.0
  O  O89  1  0.40939000  0.62997000  0.68713000  1.0
  O  O90  1  0.90942000  0.87003000  0.18713000  1.0
  O  O91  1  0.59058000  0.37004000  0.31287000  1.0
