# generated using pymatgen
data_AlH8C13O5F
_symmetry_space_group_name_H-M   'P 1'
_cell_length_a   6.64125000
_cell_length_b   11.13260000
_cell_length_c   17.66105642
_cell_angle_alpha   93.99446254
_cell_angle_beta   99.26580948
_cell_angle_gamma   106.97530000
_symmetry_Int_Tables_number   1
_chemical_formula_structural   AlH8C13O5F
_chemical_formula_sum   'Al2 H16 C26 O10 F2'
_cell_volume   1223.12216701
_cell_formula_units_Z   2
loop_
 _symmetry_equiv_pos_site_id
 _symmetry_equiv_pos_as_xyz
  1  'x, y, z'
loop_
 _atom_site_type_symbol
 _atom_site_label
 _atom_site_symmetry_multiplicity
 _atom_site_fract_x
 _atom_site_fract_y
 _atom_site_fract_z
 _atom_site_occupancy
  Al  Al0  1  0.00040000  0.49999000  0.50005000  1.0
  Al  Al1  1  0.50034000  0.49995000  0.49995000  1.0
  H  H2  1  0.35112000  0.64567000  0.56059000  1.0
  H  H3  1  0.64985000  0.35430000  0.43944000  1.0
  H  H4  1  0.76442000  0.12720000  0.52743000  1.0
  H  H5  1  0.23638000  0.87276000  0.47264000  1.0
  H  H6  1  0.18547000  0.56513000  0.73116000  1.0
  H  H7  1  0.26301000  0.57130000  0.87518000  1.0
  H  H8  1  0.51203000  0.41058000  0.73012000  1.0
  H  H9  1  0.48774000  0.58921000  0.26961000  1.0
  H  H10  1  0.81458000  0.43531000  0.26913000  1.0
  H  H11  1  0.73609000  0.42933000  0.12516000  1.0
  H  H12  1  0.38041000  0.35797000  0.84579000  1.0
  H  H13  1  0.55957000  0.30943000  0.91447000  1.0
  H  H14  1  0.53167000  0.46106000  0.93071000  1.0
  H  H15  1  0.46726000  0.53879000  0.06911000  1.0
  H  H16  1  0.43936000  0.69045000  0.08529000  1.0
  H  H17  1  0.61865000  0.64199000  0.15397000  1.0
  C  C18  1  0.79890000  0.49410000  0.63781000  1.0
  C  C19  1  0.86854000  0.72646000  0.50282000  1.0
  C  C20  1  0.20165000  0.50581000  0.36217000  1.0
  C  C21  1  0.13220000  0.27349000  0.49720000  1.0
  C  C22  1  0.93173000  0.86674000  0.50206000  1.0
  C  C23  1  0.06900000  0.13321000  0.49797000  1.0
  C  C24  1  0.80281000  0.94213000  0.51751000  1.0
  C  C25  1  0.19800000  0.05785000  0.48256000  1.0
  C  C26  1  0.86866000  0.07173000  0.51554000  1.0
  C  C27  1  0.13216000  0.92824000  0.48455000  1.0
  C  C28  1  0.84380000  0.48911000  0.72276000  1.0
  C  C29  1  0.05659000  0.53257000  0.76317000  1.0
  C  C30  1  0.09911000  0.53490000  0.84278000  1.0
  C  C31  1  0.93094000  0.49075000  0.88351000  1.0
  C  C32  1  0.71522000  0.44197000  0.84265000  1.0
  C  C33  1  0.67613000  0.44432000  0.76283000  1.0
  C  C34  1  0.97856000  0.49658000  0.96480000  1.0
  C  C35  1  0.02017000  0.50372000  0.03525000  1.0
  C  C36  1  0.06810000  0.50949000  0.11654000  1.0
  C  C37  1  0.28399000  0.55804000  0.15724000  1.0
  C  C38  1  0.32351000  0.55564000  0.23704000  1.0
  C  C39  1  0.15616000  0.51093000  0.27726000  1.0
  C  C40  1  0.94321000  0.46775000  0.23701000  1.0
  C  C41  1  0.90018000  0.46555000  0.15742000  1.0
  C  C42  1  0.53638000  0.38979000  0.88516000  1.0
  C  C43  1  0.46262000  0.61012000  0.11463000  1.0
  O  O44  1  0.96093000  0.52048000  0.60454000  1.0
  O  O45  1  0.68385000  0.67132000  0.51623000  1.0
  O  O46  1  0.39565000  0.52478000  0.39508000  1.0
  O  O47  1  0.99412000  0.32728000  0.51002000  1.0
  O  O48  1  0.03985000  0.47945000  0.39556000  1.0
  O  O49  1  0.31680000  0.32862000  0.48368000  1.0
  O  O50  1  0.60495000  0.47504000  0.60478000  1.0
  O  O51  1  0.00670000  0.67269000  0.49009000  1.0
  O  O52  1  0.29501000  0.55865000  0.53652000  1.0
  O  O53  1  0.70584000  0.44135000  0.46346000  1.0
  F  F54  1  0.60683000  0.89056000  0.53571000  1.0
  F  F55  1  0.39400000  0.10942000  0.46439000  1.0
