# generated using pymatgen
data_GdH15C12S2O15
_symmetry_space_group_name_H-M   'P 1'
_cell_length_a   6.94868000
_cell_length_b   10.75980000
_cell_length_c   12.08400000
_cell_angle_alpha   84.04400000
_cell_angle_beta   76.80800000
_cell_angle_gamma   89.65220000
_symmetry_Int_Tables_number   1
_chemical_formula_structural   GdH15C12S2O15
_chemical_formula_sum   'Gd2 H30 C24 S4 O30'
_cell_volume   874.74213198
_cell_formula_units_Z   2
loop_
 _symmetry_equiv_pos_site_id
 _symmetry_equiv_pos_as_xyz
  1  'x, y, z'
loop_
 _atom_site_type_symbol
 _atom_site_label
 _atom_site_symmetry_multiplicity
 _atom_site_fract_x
 _atom_site_fract_y
 _atom_site_fract_z
 _atom_site_occupancy
  Gd  Gd0  1  0.21105000  0.59889000  0.21355000  1.0
  Gd  Gd1  1  0.78895000  0.40111000  0.78645000  1.0
  H  H2  1  0.96182000  0.22387000  0.26614000  1.0
  H  H3  1  0.03818000  0.77613000  0.73386000  1.0
  H  H4  1  0.78062000  0.58764000  0.16620000  1.0
  H  H5  1  0.21938000  0.41236000  0.83380000  1.0
  H  H6  1  0.87204000  0.45029000  0.16797000  1.0
  H  H7  1  0.12796000  0.54971000  0.83203000  1.0
  H  H8  1  0.35315000  0.35775000  0.09663000  1.0
  H  H9  1  0.64685000  0.64225000  0.90337000  1.0
  H  H10  1  0.25803000  0.44624000  0.01271000  1.0
  H  H11  1  0.74197000  0.55376000  0.98729000  1.0
  H  H12  1  0.86761000  0.44769000  0.38969000  1.0
  H  H13  1  0.13240000  0.55231000  0.61031000  1.0
  H  H14  1  0.06763000  0.43979000  0.43100000  1.0
  H  H15  1  0.93237000  0.56021000  0.56900000  1.0
  H  H16  1  0.42772000  0.35376000  0.24707000  1.0
  H  H17  1  0.57228000  0.64624000  0.75294000  1.0
  H  H18  1  0.48323000  0.42740000  0.34029000  1.0
  H  H19  1  0.51677000  0.57260000  0.65971000  1.0
  H  H20  1  0.84064000  0.72664000  0.32462000  1.0
  H  H21  1  0.15936000  0.27336000  0.67539000  1.0
  H  H22  1  0.98390000  0.84336000  0.26745000  1.0
  H  H23  1  0.01610000  0.15664000  0.73255000  1.0
  H  H24  1  0.09656000  0.25363000  0.98409000  1.0
  H  H25  1  0.90344000  0.74636000  0.01591000  1.0
  H  H26  1  0.50824000  0.97922000  0.84724000  1.0
  H  H27  1  0.49176000  0.02078000  0.15276000  1.0
  H  H28  1  0.31598000  0.21350000  0.42296000  1.0
  H  H29  1  0.68402000  0.78650000  0.57704000  1.0
  H  H30  1  0.16830000  0.84066000  0.37103000  1.0
  H  H31  1  0.83170000  0.15934000  0.62897000  1.0
  C  C32  1  0.12801000  0.15687000  0.96953000  1.0
  C  C33  1  0.87198000  0.84313000  0.03047000  1.0
  C  C34  1  0.31421000  0.12672000  0.91084000  1.0
  C  C35  1  0.68579000  0.87328000  0.08916000  1.0
  C  C36  1  0.36001000  0.00133000  0.89218000  1.0
  C  C37  1  0.63999000  0.99867000  0.10782000  1.0
  C  C38  1  0.21747000  0.90916000  0.93089000  1.0
  C  C39  1  0.78253000  0.09084000  0.06911000  1.0
  C  C40  1  0.02165000  0.93608000  0.99014000  1.0
  C  C41  1  0.97834000  0.06392000  0.00986000  1.0
  C  C42  1  0.47098000  0.22462000  0.86591000  1.0
  C  C43  1  0.52902000  0.77538000  0.13410000  1.0
  C  C44  1  0.33876000  0.11342000  0.43480000  1.0
  C  C45  1  0.66124000  0.88658000  0.56520000  1.0
  C  C46  1  0.22698000  0.03295000  0.39142000  1.0
  C  C47  1  0.77302000  0.96705000  0.60858000  1.0
  C  C48  1  0.25639000  0.90298000  0.40529000  1.0
  C  C49  1  0.74361000  0.09703000  0.59471000  1.0
  C  C50  1  0.39890000  0.85477000  0.45873000  1.0
  C  C51  1  0.60110000  0.14523000  0.54127000  1.0
  C  C52  1  0.51704000  0.93356000  0.50624000  1.0
  C  C53  1  0.48296000  0.06644000  0.49376000  1.0
  C  C54  1  0.07804000  0.07720000  0.32557000  1.0
  C  C55  1  0.92195000  0.92280000  0.67442000  1.0
  S  S56  1  0.28483000  0.75378000  0.90393000  1.0
  S  S57  1  0.71517000  0.24621000  0.09607000  1.0
  S  S58  1  0.43023000  0.68941000  0.46146000  1.0
  S  S59  1  0.56977000  0.31059000  0.53854000  1.0
  O  O60  1  0.64702000  0.19068000  0.82875000  1.0
  O  O61  1  0.35298000  0.80932000  0.17125000  1.0
  O  O62  1  0.43014000  0.34180000  0.86519000  1.0
  O  O63  1  0.56986000  0.65820000  0.13482000  1.0
  O  O64  1  0.23195000  0.67331000  0.01246000  1.0
  O  O65  1  0.76804000  0.32669000  0.98754000  1.0
  O  O66  1  0.17201000  0.71484000  0.82328000  1.0
  O  O67  1  0.82799000  0.28516000  0.17672000  1.0
  O  O68  1  0.49984000  0.75870000  0.85458000  1.0
  O  O69  1  0.50016000  0.24130000  0.14542000  1.0
  O  O70  1  0.05785000  0.20070000  0.31548000  1.0
  O  O71  1  0.94215000  0.79930000  0.68452000  1.0
  O  O72  1  0.98250000  0.00592000  0.28335000  1.0
  O  O73  1  0.01751000  0.99408000  0.71664000  1.0
  O  O74  1  0.31063000  0.64849000  0.38587000  1.0
  O  O75  1  0.68937000  0.35151000  0.61413000  1.0
  O  O76  1  0.35154000  0.63566000  0.58093000  1.0
  O  O77  1  0.64846000  0.36434000  0.41907000  1.0
  O  O78  1  0.64174000  0.66753000  0.42359000  1.0
  O  O79  1  0.35826000  0.33247000  0.57641000  1.0
  O  O80  1  0.90383000  0.54002000  0.16499000  1.0
  O  O81  1  0.09617000  0.45998000  0.83501000  1.0
  O  O82  1  0.26521000  0.42979000  0.09245000  1.0
  O  O83  1  0.73479000  0.57021000  0.90755000  1.0
  O  O84  1  0.99932000  0.48833000  0.37954000  1.0
  O  O85  1  0.00068000  0.51167000  0.62046000  1.0
  O  O86  1  0.39452000  0.42916000  0.28679000  1.0
  O  O87  1  0.60549000  0.57085000  0.71321000  1.0
  O  O88  1  0.96769000  0.75153000  0.27044000  1.0
  O  O89  1  0.03231000  0.24847000  0.72957000  1.0
