# generated using pymatgen
data_Zn2H21C22I2N5O8
_symmetry_space_group_name_H-M   'P 1'
_cell_length_a   10.19330000
_cell_length_b   11.24840000
_cell_length_c   16.04730000
_cell_angle_alpha   86.95570000
_cell_angle_beta   81.56970000
_cell_angle_gamma   83.12770000
_symmetry_Int_Tables_number   1
_chemical_formula_structural   Zn2H21C22I2N5O8
_chemical_formula_sum   'Zn2 H21 C22 I2 N5 O8'
_cell_volume   1805.81356157
_cell_formula_units_Z   1
loop_
 _symmetry_equiv_pos_site_id
 _symmetry_equiv_pos_as_xyz
  1  'x, y, z'
loop_
 _atom_site_type_symbol
 _atom_site_label
 _atom_site_symmetry_multiplicity
 _atom_site_fract_x
 _atom_site_fract_y
 _atom_site_fract_z
 _atom_site_occupancy
  Zn  Zn0  1  0.63957000  0.51400000  0.48849000  1.0
  Zn  Zn1  1  0.36928000  0.49292000  0.50835000  1.0
  H  H2  1  0.59877000  0.63601000  0.90305000  1.0
  H  H3  1  0.70721000  0.50485000  0.04670000  1.0
  H  H4  1  0.70331000  0.50041000  0.90026000  1.0
  H  H5  1  0.40471000  0.11703000  0.50093000  1.0
  H  H6  1  0.62433000  0.89597000  0.49035000  1.0
  H  H7  1  0.70858000  0.10563000  0.49436000  1.0
  H  H8  1  0.92172000  0.41386000  0.53715000  1.0
  H  H9  1  0.85378000  0.62798000  0.43381000  1.0
  H  H10  1  0.61116000  0.64584000  0.04699000  1.0
  H  H11  1  0.13816000  0.40458000  0.55549000  1.0
  H  H12  1  0.36680000  0.66161000  0.07067000  1.0
  H  H13  1  0.34701000  0.64170000  0.92928000  1.0
  H  H14  1  0.27672000  0.50495000  0.95275000  1.0
  H  H15  1  0.59515000  0.31540000  0.07451000  1.0
  H  H16  1  0.41827000  0.32367000  0.09302000  1.0
  H  H17  1  0.39028000  0.27297000  0.88746000  1.0
  H  H18  1  0.37553000  0.22085000  0.98662000  1.0
  H  H19  1  0.22719000  0.84634000  0.52808000  1.0
  H  H20  1  0.25527000  0.99524000  0.52940000  1.0
  H  H21  1  0.70728000  0.31662000  0.92537000  1.0
  H  H22  1  0.62847000  0.19686000  0.94164000  1.0
  C  C23  1  0.45273000  0.73789000  0.50032000  1.0
  C  C24  1  0.61035000  0.54606000  0.93312000  1.0
  C  C25  1  0.49014000  0.48180000  0.91829000  1.0
  C  C26  1  0.50146000  0.35161000  0.95997000  1.0
  C  C27  1  0.50287000  0.36369000  0.05635000  1.0
  C  C28  1  0.48375000  0.47884000  0.82858000  1.0
  C  C29  1  0.50350000  0.50180000  0.17004000  1.0
  C  C30  1  0.51350000  0.50589000  0.24434000  1.0
  C  C31  1  0.42176000  0.87212000  0.50291000  1.0
  C  C32  1  0.52376000  0.94295000  0.49670000  1.0
  C  C33  1  0.60412000  0.14231000  0.49667000  1.0
  C  C34  1  0.51474000  0.50909000  0.33429000  1.0
  C  C35  1  0.50567000  0.07010000  0.49853000  1.0
  C  C36  1  0.07383000  0.52747000  0.47777000  1.0
  C  C37  1  0.93499000  0.49496000  0.49697000  1.0
  C  C38  1  0.57547000  0.27326000  0.49766000  1.0
  C  C39  1  0.47646000  0.49273000  0.66320000  1.0
  C  C40  1  0.61481000  0.55276000  0.02836000  1.0
  C  C41  1  0.36775000  0.56777000  0.05533000  1.0
  C  C42  1  0.36043000  0.55331000  0.96144000  1.0
  C  C43  1  0.47777000  0.48420000  0.75335000  1.0
  C  C44  1  0.49547000  0.49567000  0.08081000  1.0
  I  I45  1  0.10449000  0.66892000  0.38983000  1.0
  I  I46  1  0.18541000  0.52076000  0.13428000  1.0
  N  N47  1  0.16860000  0.47173000  0.51366000  1.0
  N  N48  1  0.83283000  0.55327000  0.47152000  1.0
  N  N49  1  0.38362000  0.29617000  0.94880000  1.0
  N  N50  1  0.28833000  0.91101000  0.51097000  1.0
  N  N51  1  0.62199000  0.28248000  0.91661000  1.0
  O  O52  1  0.57348000  0.69486000  0.48067000  1.0
  O  O53  1  0.35282000  0.67791000  0.51841000  1.0
  O  O54  1  0.62697000  0.50606000  0.36032000  1.0
  O  O55  1  0.40041000  0.51475000  0.37948000  1.0
  O  O56  1  0.67519000  0.33322000  0.49797000  1.0
  O  O57  1  0.45430000  0.31993000  0.49775000  1.0
  O  O58  1  0.58387000  0.51861000  0.61831000  1.0
  O  O59  1  0.36872000  0.47467000  0.63666000  1.0
