# generated using pymatgen
data_Zn3H28C42(NO7)2
_symmetry_space_group_name_H-M   'P 1'
_cell_length_a   10.17220000
_cell_length_b   10.58460000
_cell_length_c   10.60140000
_cell_angle_alpha   95.46690000
_cell_angle_beta   111.71100000
_cell_angle_gamma   111.06000000
_symmetry_Int_Tables_number   1
_chemical_formula_structural   Zn3H28C42(NO7)2
_chemical_formula_sum   'Zn3 H28 C42 N2 O14'
_cell_volume   954.73745936
_cell_formula_units_Z   1
loop_
 _symmetry_equiv_pos_site_id
 _symmetry_equiv_pos_as_xyz
  1  'x, y, z'
loop_
 _atom_site_type_symbol
 _atom_site_label
 _atom_site_symmetry_multiplicity
 _atom_site_fract_x
 _atom_site_fract_y
 _atom_site_fract_z
 _atom_site_occupancy
  Zn  Zn0  1  0.00000000  0.50000000  0.00000000  1.0
  Zn  Zn1  1  0.60709000  0.24980000  0.93247000  1.0
  Zn  Zn2  1  0.39291000  0.75020000  0.06754000  1.0
  H  H3  1  0.70973000  0.87234000  0.87082000  1.0
  H  H4  1  0.29026000  0.12765000  0.12918000  1.0
  H  H5  1  0.36662000  0.39379000  0.64311000  1.0
  H  H6  1  0.63338000  0.60621000  0.35689000  1.0
  H  H7  1  0.35875000  0.94914000  0.81053000  1.0
  H  H8  1  0.64125000  0.05086000  0.18947000  1.0
  H  H9  1  0.58298000  0.81240000  0.45581000  1.0
  H  H10  1  0.41702000  0.18760000  0.54419000  1.0
  H  H11  1  0.69647000  0.23526000  0.65793000  1.0
  H  H12  1  0.30353000  0.76474000  0.34207000  1.0
  H  H13  1  0.09759000  0.66689000  0.37146000  1.0
  H  H14  1  0.90241000  0.33311000  0.62854000  1.0
  H  H15  1  0.78786000  0.57974000  0.59120000  1.0
  H  H16  1  0.21214000  0.42026000  0.40880000  1.0
  H  H17  1  0.75258000  0.28328000  0.36782000  1.0
  H  H18  1  0.24743000  0.71673000  0.63219000  1.0
  H  H19  1  0.06855000  0.83283000  0.67149000  1.0
  H  H20  1  0.93146000  0.16717000  0.32851000  1.0
  H  H21  1  0.83935000  0.92081000  0.50478000  1.0
  H  H22  1  0.16065000  0.07919000  0.49521000  1.0
  H  H23  1  0.81585000  0.87412000  0.65474000  1.0
  H  H24  1  0.18415000  0.12587000  0.34526000  1.0
  H  H25  1  0.35881000  0.34072000  0.88835000  1.0
  H  H26  1  0.64119000  0.65928000  0.11165000  1.0
  H  H27  1  0.12373000  0.26097000  0.07439000  1.0
  H  H28  1  0.87627000  0.73903000  0.92561000  1.0
  H  H29  1  0.06965000  0.24139000  0.75810000  1.0
  H  H30  1  0.93035000  0.75861000  0.24190000  1.0
  C  C31  1  0.58697000  0.48587000  0.63181000  1.0
  C  C32  1  0.41303000  0.51414000  0.36819000  1.0
  C  C33  1  0.81073000  0.15345000  0.94001000  1.0
  C  C34  1  0.18927000  0.84656000  0.05999000  1.0
  C  C35  1  0.90803000  0.07393000  0.96895000  1.0
  C  C36  1  0.09196000  0.92607000  0.03105000  1.0
  C  C37  1  0.83690000  0.92690000  0.92680000  1.0
  C  C38  1  0.16310000  0.07311000  0.07319000  1.0
  C  C39  1  0.42430000  0.44027000  0.57965000  1.0
  C  C40  1  0.57571000  0.55974000  0.42035000  1.0
  C  C41  1  0.28960000  0.00950000  0.79448000  1.0
  C  C42  1  0.71040000  0.99050000  0.20552000  1.0
  C  C43  1  0.54826000  0.89521000  0.47606000  1.0
  C  C44  1  0.45174000  0.10479000  0.52395000  1.0
  C  C45  1  0.65806000  0.02875000  0.56359000  1.0
  C  C46  1  0.34194000  0.97125000  0.43641000  1.0
  C  C47  1  0.04485000  0.02856000  0.70039000  1.0
  C  C48  1  0.95515000  0.97143000  0.29960000  1.0
  C  C49  1  0.60949000  0.13275000  0.58747000  1.0
  C  C50  1  0.39051000  0.86725000  0.41254000  1.0
  C  C51  1  0.05562000  0.59490000  0.42891000  1.0
  C  C52  1  0.94439000  0.40511000  0.57109000  1.0
  C  C53  1  0.66201000  0.54616000  0.55095000  1.0
  C  C54  1  0.33800000  0.45384000  0.44905000  1.0
  C  C55  1  0.86151000  0.37749000  0.42629000  1.0
  C  C56  1  0.13850000  0.62251000  0.57371000  1.0
  C  C57  1  0.12793000  0.94598000  0.71749000  1.0
  C  C58  1  0.87207000  0.05401000  0.28251000  1.0
  C  C59  1  0.87039000  0.96301000  0.61654000  1.0
  C  C60  1  0.12961000  0.03698000  0.38345000  1.0
  C  C61  1  0.91711000  0.47218000  0.35409000  1.0
  C  C62  1  0.08290000  0.52783000  0.64592000  1.0
  C  C63  1  0.28978000  0.22856000  0.83852000  1.0
  C  C64  1  0.71022000  0.77144000  0.16148000  1.0
  C  C65  1  0.07132000  0.14677000  0.04227000  1.0
  C  C66  1  0.92868000  0.85323000  0.95773000  1.0
  C  C67  1  0.67718000  0.46131000  0.76863000  1.0
  C  C68  1  0.32283000  0.53869000  0.23137000  1.0
  C  C69  1  0.83409000  0.44015000  0.19709000  1.0
  C  C70  1  0.16591000  0.55986000  0.80292000  1.0
  C  C71  1  0.12845000  0.17283000  0.76378000  1.0
  C  C72  1  0.87155000  0.82716000  0.23622000  1.0
  N  N73  1  0.36957000  0.14902000  0.85316000  1.0
  N  N74  1  0.63043000  0.85098000  0.14684000  1.0
  O  O75  1  0.59166000  0.38593000  0.82076000  1.0
  O  O76  1  0.40834000  0.61407000  0.17924000  1.0
  O  O77  1  0.66488000  0.08789000  0.90988000  1.0
  O  O78  1  0.33512000  0.91211000  0.09012000  1.0
  O  O79  1  0.82485000  0.51222000  0.81863000  1.0
  O  O80  1  0.17515000  0.48778000  0.18137000  1.0
  O  O81  1  0.87143000  0.28339000  0.94813000  1.0
  O  O82  1  0.12857000  0.71661000  0.05187000  1.0
  O  O83  1  0.81639000  0.06750000  0.63066000  1.0
  O  O84  1  0.18361000  0.93250000  0.36934000  1.0
  O  O85  1  0.70649000  0.32642000  0.13731000  1.0
  O  O86  1  0.29350000  0.67358000  0.86269000  1.0
  O  O87  1  0.89253000  0.52352000  0.13438000  1.0
  O  O88  1  0.10748000  0.47648000  0.86562000  1.0
