# generated using pymatgen
data_Zn4H6C24S4N2O13F4
_symmetry_space_group_name_H-M   'P 1'
_cell_length_a   19.68000000
_cell_length_b   19.75070000
_cell_length_c   33.39110000
_cell_angle_alpha   78.89720000
_cell_angle_beta   79.10120000
_cell_angle_gamma   63.89150000
_symmetry_Int_Tables_number   1
_chemical_formula_structural   Zn4H6C24S4N2O13F4
_chemical_formula_sum   'Zn16 H24 C96 S16 N8 O52 F16'
_cell_volume   11355.99237849
_cell_formula_units_Z   4
loop_
 _symmetry_equiv_pos_site_id
 _symmetry_equiv_pos_as_xyz
  1  'x, y, z'
loop_
 _atom_site_type_symbol
 _atom_site_label
 _atom_site_symmetry_multiplicity
 _atom_site_fract_x
 _atom_site_fract_y
 _atom_site_fract_z
 _atom_site_occupancy
  Zn  Zn0  1  0.05385000  0.40107000  0.47758000  1.0
  Zn  Zn1  1  0.98574000  0.48403000  0.56073000  1.0
  Zn  Zn2  1  0.05939000  0.55990000  0.48300000  1.0
  Zn  Zn3  1  0.90149000  0.55385000  0.47929000  1.0
  Zn  Zn4  1  0.69568000  0.34860000  0.27260000  1.0
  Zn  Zn5  1  0.68968000  0.18895000  0.26547000  1.0
  Zn  Zn6  1  0.76699000  0.26674000  0.19023000  1.0
  Zn  Zn7  1  0.84722000  0.19530000  0.27195000  1.0
  Zn  Zn8  1  0.26513000  0.76508000  0.68936000  1.0
  Zn  Zn9  1  0.34918000  0.69769000  0.77215000  1.0
  Zn  Zn10  1  0.19450000  0.84823000  0.77112000  1.0
  Zn  Zn11  1  0.19147000  0.68918000  0.76708000  1.0
  Zn  Zn12  1  0.55947000  0.06178000  0.98454000  1.0
  Zn  Zn13  1  0.40169000  0.05311000  0.97673000  1.0
  Zn  Zn14  1  0.55589000  0.90233000  0.97861000  1.0
  Zn  Zn15  1  0.48183000  0.98440000  0.05970000  1.0
  H  H16  1  0.75060000  0.44917000  0.34796000  1.0
  H  H17  1  0.00039000  0.30308000  0.40031000  1.0
  H  H18  1  0.19908000  0.70185000  0.60196000  1.0
  H  H19  1  0.04772000  0.55136000  0.64809000  1.0
  H  H20  1  0.64975000  0.14665000  0.04939000  1.0
  H  H21  1  0.60432000  0.09927000  0.20057000  1.0
  H  H22  1  0.30238000  0.99804000  0.90213000  1.0
  H  H23  1  0.44638000  0.74959000  0.84968000  1.0
  H  H24  1  0.79151000  0.54071000  0.41844000  1.0
  H  H25  1  0.72460000  0.54433000  0.38974000  1.0
  H  H26  1  0.95567000  0.20742000  0.33388000  1.0
  H  H27  1  0.01910000  0.20078000  0.36585000  1.0
  H  H28  1  0.14817000  0.64329000  0.52007000  1.0
  H  H29  1  0.19950000  0.68680000  0.53305000  1.0
  H  H30  1  0.10644000  0.60215000  0.73004000  1.0
  H  H31  1  0.06208000  0.55149000  0.71710000  1.0
  H  H32  1  0.72707000  0.23233000  0.10445000  1.0
  H  H33  1  0.71048000  0.22327000  0.05689000  1.0
  H  H34  1  0.51771000  0.02276000  0.14548000  1.0
  H  H35  1  0.52748000  0.03859000  0.19312000  1.0
  H  H36  1  0.20881000  0.95939000  0.83162000  1.0
  H  H37  1  0.20646000  0.02550000  0.86016000  1.0
  H  H38  1  0.54419000  0.79278000  0.91583000  1.0
  H  H39  1  0.55014000  0.73009000  0.88388000  1.0
  C  C40  1  0.06184000  0.31689000  0.56141000  1.0
  C  C41  1  0.07107000  0.57175000  0.56827000  1.0
  C  C42  1  0.18325000  0.43908000  0.43859000  1.0
  C  C43  1  0.93697000  0.68312000  0.43880000  1.0
  C  C44  1  0.92805000  0.43229000  0.43018000  1.0
  C  C45  1  0.81765000  0.56026000  0.56245000  1.0
  C  C46  1  0.56673000  0.30996000  0.31101000  1.0
  C  C47  1  0.68260000  0.18048000  0.17882000  1.0
  C  C48  1  0.68911000  0.43330000  0.18866000  1.0
  C  C49  1  0.93405000  0.18853000  0.18944000  1.0
  C  C50  1  0.82157000  0.31842000  0.31957000  1.0
  C  C51  1  0.81090000  0.06644000  0.31142000  1.0
  C  C52  1  0.43268000  0.68988000  0.68836000  1.0
  C  C53  1  0.31660000  0.82309000  0.81977000  1.0
  C  C54  1  0.18823000  0.93267000  0.68797000  1.0
  C  C55  1  0.06645000  0.80987000  0.81118000  1.0
  C  C56  1  0.17861000  0.67852000  0.68179000  1.0
  C  C57  1  0.31424000  0.56694000  0.81147000  1.0
  C  C58  1  0.43785000  0.18324000  0.93852000  1.0
  C  C59  1  0.43386000  0.92643000  0.93022000  1.0
  C  C60  1  0.68374000  0.94126000  0.93929000  1.0
  C  C61  1  0.56065000  0.81743000  0.06188000  1.0
  C  C62  1  0.56815000  0.06877000  0.07114000  1.0
  C  C63  1  0.31508000  0.06155000  0.05981000  1.0
  C  C64  1  0.89908000  0.40616000  0.40117000  1.0
  C  C65  1  0.85182000  0.34601000  0.34720000  1.0
  C  C66  1  0.82674000  0.45046000  0.38616000  1.0
  C  C67  1  0.92500000  0.30253000  0.36137000  1.0
  C  C68  1  0.80560000  0.41775000  0.35977000  1.0
  C  C69  1  0.94548000  0.33462000  0.38841000  1.0
  C  C70  1  0.09841000  0.60177000  0.59614000  1.0
  C  C71  1  0.14849000  0.65133000  0.65391000  1.0
  C  C72  1  0.14129000  0.64613000  0.58169000  1.0
  C  C73  1  0.10388000  0.60871000  0.66837000  1.0
  C  C74  1  0.16549000  0.66871000  0.61160000  1.0
  C  C75  1  0.08106000  0.58474000  0.63846000  1.0
  C  C76  1  0.30455000  0.45219000  0.40056000  1.0
  C  C77  1  0.44570000  0.29640000  0.34937000  1.0
  C  C78  1  0.25817000  0.41394000  0.41389000  1.0
  C  C79  1  0.49198000  0.33475000  0.33593000  1.0
  C  C80  1  0.37726000  0.33862000  0.37296000  1.0
  C  C81  1  0.37302000  0.40994000  0.37702000  1.0
  C  C82  1  0.72519000  0.57607000  0.62964000  1.0
  C  C83  1  0.52522000  0.67323000  0.62123000  1.0
  C  C84  1  0.74288000  0.58489000  0.58728000  1.0
  C  C85  1  0.50756000  0.66456000  0.66360000  1.0
  C  C86  1  0.60435000  0.64110000  0.60850000  1.0
  C  C87  1  0.64605000  0.60793000  0.64238000  1.0
  C  C88  1  0.07750000  0.22436000  0.62860000  1.0
  C  C89  1  0.17361000  0.02492000  0.62069000  1.0
  C  C90  1  0.08673000  0.24209000  0.58623000  1.0
  C  C91  1  0.16413000  0.00732000  0.66306000  1.0
  C  C92  1  0.14226000  0.10387000  0.60775000  1.0
  C  C93  1  0.10895000  0.14542000  0.64148000  1.0
  C  C94  1  0.84375000  0.80107000  0.39750000  1.0
  C  C95  1  0.90378000  0.94866000  0.35293000  1.0
  C  C96  1  0.91204000  0.75779000  0.41392000  1.0
  C  C97  1  0.83553000  0.99183000  0.33640000  1.0
  C  C98  1  0.90756000  0.87888000  0.37512000  1.0
  C  C99  1  0.84020000  0.87060000  0.37507000  1.0
  C  C100  1  0.65595000  0.15155000  0.15004000  1.0
  C  C101  1  0.59778000  0.09468000  0.09991000  1.0
  C  C102  1  0.67093000  0.16559000  0.10634000  1.0
  C  C103  1  0.58434000  0.07911000  0.14361000  1.0
  C  C104  1  0.64033000  0.13664000  0.08281000  1.0
  C  C105  1  0.61389000  0.10911000  0.16714000  1.0
  C  C106  1  0.67336000  0.52572000  0.12144000  1.0
  C  C107  1  0.57577000  0.72513000  0.12915000  1.0
  C  C108  1  0.66384000  0.50810000  0.16382000  1.0
  C  C109  1  0.58546000  0.74274000  0.08678000  1.0
  C  C110  1  0.60769000  0.64623000  0.14214000  1.0
  C  C111  1  0.64164000  0.60462000  0.10845000  1.0
  C  C112  1  0.08085000  0.12443000  0.17672000  1.0
  C  C113  1  0.16822000  0.12622000  0.07251000  1.0
  C  C114  1  0.00852000  0.16379000  0.16437000  1.0
  C  C115  1  0.24054000  0.08685000  0.08484000  1.0
  C  C116  1  0.10956000  0.14044000  0.10573000  1.0
  C  C117  1  0.13950000  0.11059000  0.14351000  1.0
  C  C118  1  0.34344000  0.85111000  0.84891000  1.0
  C  C119  1  0.40543000  0.89666000  0.90276000  1.0
  C  C120  1  0.29972000  0.92301000  0.86397000  1.0
  C  C121  1  0.44825000  0.82386000  0.88861000  1.0
  C  C122  1  0.33333333  0.94333000  0.89033000  1.0
  C  C123  1  0.41533000  0.80417000  0.86162000  1.0
  C  C124  1  0.40714000  0.44832000  0.85279000  1.0
  C  C125  1  0.34548000  0.30162000  0.89691000  1.0
  C  C126  1  0.33918000  0.49200000  0.83612000  1.0
  C  C127  1  0.41341000  0.25798000  0.91364000  1.0
  C  C128  1  0.34261000  0.37104000  0.87461000  1.0
  C  C129  1  0.41015000  0.37875000  0.87497000  1.0
  C  C130  1  0.94516000  0.79723000  0.84980000  1.0
  C  C131  1  0.80467000  0.95436000  0.90030000  1.0
  C  C132  1  0.99167000  0.83522000  0.83598000  1.0
  C  C133  1  0.75819000  0.91637000  0.91413000  1.0
  C  C134  1  0.87292000  0.91155000  0.87676000  1.0
  C  C135  1  0.87679000  0.84015000  0.87319000  1.0
  S  S136  1  0.29863000  0.32425000  0.39751000  1.0
  S  S137  1  0.45151000  0.42440000  0.35235000  1.0
  S  S138  1  0.66141000  0.63301000  0.56215000  1.0
  S  S139  1  0.58900000  0.61619000  0.68873000  1.0
  S  S140  1  0.13487000  0.16094000  0.56131000  1.0
  S  S141  1  0.11615000  0.08851000  0.68794000  1.0
  S  S142  1  0.97366000  0.80259000  0.40194000  1.0
  S  S143  1  0.77421000  0.94674000  0.34811000  1.0
  S  S144  1  0.61506000  0.58933000  0.18862000  1.0
  S  S145  1  0.63457000  0.66152000  0.06197000  1.0
  S  S146  1  0.01157000  0.18464000  0.11110000  1.0
  S  S147  1  0.23748000  0.06649000  0.13813000  1.0
  S  S148  1  0.27719000  0.44762000  0.84758000  1.0
  S  S149  1  0.47547000  0.30227000  0.90213000  1.0
  S  S150  1  0.95155000  0.92539000  0.85173000  1.0
  S  S151  1  0.79812000  0.82637000  0.89819000  1.0
  N  N152  1  0.77947000  0.52284000  0.39526000  1.0
  N  N153  1  0.97571000  0.23351000  0.34894000  1.0
  N  N154  1  0.15732000  0.66890000  0.54078000  1.0
  N  N155  1  0.08113000  0.59271000  0.70924000  1.0
  N  N156  1  0.71499000  0.20326000  0.08697000  1.0
  N  N157  1  0.54666000  0.03514000  0.16295000  1.0
  N  N158  1  0.22709000  0.97082000  0.85487000  1.0
  N  N159  1  0.51759000  0.77277000  0.90107000  1.0
  O  O160  1  0.00060000  0.49880000  0.50020000  1.0
  O  O161  1  0.07757000  0.31596000  0.52243000  1.0
  O  O162  1  0.03408000  0.53182000  0.58456000  1.0
  O  O163  1  0.15624000  0.50472000  0.45025000  1.0
  O  O164  1  0.02738000  0.37486000  0.58071000  1.0
  O  O165  1  0.15243000  0.39211000  0.44595000  1.0
  O  O166  1  0.08619000  0.58722000  0.52921000  1.0
  O  O167  1  0.00451000  0.65573000  0.44897000  1.0
  O  O168  1  0.88520000  0.49750000  0.44266000  1.0
  O  O169  1  0.88990000  0.65272000  0.44794000  1.0
  O  O170  1  0.99394000  0.38863000  0.44139000  1.0
  O  O171  1  0.87642000  0.52713000  0.58148000  1.0
  O  O172  1  0.81590000  0.57508000  0.52346000  1.0
  O  O173  1  0.74879000  0.25057000  0.25028000  1.0
  O  O174  1  0.59680000  0.35760000  0.30351000  1.0
  O  O175  1  0.66603000  0.16453000  0.21739000  1.0
  O  O176  1  0.72391000  0.37542000  0.16925000  1.0
  O  O177  1  0.59417000  0.24432000  0.29936000  1.0
  O  O178  1  0.67348000  0.43388000  0.22764000  1.0
  O  O179  1  0.72076000  0.22024000  0.16350000  1.0
  O  O180  1  0.87619000  0.22544000  0.16947000  1.0
  O  O181  1  0.86359000  0.25230000  0.30806000  1.0
  O  O182  1  0.93360000  0.17128000  0.22824000  1.0
  O  O183  1  0.75527000  0.36162000  0.30873000  1.0
  O  O184  1  0.74523000  0.09236000  0.29908000  1.0
  O  O185  1  0.85680000  0.09813000  0.30440000  1.0
  O  O186  1  0.25049000  0.75003000  0.74990000  1.0
  O  O187  1  0.37434000  0.72418000  0.66901000  1.0
  O  O188  1  0.36082000  0.75819000  0.80796000  1.0
  O  O189  1  0.17263000  0.93409000  0.72694000  1.0
  O  O190  1  0.43394000  0.67457000  0.72736000  1.0
  O  O191  1  0.22173000  0.87432000  0.66895000  1.0
  O  O192  1  0.25049000  0.86556000  0.80782000  1.0
  O  O193  1  0.09563000  0.85829000  0.80229000  1.0
  O  O194  1  0.16387000  0.66267000  0.72085000  1.0
  O  O195  1  0.09518000  0.74304000  0.80092000  1.0
  O  O196  1  0.21794000  0.71616000  0.66553000  1.0
  O  O197  1  0.35962000  0.59923000  0.80406000  1.0
  O  O198  1  0.24796000  0.59255000  0.79984000  1.0
  O  O199  1  0.49980000  0.00070000  0.99965000  1.0
  O  O200  1  0.50400000  0.15714000  0.95034000  1.0
  O  O201  1  0.39079000  0.99256000  0.94073000  1.0
  O  O202  1  0.65375000  0.89352000  0.94679000  1.0
  O  O203  1  0.39171000  0.15181000  0.94593000  1.0
  O  O204  1  0.65629000  0.00664000  0.95123000  1.0
  O  O205  1  0.50029000  0.88442000  0.94189000  1.0
  O  O206  1  0.57934000  0.81654000  0.02302000  1.0
  O  O207  1  0.52850000  0.03047000  0.08645000  1.0
  O  O208  1  0.52319000  0.87557000  0.08088000  1.0
  O  O209  1  0.58332000  0.08610000  0.03257000  1.0
  O  O210  1  0.31581000  0.07498000  0.02091000  1.0
  O  O211  1  0.37272000  0.02778000  0.08014000  1.0
  F  F212  1  0.28766000  0.52230000  0.40863000  1.0
  F  F213  1  0.46273000  0.22627000  0.34133000  1.0
  F  F214  1  0.77683000  0.54104000  0.65650000  1.0
  F  F215  1  0.47367000  0.70842000  0.59432000  1.0
  F  F216  1  0.04236000  0.27564000  0.65539000  1.0
  F  F217  1  0.20879000  0.97345000  0.59401000  1.0
  F  F218  1  0.78599000  0.78037000  0.40191000  1.0
  F  F219  1  0.96144000  0.96947000  0.34868000  1.0
  F  F220  1  0.70896000  0.47431000  0.09471000  1.0
  F  F221  1  0.54009000  0.77656000  0.15584000  1.0
  F  F222  1  0.09539000  0.10119000  0.21595000  1.0
  F  F223  1  0.15377000  0.14935000  0.03327000  1.0
  F  F224  1  0.46511000  0.46862000  0.84872000  1.0
  F  F225  1  0.28742000  0.28145000  0.90100000  1.0
  F  F226  1  0.96186000  0.72690000  0.84221000  1.0
  F  F227  1  0.78798000  0.02462000  0.90797000  1.0
