# generated using pymatgen
data_CdH10C12I2(N2O)2
_symmetry_space_group_name_H-M   'P 1'
_cell_length_a   7.63116000
_cell_length_b   14.71610000
_cell_length_c   18.82720000
_cell_angle_alpha   90.00240000
_cell_angle_beta   89.99770000
_cell_angle_gamma   89.99930000
_symmetry_Int_Tables_number   1
_chemical_formula_structural   CdH10C12I2(N2O)2
_chemical_formula_sum   'Cd4 H40 C48 I8 N16 O8'
_cell_volume   2114.31175824
_cell_formula_units_Z   4
loop_
 _symmetry_equiv_pos_site_id
 _symmetry_equiv_pos_as_xyz
  1  'x, y, z'
loop_
 _atom_site_type_symbol
 _atom_site_label
 _atom_site_symmetry_multiplicity
 _atom_site_fract_x
 _atom_site_fract_y
 _atom_site_fract_z
 _atom_site_occupancy
  Cd  Cd0  1  0.45343000  0.92647000  0.21411000  1.0
  Cd  Cd1  1  0.04658000  0.07353000  0.71409000  1.0
  Cd  Cd2  1  0.54656000  0.42647000  0.28591000  1.0
  Cd  Cd3  1  0.95344000  0.57354000  0.78589000  1.0
  H  H4  1  0.76536000  0.97823000  0.08721000  1.0
  H  H5  1  0.73466000  0.02176000  0.58720000  1.0
  H  H6  1  0.23464000  0.47826000  0.41280000  1.0
  H  H7  1  0.26535000  0.52178000  0.91279000  1.0
  H  H8  1  0.56491000  0.97851000  0.07371000  1.0
  H  H9  1  0.93510000  0.02146000  0.57369000  1.0
  H  H10  1  0.43509000  0.47855000  0.42631000  1.0
  H  H11  1  0.06490000  0.52150000  0.92630000  1.0
  H  H12  1  0.12043000  0.85983000  0.11467000  1.0
  H  H13  1  0.37957000  0.14014000  0.61463000  1.0
  H  H14  1  0.87953000  0.35985000  0.38535000  1.0
  H  H15  1  0.62042000  0.64017000  0.88534000  1.0
  H  H16  1  0.00279000  0.72346000  0.04932000  1.0
  H  H17  1  0.49723000  0.27650000  0.54929000  1.0
  H  H18  1  0.99717000  0.22349000  0.45071000  1.0
  H  H19  1  0.50277000  0.77654000  0.95069000  1.0
  H  H20  1  0.18196000  0.58045000  0.04753000  1.0
  H  H21  1  0.31809000  0.41953000  0.54752000  1.0
  H  H22  1  0.81804000  0.08046000  0.45248000  1.0
  H  H23  1  0.68192000  0.91956000  0.95247000  1.0
  H  H24  1  0.47158000  0.57825000  0.11119000  1.0
  H  H25  1  0.02846000  0.42174000  0.61118000  1.0
  H  H26  1  0.52843000  0.07825000  0.38881000  1.0
  H  H27  1  0.97155000  0.92176000  0.88881000  1.0
  H  H28  1  0.91398000  0.51202000  0.18017000  1.0
  H  H29  1  0.58604000  0.48797000  0.68015000  1.0
  H  H30  1  0.08599000  0.01203000  0.31986000  1.0
  H  H31  1  0.41398000  0.98800000  0.81982000  1.0
  H  H32  1  0.17858000  0.42043000  0.20748000  1.0
  H  H33  1  0.32143000  0.57956000  0.70747000  1.0
  H  H34  1  0.82139000  0.92044000  0.29254000  1.0
  H  H35  1  0.67858000  0.07957000  0.79250000  1.0
  H  H36  1  0.40061000  0.62934000  0.32544000  1.0
  H  H37  1  0.09937000  0.37066000  0.82542000  1.0
  H  H38  1  0.59939000  0.12934000  0.17458000  1.0
  H  H39  1  0.90064000  0.87064000  0.67457000  1.0
  H  H40  1  0.14649000  0.73214000  0.30202000  1.0
  H  H41  1  0.35350000  0.26786000  0.80200000  1.0
  H  H42  1  0.85349000  0.23214000  0.19800000  1.0
  H  H43  1  0.64652000  0.76785000  0.69800000  1.0
  C  C44  1  0.19293000  0.79591000  0.11241000  1.0
  C  C45  1  0.30708000  0.20407000  0.61239000  1.0
  C  C46  1  0.80705000  0.29592000  0.38761000  1.0
  C  C47  1  0.69291000  0.70410000  0.88759000  1.0
  C  C48  1  0.12894000  0.71993000  0.07632000  1.0
  C  C49  1  0.37108000  0.28004000  0.57630000  1.0
  C  C50  1  0.87104000  0.21996000  0.42370000  1.0
  C  C51  1  0.62891000  0.78007000  0.92369000  1.0
  C  C52  1  0.22809000  0.64031000  0.07581000  1.0
  C  C53  1  0.27194000  0.35966000  0.57580000  1.0
  C  C54  1  0.77189000  0.14033000  0.42419000  1.0
  C  C55  1  0.72806000  0.85970000  0.92419000  1.0
  C  C56  1  0.39005000  0.63930000  0.11008000  1.0
  C  C57  1  0.10999000  0.36068000  0.61007000  1.0
  C  C58  1  0.60995000  0.13931000  0.38992000  1.0
  C  C59  1  0.89002000  0.86070000  0.88992000  1.0
  C  C60  1  0.44471000  0.71883000  0.14410000  1.0
  C  C61  1  0.05532000  0.28116000  0.64409000  1.0
  C  C62  1  0.55529000  0.21884000  0.35591000  1.0
  C  C63  1  0.94470000  0.78117000  0.85589000  1.0
  C  C64  1  0.61145000  0.72535000  0.18072000  1.0
  C  C65  1  0.88857000  0.27463000  0.68071000  1.0
  C  C66  1  0.38854000  0.22536000  0.31929000  1.0
  C  C67  1  0.11145000  0.77465000  0.81927000  1.0
  C  C68  1  0.86064000  0.68764000  0.22369000  1.0
  C  C69  1  0.63937000  0.31236000  0.72367000  1.0
  C  C70  1  0.13935000  0.18763000  0.27633000  1.0
  C  C71  1  0.36064000  0.81237000  0.77632000  1.0
  C  C72  1  0.01002000  0.63009000  0.23869000  1.0
  C  C73  1  0.49000000  0.36991000  0.73868000  1.0
  C  C74  1  0.98997000  0.13009000  0.26133000  1.0
  C  C75  1  0.51002000  0.86992000  0.76132000  1.0
  C  C76  1  0.01954000  0.54149000  0.21179000  1.0
  C  C77  1  0.48047000  0.45850000  0.71178000  1.0
  C  C78  1  0.98043000  0.04150000  0.28823000  1.0
  C  C79  1  0.51955000  0.95852000  0.78820000  1.0
  C  C80  1  0.16679000  0.48973000  0.22729000  1.0
  C  C81  1  0.33322000  0.51026000  0.72728000  1.0
  C  C82  1  0.83320000  0.98974000  0.27273000  1.0
  C  C83  1  0.66679000  0.01027000  0.77270000  1.0
  C  C84  1  0.28973000  0.60660000  0.29323000  1.0
  C  C85  1  0.21027000  0.39341000  0.79322000  1.0
  C  C86  1  0.71025000  0.10659000  0.20678000  1.0
  C  C87  1  0.78975000  0.89339000  0.70677000  1.0
  C  C88  1  0.14823000  0.66350000  0.28020000  1.0
  C  C89  1  0.35177000  0.33650000  0.78019000  1.0
  C  C90  1  0.85176000  0.16350000  0.21982000  1.0
  C  C91  1  0.64826000  0.83649000  0.71981000  1.0
  I  I92  1  0.27512000  0.04512000  0.11997000  1.0
  I  I93  1  0.22489000  0.95486000  0.61995000  1.0
  I  I94  1  0.72487000  0.54513000  0.38004000  1.0
  I  I95  1  0.77514000  0.45488000  0.88004000  1.0
  I  I96  1  0.36726000  0.89117000  0.35462000  1.0
  I  I97  1  0.13273000  0.10883000  0.85460000  1.0
  I  I98  1  0.63273000  0.39115000  0.14540000  1.0
  I  I99  1  0.86730000  0.60882000  0.64538000  1.0
  N  N100  1  0.34769000  0.79571000  0.14576000  1.0
  N  N101  1  0.15232000  0.20427000  0.64574000  1.0
  N  N102  1  0.65229000  0.29572000  0.35425000  1.0
  N  N103  1  0.84767000  0.70429000  0.85424000  1.0
  N  N104  1  0.67490000  0.79694000  0.21323000  1.0
  N  N105  1  0.82511000  0.20305000  0.71321000  1.0
  N  N106  1  0.32510000  0.29695000  0.28678000  1.0
  N  N107  1  0.17491000  0.70306000  0.78677000  1.0
  N  N108  1  0.83547000  0.77301000  0.24096000  1.0
  N  N109  1  0.66454000  0.22699000  0.74094000  1.0
  N  N110  1  0.16452000  0.27300000  0.25906000  1.0
  N  N111  1  0.33547000  0.72700000  0.75905000  1.0
  N  N112  1  0.29928000  0.52126000  0.26752000  1.0
  N  N113  1  0.20074000  0.47874000  0.76751000  1.0
  N  N114  1  0.70071000  0.02127000  0.23249000  1.0
  N  N115  1  0.79929000  0.97873000  0.73247000  1.0
  O  O116  1  0.72275000  0.65346000  0.18481000  1.0
  O  O117  1  0.77726000  0.34654000  0.68480000  1.0
  O  O118  1  0.27722000  0.15346000  0.31521000  1.0
  O  O119  1  0.22274000  0.84655000  0.81519000  1.0
  O  O120  1  0.66911000  0.93883000  0.07290000  1.0
  O  O121  1  0.83091000  0.06115000  0.57288000  1.0
  O  O122  1  0.33089000  0.43887000  0.42712000  1.0
  O  O123  1  0.16910000  0.56118000  0.92711000  1.0
